MODEL 1
REMARK VINA RESULT:     -12.1      0.000      0.000
REMARK SMILES O=C(NCCCCNC(=O)[C@@]1([NH2+]C2CC2)CCC[C@@H]([NH+]2CCS(=O)(=O)CC2)C1)c1ccc(-c2c3nc(c(-c4ccc(S(=O)(=O)[O-])cc4)c4ccc([nH]4)c(-c4ccc(S(=O)(=O)[O-])cc4)c4nc(c(-c5ccc(S(=O)(=O)[O-])cc5)c5ccc2[nH]5)C=C4)C=C3)cc1
REMARK SMILES IDX 5 1 4 2 3 3 1 4 2 5 29 7 30 8 88 9 31 10 87 11 32 12 33 13
REMARK SMILES IDX 34 14 81 15 35 16 86 17 80 18 82 19 36 20 85 21 79 22 78 23
REMARK SMILES IDX 37 25 67 26 48 27 66 28 49 29 52 30 65 31 83 32 50 33 51 34
REMARK SMILES IDX 64 36 84 37 53 38 38 39 39 40 47 41 40 42 46 43 41 44 42 45
REMARK SMILES IDX 43 46 44 47 45 48 68 49 69 50 77 51 70 52 76 53 71 54 72 55
REMARK SMILES IDX 73 56 74 57 75 58 54 59 55 60 63 61 56 62 62 63 57 64 58 65
REMARK SMILES IDX 59 66 60 67 61 68 6 69 7 70 8 71 9 72 10 74 11 75 16 76
REMARK SMILES IDX 28 77 17 78 19 79 18 80 12 81 13 84 14 85 15 86 20 87 21 88
REMARK SMILES IDX 27 89 22 91 26 92 23 93 24 94 25 95
REMARK H PARENT 3 6 82 24 52 35 8 73 12 82 12 83 20 90
REMARK Flexibility Score: inf
ROOT
ATOM      1  C   UNL A   1      40.262  21.827  27.109  1.00  0.00     0.023 C 
ENDROOT
BRANCH   1   2
ATOM      2  C   UNL A   1      40.244  23.342  27.292  1.00  0.00     0.116 C 
BRANCH   2   3
ATOM      3  N   UNL A   1      40.877  24.054  26.192  1.00  0.00    -0.352 N 
ATOM      4  O   UNL A   1      41.623  25.821  25.011  1.00  0.00    -0.269 OA
ATOM      5  C   UNL A   1      41.237  25.376  26.089  1.00  0.00     0.251 C 
ATOM      6  H   UNL A   1      41.077  23.504  25.400  1.00  0.00     0.163 HD
BRANCH   5   7
ATOM      7  C   UNL A   1      41.135  26.266  27.265  1.00  0.00     0.039 A 
ATOM      8  C   UNL A   1      40.110  26.103  28.200  1.00  0.00     0.014 A 
ATOM      9  C   UNL A   1      42.086  27.275  27.434  1.00  0.00     0.014 A 
ATOM     10  C   UNL A   1      39.947  27.037  29.219  1.00  0.00     0.010 A 
ATOM     11  C   UNL A   1      41.970  28.161  28.507  1.00  0.00     0.010 A 
ATOM     12  C   UNL A   1      40.880  28.070  29.389  1.00  0.00    -0.014 A 
BRANCH  12  13
ATOM     13  C   UNL A   1      40.748  29.024  30.519  1.00  0.00     0.031 A 
ATOM     14  C   UNL A   1      41.612  28.892  31.743  1.00  0.00     0.074 A 
ATOM     15  C   UNL A   1      39.813  29.991  30.454  1.00  0.00     0.049 A 
ATOM     16  N   UNL A   1      41.565  29.569  32.862  1.00  0.00    -0.248 NA
ATOM     17  C   UNL A   1      42.655  27.856  31.710  1.00  0.00     0.031 C 
ATOM     18  C   UNL A   1      38.921  30.225  29.316  1.00  0.00     0.029 A 
ATOM     19  N   UNL A   1      39.444  30.945  31.368  1.00  0.00    -0.354 N 
ATOM     20  C   UNL A   1      42.549  29.023  33.678  1.00  0.00     0.074 A 
ATOM     21  C   UNL A   1      43.162  27.946  32.931  1.00  0.00     0.031 C 
ATOM     22  C   UNL A   1      38.113  31.256  29.597  1.00  0.00     0.029 A 
ATOM     23  C   UNL A   1      38.378  31.709  30.957  1.00  0.00     0.049 A 
ATOM     24  H   UNL A   1      39.898  31.070  32.233  1.00  0.00     0.167 HD
ATOM     25  C   UNL A   1      42.904  29.387  34.935  1.00  0.00     0.031 A 
ATOM     26  C   UNL A   1      37.658  32.640  31.612  1.00  0.00     0.031 A 
ATOM     27  C   UNL A   1      42.270  30.450  35.672  1.00  0.00     0.049 A 
ATOM     28  C   UNL A   1      38.029  32.995  33.021  1.00  0.00     0.074 A 
ATOM     29  C   UNL A   1      42.576  30.921  36.938  1.00  0.00     0.029 A 
ATOM     30  N   UNL A   1      41.190  31.197  35.220  1.00  0.00    -0.354 N 
ATOM     31  N   UNL A   1      38.986  32.495  33.766  1.00  0.00    -0.248 NA
ATOM     32  C   UNL A   1      37.233  34.039  33.679  1.00  0.00     0.031 C 
ATOM     33  C   UNL A   1      41.638  31.901  37.278  1.00  0.00     0.029 A 
ATOM     34  C   UNL A   1      40.798  32.101  36.193  1.00  0.00     0.049 A 
ATOM     35  H   UNL A   1      40.767  31.098  34.336  1.00  0.00     0.167 HD
ATOM     36  C   UNL A   1      38.928  33.185  34.971  1.00  0.00     0.074 A 
ATOM     37  C   UNL A   1      37.842  34.137  34.854  1.00  0.00     0.031 C 
ATOM     38  C   UNL A   1      39.716  33.047  36.066  1.00  0.00     0.031 A 
BRANCH  25  39
ATOM     39  C   UNL A   1      43.988  28.585  35.612  1.00  0.00    -0.014 A 
ATOM     40  C   UNL A   1      43.693  27.451  36.391  1.00  0.00     0.010 A 
ATOM     41  C   UNL A   1      45.332  28.975  35.460  1.00  0.00     0.010 A 
ATOM     42  C   UNL A   1      44.712  26.769  37.064  1.00  0.00     0.020 A 
ATOM     43  C   UNL A   1      46.358  28.275  36.103  1.00  0.00     0.020 A 
ATOM     44  C   UNL A   1      46.037  27.194  36.925  1.00  0.00     0.054 A 
BRANCH  44  45
ATOM     45  S   UNL A   1      47.335  26.317  37.840  1.00  0.00     0.124 S 
ATOM     46  O   UNL A   1      48.044  27.419  38.485  1.00  0.00    -0.237 OA
ATOM     47  O   UNL A   1      46.569  25.454  38.735  1.00  0.00    -0.237 OA
ATOM     48  O   UNL A   1      48.084  25.620  36.799  1.00  0.00    -0.744 OA
ENDBRANCH  44  45
ENDBRANCH  25  39
BRANCH  26  49
ATOM     49  C   UNL A   1      36.501  33.269  30.920  1.00  0.00    -0.014 A 
ATOM     50  C   UNL A   1      35.242  33.332  31.539  1.00  0.00     0.010 A 
ATOM     51  C   UNL A   1      36.685  33.898  29.673  1.00  0.00     0.010 A 
ATOM     52  C   UNL A   1      34.190  34.024  30.929  1.00  0.00     0.020 A 
ATOM     53  C   UNL A   1      35.645  34.614  29.075  1.00  0.00     0.020 A 
ATOM     54  C   UNL A   1      34.403  34.671  29.708  1.00  0.00     0.054 A 
BRANCH  54  55
ATOM     55  S   UNL A   1      33.054  35.651  28.993  1.00  0.00     0.124 S 
ATOM     56  O   UNL A   1      33.781  36.708  28.299  1.00  0.00    -0.237 OA
ATOM     57  O   UNL A   1      32.379  34.679  28.137  1.00  0.00    -0.237 OA
ATOM     58  O   UNL A   1      32.286  36.081  30.161  1.00  0.00    -0.744 OA
ENDBRANCH  54  55
ENDBRANCH  26  49
BRANCH  38  59
ATOM     59  C   UNL A   1      39.477  33.979  37.226  1.00  0.00    -0.014 A 
ATOM     60  C   UNL A   1      38.776  33.564  38.371  1.00  0.00     0.010 A 
ATOM     61  C   UNL A   1      40.067  35.257  37.207  1.00  0.00     0.010 A 
ATOM     62  C   UNL A   1      38.671  34.412  39.478  1.00  0.00     0.020 A 
ATOM     63  C   UNL A   1      39.987  36.096  38.319  1.00  0.00     0.020 A 
ATOM     64  C   UNL A   1      39.288  35.668  39.449  1.00  0.00     0.054 A 
BRANCH  64  65
ATOM     65  S   UNL A   1      39.224  36.707  40.935  1.00  0.00     0.124 S 
ATOM     66  O   UNL A   1      40.628  36.757  41.333  1.00  0.00    -0.237 OA
ATOM     67  O   UNL A   1      38.670  37.958  40.426  1.00  0.00    -0.237 OA
ATOM     68  O   UNL A   1      38.348  35.966  41.840  1.00  0.00    -0.744 OA
ENDBRANCH  64  65
ENDBRANCH  38  59
ENDBRANCH  12  13
ENDBRANCH   5   7
ENDBRANCH   2   3
ENDBRANCH   1   2
BRANCH   1  69
ATOM     69  C   UNL A   1      39.306  21.279  26.053  1.00  0.00     0.023 C 
BRANCH  69  70
ATOM     70  C   UNL A   1      38.057  22.112  25.792  1.00  0.00     0.116 C 
BRANCH  70  71
ATOM     71  N   UNL A   1      37.741  22.292  24.389  1.00  0.00    -0.351 N 
ATOM     72  C   UNL A   1      36.562  22.710  23.826  1.00  0.00     0.281 C 
ATOM     73  H   UNL A   1      38.468  22.086  23.757  1.00  0.00     0.163 HD
ATOM     74  O   UNL A   1      36.602  23.043  22.636  1.00  0.00    -0.268 OA
BRANCH  72  75
ATOM     75  C   UNL A   1      35.200  22.622  24.594  1.00  0.00     0.181 C 
ATOM     76  C   UNL A   1      35.106  23.717  25.680  1.00  0.00     0.079 C 
ATOM     77  C   UNL A   1      34.138  22.946  23.502  1.00  0.00     0.144 C 
ATOM     78  C   UNL A   1      33.710  23.804  26.288  1.00  0.00     0.013 C 
ATOM     79  C   UNL A   1      32.736  23.421  23.939  1.00  0.00     0.190 C 
ATOM     80  C   UNL A   1      32.728  24.273  25.228  1.00  0.00     0.065 C 
BRANCH  75  81
ATOM     81  N   UNL A   1      34.952  21.285  25.176  1.00  0.00    -0.331 N 
ATOM     82  H   UNL A   1      34.629  21.442  26.130  1.00  0.00     0.347 HD
ATOM     83  H   UNL A   1      35.845  20.815  25.032  1.00  0.00     0.347 HD
BRANCH  81  84
ATOM     84  C   UNL A   1      34.002  20.348  24.567  1.00  0.00     0.183 C 
ATOM     85  C   UNL A   1      33.960  18.863  24.789  1.00  0.00     0.071 C 
ATOM     86  C   UNL A   1      32.893  19.738  25.376  1.00  0.00     0.071 C 
ENDBRANCH  81  84
ENDBRANCH  75  81
BRANCH  79  87
ATOM     87  N   UNL A   1      31.917  24.049  22.862  1.00  0.00    -0.331 N 
ATOM     88  C   UNL A   1      32.626  24.888  21.886  1.00  0.00     0.278 C 
ATOM     89  C   UNL A   1      30.613  24.635  23.200  1.00  0.00     0.278 C 
ATOM     90  H   UNL A   1      31.688  23.170  22.401  1.00  0.00     0.348 HD
ATOM     91  C   UNL A   1      32.928  26.326  22.285  1.00  0.00     0.198 C 
ATOM     92  C   UNL A   1      30.682  25.933  23.970  1.00  0.00     0.198 C 
ATOM     93  S   UNL A   1      31.540  27.162  23.016  1.00  0.00     0.161 S 
ATOM     94  O   UNL A   1      32.066  28.145  23.947  1.00  0.00    -0.228 OA
ATOM     95  O   UNL A   1      30.656  27.572  21.942  1.00  0.00    -0.228 OA
ENDBRANCH  79  87
ENDBRANCH  72  75
ENDBRANCH  70  71
ENDBRANCH  69  70
ENDBRANCH   1  69
TORSDOF 17
ENDMDL
MODEL 2
REMARK VINA RESULT:     -12.0      0.830      8.158
REMARK SMILES O=C(NCCCCNC(=O)[C@@]1([NH2+]C2CC2)CCC[C@@H]([NH+]2CCS(=O)(=O)CC2)C1)c1ccc(-c2c3nc(c(-c4ccc(S(=O)(=O)[O-])cc4)c4ccc([nH]4)c(-c4ccc(S(=O)(=O)[O-])cc4)c4nc(c(-c5ccc(S(=O)(=O)[O-])cc5)c5ccc2[nH]5)C=C4)C=C3)cc1
REMARK SMILES IDX 5 1 4 2 3 3 1 4 2 5 29 7 30 8 88 9 31 10 87 11 32 12 33 13
REMARK SMILES IDX 34 14 81 15 35 16 86 17 80 18 82 19 36 20 85 21 79 22 78 23
REMARK SMILES IDX 37 25 67 26 48 27 66 28 49 29 52 30 65 31 83 32 50 33 51 34
REMARK SMILES IDX 64 36 84 37 53 38 38 39 39 40 47 41 40 42 46 43 41 44 42 45
REMARK SMILES IDX 43 46 44 47 45 48 68 49 69 50 77 51 70 52 76 53 71 54 72 55
REMARK SMILES IDX 73 56 74 57 75 58 54 59 55 60 63 61 56 62 62 63 57 64 58 65
REMARK SMILES IDX 59 66 60 67 61 68 6 69 7 70 8 71 9 72 10 74 11 75 16 76
REMARK SMILES IDX 28 77 17 78 19 79 18 80 12 81 13 84 14 85 15 86 20 87 21 88
REMARK SMILES IDX 27 89 22 91 26 92 23 93 24 94 25 95
REMARK H PARENT 3 6 82 24 52 35 8 73 12 82 12 83 20 90
REMARK Flexibility Score: inf
ROOT
ATOM      1  C   UNL A   1      39.178  22.995  26.759  1.00  0.00     0.023 C 
ENDROOT
BRANCH   1   2
ATOM      2  C   UNL A   1      40.648  23.320  27.012  1.00  0.00     0.116 C 
BRANCH   2   3
ATOM      3  N   UNL A   1      41.221  24.184  25.991  1.00  0.00    -0.352 N 
ATOM      4  O   UNL A   1      41.820  26.112  24.992  1.00  0.00    -0.269 OA
ATOM      5  C   UNL A   1      41.471  25.535  26.018  1.00  0.00     0.251 C 
ATOM      6  H   UNL A   1      41.469  23.731  25.152  1.00  0.00     0.163 HD
BRANCH   5   7
ATOM      7  C   UNL A   1      41.291  26.297  27.273  1.00  0.00     0.039 A 
ATOM      8  C   UNL A   1      40.303  25.940  28.193  1.00  0.00     0.014 A 
ATOM      9  C   UNL A   1      42.135  27.380  27.533  1.00  0.00     0.014 A 
ATOM     10  C   UNL A   1      40.056  26.753  29.296  1.00  0.00     0.010 A 
ATOM     11  C   UNL A   1      41.940  28.146  28.685  1.00  0.00     0.010 A 
ATOM     12  C   UNL A   1      40.879  27.859  29.558  1.00  0.00    -0.014 A 
BRANCH  12  13
ATOM     13  C   UNL A   1      40.662  28.684  30.773  1.00  0.00     0.031 A 
ATOM     14  C   UNL A   1      39.597  29.745  30.803  1.00  0.00     0.074 A 
ATOM     15  C   UNL A   1      41.461  28.499  31.841  1.00  0.00     0.049 A 
ATOM     16  N   UNL A   1      39.334  30.624  31.737  1.00  0.00    -0.248 NA
ATOM     17  C   UNL A   1      38.721  29.839  29.625  1.00  0.00     0.031 C 
ATOM     18  C   UNL A   1      42.523  27.495  31.935  1.00  0.00     0.029 A 
ATOM     19  N   UNL A   1      41.518  29.157  33.044  1.00  0.00    -0.354 N 
ATOM     20  C   UNL A   1      38.286  31.395  31.250  1.00  0.00     0.074 A 
ATOM     21  C   UNL A   1      37.975  30.892  29.928  1.00  0.00     0.031 C 
ATOM     22  C   UNL A   1      43.123  27.601  33.129  1.00  0.00     0.029 A 
ATOM     23  C   UNL A   1      42.538  28.722  33.856  1.00  0.00     0.049 A 
ATOM     24  H   UNL A   1      40.889  29.870  33.300  1.00  0.00     0.167 HD
ATOM     25  C   UNL A   1      37.646  32.429  31.849  1.00  0.00     0.031 A 
ATOM     26  C   UNL A   1      42.989  29.194  35.032  1.00  0.00     0.031 A 
ATOM     27  C   UNL A   1      37.981  32.930  33.158  1.00  0.00     0.049 A 
ATOM     28  C   UNL A   1      42.304  30.372  35.659  1.00  0.00     0.074 A 
ATOM     29  C   UNL A   1      37.373  33.950  33.870  1.00  0.00     0.029 A 
ATOM     30  N   UNL A   1      39.025  32.463  33.945  1.00  0.00    -0.354 N 
ATOM     31  N   UNL A   1      41.290  31.068  35.202  1.00  0.00    -0.248 NA
ATOM     32  C   UNL A   1      42.814  30.829  36.958  1.00  0.00     0.031 C 
ATOM     33  C   UNL A   1      38.092  34.145  35.053  1.00  0.00     0.029 A 
ATOM     34  C   UNL A   1      39.098  33.194  35.119  1.00  0.00     0.049 A 
ATOM     35  H   UNL A   1      39.624  31.719  33.703  1.00  0.00     0.167 HD
ATOM     36  C   UNL A   1      41.019  32.026  36.172  1.00  0.00     0.074 A 
ATOM     37  C   UNL A   1      41.978  31.820  37.240  1.00  0.00     0.031 C 
ATOM     38  C   UNL A   1      40.055  32.979  36.178  1.00  0.00     0.031 A 
BRANCH  25  39
ATOM     39  C   UNL A   1      36.560  33.124  31.065  1.00  0.00    -0.014 A 
ATOM     40  C   UNL A   1      36.853  33.934  29.953  1.00  0.00     0.010 A 
ATOM     41  C   UNL A   1      35.216  32.958  31.450  1.00  0.00     0.010 A 
ATOM     42  C   UNL A   1      35.833  34.623  29.289  1.00  0.00     0.020 A 
ATOM     43  C   UNL A   1      34.189  33.616  30.768  1.00  0.00     0.020 A 
ATOM     44  C   UNL A   1      34.508  34.469  29.709  1.00  0.00     0.054 A 
BRANCH  44  45
ATOM     45  S   UNL A   1      33.208  35.404  28.856  1.00  0.00     0.124 S 
ATOM     46  O   UNL A   1      33.991  36.325  28.036  1.00  0.00    -0.237 OA
ATOM     47  O   UNL A   1      32.494  34.363  28.123  1.00  0.00    -0.237 OA
ATOM     48  O   UNL A   1      32.456  36.024  29.943  1.00  0.00    -0.744 OA
ENDBRANCH  44  45
ENDBRANCH  25  39
BRANCH  26  49
ATOM     49  C   UNL A   1      44.171  28.545  35.660  1.00  0.00    -0.014 A 
ATOM     50  C   UNL A   1      44.014  27.451  36.526  1.00  0.00     0.010 A 
ATOM     51  C   UNL A   1      45.471  28.963  35.311  1.00  0.00     0.010 A 
ATOM     52  C   UNL A   1      45.136  26.778  37.022  1.00  0.00     0.020 A 
ATOM     53  C   UNL A   1      46.592  28.275  35.781  1.00  0.00     0.020 A 
ATOM     54  C   UNL A   1      46.416  27.186  36.636  1.00  0.00     0.054 A 
BRANCH  54  55
ATOM     55  S   UNL A   1      47.847  26.229  37.207  1.00  0.00     0.124 S 
ATOM     56  O   UNL A   1      47.623  24.937  36.567  1.00  0.00    -0.237 OA
ATOM     57  O   UNL A   1      48.971  27.005  36.690  1.00  0.00    -0.237 OA
ATOM     58  O   UNL A   1      47.708  26.239  38.662  1.00  0.00    -0.744 OA
ENDBRANCH  54  55
ENDBRANCH  26  49
BRANCH  38  59
ATOM     59  C   UNL A   1      39.939  33.855  37.397  1.00  0.00    -0.014 A 
ATOM     60  C   UNL A   1      40.576  35.105  37.469  1.00  0.00     0.010 A 
ATOM     61  C   UNL A   1      39.081  33.460  38.442  1.00  0.00     0.010 A 
ATOM     62  C   UNL A   1      40.355  35.946  38.565  1.00  0.00     0.020 A 
ATOM     63  C   UNL A   1      38.837  34.307  39.523  1.00  0.00     0.020 A 
ATOM     64  C   UNL A   1      39.478  35.547  39.579  1.00  0.00     0.054 A 
BRANCH  64  65
ATOM     65  S   UNL A   1      39.130  36.698  40.937  1.00  0.00     0.124 S 
ATOM     66  O   UNL A   1      40.473  37.056  41.385  1.00  0.00    -0.237 OA
ATOM     67  O   UNL A   1      38.386  37.763  40.270  1.00  0.00    -0.237 OA
ATOM     68  O   UNL A   1      38.352  35.898  41.881  1.00  0.00    -0.744 OA
ENDBRANCH  64  65
ENDBRANCH  38  59
ENDBRANCH  12  13
ENDBRANCH   5   7
ENDBRANCH   2   3
ENDBRANCH   1   2
BRANCH   1  69
ATOM     69  C   UNL A   1      38.906  21.658  26.074  1.00  0.00     0.023 C 
BRANCH  69  70
ATOM     70  C   UNL A   1      37.492  21.461  25.541  1.00  0.00     0.116 C 
BRANCH  70  71
ATOM     71  N   UNL A   1      37.336  21.773  24.134  1.00  0.00    -0.351 N 
ATOM     72  C   UNL A   1      36.431  22.617  23.541  1.00  0.00     0.281 C 
ATOM     73  H   UNL A   1      37.960  21.317  23.523  1.00  0.00     0.163 HD
ATOM     74  O   UNL A   1      36.652  22.931  22.366  1.00  0.00    -0.268 OA
BRANCH  72  75
ATOM     75  C   UNL A   1      35.102  23.039  24.254  1.00  0.00     0.181 C 
ATOM     76  C   UNL A   1      35.371  23.483  25.709  1.00  0.00     0.079 C 
ATOM     77  C   UNL A   1      34.636  24.293  23.456  1.00  0.00     0.144 C 
ATOM     78  C   UNL A   1      34.141  24.113  26.354  1.00  0.00     0.013 C 
ATOM     79  C   UNL A   1      33.643  25.273  24.114  1.00  0.00     0.190 C 
ATOM     80  C   UNL A   1      33.811  25.414  25.643  1.00  0.00     0.065 C 
BRANCH  75  81
ATOM     81  N   UNL A   1      34.066  21.984  24.211  1.00  0.00    -0.331 N 
ATOM     82  H   UNL A   1      34.083  21.603  23.265  1.00  0.00     0.347 HD
ATOM     83  H   UNL A   1      33.233  22.482  24.524  1.00  0.00     0.347 HD
BRANCH  81  84
ATOM     84  C   UNL A   1      34.105  20.834  25.121  1.00  0.00     0.183 C 
ATOM     85  C   UNL A   1      32.925  20.015  25.561  1.00  0.00     0.071 C 
ATOM     86  C   UNL A   1      33.924  19.435  24.605  1.00  0.00     0.071 C 
ENDBRANCH  81  84
ENDBRANCH  75  81
BRANCH  79  87
ATOM     87  N   UNL A   1      33.535  26.604  23.450  1.00  0.00    -0.331 N 
ATOM     88  C   UNL A   1      33.065  27.726  24.273  1.00  0.00     0.278 C 
ATOM     89  C   UNL A   1      32.980  26.687  22.093  1.00  0.00     0.278 C 
ATOM     90  H   UNL A   1      34.540  26.720  23.320  1.00  0.00     0.348 HD
ATOM     91  C   UNL A   1      31.562  27.873  24.468  1.00  0.00     0.198 C 
ATOM     92  C   UNL A   1      31.487  26.470  22.005  1.00  0.00     0.198 C 
ATOM     93  S   UNL A   1      30.635  27.702  22.960  1.00  0.00     0.161 S 
ATOM     94  O   UNL A   1      29.334  27.158  23.309  1.00  0.00    -0.228 OA
ATOM     95  O   UNL A   1      30.734  28.956  22.238  1.00  0.00    -0.228 OA
ENDBRANCH  79  87
ENDBRANCH  72  75
ENDBRANCH  70  71
ENDBRANCH  69  70
ENDBRANCH   1  69
TORSDOF 17
ENDMDL
MODEL 3
REMARK VINA RESULT:     -11.7      5.131     12.675
REMARK SMILES O=C(NCCCCNC(=O)[C@@]1([NH2+]C2CC2)CCC[C@@H]([NH+]2CCS(=O)(=O)CC2)C1)c1ccc(-c2c3nc(c(-c4ccc(S(=O)(=O)[O-])cc4)c4ccc([nH]4)c(-c4ccc(S(=O)(=O)[O-])cc4)c4nc(c(-c5ccc(S(=O)(=O)[O-])cc5)c5ccc2[nH]5)C=C4)C=C3)cc1
REMARK SMILES IDX 5 1 4 2 3 3 1 4 2 5 29 7 30 8 88 9 31 10 87 11 32 12 33 13
REMARK SMILES IDX 34 14 81 15 35 16 86 17 80 18 82 19 36 20 85 21 79 22 78 23
REMARK SMILES IDX 37 25 67 26 48 27 66 28 49 29 52 30 65 31 83 32 50 33 51 34
REMARK SMILES IDX 64 36 84 37 53 38 38 39 39 40 47 41 40 42 46 43 41 44 42 45
REMARK SMILES IDX 43 46 44 47 45 48 68 49 69 50 77 51 70 52 76 53 71 54 72 55
REMARK SMILES IDX 73 56 74 57 75 58 54 59 55 60 63 61 56 62 62 63 57 64 58 65
REMARK SMILES IDX 59 66 60 67 61 68 6 69 7 70 8 71 9 72 10 74 11 75 16 76
REMARK SMILES IDX 28 77 17 78 19 79 18 80 12 81 13 84 14 85 15 86 20 87 21 88
REMARK SMILES IDX 27 89 22 91 26 92 23 93 24 94 25 95
REMARK H PARENT 3 6 82 24 52 35 8 73 12 82 12 83 20 90
REMARK Flexibility Score: inf
ROOT
ATOM      1  C   UNL A   1      34.669  32.768  29.925  1.00  0.00     0.023 C 
ENDROOT
BRANCH   1   2
ATOM      2  C   UNL A   1      34.562  32.608  28.411  1.00  0.00     0.116 C 
BRANCH   2   3
ATOM      3  N   UNL A   1      33.905  31.371  28.016  1.00  0.00    -0.352 N 
ATOM      4  O   UNL A   1      33.734  29.230  27.339  1.00  0.00    -0.269 OA
ATOM      5  C   UNL A   1      34.432  30.116  27.823  1.00  0.00     0.251 C 
ATOM      6  H   UNL A   1      32.935  31.443  27.865  1.00  0.00     0.163 HD
BRANCH   5   7
ATOM      7  C   UNL A   1      35.842  29.843  28.173  1.00  0.00     0.039 A 
ATOM      8  C   UNL A   1      36.865  30.051  27.244  1.00  0.00     0.014 A 
ATOM      9  C   UNL A   1      36.143  29.377  29.455  1.00  0.00     0.014 A 
ATOM     10  C   UNL A   1      38.164  29.654  27.543  1.00  0.00     0.010 A 
ATOM     11  C   UNL A   1      37.463  29.057  29.782  1.00  0.00     0.010 A 
ATOM     12  C   UNL A   1      38.479  29.161  28.818  1.00  0.00    -0.014 A 
BRANCH  12  13
ATOM     13  C   UNL A   1      39.879  28.804  29.161  1.00  0.00     0.031 A 
ATOM     14  C   UNL A   1      40.801  29.818  29.780  1.00  0.00     0.074 A 
ATOM     15  C   UNL A   1      40.329  27.568  28.874  1.00  0.00     0.049 A 
ATOM     16  N   UNL A   1      42.077  29.714  30.053  1.00  0.00    -0.248 NA
ATOM     17  C   UNL A   1      40.217  31.122  30.128  1.00  0.00     0.031 C 
ATOM     18  C   UNL A   1      39.526  26.496  28.281  1.00  0.00     0.029 A 
ATOM     19  N   UNL A   1      41.572  27.009  29.024  1.00  0.00    -0.354 N 
ATOM     20  C   UNL A   1      42.457  30.945  30.573  1.00  0.00     0.074 A 
ATOM     21  C   UNL A   1      41.279  31.786  30.559  1.00  0.00     0.031 C 
ATOM     22  C   UNL A   1      40.294  25.410  28.122  1.00  0.00     0.029 A 
ATOM     23  C   UNL A   1      41.657  25.728  28.533  1.00  0.00     0.049 A 
ATOM     24  H   UNL A   1      42.330  27.479  29.443  1.00  0.00     0.167 HD
ATOM     25  C   UNL A   1      43.677  31.336  31.017  1.00  0.00     0.031 A 
ATOM     26  C   UNL A   1      42.716  24.911  28.382  1.00  0.00     0.031 A 
ATOM     27  C   UNL A   1      44.844  30.492  31.006  1.00  0.00     0.049 A 
ATOM     28  C   UNL A   1      44.070  25.377  28.830  1.00  0.00     0.074 A 
ATOM     29  C   UNL A   1      46.119  30.780  31.464  1.00  0.00     0.029 A 
ATOM     30  N   UNL A   1      44.886  29.201  30.495  1.00  0.00    -0.354 N 
ATOM     31  N   UNL A   1      44.406  26.532  29.355  1.00  0.00    -0.248 NA
ATOM     32  C   UNL A   1      45.186  24.436  28.674  1.00  0.00     0.031 C 
ATOM     33  C   UNL A   1      46.945  29.692  31.166  1.00  0.00     0.029 A 
ATOM     34  C   UNL A   1      46.171  28.693  30.597  1.00  0.00     0.049 A 
ATOM     35  H   UNL A   1      44.116  28.719  30.117  1.00  0.00     0.167 HD
ATOM     36  C   UNL A   1      45.767  26.446  29.621  1.00  0.00     0.074 A 
ATOM     37  C   UNL A   1      46.192  25.126  29.199  1.00  0.00     0.031 C 
ATOM     38  C   UNL A   1      46.583  27.375  30.177  1.00  0.00     0.031 A 
BRANCH  25  39
ATOM     39  C   UNL A   1      43.820  32.761  31.494  1.00  0.00    -0.014 A 
ATOM     40  C   UNL A   1      44.038  33.823  30.598  1.00  0.00     0.010 A 
ATOM     41  C   UNL A   1      43.730  33.040  32.871  1.00  0.00     0.010 A 
ATOM     42  C   UNL A   1      44.237  35.123  31.075  1.00  0.00     0.020 A 
ATOM     43  C   UNL A   1      43.894  34.343  33.350  1.00  0.00     0.020 A 
ATOM     44  C   UNL A   1      44.177  35.372  32.449  1.00  0.00     0.054 A 
BRANCH  44  45
ATOM     45  S   UNL A   1      44.478  37.059  33.044  1.00  0.00     0.124 S 
ATOM     46  O   UNL A   1      45.009  36.814  34.382  1.00  0.00    -0.237 OA
ATOM     47  O   UNL A   1      45.439  37.575  32.072  1.00  0.00    -0.237 OA
ATOM     48  O   UNL A   1      43.159  37.684  33.002  1.00  0.00    -0.744 OA
ENDBRANCH  44  45
ENDBRANCH  25  39
BRANCH  26  49
ATOM     49  C   UNL A   1      42.511  23.579  27.753  1.00  0.00    -0.014 A 
ATOM     50  C   UNL A   1      42.778  23.380  26.389  1.00  0.00     0.010 A 
ATOM     51  C   UNL A   1      42.140  22.476  28.548  1.00  0.00     0.010 A 
ATOM     52  C   UNL A   1      42.690  22.100  25.833  1.00  0.00     0.020 A 
ATOM     53  C   UNL A   1      42.080  21.192  28.002  1.00  0.00     0.020 A 
ATOM     54  C   UNL A   1      42.355  21.013  26.646  1.00  0.00     0.054 A 
BRANCH  54  55
ATOM     55  S   UNL A   1      42.354  19.349  25.922  1.00  0.00     0.124 S 
ATOM     56  O   UNL A   1      43.252  19.512  24.784  1.00  0.00    -0.237 OA
ATOM     57  O   UNL A   1      42.864  18.530  27.019  1.00  0.00    -0.237 OA
ATOM     58  O   UNL A   1      40.950  19.122  25.585  1.00  0.00    -0.744 OA
ENDBRANCH  54  55
ENDBRANCH  26  49
BRANCH  38  59
ATOM     59  C   UNL A   1      48.021  26.995  30.416  1.00  0.00    -0.014 A 
ATOM     60  C   UNL A   1      49.047  27.417  29.555  1.00  0.00     0.010 A 
ATOM     61  C   UNL A   1      48.354  26.296  31.592  1.00  0.00     0.010 A 
ATOM     62  C   UNL A   1      50.384  27.147  29.867  1.00  0.00     0.020 A 
ATOM     63  C   UNL A   1      49.688  26.048  31.921  1.00  0.00     0.020 A 
ATOM     64  C   UNL A   1      50.696  26.475  31.054  1.00  0.00     0.054 A 
BRANCH  64  65
ATOM     65  S   UNL A   1      52.441  26.228  31.485  1.00  0.00     0.124 S 
ATOM     66  O   UNL A   1      53.111  26.508  30.218  1.00  0.00    -0.237 OA
ATOM     67  O   UNL A   1      52.651  27.216  32.539  1.00  0.00    -0.237 OA
ATOM     68  O   UNL A   1      52.497  24.835  31.924  1.00  0.00    -0.744 OA
ENDBRANCH  64  65
ENDBRANCH  38  59
ENDBRANCH  12  13
ENDBRANCH   5   7
ENDBRANCH   2   3
ENDBRANCH   1   2
BRANCH   1  69
ATOM     69  C   UNL A   1      35.700  33.784  30.410  1.00  0.00     0.023 C 
BRANCH  69  70
ATOM     70  C   UNL A   1      37.016  33.203  30.914  1.00  0.00     0.116 C 
BRANCH  70  71
ATOM     71  N   UNL A   1      37.721  34.050  31.856  1.00  0.00    -0.351 N 
ATOM     72  C   UNL A   1      38.465  33.679  32.947  1.00  0.00     0.281 C 
ATOM     73  H   UNL A   1      37.656  35.019  31.692  1.00  0.00     0.163 HD
ATOM     74  O   UNL A   1      39.189  34.547  33.448  1.00  0.00    -0.268 OA
BRANCH  72  75
ATOM     75  C   UNL A   1      38.294  32.279  33.629  1.00  0.00     0.181 C 
ATOM     76  C   UNL A   1      37.556  31.295  32.693  1.00  0.00     0.079 C 
ATOM     77  C   UNL A   1      39.756  31.767  33.794  1.00  0.00     0.144 C 
ATOM     78  C   UNL A   1      37.576  29.868  33.231  1.00  0.00     0.013 C 
ATOM     79  C   UNL A   1      40.003  30.256  33.985  1.00  0.00     0.190 C 
ATOM     80  C   UNL A   1      39.004  29.350  33.232  1.00  0.00     0.065 C 
BRANCH  75  81
ATOM     81  N   UNL A   1      37.622  32.357  34.943  1.00  0.00    -0.331 N 
ATOM     82  H   UNL A   1      37.174  31.452  35.091  1.00  0.00     0.347 HD
ATOM     83  H   UNL A   1      37.034  33.183  34.840  1.00  0.00     0.347 HD
BRANCH  81  84
ATOM     84  C   UNL A   1      38.368  32.653  36.171  1.00  0.00     0.183 C 
ATOM     85  C   UNL A   1      38.076  33.765  37.137  1.00  0.00     0.071 C 
ATOM     86  C   UNL A   1      37.788  32.345  37.522  1.00  0.00     0.071 C 
ENDBRANCH  81  84
ENDBRANCH  75  81
BRANCH  79  87
ATOM     87  N   UNL A   1      41.412  29.814  33.771  1.00  0.00    -0.331 N 
ATOM     88  C   UNL A   1      41.620  28.423  33.350  1.00  0.00     0.278 C 
ATOM     89  C   UNL A   1      42.448  30.229  34.725  1.00  0.00     0.278 C 
ATOM     90  H   UNL A   1      41.567  30.407  32.955  1.00  0.00     0.348 HD
ATOM     91  C   UNL A   1      41.612  27.353  34.435  1.00  0.00     0.198 C 
ATOM     92  C   UNL A   1      42.387  29.537  36.067  1.00  0.00     0.198 C 
ATOM     93  S   UNL A   1      42.584  27.784  35.858  1.00  0.00     0.161 S 
ATOM     94  O   UNL A   1      41.978  27.139  37.010  1.00  0.00    -0.228 OA
ATOM     95  O   UNL A   1      43.976  27.541  35.532  1.00  0.00    -0.228 OA
ENDBRANCH  79  87
ENDBRANCH  72  75
ENDBRANCH  70  71
ENDBRANCH  69  70
ENDBRANCH   1  69
TORSDOF 17
ENDMDL
