MODEL 1
REMARK VINA RESULT:     -11.0      0.000      0.000
REMARK SMILES O=C(NCCCCNC(=O)[C@H](CO)NC(=O)[C@H](CS)NC(=O)[C@H](Cc1c[nH]c2ccccc12)NC(=O)c1ccc(F)cc1)c1ccc(-c2c3nc(c(-c4ccc(S(=O)(=O)[O-])cc4)c4ccc([nH]4)c(-c4ccc(S(=O)(=O)[O-])cc4)c4nc(c(-c5ccc(S(=O)(=O)[O-])cc5)c5ccc2[nH]5)C=C4)C=C3)cc1
REMARK SMILES IDX 7 1 6 2 5 3 4 4 3 5 1 6 2 7 44 9 45 10 103 11 46 12 102 13
REMARK SMILES IDX 47 14 48 15 49 16 96 17 50 18 101 19 95 20 97 21 51 22
REMARK SMILES IDX 100 23 94 24 93 25 52 27 82 28 63 29 81 30 64 31 67 32 80 33
REMARK SMILES IDX 98 34 65 35 66 36 79 38 99 39 68 40 53 41 54 42 62 43 55 44
REMARK SMILES IDX 61 45 56 46 57 47 58 48 59 49 60 50 83 51 84 52 92 53 85 54
REMARK SMILES IDX 91 55 86 56 87 57 88 58 89 59 90 60 69 61 70 62 78 63 71 64
REMARK SMILES IDX 77 65 72 66 73 67 74 68 75 69 76 70 8 71 9 72 10 74 11 75
REMARK SMILES IDX 14 76 15 77 16 79 17 80 20 81 21 82 22 84 23 85 34 86 35 87
REMARK SMILES IDX 36 89 37 90 38 91 43 92 39 93 42 94 40 95 41 96 24 97 25 98
REMARK SMILES IDX 26 99 33 100 27 101 28 102 32 103 29 105 31 106 30 107
REMARK SMILES IDX 18 108 19 109 12 111 13 112
REMARK H PARENT 3 8 97 26 67 37 8 73 14 78 20 83 34 88 27 104 19 110 13 113
REMARK Flexibility Score: inf
ROOT
ATOM      1  C   UNL A   1      32.361  30.541  26.867  1.00  0.00     0.116 C 
ENDROOT
BRANCH   1   2
ATOM      2  C   UNL A   1      31.367  31.494  26.210  1.00  0.00     0.023 C 
BRANCH   2   3
ATOM      3  C   UNL A   1      31.431  32.939  26.700  1.00  0.00     0.023 C 
BRANCH   3   4
ATOM      4  C   UNL A   1      32.690  33.319  27.467  1.00  0.00     0.116 C 
BRANCH   4   5
ATOM      5  N   UNL A   1      32.675  34.675  27.993  1.00  0.00    -0.352 N 
ATOM      6  O   UNL A   1      33.343  36.385  29.311  1.00  0.00    -0.269 OA
ATOM      7  C   UNL A   1      33.524  35.241  28.918  1.00  0.00     0.251 C 
ATOM      8  H   UNL A   1      31.967  35.263  27.644  1.00  0.00     0.163 HD
BRANCH   7   9
ATOM      9  C   UNL A   1      34.627  34.421  29.465  1.00  0.00     0.039 A 
ATOM     10  C   UNL A   1      34.405  33.583  30.559  1.00  0.00     0.014 A 
ATOM     11  C   UNL A   1      35.907  34.564  28.927  1.00  0.00     0.014 A 
ATOM     12  C   UNL A   1      35.490  33.023  31.220  1.00  0.00     0.010 A 
ATOM     13  C   UNL A   1      36.987  33.927  29.544  1.00  0.00     0.010 A 
ATOM     14  C   UNL A   1      36.795  33.193  30.725  1.00  0.00    -0.014 A 
BRANCH  14  15
ATOM     15  C   UNL A   1      37.933  32.583  31.458  1.00  0.00     0.031 A 
ATOM     16  C   UNL A   1      38.310  33.049  32.840  1.00  0.00     0.074 A 
ATOM     17  C   UNL A   1      38.596  31.559  30.886  1.00  0.00     0.049 A 
ATOM     18  N   UNL A   1      39.239  32.583  33.639  1.00  0.00    -0.248 NA
ATOM     19  C   UNL A   1      37.559  34.186  33.397  1.00  0.00     0.031 C 
ATOM     20  C   UNL A   1      38.323  31.020  29.550  1.00  0.00     0.029 A 
ATOM     21  N   UNL A   1      39.610  30.768  31.361  1.00  0.00    -0.354 N 
ATOM     22  C   UNL A   1      39.205  33.386  34.774  1.00  0.00     0.074 A 
ATOM     23  C   UNL A   1      38.176  34.380  34.555  1.00  0.00     0.031 C 
ATOM     24  C   UNL A   1      39.103  29.950  29.340  1.00  0.00     0.029 A 
ATOM     25  C   UNL A   1      39.973  29.764  30.496  1.00  0.00     0.049 A 
ATOM     26  H   UNL A   1      40.037  30.907  32.237  1.00  0.00     0.167 HD
ATOM     27  C   UNL A   1      39.962  33.301  35.896  1.00  0.00     0.031 A 
ATOM     28  C   UNL A   1      40.903  28.800  30.613  1.00  0.00     0.031 A 
ATOM     29  C   UNL A   1      40.975  32.301  36.116  1.00  0.00     0.049 A 
ATOM     30  C   UNL A   1      41.723  28.725  31.868  1.00  0.00     0.074 A 
ATOM     31  C   UNL A   1      41.771  32.113  37.232  1.00  0.00     0.029 A 
ATOM     32  N   UNL A   1      41.331  31.321  35.203  1.00  0.00    -0.354 N 
ATOM     33  N   UNL A   1      41.659  29.481  32.938  1.00  0.00    -0.248 NA
ATOM     34  C   UNL A   1      42.737  27.666  31.932  1.00  0.00     0.031 C 
ATOM     35  C   UNL A   1      42.637  31.044  36.978  1.00  0.00     0.029 A 
ATOM     36  C   UNL A   1      42.345  30.534  35.723  1.00  0.00     0.049 A 
ATOM     37  H   UNL A   1      40.923  31.200  34.315  1.00  0.00     0.167 HD
ATOM     38  C   UNL A   1      42.612  28.975  33.813  1.00  0.00     0.074 A 
ATOM     39  C   UNL A   1      43.224  27.839  33.153  1.00  0.00     0.031 C 
ATOM     40  C   UNL A   1      42.948  29.411  35.052  1.00  0.00     0.031 A 
BRANCH  27  41
ATOM     41  C   UNL A   1      39.746  34.343  36.965  1.00  0.00    -0.014 A 
ATOM     42  C   UNL A   1      38.978  34.069  38.110  1.00  0.00     0.010 A 
ATOM     43  C   UNL A   1      40.360  35.602  36.839  1.00  0.00     0.010 A 
ATOM     44  C   UNL A   1      38.794  35.050  39.090  1.00  0.00     0.020 A 
ATOM     45  C   UNL A   1      40.198  36.578  37.827  1.00  0.00     0.020 A 
ATOM     46  C   UNL A   1      39.400  36.301  38.939  1.00  0.00     0.054 A 
BRANCH  46  47
ATOM     47  S   UNL A   1      39.156  37.553  40.230  1.00  0.00     0.124 S 
ATOM     48  O   UNL A   1      40.515  38.055  40.421  1.00  0.00    -0.237 OA
ATOM     49  O   UNL A   1      38.226  38.488  39.602  1.00  0.00    -0.237 OA
ATOM     50  O   UNL A   1      38.609  36.794  41.351  1.00  0.00    -0.744 OA
ENDBRANCH  46  47
ENDBRANCH  27  41
BRANCH  28  51
ATOM     51  C   UNL A   1      41.095  27.824  29.508  1.00  0.00    -0.014 A 
ATOM     52  C   UNL A   1      42.164  27.967  28.606  1.00  0.00     0.010 A 
ATOM     53  C   UNL A   1      40.226  26.726  29.375  1.00  0.00     0.010 A 
ATOM     54  C   UNL A   1      42.353  27.035  27.583  1.00  0.00     0.020 A 
ATOM     55  C   UNL A   1      40.429  25.777  28.370  1.00  0.00     0.020 A 
ATOM     56  C   UNL A   1      41.486  25.943  27.473  1.00  0.00     0.054 A 
BRANCH  56  57
ATOM     57  S   UNL A   1      41.786  24.710  26.178  1.00  0.00     0.124 S 
ATOM     58  O   UNL A   1      40.560  23.920  26.223  1.00  0.00    -0.237 OA
ATOM     59  O   UNL A   1      41.964  25.536  24.987  1.00  0.00    -0.237 OA
ATOM     60  O   UNL A   1      42.992  24.023  26.635  1.00  0.00    -0.744 OA
ENDBRANCH  56  57
ENDBRANCH  28  51
BRANCH  40  61
ATOM     61  C   UNL A   1      44.003  28.630  35.786  1.00  0.00    -0.014 A 
ATOM     62  C   UNL A   1      43.665  27.540  36.607  1.00  0.00     0.010 A 
ATOM     63  C   UNL A   1      45.356  28.982  35.632  1.00  0.00     0.010 A 
ATOM     64  C   UNL A   1      44.659  26.841  37.296  1.00  0.00     0.020 A 
ATOM     65  C   UNL A   1      46.355  28.270  36.300  1.00  0.00     0.020 A 
ATOM     66  C   UNL A   1      45.999  27.216  37.143  1.00  0.00     0.054 A 
BRANCH  66  67
ATOM     67  S   UNL A   1      47.277  26.286  38.033  1.00  0.00     0.124 S 
ATOM     68  O   UNL A   1      46.995  26.635  39.422  1.00  0.00    -0.237 OA
ATOM     69  O   UNL A   1      46.987  24.903  37.661  1.00  0.00    -0.237 OA
ATOM     70  O   UNL A   1      48.527  26.818  37.495  1.00  0.00    -0.744 OA
ENDBRANCH  66  67
ENDBRANCH  40  61
ENDBRANCH  14  15
ENDBRANCH   7   9
ENDBRANCH   4   5
ENDBRANCH   3   4
ENDBRANCH   2   3
ENDBRANCH   1   2
BRANCH   1  71
ATOM     71  N   UNL A   1      31.753  29.292  27.292  1.00  0.00    -0.354 N 
ATOM     72  C   UNL A   1      32.031  28.000  26.951  1.00  0.00     0.244 C 
ATOM     73  H   UNL A   1      31.016  29.394  27.937  1.00  0.00     0.163 HD
ATOM     74  O   UNL A   1      31.582  27.108  27.674  1.00  0.00    -0.273 OA
BRANCH  72  75
ATOM     75  C   UNL A   1      32.966  27.653  25.779  1.00  0.00     0.197 C 
BRANCH  75  76
ATOM     76  N   UNL A   1      32.207  27.687  24.519  1.00  0.00    -0.340 N 
ATOM     77  C   UNL A   1      31.250  26.828  24.074  1.00  0.00     0.244 C 
ATOM     78  H   UNL A   1      32.422  28.434  23.913  1.00  0.00     0.164 HD
ATOM     79  O   UNL A   1      30.235  27.325  23.579  1.00  0.00    -0.273 OA
BRANCH  77  80
ATOM     80  C   UNL A   1      31.399  25.295  24.156  1.00  0.00     0.181 C 
BRANCH  80  81
ATOM     81  N   UNL A   1      30.499  24.676  25.130  1.00  0.00    -0.342 N 
ATOM     82  C   UNL A   1      30.789  23.800  26.130  1.00  0.00     0.243 C 
ATOM     83  H   UNL A   1      29.552  24.930  25.051  1.00  0.00     0.164 HD
ATOM     84  O   UNL A   1      29.971  23.735  27.053  1.00  0.00    -0.273 OA
BRANCH  82  85
ATOM     85  C   UNL A   1      31.985  22.828  26.004  1.00  0.00     0.176 C 
BRANCH  85  86
ATOM     86  N   UNL A   1      32.759  22.905  27.246  1.00  0.00    -0.340 N 
ATOM     87  C   UNL A   1      34.124  22.870  27.404  1.00  0.00     0.251 C 
ATOM     88  H   UNL A   1      32.234  22.994  28.074  1.00  0.00     0.164 HD
ATOM     89  O   UNL A   1      34.643  22.908  28.514  1.00  0.00    -0.269 OA
BRANCH  87  90
ATOM     90  C   UNL A   1      34.984  22.729  26.210  1.00  0.00     0.040 A 
ATOM     91  C   UNL A   1      35.452  23.857  25.530  1.00  0.00     0.017 A 
ATOM     92  C   UNL A   1      35.318  21.443  25.766  1.00  0.00     0.017 A 
ATOM     93  C   UNL A   1      36.205  23.690  24.364  1.00  0.00     0.040 A 
ATOM     94  C   UNL A   1      36.048  21.282  24.589  1.00  0.00     0.040 A 
ATOM     95  C   UNL A   1      36.478  22.408  23.894  1.00  0.00     0.123 A 
ATOM     96  F   UNL A   1      37.171  22.253  22.760  1.00  0.00    -0.207 F 
ENDBRANCH  87  90
ENDBRANCH  85  86
BRANCH  85  97
ATOM     97  C   UNL A   1      31.357  21.452  25.702  1.00  0.00     0.072 C 
BRANCH  97  98
ATOM     98  C   UNL A   1      31.961  20.568  24.650  1.00  0.00    -0.020 A 
ATOM     99  C   UNL A   1      32.134  20.975  23.337  1.00  0.00     0.087 A 
ATOM    100  C   UNL A   1      32.468  19.230  24.722  1.00  0.00     0.003 A 
ATOM    101  N   UNL A   1      32.626  19.928  22.613  1.00  0.00    -0.361 N 
ATOM    102  C   UNL A   1      32.789  18.832  23.422  1.00  0.00     0.046 A 
ATOM    103  C   UNL A   1      32.660  18.290  25.754  1.00  0.00     0.010 A 
ATOM    104  H   UNL A   1      32.834  19.956  21.650  1.00  0.00     0.166 HD
ATOM    105  C   UNL A   1      33.199  17.533  23.098  1.00  0.00     0.026 A 
ATOM    106  C   UNL A   1      33.053  16.981  25.450  1.00  0.00     0.001 A 
ATOM    107  C   UNL A   1      33.300  16.606  24.135  1.00  0.00     0.002 A 
ENDBRANCH  97  98
ENDBRANCH  85  97
ENDBRANCH  82  85
ENDBRANCH  80  81
BRANCH  80 108
ATOM    108  C   UNL A   1      31.430  24.610  22.786  1.00  0.00     0.101 C 
BRANCH 108 109
ATOM    109  S   UNL A   1      32.216  25.556  21.448  1.00  0.00    -0.177 SA
ATOM    110  H   UNL A   1      31.258  26.164  20.700  1.00  0.00     0.102 HD
ENDBRANCH 108 109
ENDBRANCH  80 108
ENDBRANCH  77  80
ENDBRANCH  75  76
BRANCH  75 111
ATOM    111  C   UNL A   1      34.206  28.563  25.803  1.00  0.00     0.191 C 
BRANCH 111 112
ATOM    112  O   UNL A   1      34.847  28.576  27.076  1.00  0.00    -0.394 OA
ATOM    113  H   UNL A   1      35.774  28.306  26.975  1.00  0.00     0.210 HD
ENDBRANCH 111 112
ENDBRANCH  75 111
ENDBRANCH  72  75
ENDBRANCH   1  71
TORSDOF 26
ENDMDL
MODEL 2
REMARK VINA RESULT:     -10.8      5.412      7.754
REMARK SMILES O=C(NCCCCNC(=O)[C@H](CO)NC(=O)[C@H](CS)NC(=O)[C@H](Cc1c[nH]c2ccccc12)NC(=O)c1ccc(F)cc1)c1ccc(-c2c3nc(c(-c4ccc(S(=O)(=O)[O-])cc4)c4ccc([nH]4)c(-c4ccc(S(=O)(=O)[O-])cc4)c4nc(c(-c5ccc(S(=O)(=O)[O-])cc5)c5ccc2[nH]5)C=C4)C=C3)cc1
REMARK SMILES IDX 7 1 6 2 5 3 4 4 3 5 1 6 2 7 44 9 45 10 103 11 46 12 102 13
REMARK SMILES IDX 47 14 48 15 49 16 96 17 50 18 101 19 95 20 97 21 51 22
REMARK SMILES IDX 100 23 94 24 93 25 52 27 82 28 63 29 81 30 64 31 67 32 80 33
REMARK SMILES IDX 98 34 65 35 66 36 79 38 99 39 68 40 53 41 54 42 62 43 55 44
REMARK SMILES IDX 61 45 56 46 57 47 58 48 59 49 60 50 83 51 84 52 92 53 85 54
REMARK SMILES IDX 91 55 86 56 87 57 88 58 89 59 90 60 69 61 70 62 78 63 71 64
REMARK SMILES IDX 77 65 72 66 73 67 74 68 75 69 76 70 8 71 9 72 10 74 11 75
REMARK SMILES IDX 14 76 15 77 16 79 17 80 20 81 21 82 22 84 23 85 34 86 35 87
REMARK SMILES IDX 36 89 37 90 38 91 43 92 39 93 42 94 40 95 41 96 24 97 25 98
REMARK SMILES IDX 26 99 33 100 27 101 28 102 32 103 29 105 31 106 30 107
REMARK SMILES IDX 18 108 19 109 12 111 13 112
REMARK H PARENT 3 8 97 26 67 37 8 73 14 78 20 83 34 88 27 104 19 110 13 113
REMARK Flexibility Score: inf
ROOT
ATOM      1  C   UNL A   1      34.882  31.713  27.797  1.00  0.00     0.116 C 
ENDROOT
BRANCH   1   2
ATOM      2  C   UNL A   1      35.027  33.031  28.550  1.00  0.00     0.023 C 
BRANCH   2   3
ATOM      3  C   UNL A   1      36.462  33.527  28.723  1.00  0.00     0.023 C 
BRANCH   3   4
ATOM      4  C   UNL A   1      37.165  33.073  29.995  1.00  0.00     0.116 C 
BRANCH   4   5
ATOM      5  N   UNL A   1      36.385  32.147  30.803  1.00  0.00    -0.352 N 
ATOM      6  O   UNL A   1      35.852  30.152  31.718  1.00  0.00    -0.269 OA
ATOM      7  C   UNL A   1      36.642  30.820  31.067  1.00  0.00     0.251 C 
ATOM      8  H   UNL A   1      35.570  32.516  31.211  1.00  0.00     0.163 HD
BRANCH   7   9
ATOM      9  C   UNL A   1      37.866  30.208  30.506  1.00  0.00     0.039 A 
ATOM     10  C   UNL A   1      38.889  29.779  31.352  1.00  0.00     0.014 A 
ATOM     11  C   UNL A   1      38.017  30.147  29.119  1.00  0.00     0.014 A 
ATOM     12  C   UNL A   1      40.127  29.451  30.813  1.00  0.00     0.010 A 
ATOM     13  C   UNL A   1      39.236  29.732  28.578  1.00  0.00     0.010 A 
ATOM     14  C   UNL A   1      40.318  29.429  29.421  1.00  0.00    -0.014 A 
BRANCH  14  15
ATOM     15  C   UNL A   1      41.654  29.076  28.878  1.00  0.00     0.031 A 
ATOM     16  C   UNL A   1      42.782  30.075  28.872  1.00  0.00     0.074 A 
ATOM     17  C   UNL A   1      41.861  27.820  28.437  1.00  0.00     0.049 A 
ATOM     18  N   UNL A   1      44.023  29.909  28.488  1.00  0.00    -0.248 NA
ATOM     19  C   UNL A   1      42.481  31.435  29.347  1.00  0.00     0.031 C 
ATOM     20  C   UNL A   1      40.845  26.764  28.392  1.00  0.00     0.029 A 
ATOM     21  N   UNL A   1      42.997  27.207  27.974  1.00  0.00    -0.354 N 
ATOM     22  C   UNL A   1      44.641  31.145  28.645  1.00  0.00     0.074 A 
ATOM     23  C   UNL A   1      43.634  32.057  29.143  1.00  0.00     0.031 C 
ATOM     24  C   UNL A   1      41.417  25.621  27.989  1.00  0.00     0.029 A 
ATOM     25  C   UNL A   1      42.822  25.874  27.688  1.00  0.00     0.049 A 
ATOM     26  H   UNL A   1      43.854  27.676  27.857  1.00  0.00     0.167 HD
ATOM     27  C   UNL A   1      45.929  31.487  28.398  1.00  0.00     0.031 A 
ATOM     28  C   UNL A   1      43.690  24.954  27.231  1.00  0.00     0.031 A 
ATOM     29  C   UNL A   1      46.933  30.572  27.916  1.00  0.00     0.049 A 
ATOM     30  C   UNL A   1      45.112  25.358  26.972  1.00  0.00     0.074 A 
ATOM     31  C   UNL A   1      48.272  30.815  27.667  1.00  0.00     0.029 A 
ATOM     32  N   UNL A   1      46.707  29.238  27.612  1.00  0.00    -0.354 N 
ATOM     33  N   UNL A   1      45.680  26.527  27.149  1.00  0.00    -0.248 NA
ATOM     34  C   UNL A   1      46.009  24.318  26.454  1.00  0.00     0.031 C 
ATOM     35  C   UNL A   1      48.847  29.640  27.172  1.00  0.00     0.029 A 
ATOM     36  C   UNL A   1      47.877  28.650  27.162  1.00  0.00     0.049 A 
ATOM     37  H   UNL A   1      45.842  28.777  27.702  1.00  0.00     0.167 HD
ATOM     38  C   UNL A   1      47.009  26.358  26.783  1.00  0.00     0.074 A 
ATOM     39  C   UNL A   1      47.162  24.970  26.393  1.00  0.00     0.031 C 
ATOM     40  C   UNL A   1      48.013  27.270  26.773  1.00  0.00     0.031 A 
BRANCH  27  41
ATOM     41  C   UNL A   1      46.325  32.926  28.612  1.00  0.00    -0.014 A 
ATOM     42  C   UNL A   1      46.213  33.878  27.583  1.00  0.00     0.010 A 
ATOM     43  C   UNL A   1      46.775  33.340  29.879  1.00  0.00     0.010 A 
ATOM     44  C   UNL A   1      46.584  35.209  27.807  1.00  0.00     0.020 A 
ATOM     45  C   UNL A   1      47.124  34.673  30.114  1.00  0.00     0.020 A 
ATOM     46  C   UNL A   1      47.044  35.596  29.069  1.00  0.00     0.054 A 
BRANCH  46  47
ATOM     47  S   UNL A   1      47.506  37.330  29.338  1.00  0.00     0.124 S 
ATOM     48  O   UNL A   1      48.965  37.261  29.294  1.00  0.00    -0.237 OA
ATOM     49  O   UNL A   1      46.876  38.011  28.209  1.00  0.00    -0.237 OA
ATOM     50  O   UNL A   1      46.936  37.643  30.646  1.00  0.00    -0.744 OA
ENDBRANCH  46  47
ENDBRANCH  27  41
BRANCH  28  51
ATOM     51  C   UNL A   1      43.231  23.558  27.004  1.00  0.00    -0.014 A 
ATOM     52  C   UNL A   1      42.924  23.110  25.707  1.00  0.00     0.010 A 
ATOM     53  C   UNL A   1      43.133  22.660  28.082  1.00  0.00     0.010 A 
ATOM     54  C   UNL A   1      42.515  21.791  25.495  1.00  0.00     0.020 A 
ATOM     55  C   UNL A   1      42.752  21.333  27.869  1.00  0.00     0.020 A 
ATOM     56  C   UNL A   1      42.435  20.910  26.578  1.00  0.00     0.054 A 
BRANCH  56  57
ATOM     57  S   UNL A   1      41.964  19.185  26.273  1.00  0.00     0.124 S 
ATOM     58  O   UNL A   1      40.569  19.320  25.867  1.00  0.00    -0.237 OA
ATOM     59  O   UNL A   1      42.894  18.782  25.221  1.00  0.00    -0.237 OA
ATOM     60  O   UNL A   1      42.181  18.540  27.566  1.00  0.00    -0.744 OA
ENDBRANCH  56  57
ENDBRANCH  28  51
BRANCH  40  61
ATOM     61  C   UNL A   1      49.374  26.780  26.360  1.00  0.00    -0.014 A 
ATOM     62  C   UNL A   1      49.825  26.909  25.035  1.00  0.00     0.010 A 
ATOM     63  C   UNL A   1      50.221  26.201  27.322  1.00  0.00     0.010 A 
ATOM     64  C   UNL A   1      51.084  26.429  24.669  1.00  0.00     0.020 A 
ATOM     65  C   UNL A   1      51.491  25.742  26.965  1.00  0.00     0.020 A 
ATOM     66  C   UNL A   1      51.907  25.841  25.636  1.00  0.00     0.054 A 
BRANCH  66  67
ATOM     67  S   UNL A   1      53.546  25.239  25.144  1.00  0.00     0.124 S 
ATOM     68  O   UNL A   1      54.410  25.861  26.143  1.00  0.00    -0.237 OA
ATOM     69  O   UNL A   1      53.403  23.789  25.252  1.00  0.00    -0.237 OA
ATOM     70  O   UNL A   1      53.702  25.742  23.781  1.00  0.00    -0.744 OA
ENDBRANCH  66  67
ENDBRANCH  40  61
ENDBRANCH  14  15
ENDBRANCH   7   9
ENDBRANCH   4   5
ENDBRANCH   3   4
ENDBRANCH   2   3
ENDBRANCH   1   2
BRANCH   1  71
ATOM     71  N   UNL A   1      33.639  31.620  27.051  1.00  0.00    -0.354 N 
ATOM     72  C   UNL A   1      33.028  30.552  26.459  1.00  0.00     0.244 C 
ATOM     73  H   UNL A   1      33.154  32.472  26.956  1.00  0.00     0.163 HD
ATOM     74  O   UNL A   1      31.840  30.671  26.152  1.00  0.00    -0.273 OA
BRANCH  72  75
ATOM     75  C   UNL A   1      33.747  29.203  26.279  1.00  0.00     0.197 C 
BRANCH  75  76
ATOM     76  N   UNL A   1      34.005  28.971  24.849  1.00  0.00    -0.340 N 
ATOM     77  C   UNL A   1      33.112  28.770  23.842  1.00  0.00     0.244 C 
ATOM     78  H   UNL A   1      34.953  28.958  24.585  1.00  0.00     0.164 HD
ATOM     79  O   UNL A   1      33.305  29.385  22.789  1.00  0.00    -0.273 OA
BRANCH  77  80
ATOM     80  C   UNL A   1      31.909  27.813  23.967  1.00  0.00     0.181 C 
BRANCH  80  81
ATOM     81  N   UNL A   1      31.270  27.855  25.283  1.00  0.00    -0.342 N 
ATOM     82  C   UNL A   1      31.357  26.964  26.308  1.00  0.00     0.243 C 
ATOM     83  H   UNL A   1      30.696  28.637  25.449  1.00  0.00     0.164 HD
ATOM     84  O   UNL A   1      31.075  27.395  27.430  1.00  0.00    -0.273 OA
BRANCH  82  85
ATOM     85  C   UNL A   1      31.623  25.467  26.031  1.00  0.00     0.176 C 
BRANCH  85  86
ATOM     86  N   UNL A   1      30.598  24.691  26.736  1.00  0.00    -0.340 N 
ATOM     87  C   UNL A   1      30.591  23.347  27.020  1.00  0.00     0.251 C 
ATOM     88  H   UNL A   1      29.814  25.199  27.046  1.00  0.00     0.164 HD
ATOM     89  O   UNL A   1      29.644  22.816  27.590  1.00  0.00    -0.269 OA
BRANCH  87  90
ATOM     90  C   UNL A   1      31.728  22.511  26.579  1.00  0.00     0.040 A 
ATOM     91  C   UNL A   1      31.653  21.770  25.396  1.00  0.00     0.017 A 
ATOM     92  C   UNL A   1      32.883  22.470  27.371  1.00  0.00     0.017 A 
ATOM     93  C   UNL A   1      32.717  20.936  25.043  1.00  0.00     0.040 A 
ATOM     94  C   UNL A   1      33.931  21.617  27.026  1.00  0.00     0.040 A 
ATOM     95  C   UNL A   1      33.835  20.851  25.870  1.00  0.00     0.123 A 
ATOM     96  F   UNL A   1      34.837  20.027  25.543  1.00  0.00    -0.207 F 
ENDBRANCH  87  90
ENDBRANCH  85  86
BRANCH  85  97
ATOM     97  C   UNL A   1      31.612  25.332  24.495  1.00  0.00     0.072 C 
BRANCH  97  98
ATOM     98  C   UNL A   1      32.712  24.582  23.801  1.00  0.00    -0.020 A 
ATOM     99  C   UNL A   1      32.550  23.993  22.558  1.00  0.00     0.087 A 
ATOM    100  C   UNL A   1      34.064  24.317  24.196  1.00  0.00     0.003 A 
ATOM    101  N   UNL A   1      33.695  23.322  22.237  1.00  0.00    -0.361 N 
ATOM    102  C   UNL A   1      34.617  23.457  23.244  1.00  0.00     0.046 A 
ATOM    103  C   UNL A   1      34.877  24.690  25.284  1.00  0.00     0.010 A 
ATOM    104  H   UNL A   1      33.837  22.814  21.405  1.00  0.00     0.166 HD
ATOM    105  C   UNL A   1      35.890  22.888  23.374  1.00  0.00     0.026 A 
ATOM    106  C   UNL A   1      36.146  24.120  25.442  1.00  0.00     0.001 A 
ATOM    107  C   UNL A   1      36.636  23.217  24.507  1.00  0.00     0.002 A 
ENDBRANCH  97  98
ENDBRANCH  85  97
ENDBRANCH  82  85
ENDBRANCH  80  81
BRANCH  80 108
ATOM    108  C   UNL A   1      30.942  27.887  22.781  1.00  0.00     0.101 C 
BRANCH 108 109
ATOM    109  S   UNL A   1      29.653  29.162  22.891  1.00  0.00    -0.177 SA
ATOM    110  H   UNL A   1      30.214  30.389  22.721  1.00  0.00     0.102 HD
ENDBRANCH 108 109
ENDBRANCH  80 108
ENDBRANCH  77  80
ENDBRANCH  75  76
BRANCH  75 111
ATOM    111  C   UNL A   1      34.997  29.147  27.171  1.00  0.00     0.191 C 
BRANCH 111 112
ATOM    112  O   UNL A   1      34.678  28.943  28.546  1.00  0.00    -0.394 OA
ATOM    113  H   UNL A   1      35.472  29.078  29.086  1.00  0.00     0.210 HD
ENDBRANCH 111 112
ENDBRANCH  75 111
ENDBRANCH  72  75
ENDBRANCH   1  71
TORSDOF 26
ENDMDL
MODEL 3
REMARK VINA RESULT:     -10.7      0.494      7.482
REMARK SMILES O=C(NCCCCNC(=O)[C@H](CO)NC(=O)[C@H](CS)NC(=O)[C@H](Cc1c[nH]c2ccccc12)NC(=O)c1ccc(F)cc1)c1ccc(-c2c3nc(c(-c4ccc(S(=O)(=O)[O-])cc4)c4ccc([nH]4)c(-c4ccc(S(=O)(=O)[O-])cc4)c4nc(c(-c5ccc(S(=O)(=O)[O-])cc5)c5ccc2[nH]5)C=C4)C=C3)cc1
REMARK SMILES IDX 7 1 6 2 5 3 4 4 3 5 1 6 2 7 44 9 45 10 103 11 46 12 102 13
REMARK SMILES IDX 47 14 48 15 49 16 96 17 50 18 101 19 95 20 97 21 51 22
REMARK SMILES IDX 100 23 94 24 93 25 52 27 82 28 63 29 81 30 64 31 67 32 80 33
REMARK SMILES IDX 98 34 65 35 66 36 79 38 99 39 68 40 53 41 54 42 62 43 55 44
REMARK SMILES IDX 61 45 56 46 57 47 58 48 59 49 60 50 83 51 84 52 92 53 85 54
REMARK SMILES IDX 91 55 86 56 87 57 88 58 89 59 90 60 69 61 70 62 78 63 71 64
REMARK SMILES IDX 77 65 72 66 73 67 74 68 75 69 76 70 8 71 9 72 10 74 11 75
REMARK SMILES IDX 14 76 15 77 16 79 17 80 20 81 21 82 22 84 23 85 34 86 35 87
REMARK SMILES IDX 36 89 37 90 38 91 43 92 39 93 42 94 40 95 41 96 24 97 25 98
REMARK SMILES IDX 26 99 33 100 27 101 28 102 32 103 29 105 31 106 30 107
REMARK SMILES IDX 18 108 19 109 12 111 13 112
REMARK H PARENT 3 8 97 26 67 37 8 73 14 78 20 83 34 88 27 104 19 110 13 113
REMARK Flexibility Score: inf
ROOT
ATOM      1  C   UNL A   1      32.421  30.579  27.062  1.00  0.00     0.116 C 
ENDROOT
BRANCH   1   2
ATOM      2  C   UNL A   1      31.438  31.533  26.392  1.00  0.00     0.023 C 
BRANCH   2   3
ATOM      3  C   UNL A   1      31.547  32.993  26.830  1.00  0.00     0.023 C 
BRANCH   3   4
ATOM      4  C   UNL A   1      32.859  33.383  27.496  1.00  0.00     0.116 C 
BRANCH   4   5
ATOM      5  N   UNL A   1      32.872  34.739  28.024  1.00  0.00    -0.352 N 
ATOM      6  O   UNL A   1      33.541  36.420  29.379  1.00  0.00    -0.269 OA
ATOM      7  C   UNL A   1      33.695  35.270  28.993  1.00  0.00     0.251 C 
ATOM      8  H   UNL A   1      32.208  35.356  27.641  1.00  0.00     0.163 HD
BRANCH   7   9
ATOM      9  C   UNL A   1      34.734  34.405  29.593  1.00  0.00     0.039 A 
ATOM     10  C   UNL A   1      34.430  33.597  30.690  1.00  0.00     0.014 A 
ATOM     11  C   UNL A   1      36.039  34.475  29.102  1.00  0.00     0.014 A 
ATOM     12  C   UNL A   1      35.460  32.995  31.400  1.00  0.00     0.010 A 
ATOM     13  C   UNL A   1      37.062  33.796  29.769  1.00  0.00     0.010 A 
ATOM     14  C   UNL A   1      36.790  33.092  30.953  1.00  0.00    -0.014 A 
BRANCH  14  15
ATOM     15  C   UNL A   1      37.867  32.438  31.737  1.00  0.00     0.031 A 
ATOM     16  C   UNL A   1      38.641  31.272  31.178  1.00  0.00     0.074 A 
ATOM     17  C   UNL A   1      38.183  32.939  32.947  1.00  0.00     0.049 A 
ATOM     18  N   UNL A   1      39.649  30.625  31.708  1.00  0.00    -0.248 NA
ATOM     19  C   UNL A   1      38.230  30.760  29.861  1.00  0.00     0.031 C 
ATOM     20  C   UNL A   1      37.503  34.065  33.596  1.00  0.00     0.029 A 
ATOM     21  N   UNL A   1      39.171  32.595  33.832  1.00  0.00    -0.354 N 
ATOM     22  C   UNL A   1      39.971  29.614  30.809  1.00  0.00     0.074 A 
ATOM     23  C   UNL A   1      39.041  29.722  29.706  1.00  0.00     0.031 C 
ATOM     24  C   UNL A   1      38.134  34.358  34.741  1.00  0.00     0.029 A 
ATOM     25  C   UNL A   1      39.220  33.406  34.941  1.00  0.00     0.049 A 
ATOM     26  H   UNL A   1      39.785  31.840  33.688  1.00  0.00     0.167 HD
ATOM     27  C   UNL A   1      40.953  28.683  30.895  1.00  0.00     0.031 A 
ATOM     28  C   UNL A   1      40.044  33.387  36.004  1.00  0.00     0.031 A 
ATOM     29  C   UNL A   1      41.887  28.589  31.988  1.00  0.00     0.049 A 
ATOM     30  C   UNL A   1      41.126  32.350  36.072  1.00  0.00     0.074 A 
ATOM     31  C   UNL A   1      42.937  27.703  32.150  1.00  0.00     0.029 A 
ATOM     32  N   UNL A   1      41.884  29.411  33.105  1.00  0.00    -0.354 N 
ATOM     33  N   UNL A   1      41.427  31.417  35.199  1.00  0.00    -0.248 NA
ATOM     34  C   UNL A   1      41.980  32.364  37.265  1.00  0.00     0.031 C 
ATOM     35  C   UNL A   1      43.543  27.961  33.384  1.00  0.00     0.029 A 
ATOM     36  C   UNL A   1      42.903  29.043  33.967  1.00  0.00     0.049 A 
ATOM     37  H   UNL A   1      41.251  30.149  33.262  1.00  0.00     0.167 HD
ATOM     38  C   UNL A   1      42.521  30.746  35.729  1.00  0.00     0.074 A 
ATOM     39  C   UNL A   1      42.838  31.391  36.988  1.00  0.00     0.031 C 
ATOM     40  C   UNL A   1      43.203  29.691  35.218  1.00  0.00     0.031 A 
BRANCH  27  41
ATOM     41  C   UNL A   1      41.049  27.664  29.788  1.00  0.00    -0.014 A 
ATOM     42  C   UNL A   1      39.981  26.799  29.493  1.00  0.00     0.010 A 
ATOM     43  C   UNL A   1      42.216  27.601  29.004  1.00  0.00     0.010 A 
ATOM     44  C   UNL A   1      40.093  25.863  28.460  1.00  0.00     0.020 A 
ATOM     45  C   UNL A   1      42.322  26.683  27.955  1.00  0.00     0.020 A 
ATOM     46  C   UNL A   1      41.266  25.806  27.701  1.00  0.00     0.054 A 
BRANCH  46  47
ATOM     47  S   UNL A   1      41.382  24.592  26.358  1.00  0.00     0.124 S 
ATOM     48  O   UNL A   1      40.909  25.366  25.213  1.00  0.00    -0.237 OA
ATOM     49  O   UNL A   1      42.804  24.259  26.345  1.00  0.00    -0.237 OA
ATOM     50  O   UNL A   1      40.498  23.512  26.789  1.00  0.00    -0.744 OA
ENDBRANCH  46  47
ENDBRANCH  27  41
BRANCH  28  51
ATOM     51  C   UNL A   1      39.874  34.397  37.083  1.00  0.00    -0.014 A 
ATOM     52  C   UNL A   1      40.450  35.673  36.963  1.00  0.00     0.010 A 
ATOM     53  C   UNL A   1      39.104  34.095  38.221  1.00  0.00     0.010 A 
ATOM     54  C   UNL A   1      40.269  36.627  37.968  1.00  0.00     0.020 A 
ATOM     55  C   UNL A   1      38.897  35.055  39.213  1.00  0.00     0.020 A 
ATOM     56  C   UNL A   1      39.490  36.312  39.086  1.00  0.00     0.054 A 
BRANCH  56  57
ATOM     57  S   UNL A   1      39.213  37.584  40.349  1.00  0.00     0.124 S 
ATOM     58  O   UNL A   1      38.288  38.486  39.672  1.00  0.00    -0.237 OA
ATOM     59  O   UNL A   1      38.652  36.815  41.457  1.00  0.00    -0.237 OA
ATOM     60  O   UNL A   1      40.551  38.121  40.590  1.00  0.00    -0.744 OA
ENDBRANCH  56  57
ENDBRANCH  28  51
BRANCH  40  61
ATOM     61  C   UNL A   1      44.383  29.196  36.008  1.00  0.00    -0.014 A 
ATOM     62  C   UNL A   1      44.319  27.999  36.743  1.00  0.00     0.010 A 
ATOM     63  C   UNL A   1      45.581  29.932  35.995  1.00  0.00     0.010 A 
ATOM     64  C   UNL A   1      45.420  27.568  37.486  1.00  0.00     0.020 A 
ATOM     65  C   UNL A   1      46.693  29.491  36.717  1.00  0.00     0.020 A 
ATOM     66  C   UNL A   1      46.599  28.322  37.474  1.00  0.00     0.054 A 
BRANCH  66  67
ATOM     67  S   UNL A   1      48.024  27.737  38.432  1.00  0.00     0.124 S 
ATOM     68  O   UNL A   1      47.903  26.289  38.301  1.00  0.00    -0.237 OA
ATOM     69  O   UNL A   1      49.155  28.341  37.730  1.00  0.00    -0.237 OA
ATOM     70  O   UNL A   1      47.778  28.267  39.772  1.00  0.00    -0.744 OA
ENDBRANCH  66  67
ENDBRANCH  40  61
ENDBRANCH  14  15
ENDBRANCH   7   9
ENDBRANCH   4   5
ENDBRANCH   3   4
ENDBRANCH   2   3
ENDBRANCH   1   2
BRANCH   1  71
ATOM     71  N   UNL A   1      31.808  29.327  27.470  1.00  0.00    -0.354 N 
ATOM     72  C   UNL A   1      32.011  28.048  27.037  1.00  0.00     0.244 C 
ATOM     73  H   UNL A   1      31.131  29.415  28.179  1.00  0.00     0.163 HD
ATOM     74  O   UNL A   1      31.592  27.131  27.746  1.00  0.00    -0.273 OA
BRANCH  72  75
ATOM     75  C   UNL A   1      32.832  27.741  25.772  1.00  0.00     0.197 C 
BRANCH  75  76
ATOM     76  N   UNL A   1      31.945  27.743  24.598  1.00  0.00    -0.340 N 
ATOM     77  C   UNL A   1      30.976  26.850  24.258  1.00  0.00     0.244 C 
ATOM     78  H   UNL A   1      32.071  28.493  23.972  1.00  0.00     0.164 HD
ATOM     79  O   UNL A   1      29.899  27.311  23.870  1.00  0.00    -0.273 OA
BRANCH  77  80
ATOM     80  C   UNL A   1      31.182  25.323  24.327  1.00  0.00     0.181 C 
BRANCH  80  81
ATOM     81  N   UNL A   1      30.358  24.672  25.345  1.00  0.00    -0.342 N 
ATOM     82  C   UNL A   1      30.724  23.778  26.303  1.00  0.00     0.243 C 
ATOM     83  H   UNL A   1      29.404  24.915  25.335  1.00  0.00     0.164 HD
ATOM     84  O   UNL A   1      29.970  23.683  27.277  1.00  0.00    -0.273 OA
BRANCH  82  85
ATOM     85  C   UNL A   1      31.919  22.824  26.075  1.00  0.00     0.176 C 
BRANCH  85  86
ATOM     86  N   UNL A   1      32.732  22.824  27.295  1.00  0.00    -0.340 N 
ATOM     87  C   UNL A   1      34.102  22.791  27.407  1.00  0.00     0.251 C 
ATOM     88  H   UNL A   1      32.233  22.852  28.143  1.00  0.00     0.164 HD
ATOM     89  O   UNL A   1      34.656  22.758  28.500  1.00  0.00    -0.269 OA
BRANCH  87  90
ATOM     90  C   UNL A   1      34.924  22.738  26.180  1.00  0.00     0.040 A 
ATOM     91  C   UNL A   1      35.334  23.914  25.544  1.00  0.00     0.017 A 
ATOM     92  C   UNL A   1      35.283  21.488  25.659  1.00  0.00     0.017 A 
ATOM     93  C   UNL A   1      36.050  23.831  24.348  1.00  0.00     0.040 A 
ATOM     94  C   UNL A   1      35.977  21.411  24.452  1.00  0.00     0.040 A 
ATOM     95  C   UNL A   1      36.347  22.584  23.803  1.00  0.00     0.123 A 
ATOM     96  F   UNL A   1      37.006  22.510  22.641  1.00  0.00    -0.207 F 
ENDBRANCH  87  90
ENDBRANCH  85  86
BRANCH  85  97
ATOM     97  C   UNL A   1      31.288  21.467  25.702  1.00  0.00     0.072 C 
BRANCH  97  98
ATOM     98  C   UNL A   1      31.946  20.594  24.674  1.00  0.00    -0.020 A 
ATOM     99  C   UNL A   1      32.157  21.001  23.367  1.00  0.00     0.087 A 
ATOM    100  C   UNL A   1      32.476  19.265  24.768  1.00  0.00     0.003 A 
ATOM    101  N   UNL A   1      32.695  19.963  22.663  1.00  0.00    -0.361 N 
ATOM    102  C   UNL A   1      32.851  18.872  23.481  1.00  0.00     0.046 A 
ATOM    103  C   UNL A   1      32.650  18.332  25.808  1.00  0.00     0.010 A 
ATOM    104  H   UNL A   1      32.936  19.992  21.708  1.00  0.00     0.166 HD
ATOM    105  C   UNL A   1      33.296  17.580  23.174  1.00  0.00     0.026 A 
ATOM    106  C   UNL A   1      33.078  17.030  25.521  1.00  0.00     0.001 A 
ATOM    107  C   UNL A   1      33.378  16.657  24.217  1.00  0.00     0.002 A 
ENDBRANCH  97  98
ENDBRANCH  85  97
ENDBRANCH  82  85
ENDBRANCH  80  81
BRANCH  80 108
ATOM    108  C   UNL A   1      31.167  24.641  22.955  1.00  0.00     0.101 C 
BRANCH 108 109
ATOM    109  S   UNL A   1      32.726  24.703  22.024  1.00  0.00    -0.177 SA
ATOM    110  H   UNL A   1      32.783  23.651  21.165  1.00  0.00     0.102 HD
ENDBRANCH 108 109
ENDBRANCH  80 108
ENDBRANCH  77  80
ENDBRANCH  75  76
BRANCH  75 111
ATOM    111  C   UNL A   1      34.029  28.701  25.671  1.00  0.00     0.191 C 
BRANCH 111 112
ATOM    112  O   UNL A   1      34.826  28.705  26.853  1.00  0.00    -0.394 OA
ATOM    113  H   UNL A   1      34.556  29.442  27.423  1.00  0.00     0.210 HD
ENDBRANCH 111 112
ENDBRANCH  75 111
ENDBRANCH  72  75
ENDBRANCH   1  71
TORSDOF 26
ENDMDL
