MODEL 1
REMARK VINA RESULT:     -10.6      0.000      0.000
REMARK SMILES C[C@H]([NH2+]CC(C)(C)C(=O)NCCCCNC(=O)c1ccc(-c2c3nc(c(-c4ccc(S(=O)(=O)[O-])cc4)c4ccc([nH]4)c(-c4ccc(S(=O)(=O)[O-])cc4)c4nc(c(-c5ccc(S(=O)(=O)[O-])cc5)c5ccc2[nH]5)C=C4)C=C3)cc1)c1nccs1
REMARK SMILES IDX 12 1 11 2 10 3 8 4 9 5 5 7 6 8 7 9 4 10 3 11 2 14 1 15 78 16
REMARK SMILES IDX 79 17 82 18 80 19 81 20 13 21 14 22 15 23 16 24 17 26 18 27
REMARK SMILES IDX 19 28 77 29 20 30 76 31 21 32 22 33 23 34 70 35 24 36 75 37
REMARK SMILES IDX 69 38 71 39 25 40 74 41 68 42 67 43 26 45 56 46 37 47 55 48
REMARK SMILES IDX 38 49 41 50 54 51 72 52 39 53 40 54 53 56 73 57 42 58 27 59
REMARK SMILES IDX 28 60 36 61 29 62 35 63 30 64 31 65 32 66 33 67 34 68 57 69
REMARK SMILES IDX 58 70 66 71 59 72 65 73 60 74 61 75 62 76 63 77 64 78 43 79
REMARK SMILES IDX 44 80 52 81 45 82 51 83 46 84 47 85 48 86 49 87 50 88
REMARK H PARENT 10 6 3 12 3 13 15 25 71 44 41 55
REMARK Flexibility Score: inf
ROOT
ATOM      1  C   UNL A   1      33.214  29.461  27.350  1.00  0.00     0.023 C 
ENDROOT
BRANCH   1   2
ATOM      2  C   UNL A   1      32.389  28.260  26.889  1.00  0.00     0.116 C 
BRANCH   2   3
ATOM      3  N   UNL A   1      33.201  27.309  26.159  1.00  0.00    -0.355 N 
ATOM      4  C   UNL A   1      32.909  26.380  25.208  1.00  0.00     0.231 C 
ATOM      5  O   UNL A   1      33.816  25.580  24.963  1.00  0.00    -0.274 OA
ATOM      6  H   UNL A   1      34.156  27.340  26.399  1.00  0.00     0.163 HD
BRANCH   4   7
ATOM      7  C   UNL A   1      31.527  26.292  24.523  1.00  0.00     0.092 C 
ATOM      8  C   UNL A   1      30.363  26.286  25.531  1.00  0.00     0.027 C 
ATOM      9  C   UNL A   1      31.488  25.030  23.638  1.00  0.00     0.027 C 
BRANCH   7  10
ATOM     10  C   UNL A   1      31.348  27.516  23.561  1.00  0.00     0.277 C 
BRANCH  10  11
ATOM     11  N   UNL A   1      30.225  28.390  23.905  1.00  0.00    -0.337 N 
ATOM     12  H   UNL A   1      29.835  28.080  24.794  1.00  0.00     0.346 HD
ATOM     13  H   UNL A   1      30.591  29.342  23.952  1.00  0.00     0.346 HD
BRANCH  11  14
ATOM     14  C   UNL A   1      29.150  28.394  22.900  1.00  0.00     0.239 C 
ATOM     15  C   UNL A   1      27.888  27.708  23.438  1.00  0.00     0.083 C 
BRANCH  14  16
ATOM     16  C   UNL A   1      28.838  29.807  22.433  1.00  0.00     0.150 A 
ATOM     17  N   UNL A   1      28.453  30.103  21.205  1.00  0.00    -0.243 NA
ATOM     18  S   UNL A   1      28.949  31.159  23.505  1.00  0.00    -0.121 S 
ATOM     19  C   UNL A   1      28.327  31.470  21.069  1.00  0.00     0.123 A 
ATOM     20  C   UNL A   1      28.548  32.205  22.211  1.00  0.00     0.087 A 
ENDBRANCH  14  16
ENDBRANCH  11  14
ENDBRANCH  10  11
ENDBRANCH   7  10
ENDBRANCH   4   7
ENDBRANCH   2   3
ENDBRANCH   1   2
BRANCH   1  21
ATOM     21  C   UNL A   1      34.727  29.301  27.190  1.00  0.00     0.023 C 
BRANCH  21  22
ATOM     22  C   UNL A   1      35.566  30.437  27.762  1.00  0.00     0.116 C 
BRANCH  22  23
ATOM     23  N   UNL A   1      35.416  30.592  29.203  1.00  0.00    -0.352 N 
ATOM     24  C   UNL A   1      36.280  30.189  30.195  1.00  0.00     0.251 C 
ATOM     25  H   UNL A   1      34.593  31.041  29.505  1.00  0.00     0.163 HD
ATOM     26  O   UNL A   1      35.969  30.298  31.377  1.00  0.00    -0.269 OA
BRANCH  24  27
ATOM     27  C   UNL A   1      37.571  29.588  29.809  1.00  0.00     0.039 A 
ATOM     28  C   UNL A   1      38.063  29.803  28.520  1.00  0.00     0.014 A 
ATOM     29  C   UNL A   1      38.323  28.883  30.752  1.00  0.00     0.014 A 
ATOM     30  C   UNL A   1      39.354  29.381  28.198  1.00  0.00     0.010 A 
ATOM     31  C   UNL A   1      39.629  28.516  30.447  1.00  0.00     0.010 A 
ATOM     32  C   UNL A   1      40.161  28.772  29.172  1.00  0.00    -0.014 A 
BRANCH  32  33
ATOM     33  C   UNL A   1      41.572  28.399  28.905  1.00  0.00     0.031 A 
ATOM     34  C   UNL A   1      42.635  29.461  28.922  1.00  0.00     0.074 A 
ATOM     35  C   UNL A   1      41.877  27.139  28.536  1.00  0.00     0.049 A 
ATOM     36  N   UNL A   1      43.882  29.387  28.537  1.00  0.00    -0.248 NA
ATOM     37  C   UNL A   1      42.230  30.791  29.408  1.00  0.00     0.031 C 
ATOM     38  C   UNL A   1      40.931  26.023  28.455  1.00  0.00     0.029 A 
ATOM     39  N   UNL A   1      43.070  26.591  28.134  1.00  0.00    -0.354 N 
ATOM     40  C   UNL A   1      44.401  30.666  28.698  1.00  0.00     0.074 A 
ATOM     41  C   UNL A   1      43.327  31.501  29.189  1.00  0.00     0.031 C 
ATOM     42  C   UNL A   1      41.582  24.925  28.038  1.00  0.00     0.029 A 
ATOM     43  C   UNL A   1      42.976  25.266  27.778  1.00  0.00     0.049 A 
ATOM     44  H   UNL A   1      43.912  27.099  28.105  1.00  0.00     0.167 HD
ATOM     45  C   UNL A   1      45.661  31.102  28.464  1.00  0.00     0.031 A 
ATOM     46  C   UNL A   1      43.904  24.426  27.278  1.00  0.00     0.031 A 
ATOM     47  C   UNL A   1      46.732  30.263  28.000  1.00  0.00     0.049 A 
ATOM     48  C   UNL A   1      45.299  24.931  27.034  1.00  0.00     0.074 A 
ATOM     49  C   UNL A   1      48.055  30.600  27.781  1.00  0.00     0.029 A 
ATOM     50  N   UNL A   1      46.603  28.918  27.693  1.00  0.00    -0.354 N 
ATOM     51  N   UNL A   1      45.781  26.136  27.224  1.00  0.00    -0.248 NA
ATOM     52  C   UNL A   1      46.276  23.965  26.512  1.00  0.00     0.031 C 
ATOM     53  C   UNL A   1      48.722  29.464  27.311  1.00  0.00     0.029 A 
ATOM     54  C   UNL A   1      47.822  28.411  27.277  1.00  0.00     0.049 A 
ATOM     55  H   UNL A   1      45.769  28.400  27.759  1.00  0.00     0.167 HD
ATOM     56  C   UNL A   1      47.123  26.066  26.872  1.00  0.00     0.074 A 
ATOM     57  C   UNL A   1      47.380  24.700  26.460  1.00  0.00     0.031 C 
ATOM     58  C   UNL A   1      48.061  27.045  26.890  1.00  0.00     0.031 A 
BRANCH  45  59
ATOM     59  C   UNL A   1      45.941  32.562  28.699  1.00  0.00    -0.014 A 
ATOM     60  C   UNL A   1      46.389  33.021  29.950  1.00  0.00     0.010 A 
ATOM     61  C   UNL A   1      45.771  33.483  27.649  1.00  0.00     0.010 A 
ATOM     62  C   UNL A   1      46.617  34.382  30.162  1.00  0.00     0.020 A 
ATOM     63  C   UNL A   1      46.023  34.842  27.851  1.00  0.00     0.020 A 
ATOM     64  C   UNL A   1      46.425  35.286  29.113  1.00  0.00     0.054 A 
BRANCH  64  65
ATOM     65  S   UNL A   1      46.734  37.048  29.411  1.00  0.00     0.124 S 
ATOM     66  O   UNL A   1      47.044  37.060  30.838  1.00  0.00    -0.237 OA
ATOM     67  O   UNL A   1      47.858  37.334  28.523  1.00  0.00    -0.237 OA
ATOM     68  O   UNL A   1      45.474  37.688  29.041  1.00  0.00    -0.744 OA
ENDBRANCH  64  65
ENDBRANCH  45  59
BRANCH  46  69
ATOM     69  C   UNL A   1      43.542  23.014  26.981  1.00  0.00    -0.014 A 
ATOM     70  C   UNL A   1      43.904  22.435  25.752  1.00  0.00     0.010 A 
ATOM     71  C   UNL A   1      42.853  22.235  27.928  1.00  0.00     0.010 A 
ATOM     72  C   UNL A   1      43.572  21.108  25.468  1.00  0.00     0.020 A 
ATOM     73  C   UNL A   1      42.538  20.901  27.656  1.00  0.00     0.020 A 
ATOM     74  C   UNL A   1      42.890  20.348  26.423  1.00  0.00     0.054 A 
BRANCH  74  75
ATOM     75  S   UNL A   1      42.518  18.609  26.059  1.00  0.00     0.124 S 
ATOM     76  O   UNL A   1      43.404  18.341  24.930  1.00  0.00    -0.237 OA
ATOM     77  O   UNL A   1      42.868  17.941  27.310  1.00  0.00    -0.237 OA
ATOM     78  O   UNL A   1      41.091  18.625  25.748  1.00  0.00    -0.744 OA
ENDBRANCH  74  75
ENDBRANCH  46  69
BRANCH  58  79
ATOM     79  C   UNL A   1      49.465  26.675  26.500  1.00  0.00    -0.014 A 
ATOM     80  C   UNL A   1      50.345  26.091  27.425  1.00  0.00     0.010 A 
ATOM     81  C   UNL A   1      49.868  26.825  25.160  1.00  0.00     0.010 A 
ATOM     82  C   UNL A   1      51.613  25.667  27.018  1.00  0.00     0.020 A 
ATOM     83  C   UNL A   1      51.128  26.384  24.747  1.00  0.00     0.020 A 
ATOM     84  C   UNL A   1      51.994  25.811  25.679  1.00  0.00     0.054 A 
BRANCH  84  85
ATOM     85  S   UNL A   1      53.610  25.173  25.156  1.00  0.00     0.124 S 
ATOM     86  O   UNL A   1      53.421  23.730  25.275  1.00  0.00    -0.237 OA
ATOM     87  O   UNL A   1      53.732  25.681  23.792  1.00  0.00    -0.237 OA
ATOM     88  O   UNL A   1      54.541  25.762  26.117  1.00  0.00    -0.744 OA
ENDBRANCH  84  85
ENDBRANCH  58  79
ENDBRANCH  32  33
ENDBRANCH  24  27
ENDBRANCH  22  23
ENDBRANCH  21  22
ENDBRANCH   1  21
TORSDOF 18
ENDMDL
MODEL 2
REMARK VINA RESULT:     -10.4      6.837     12.435
REMARK SMILES C[C@H]([NH2+]CC(C)(C)C(=O)NCCCCNC(=O)c1ccc(-c2c3nc(c(-c4ccc(S(=O)(=O)[O-])cc4)c4ccc([nH]4)c(-c4ccc(S(=O)(=O)[O-])cc4)c4nc(c(-c5ccc(S(=O)(=O)[O-])cc5)c5ccc2[nH]5)C=C4)C=C3)cc1)c1nccs1
REMARK SMILES IDX 12 1 11 2 10 3 8 4 9 5 5 7 6 8 7 9 4 10 3 11 2 14 1 15 78 16
REMARK SMILES IDX 79 17 82 18 80 19 81 20 13 21 14 22 15 23 16 24 17 26 18 27
REMARK SMILES IDX 19 28 77 29 20 30 76 31 21 32 22 33 23 34 70 35 24 36 75 37
REMARK SMILES IDX 69 38 71 39 25 40 74 41 68 42 67 43 26 45 56 46 37 47 55 48
REMARK SMILES IDX 38 49 41 50 54 51 72 52 39 53 40 54 53 56 73 57 42 58 27 59
REMARK SMILES IDX 28 60 36 61 29 62 35 63 30 64 31 65 32 66 33 67 34 68 57 69
REMARK SMILES IDX 58 70 66 71 59 72 65 73 60 74 61 75 62 76 63 77 64 78 43 79
REMARK SMILES IDX 44 80 52 81 45 82 51 83 46 84 47 85 48 86 49 87 50 88
REMARK H PARENT 10 6 3 12 3 13 15 25 71 44 41 55
REMARK Flexibility Score: inf
ROOT
ATOM      1  C   UNL A   1      39.371  24.403  27.287  1.00  0.00     0.023 C 
ENDROOT
BRANCH   1   2
ATOM      2  C   UNL A   1      38.189  24.093  26.371  1.00  0.00     0.116 C 
BRANCH   2   3
ATOM      3  N   UNL A   1      38.240  22.731  25.882  1.00  0.00    -0.355 N 
ATOM      4  C   UNL A   1      37.305  21.906  25.338  1.00  0.00     0.231 C 
ATOM      5  O   UNL A   1      37.643  20.724  25.240  1.00  0.00    -0.274 OA
ATOM      6  H   UNL A   1      39.132  22.318  25.959  1.00  0.00     0.163 HD
BRANCH   4   7
ATOM      7  C   UNL A   1      35.899  22.396  24.924  1.00  0.00     0.092 C 
ATOM      8  C   UNL A   1      35.935  23.361  23.725  1.00  0.00     0.027 C 
ATOM      9  C   UNL A   1      35.224  23.061  26.139  1.00  0.00     0.027 C 
BRANCH   7  10
ATOM     10  C   UNL A   1      35.013  21.160  24.544  1.00  0.00     0.277 C 
BRANCH  10  11
ATOM     11  N   UNL A   1      34.470  20.434  25.693  1.00  0.00    -0.337 N 
ATOM     12  H   UNL A   1      35.093  19.655  25.906  1.00  0.00     0.346 HD
ATOM     13  H   UNL A   1      34.403  21.100  26.463  1.00  0.00     0.346 HD
BRANCH  11  14
ATOM     14  C   UNL A   1      33.117  19.900  25.469  1.00  0.00     0.239 C 
ATOM     15  C   UNL A   1      32.425  20.617  24.305  1.00  0.00     0.083 C 
BRANCH  14  16
ATOM     16  C   UNL A   1      33.150  18.398  25.233  1.00  0.00     0.150 A 
ATOM     17  N   UNL A   1      32.264  17.558  25.737  1.00  0.00    -0.243 NA
ATOM     18  S   UNL A   1      34.369  17.664  24.252  1.00  0.00    -0.121 S 
ATOM     19  C   UNL A   1      32.608  16.262  25.415  1.00  0.00     0.123 A 
ATOM     20  C   UNL A   1      33.715  16.123  24.609  1.00  0.00     0.087 A 
ENDBRANCH  14  16
ENDBRANCH  11  14
ENDBRANCH  10  11
ENDBRANCH   7  10
ENDBRANCH   4   7
ENDBRANCH   2   3
ENDBRANCH   1   2
BRANCH   1  21
ATOM     21  C   UNL A   1      40.020  25.770  27.060  1.00  0.00     0.023 C 
BRANCH  21  22
ATOM     22  C   UNL A   1      40.846  25.896  25.786  1.00  0.00     0.116 C 
BRANCH  22  23
ATOM     23  N   UNL A   1      42.064  25.097  25.811  1.00  0.00    -0.352 N 
ATOM     24  C   UNL A   1      43.142  25.217  26.657  1.00  0.00     0.251 C 
ATOM     25  H   UNL A   1      42.123  24.381  25.137  1.00  0.00     0.163 HD
ATOM     26  O   UNL A   1      44.147  24.532  26.491  1.00  0.00    -0.269 OA
BRANCH  24  27
ATOM     27  C   UNL A   1      43.081  26.212  27.745  1.00  0.00     0.039 A 
ATOM     28  C   UNL A   1      43.420  27.540  27.472  1.00  0.00     0.014 A 
ATOM     29  C   UNL A   1      42.610  25.841  29.006  1.00  0.00     0.014 A 
ATOM     30  C   UNL A   1      43.208  28.516  28.446  1.00  0.00     0.010 A 
ATOM     31  C   UNL A   1      42.345  26.823  29.953  1.00  0.00     0.010 A 
ATOM     32  C   UNL A   1      42.630  28.171  29.677  1.00  0.00    -0.014 A 
BRANCH  32  33
ATOM     33  C   UNL A   1      42.293  29.191  30.702  1.00  0.00     0.031 A 
ATOM     34  C   UNL A   1      43.109  29.273  31.961  1.00  0.00     0.074 A 
ATOM     35  C   UNL A   1      41.194  29.956  30.554  1.00  0.00     0.049 A 
ATOM     36  N   UNL A   1      42.876  29.953  33.053  1.00  0.00    -0.248 NA
ATOM     37  C   UNL A   1      44.333  28.456  32.008  1.00  0.00     0.031 C 
ATOM     38  C   UNL A   1      40.303  29.952  29.390  1.00  0.00     0.029 A 
ATOM     39  N   UNL A   1      40.623  30.871  31.403  1.00  0.00    -0.354 N 
ATOM     40  C   UNL A   1      43.901  29.619  33.929  1.00  0.00     0.074 A 
ATOM     41  C   UNL A   1      44.741  28.656  33.252  1.00  0.00     0.031 C 
ATOM     42  C   UNL A   1      39.305  30.827  29.597  1.00  0.00     0.029 A 
ATOM     43  C   UNL A   1      39.457  31.420  30.921  1.00  0.00     0.049 A 
ATOM     44  H   UNL A   1      41.011  31.113  32.275  1.00  0.00     0.167 HD
ATOM     45  C   UNL A   1      44.125  30.079  35.182  1.00  0.00     0.031 A 
ATOM     46  C   UNL A   1      38.595  32.286  31.491  1.00  0.00     0.031 A 
ATOM     47  C   UNL A   1      43.301  31.056  35.842  1.00  0.00     0.049 A 
ATOM     48  C   UNL A   1      38.870  32.790  32.881  1.00  0.00     0.074 A 
ATOM     49  C   UNL A   1      43.475  31.623  37.092  1.00  0.00     0.029 A 
ATOM     50  N   UNL A   1      42.155  31.616  35.300  1.00  0.00    -0.354 N 
ATOM     51  N   UNL A   1      39.863  32.489  33.682  1.00  0.00    -0.248 NA
ATOM     52  C   UNL A   1      37.911  33.752  33.443  1.00  0.00     0.031 C 
ATOM     53  C   UNL A   1      42.414  32.506  37.319  1.00  0.00     0.029 A 
ATOM     54  C   UNL A   1      41.604  32.518  36.194  1.00  0.00     0.049 A 
ATOM     55  H   UNL A   1      41.787  31.404  34.413  1.00  0.00     0.167 HD
ATOM     56  C   UNL A   1      39.664  33.244  34.831  1.00  0.00     0.074 A 
ATOM     57  C   UNL A   1      38.458  34.020  34.621  1.00  0.00     0.031 C 
ATOM     58  C   UNL A   1      40.414  33.293  35.959  1.00  0.00     0.031 A 
BRANCH  45  59
ATOM     59  C   UNL A   1      45.307  29.517  35.923  1.00  0.00    -0.014 A 
ATOM     60  C   UNL A   1      46.573  30.123  35.833  1.00  0.00     0.010 A 
ATOM     61  C   UNL A   1      45.146  28.379  36.734  1.00  0.00     0.010 A 
ATOM     62  C   UNL A   1      47.668  29.574  36.503  1.00  0.00     0.020 A 
ATOM     63  C   UNL A   1      46.234  27.842  37.427  1.00  0.00     0.020 A 
ATOM     64  C   UNL A   1      47.493  28.431  37.290  1.00  0.00     0.054 A 
BRANCH  64  65
ATOM     65  S   UNL A   1      48.929  27.739  38.155  1.00  0.00     0.124 S 
ATOM     66  O   UNL A   1      48.360  27.404  39.458  1.00  0.00    -0.237 OA
ATOM     67  O   UNL A   1      49.293  26.599  37.318  1.00  0.00    -0.237 OA
ATOM     68  O   UNL A   1      49.893  28.837  38.159  1.00  0.00    -0.744 OA
ENDBRANCH  64  65
ENDBRANCH  45  59
BRANCH  46  69
ATOM     69  C   UNL A   1      37.393  32.737  30.741  1.00  0.00    -0.014 A 
ATOM     70  C   UNL A   1      36.145  32.135  30.978  1.00  0.00     0.010 A 
ATOM     71  C   UNL A   1      37.483  33.780  29.802  1.00  0.00     0.010 A 
ATOM     72  C   UNL A   1      35.010  32.558  30.279  1.00  0.00     0.020 A 
ATOM     73  C   UNL A   1      36.346  34.220  29.117  1.00  0.00     0.020 A 
ATOM     74  C   UNL A   1      35.118  33.598  29.353  1.00  0.00     0.054 A 
BRANCH  74  75
ATOM     75  S   UNL A   1      33.623  34.172  28.499  1.00  0.00     0.124 S 
ATOM     76  O   UNL A   1      34.151  35.227  27.640  1.00  0.00    -0.237 OA
ATOM     77  O   UNL A   1      33.167  32.966  27.811  1.00  0.00    -0.237 OA
ATOM     78  O   UNL A   1      32.759  34.621  29.589  1.00  0.00    -0.744 OA
ENDBRANCH  74  75
ENDBRANCH  46  69
BRANCH  58  79
ATOM     79  C   UNL A   1      39.990  34.248  37.040  1.00  0.00    -0.014 A 
ATOM     80  C   UNL A   1      39.235  33.809  38.141  1.00  0.00     0.010 A 
ATOM     81  C   UNL A   1      40.441  35.580  36.998  1.00  0.00     0.010 A 
ATOM     82  C   UNL A   1      38.933  34.689  39.183  1.00  0.00     0.020 A 
ATOM     83  C   UNL A   1      40.156  36.457  38.048  1.00  0.00     0.020 A 
ATOM     84  C   UNL A   1      39.400  36.007  39.132  1.00  0.00     0.054 A 
BRANCH  84  85
ATOM     85  S   UNL A   1      39.070  37.108  40.535  1.00  0.00     0.124 S 
ATOM     86  O   UNL A   1      38.367  36.221  41.459  1.00  0.00    -0.237 OA
ATOM     87  O   UNL A   1      40.410  37.514  40.951  1.00  0.00    -0.237 OA
ATOM     88  O   UNL A   1      38.256  38.174  39.954  1.00  0.00    -0.744 OA
ENDBRANCH  84  85
ENDBRANCH  58  79
ENDBRANCH  32  33
ENDBRANCH  24  27
ENDBRANCH  22  23
ENDBRANCH  21  22
ENDBRANCH   1  21
TORSDOF 18
ENDMDL
MODEL 3
REMARK VINA RESULT:     -10.3      4.096      7.273
REMARK SMILES C[C@H]([NH2+]CC(C)(C)C(=O)NCCCCNC(=O)c1ccc(-c2c3nc(c(-c4ccc(S(=O)(=O)[O-])cc4)c4ccc([nH]4)c(-c4ccc(S(=O)(=O)[O-])cc4)c4nc(c(-c5ccc(S(=O)(=O)[O-])cc5)c5ccc2[nH]5)C=C4)C=C3)cc1)c1nccs1
REMARK SMILES IDX 12 1 11 2 10 3 8 4 9 5 5 7 6 8 7 9 4 10 3 11 2 14 1 15 78 16
REMARK SMILES IDX 79 17 82 18 80 19 81 20 13 21 14 22 15 23 16 24 17 26 18 27
REMARK SMILES IDX 19 28 77 29 20 30 76 31 21 32 22 33 23 34 70 35 24 36 75 37
REMARK SMILES IDX 69 38 71 39 25 40 74 41 68 42 67 43 26 45 56 46 37 47 55 48
REMARK SMILES IDX 38 49 41 50 54 51 72 52 39 53 40 54 53 56 73 57 42 58 27 59
REMARK SMILES IDX 28 60 36 61 29 62 35 63 30 64 31 65 32 66 33 67 34 68 57 69
REMARK SMILES IDX 58 70 66 71 59 72 65 73 60 74 61 75 62 76 63 77 64 78 43 79
REMARK SMILES IDX 44 80 52 81 45 82 51 83 46 84 47 85 48 86 49 87 50 88
REMARK H PARENT 10 6 3 12 3 13 15 25 71 44 41 55
REMARK Flexibility Score: inf
ROOT
ATOM      1  C   UNL A   1      36.527  33.495  29.164  1.00  0.00     0.023 C 
ENDROOT
BRANCH   1   2
ATOM      2  C   UNL A   1      35.935  34.223  30.369  1.00  0.00     0.116 C 
BRANCH   2   3
ATOM      3  N   UNL A   1      36.958  34.574  31.332  1.00  0.00    -0.355 N 
ATOM      4  C   UNL A   1      37.165  34.228  32.631  1.00  0.00     0.231 C 
ATOM      5  O   UNL A   1      38.020  34.893  33.220  1.00  0.00    -0.274 OA
ATOM      6  H   UNL A   1      37.642  35.186  30.974  1.00  0.00     0.163 HD
BRANCH   4   7
ATOM      7  C   UNL A   1      36.352  33.122  33.341  1.00  0.00     0.092 C 
ATOM      8  C   UNL A   1      35.982  31.960  32.400  1.00  0.00     0.027 C 
ATOM      9  C   UNL A   1      35.086  33.749  33.955  1.00  0.00     0.027 C 
BRANCH   7  10
ATOM     10  C   UNL A   1      37.190  32.550  34.535  1.00  0.00     0.277 C 
BRANCH  10  11
ATOM     11  N   UNL A   1      37.201  33.403  35.724  1.00  0.00    -0.337 N 
ATOM     12  H   UNL A   1      36.967  34.354  35.441  1.00  0.00     0.346 HD
ATOM     13  H   UNL A   1      36.521  33.013  36.378  1.00  0.00     0.346 HD
BRANCH  11  14
ATOM     14  C   UNL A   1      38.497  33.430  36.421  1.00  0.00     0.239 C 
ATOM     15  C   UNL A   1      38.316  33.273  37.935  1.00  0.00     0.083 C 
BRANCH  14  16
ATOM     16  C   UNL A   1      39.436  32.363  35.877  1.00  0.00     0.150 A 
ATOM     17  N   UNL A   1      39.562  31.160  36.409  1.00  0.00    -0.243 NA
ATOM     18  S   UNL A   1      40.417  32.647  34.483  1.00  0.00    -0.121 S 
ATOM     19  C   UNL A   1      40.544  30.455  35.746  1.00  0.00     0.123 A 
ATOM     20  C   UNL A   1      41.115  31.095  34.670  1.00  0.00     0.087 A 
ENDBRANCH  14  16
ENDBRANCH  11  14
ENDBRANCH  10  11
ENDBRANCH   7  10
ENDBRANCH   4   7
ENDBRANCH   2   3
ENDBRANCH   1   2
BRANCH   1  21
ATOM     21  C   UNL A   1      35.496  32.882  28.213  1.00  0.00     0.023 C 
BRANCH  21  22
ATOM     22  C   UNL A   1      34.320  32.186  28.888  1.00  0.00     0.116 C 
BRANCH  22  23
ATOM     23  N   UNL A   1      33.841  31.024  28.151  1.00  0.00    -0.352 N 
ATOM     24  C   UNL A   1      34.552  29.911  27.765  1.00  0.00     0.251 C 
ATOM     25  H   UNL A   1      32.890  31.037  27.896  1.00  0.00     0.163 HD
ATOM     26  O   UNL A   1      34.034  29.053  27.057  1.00  0.00    -0.269 OA
BRANCH  24  27
ATOM     27  C   UNL A   1      35.960  29.788  28.189  1.00  0.00     0.039 A 
ATOM     28  C   UNL A   1      36.245  29.366  29.490  1.00  0.00     0.014 A 
ATOM     29  C   UNL A   1      36.988  30.012  27.271  1.00  0.00     0.014 A 
ATOM     30  C   UNL A   1      37.565  29.088  29.848  1.00  0.00     0.010 A 
ATOM     31  C   UNL A   1      38.294  29.679  27.612  1.00  0.00     0.010 A 
ATOM     32  C   UNL A   1      38.592  29.201  28.899  1.00  0.00    -0.014 A 
BRANCH  32  33
ATOM     33  C   UNL A   1      39.993  28.819  29.206  1.00  0.00     0.031 A 
ATOM     34  C   UNL A   1      40.933  29.844  29.775  1.00  0.00     0.074 A 
ATOM     35  C   UNL A   1      40.446  27.596  28.869  1.00  0.00     0.049 A 
ATOM     36  N   UNL A   1      42.228  29.776  29.939  1.00  0.00    -0.248 NA
ATOM     37  C   UNL A   1      40.339  31.128  30.184  1.00  0.00     0.031 C 
ATOM     38  C   UNL A   1      39.641  26.520  28.285  1.00  0.00     0.029 A 
ATOM     39  N   UNL A   1      41.708  27.059  28.945  1.00  0.00    -0.354 N 
ATOM     40  C   UNL A   1      42.609  31.017  30.434  1.00  0.00     0.074 A 
ATOM     41  C   UNL A   1      41.414  31.827  30.517  1.00  0.00     0.031 C 
ATOM     42  C   UNL A   1      40.426  25.452  28.065  1.00  0.00     0.029 A 
ATOM     43  C   UNL A   1      41.795  25.780  28.447  1.00  0.00     0.049 A 
ATOM     44  H   UNL A   1      42.477  27.544  29.322  1.00  0.00     0.167 HD
ATOM     45  C   UNL A   1      43.844  31.441  30.792  1.00  0.00     0.031 A 
ATOM     46  C   UNL A   1      42.862  24.971  28.293  1.00  0.00     0.031 A 
ATOM     47  C   UNL A   1      45.026  30.625  30.731  1.00  0.00     0.049 A 
ATOM     48  C   UNL A   1      44.223  25.460  28.707  1.00  0.00     0.074 A 
ATOM     49  C   UNL A   1      46.314  30.947  31.120  1.00  0.00     0.029 A 
ATOM     50  N   UNL A   1      45.061  29.322  30.260  1.00  0.00    -0.354 N 
ATOM     51  N   UNL A   1      44.559  26.626  29.205  1.00  0.00    -0.248 NA
ATOM     52  C   UNL A   1      45.346  24.527  28.541  1.00  0.00     0.031 C 
ATOM     53  C   UNL A   1      47.136  29.846  30.855  1.00  0.00     0.029 A 
ATOM     54  C   UNL A   1      46.351  28.827  30.340  1.00  0.00     0.049 A 
ATOM     55  H   UNL A   1      44.284  28.823  29.919  1.00  0.00     0.167 HD
ATOM     56  C   UNL A   1      45.928  26.556  29.438  1.00  0.00     0.074 A 
ATOM     57  C   UNL A   1      46.357  25.233  29.031  1.00  0.00     0.031 C 
ATOM     58  C   UNL A   1      46.754  27.502  29.947  1.00  0.00     0.031 A 
BRANCH  45  59
ATOM     59  C   UNL A   1      43.974  32.860  31.273  1.00  0.00    -0.014 A 
ATOM     60  C   UNL A   1      44.476  33.867  30.429  1.00  0.00     0.010 A 
ATOM     61  C   UNL A   1      43.571  33.196  32.579  1.00  0.00     0.010 A 
ATOM     62  C   UNL A   1      44.618  35.175  30.898  1.00  0.00     0.020 A 
ATOM     63  C   UNL A   1      43.688  34.508  33.042  1.00  0.00     0.020 A 
ATOM     64  C   UNL A   1      44.231  35.486  32.205  1.00  0.00     0.054 A 
BRANCH  64  65
ATOM     65  S   UNL A   1      44.419  37.192  32.789  1.00  0.00     0.124 S 
ATOM     66  O   UNL A   1      44.346  37.946  31.539  1.00  0.00    -0.237 OA
ATOM     67  O   UNL A   1      43.279  37.355  33.686  1.00  0.00    -0.237 OA
ATOM     68  O   UNL A   1      45.726  37.193  33.442  1.00  0.00    -0.744 OA
ENDBRANCH  64  65
ENDBRANCH  45  59
BRANCH  46  69
ATOM     69  C   UNL A   1      42.683  23.607  27.727  1.00  0.00    -0.014 A 
ATOM     70  C   UNL A   1      42.972  23.360  26.374  1.00  0.00     0.010 A 
ATOM     71  C   UNL A   1      42.243  22.546  28.538  1.00  0.00     0.010 A 
ATOM     72  C   UNL A   1      42.810  22.080  25.836  1.00  0.00     0.020 A 
ATOM     73  C   UNL A   1      42.100  21.260  28.010  1.00  0.00     0.020 A 
ATOM     74  C   UNL A   1      42.375  21.037  26.659  1.00  0.00     0.054 A 
BRANCH  74  75
ATOM     75  S   UNL A   1      42.226  19.370  25.957  1.00  0.00     0.124 S 
ATOM     76  O   UNL A   1      43.063  19.468  24.765  1.00  0.00    -0.237 OA
ATOM     77  O   UNL A   1      42.750  18.526  27.029  1.00  0.00    -0.237 OA
ATOM     78  O   UNL A   1      40.793  19.231  25.709  1.00  0.00    -0.744 OA
ENDBRANCH  74  75
ENDBRANCH  46  69
BRANCH  58  79
ATOM     79  C   UNL A   1      48.200  27.136  30.140  1.00  0.00    -0.014 A 
ATOM     80  C   UNL A   1      49.179  27.536  29.216  1.00  0.00     0.010 A 
ATOM     81  C   UNL A   1      48.589  26.470  31.316  1.00  0.00     0.010 A 
ATOM     82  C   UNL A   1      50.529  27.269  29.463  1.00  0.00     0.020 A 
ATOM     83  C   UNL A   1      49.939  26.220  31.575  1.00  0.00     0.020 A 
ATOM     84  C   UNL A   1      50.901  26.618  30.644  1.00  0.00     0.054 A 
BRANCH  84  85
ATOM     85  S   UNL A   1      52.664  26.360  30.984  1.00  0.00     0.124 S 
ATOM     86  O   UNL A   1      53.198  26.112  29.647  1.00  0.00    -0.237 OA
ATOM     87  O   UNL A   1      53.063  27.625  31.596  1.00  0.00    -0.237 OA
ATOM     88  O   UNL A   1      52.677  25.209  31.885  1.00  0.00    -0.744 OA
ENDBRANCH  84  85
ENDBRANCH  58  79
ENDBRANCH  32  33
ENDBRANCH  24  27
ENDBRANCH  22  23
ENDBRANCH  21  22
ENDBRANCH   1  21
TORSDOF 18
ENDMDL
