MODEL 1
REMARK VINA RESULT:     -12.1      0.000      0.000
REMARK SMILES O=C(Nc1c(F)cc(F)cc1F)N[C@H]1C=C[C@H](C(=O)NCCCCNC(=O)c2ccc(-c3c4nc(c(-c5ccc(S(=O)(=O)[O-])cc5)c5ccc([nH]5)c(-c5ccc(S(=O)(=O)[O-])cc5)c5nc(c(-c6ccc(S(=O)(=O)[O-])cc6)c6ccc3[nH]6)C=C5)C=C4)cc2)C1
REMARK SMILES IDX 23 1 22 2 21 3 20 4 18 5 19 6 17 8 14 9 15 10 88 11 16 12
REMARK SMILES IDX 13 13 1 14 2 15 3 16 4 19 5 20 11 21 6 22 7 23 10 24 12 25
REMARK SMILES IDX 8 26 9 27 24 28 25 29 26 30 27 32 28 33 29 34 87 35 30 36
REMARK SMILES IDX 86 37 31 38 32 39 33 40 80 41 34 42 85 43 79 44 81 45 35 46
REMARK SMILES IDX 84 47 78 48 77 49 36 51 66 52 47 53 65 54 48 55 51 56 64 57
REMARK SMILES IDX 82 58 49 59 50 60 63 62 83 63 52 64 37 65 38 66 46 67 39 68
REMARK SMILES IDX 45 69 40 70 41 71 42 72 43 73 44 74 67 75 68 76 76 77 69 78
REMARK SMILES IDX 75 79 70 80 71 81 72 82 73 83 74 84 53 85 54 86 62 87 55 88
REMARK SMILES IDX 61 89 56 90 57 91 58 92 59 93 60 94
REMARK H PARENT 20 7 3 17 13 18 25 31 81 50 51 61
REMARK Flexibility Score: inf
ROOT
ATOM      1  C   UNL A   1      39.187  22.299  26.440  1.00  0.00     0.023 C 
ENDROOT
BRANCH   1   2
ATOM      2  C   UNL A   1      37.768  22.457  25.883  1.00  0.00     0.023 C 
BRANCH   2   3
ATOM      3  C   UNL A   1      37.373  21.422  24.831  1.00  0.00     0.116 C 
BRANCH   3   4
ATOM      4  N   UNL A   1      36.239  20.627  25.262  1.00  0.00    -0.356 N 
ATOM      5  C   UNL A   1      34.903  20.859  25.102  1.00  0.00     0.227 C 
ATOM      6  O   UNL A   1      34.110  20.051  25.588  1.00  0.00    -0.274 OA
ATOM      7  H   UNL A   1      36.466  19.798  25.740  1.00  0.00     0.163 HD
BRANCH   5   8
ATOM      8  C   UNL A   1      34.445  22.074  24.296  1.00  0.00     0.103 C 
ATOM      9  C   UNL A   1      32.362  22.955  25.246  1.00  0.00     0.107 C 
ATOM     10  C   UNL A   1      32.113  22.178  23.994  1.00  0.00    -0.006 C 
ATOM     11  C   UNL A   1      33.880  23.183  25.197  1.00  0.00     0.047 C 
ATOM     12  C   UNL A   1      33.248  21.700  23.468  1.00  0.00    -0.016 C 
BRANCH   9  13
ATOM     13  N   UNL A   1      31.646  24.203  25.148  1.00  0.00    -0.332 N 
ATOM     14  O   UNL A   1      30.718  24.142  27.223  1.00  0.00    -0.248 OA
ATOM     15  C   UNL A   1      30.913  24.725  26.159  1.00  0.00     0.319 C 
ATOM     16  N   UNL A   1      30.483  26.011  26.041  1.00  0.00    -0.303 N 
ATOM     17  H   UNL A   1      30.097  26.371  26.872  1.00  0.00     0.172 HD
ATOM     18  H   UNL A   1      31.693  24.702  24.300  1.00  0.00     0.165 HD
BRANCH  16  19
ATOM     19  C   UNL A   1      30.476  26.936  24.978  1.00  0.00     0.115 A 
ATOM     20  C   UNL A   1      29.557  26.968  23.927  1.00  0.00     0.152 A 
ATOM     21  C   UNL A   1      31.469  27.926  24.997  1.00  0.00     0.152 A 
ATOM     22  F   UNL A   1      28.527  26.113  23.879  1.00  0.00    -0.204 F 
ATOM     23  C   UNL A   1      29.648  27.915  22.907  1.00  0.00     0.081 A 
ATOM     24  C   UNL A   1      31.590  28.866  23.980  1.00  0.00     0.081 A 
ATOM     25  F   UNL A   1      32.359  27.950  26.001  1.00  0.00    -0.204 F 
ATOM     26  C   UNL A   1      30.676  28.846  22.937  1.00  0.00     0.129 A 
ATOM     27  F   UNL A   1      30.779  29.744  21.951  1.00  0.00    -0.207 F 
ENDBRANCH  16  19
ENDBRANCH   9  13
ENDBRANCH   5   8
ENDBRANCH   3   4
ENDBRANCH   2   3
ENDBRANCH   1   2
BRANCH   1  28
ATOM     28  C   UNL A   1      39.845  23.582  26.941  1.00  0.00     0.116 C 
BRANCH  28  29
ATOM     29  N   UNL A   1      40.702  24.207  25.946  1.00  0.00    -0.352 N 
ATOM     30  C   UNL A   1      41.327  25.432  25.981  1.00  0.00     0.251 C 
ATOM     31  H   UNL A   1      40.857  23.678  25.131  1.00  0.00     0.163 HD
ATOM     32  O   UNL A   1      41.905  25.847  24.979  1.00  0.00    -0.269 OA
BRANCH  30  33
ATOM     33  C   UNL A   1      41.275  26.260  27.206  1.00  0.00     0.039 A 
ATOM     34  C   UNL A   1      42.108  27.379  27.299  1.00  0.00     0.014 A 
ATOM     35  C   UNL A   1      40.413  25.941  28.259  1.00  0.00     0.014 A 
ATOM     36  C   UNL A   1      42.022  28.218  28.415  1.00  0.00     0.010 A 
ATOM     37  C   UNL A   1      40.277  26.817  29.335  1.00  0.00     0.010 A 
ATOM     38  C   UNL A   1      41.079  27.966  29.424  1.00  0.00    -0.014 A 
BRANCH  38  39
ATOM     39  C   UNL A   1      40.907  28.896  30.571  1.00  0.00     0.031 A 
ATOM     40  C   UNL A   1      41.770  28.760  31.798  1.00  0.00     0.074 A 
ATOM     41  C   UNL A   1      39.929  29.824  30.538  1.00  0.00     0.049 A 
ATOM     42  N   UNL A   1      41.725  29.438  32.917  1.00  0.00    -0.248 NA
ATOM     43  C   UNL A   1      42.801  27.710  31.773  1.00  0.00     0.031 C 
ATOM     44  C   UNL A   1      38.998  30.036  29.426  1.00  0.00     0.029 A 
ATOM     45  N   UNL A   1      39.547  30.759  31.470  1.00  0.00    -0.354 N 
ATOM     46  C   UNL A   1      42.706  28.887  33.733  1.00  0.00     0.074 A 
ATOM     47  C   UNL A   1      43.296  27.788  33.000  1.00  0.00     0.031 C 
ATOM     48  C   UNL A   1      38.174  31.051  29.729  1.00  0.00     0.029 A 
ATOM     49  C   UNL A   1      38.483  31.534  31.071  1.00  0.00     0.049 A 
ATOM     50  H   UNL A   1      39.994  30.864  32.341  1.00  0.00     0.167 HD
ATOM     51  C   UNL A   1      43.096  29.272  34.973  1.00  0.00     0.031 A 
ATOM     52  C   UNL A   1      37.822  32.516  31.714  1.00  0.00     0.031 A 
ATOM     53  C   UNL A   1      42.511  30.368  35.699  1.00  0.00     0.049 A 
ATOM     54  C   UNL A   1      38.260  32.914  33.097  1.00  0.00     0.074 A 
ATOM     55  C   UNL A   1      42.872  30.869  36.938  1.00  0.00     0.029 A 
ATOM     56  N   UNL A   1      41.438  31.130  35.259  1.00  0.00    -0.354 N 
ATOM     57  N   UNL A   1      39.234  32.424  33.826  1.00  0.00    -0.248 NA
ATOM     58  C   UNL A   1      37.515  34.006  33.741  1.00  0.00     0.031 C 
ATOM     59  C   UNL A   1      41.982  31.896  37.271  1.00  0.00     0.029 A 
ATOM     60  C   UNL A   1      41.108  32.079  36.212  1.00  0.00     0.049 A 
ATOM     61  H   UNL A   1      40.981  31.014  34.395  1.00  0.00     0.167 HD
ATOM     62  C   UNL A   1      39.239  33.167  35.002  1.00  0.00     0.074 A 
ATOM     63  C   UNL A   1      38.179  34.148  34.880  1.00  0.00     0.031 C 
ATOM     64  C   UNL A   1      40.049  33.049  36.083  1.00  0.00     0.031 A 
BRANCH  51  65
ATOM     65  C   UNL A   1      44.204  28.488  35.628  1.00  0.00    -0.014 A 
ATOM     66  C   UNL A   1      45.554  28.853  35.458  1.00  0.00     0.010 A 
ATOM     67  C   UNL A   1      43.893  27.392  36.453  1.00  0.00     0.010 A 
ATOM     68  C   UNL A   1      46.570  28.107  36.059  1.00  0.00     0.020 A 
ATOM     69  C   UNL A   1      44.907  26.661  37.082  1.00  0.00     0.020 A 
ATOM     70  C   UNL A   1      46.241  27.013  36.864  1.00  0.00     0.054 A 
BRANCH  70  71
ATOM     71  S   UNL A   1      47.582  26.071  37.641  1.00  0.00     0.124 S 
ATOM     72  O   UNL A   1      48.764  26.662  37.018  1.00  0.00    -0.237 OA
ATOM     73  O   UNL A   1      47.404  26.371  39.060  1.00  0.00    -0.237 OA
ATOM     74  O   UNL A   1      47.302  24.689  37.259  1.00  0.00    -0.744 OA
ENDBRANCH  70  71
ENDBRANCH  51  65
BRANCH  52  75
ATOM     75  C   UNL A   1      36.682  33.202  31.046  1.00  0.00    -0.014 A 
ATOM     76  C   UNL A   1      35.380  33.099  31.568  1.00  0.00     0.010 A 
ATOM     77  C   UNL A   1      36.894  33.982  29.894  1.00  0.00     0.010 A 
ATOM     78  C   UNL A   1      34.312  33.749  30.945  1.00  0.00     0.020 A 
ATOM     79  C   UNL A   1      35.834  34.659  29.285  1.00  0.00     0.020 A 
ATOM     80  C   UNL A   1      34.546  34.530  29.810  1.00  0.00     0.054 A 
BRANCH  80  81
ATOM     81  S   UNL A   1      33.153  35.416  29.056  1.00  0.00     0.124 S 
ATOM     82  O   UNL A   1      32.562  34.387  28.208  1.00  0.00    -0.237 OA
ATOM     83  O   UNL A   1      32.364  35.809  30.220  1.00  0.00    -0.237 OA
ATOM     84  O   UNL A   1      33.795  36.521  28.347  1.00  0.00    -0.744 OA
ENDBRANCH  80  81
ENDBRANCH  52  75
BRANCH  64  85
ATOM     85  C   UNL A   1      39.850  34.025  37.212  1.00  0.00    -0.014 A 
ATOM     86  C   UNL A   1      40.345  35.339  37.141  1.00  0.00     0.010 A 
ATOM     87  C   UNL A   1      39.104  33.635  38.340  1.00  0.00     0.010 A 
ATOM     88  C   UNL A   1      40.125  36.236  38.192  1.00  0.00     0.020 A 
ATOM     89  C   UNL A   1      38.857  34.536  39.378  1.00  0.00     0.020 A 
ATOM     90  C   UNL A   1      39.381  35.828  39.303  1.00  0.00     0.054 A 
BRANCH  90  91
ATOM     91  S   UNL A   1      39.070  37.023  40.632  1.00  0.00     0.124 S 
ATOM     92  O   UNL A   1      40.424  37.439  40.989  1.00  0.00    -0.237 OA
ATOM     93  O   UNL A   1      38.256  38.037  39.966  1.00  0.00    -0.237 OA
ATOM     94  O   UNL A   1      38.372  36.240  41.648  1.00  0.00    -0.744 OA
ENDBRANCH  90  91
ENDBRANCH  64  85
ENDBRANCH  38  39
ENDBRANCH  30  33
ENDBRANCH  28  29
ENDBRANCH   1  28
TORSDOF 16
ENDMDL
MODEL 2
REMARK VINA RESULT:     -12.1      6.363     12.074
REMARK SMILES O=C(Nc1c(F)cc(F)cc1F)N[C@H]1C=C[C@H](C(=O)NCCCCNC(=O)c2ccc(-c3c4nc(c(-c5ccc(S(=O)(=O)[O-])cc5)c5ccc([nH]5)c(-c5ccc(S(=O)(=O)[O-])cc5)c5nc(c(-c6ccc(S(=O)(=O)[O-])cc6)c6ccc3[nH]6)C=C5)C=C4)cc2)C1
REMARK SMILES IDX 23 1 22 2 21 3 20 4 18 5 19 6 17 8 14 9 15 10 88 11 16 12
REMARK SMILES IDX 13 13 1 14 2 15 3 16 4 19 5 20 11 21 6 22 7 23 10 24 12 25
REMARK SMILES IDX 8 26 9 27 24 28 25 29 26 30 27 32 28 33 29 34 87 35 30 36
REMARK SMILES IDX 86 37 31 38 32 39 33 40 80 41 34 42 85 43 79 44 81 45 35 46
REMARK SMILES IDX 84 47 78 48 77 49 36 51 66 52 47 53 65 54 48 55 51 56 64 57
REMARK SMILES IDX 82 58 49 59 50 60 63 62 83 63 52 64 37 65 38 66 46 67 39 68
REMARK SMILES IDX 45 69 40 70 41 71 42 72 43 73 44 74 67 75 68 76 76 77 69 78
REMARK SMILES IDX 75 79 70 80 71 81 72 82 73 83 74 84 53 85 54 86 62 87 55 88
REMARK SMILES IDX 61 89 56 90 57 91 58 92 59 93 60 94
REMARK H PARENT 20 7 3 17 13 18 25 31 81 50 51 61
REMARK Flexibility Score: inf
ROOT
ATOM      1  C   UNL A   1      34.203  30.969  27.353  1.00  0.00     0.023 C 
ENDROOT
BRANCH   1   2
ATOM      2  C   UNL A   1      33.434  30.048  26.400  1.00  0.00     0.023 C 
BRANCH   2   3
ATOM      3  C   UNL A   1      31.918  30.245  26.403  1.00  0.00     0.116 C 
BRANCH   3   4
ATOM      4  N   UNL A   1      31.369  30.186  25.061  1.00  0.00    -0.356 N 
ATOM      5  C   UNL A   1      30.988  29.101  24.324  1.00  0.00     0.227 C 
ATOM      6  O   UNL A   1      30.575  29.293  23.180  1.00  0.00    -0.274 OA
ATOM      7  H   UNL A   1      31.254  31.056  24.618  1.00  0.00     0.163 HD
BRANCH   5   8
ATOM      8  C   UNL A   1      31.043  27.710  24.955  1.00  0.00     0.103 C 
ATOM      9  C   UNL A   1      31.735  26.068  23.269  1.00  0.00     0.107 C 
ATOM     10  C   UNL A   1      30.267  26.002  23.535  1.00  0.00    -0.006 C 
ATOM     11  C   UNL A   1      32.248  26.899  24.455  1.00  0.00     0.047 C 
ATOM     12  C   UNL A   1      29.884  26.892  24.458  1.00  0.00    -0.016 C 
BRANCH   9  13
ATOM     13  N   UNL A   1      32.259  24.725  23.310  1.00  0.00    -0.332 N 
ATOM     14  O   UNL A   1      33.609  24.910  21.490  1.00  0.00    -0.248 OA
ATOM     15  C   UNL A   1      33.189  24.260  22.444  1.00  0.00     0.319 C 
ATOM     16  N   UNL A   1      33.783  23.067  22.723  1.00  0.00    -0.303 N 
ATOM     17  H   UNL A   1      34.552  22.869  22.142  1.00  0.00     0.172 HD
ATOM     18  H   UNL A   1      31.921  24.115  24.006  1.00  0.00     0.165 HD
BRANCH  16  19
ATOM     19  C   UNL A   1      33.527  22.055  23.670  1.00  0.00     0.115 A 
ATOM     20  C   UNL A   1      34.070  21.980  24.955  1.00  0.00     0.152 A 
ATOM     21  C   UNL A   1      32.624  21.052  23.293  1.00  0.00     0.152 A 
ATOM     22  F   UNL A   1      34.874  22.942  25.426  1.00  0.00    -0.204 F 
ATOM     23  C   UNL A   1      33.769  20.923  25.813  1.00  0.00     0.081 A 
ATOM     24  C   UNL A   1      32.325  19.979  24.125  1.00  0.00     0.081 A 
ATOM     25  F   UNL A   1      32.056  21.097  22.077  1.00  0.00    -0.204 F 
ATOM     26  C   UNL A   1      32.910  19.924  25.382  1.00  0.00     0.129 A 
ATOM     27  F   UNL A   1      32.633  18.898  26.194  1.00  0.00    -0.207 F 
ENDBRANCH  16  19
ENDBRANCH   9  13
ENDBRANCH   5   8
ENDBRANCH   3   4
ENDBRANCH   2   3
ENDBRANCH   1   2
BRANCH   1  28
ATOM     28  C   UNL A   1      35.286  30.294  28.191  1.00  0.00     0.116 C 
BRANCH  28  29
ATOM     29  N   UNL A   1      35.369  30.822  29.544  1.00  0.00    -0.352 N 
ATOM     30  C   UNL A   1      36.412  30.762  30.439  1.00  0.00     0.251 C 
ATOM     31  H   UNL A   1      34.565  31.290  29.864  1.00  0.00     0.163 HD
ATOM     32  O   UNL A   1      36.244  31.151  31.593  1.00  0.00    -0.269 OA
BRANCH  30  33
ATOM     33  C   UNL A   1      37.717  30.201  30.026  1.00  0.00     0.039 A 
ATOM     34  C   UNL A   1      38.090  30.280  28.681  1.00  0.00     0.014 A 
ATOM     35  C   UNL A   1      38.573  29.603  30.954  1.00  0.00     0.014 A 
ATOM     36  C   UNL A   1      39.351  29.825  28.281  1.00  0.00     0.010 A 
ATOM     37  C   UNL A   1      39.856  29.217  30.568  1.00  0.00     0.010 A 
ATOM     38  C   UNL A   1      40.260  29.325  29.228  1.00  0.00    -0.014 A 
BRANCH  38  39
ATOM     39  C   UNL A   1      41.637  28.922  28.839  1.00  0.00     0.031 A 
ATOM     40  C   UNL A   1      42.745  29.941  28.794  1.00  0.00     0.074 A 
ATOM     41  C   UNL A   1      41.880  27.651  28.459  1.00  0.00     0.049 A 
ATOM     42  N   UNL A   1      43.990  29.790  28.421  1.00  0.00    -0.248 NA
ATOM     43  C   UNL A   1      42.402  31.315  29.198  1.00  0.00     0.031 C 
ATOM     44  C   UNL A   1      40.887  26.574  28.420  1.00  0.00     0.029 A 
ATOM     45  N   UNL A   1      43.036  27.049  28.027  1.00  0.00    -0.354 N 
ATOM     46  C   UNL A   1      44.574  31.048  28.529  1.00  0.00     0.074 A 
ATOM     47  C   UNL A   1      43.534  31.959  28.954  1.00  0.00     0.031 C 
ATOM     48  C   UNL A   1      41.482  25.442  28.014  1.00  0.00     0.029 A 
ATOM     49  C   UNL A   1      42.884  25.717  27.719  1.00  0.00     0.049 A 
ATOM     50  H   UNL A   1      43.893  27.527  27.945  1.00  0.00     0.167 HD
ATOM     51  C   UNL A   1      45.862  31.408  28.313  1.00  0.00     0.031 A 
ATOM     52  C   UNL A   1      43.768  24.818  27.245  1.00  0.00     0.031 A 
ATOM     53  C   UNL A   1      46.896  30.499  27.895  1.00  0.00     0.049 A 
ATOM     54  C   UNL A   1      45.189  25.246  26.994  1.00  0.00     0.074 A 
ATOM     55  C   UNL A   1      48.242  30.758  27.701  1.00  0.00     0.029 A 
ATOM     56  N   UNL A   1      46.702  29.158  27.598  1.00  0.00    -0.354 N 
ATOM     57  N   UNL A   1      45.737  26.425  27.166  1.00  0.00    -0.248 NA
ATOM     58  C   UNL A   1      46.114  24.218  26.496  1.00  0.00     0.031 C 
ATOM     59  C   UNL A   1      48.850  29.588  27.233  1.00  0.00     0.029 A 
ATOM     60  C   UNL A   1      47.897  28.583  27.198  1.00  0.00     0.049 A 
ATOM     61  H   UNL A   1      45.841  28.685  27.664  1.00  0.00     0.167 HD
ATOM     62  C   UNL A   1      47.077  26.274  26.825  1.00  0.00     0.074 A 
ATOM     63  C   UNL A   1      47.258  24.886  26.451  1.00  0.00     0.031 C 
ATOM     64  C   UNL A   1      48.067  27.201  26.825  1.00  0.00     0.031 A 
BRANCH  51  65
ATOM     65  C   UNL A   1      46.221  32.859  28.515  1.00  0.00    -0.014 A 
ATOM     66  C   UNL A   1      46.214  33.768  27.440  1.00  0.00     0.010 A 
ATOM     67  C   UNL A   1      46.538  33.328  29.803  1.00  0.00     0.010 A 
ATOM     68  C   UNL A   1      46.564  35.105  27.641  1.00  0.00     0.020 A 
ATOM     69  C   UNL A   1      46.858  34.673  30.014  1.00  0.00     0.020 A 
ATOM     70  C   UNL A   1      46.888  35.549  28.927  1.00  0.00     0.054 A 
BRANCH  70  71
ATOM     71  S   UNL A   1      47.328  37.293  29.159  1.00  0.00     0.124 S 
ATOM     72  O   UNL A   1      47.826  37.656  27.834  1.00  0.00    -0.237 OA
ATOM     73  O   UNL A   1      46.052  37.897  29.536  1.00  0.00    -0.237 OA
ATOM     74  O   UNL A   1      48.335  37.260  30.216  1.00  0.00    -0.744 OA
ENDBRANCH  70  71
ENDBRANCH  51  65
BRANCH  52  75
ATOM     75  C   UNL A   1      43.336  23.417  26.988  1.00  0.00    -0.014 A 
ATOM     76  C   UNL A   1      43.271  22.917  25.675  1.00  0.00     0.010 A 
ATOM     77  C   UNL A   1      43.006  22.564  28.059  1.00  0.00     0.010 A 
ATOM     78  C   UNL A   1      42.872  21.600  25.436  1.00  0.00     0.020 A 
ATOM     79  C   UNL A   1      42.636  21.237  27.826  1.00  0.00     0.020 A 
ATOM     80  C   UNL A   1      42.562  20.766  26.514  1.00  0.00     0.054 A 
BRANCH  80  81
ATOM     81  S   UNL A   1      42.108  19.040  26.182  1.00  0.00     0.124 S 
ATOM     82  O   UNL A   1      42.372  18.404  27.468  1.00  0.00    -0.237 OA
ATOM     83  O   UNL A   1      40.701  19.152  25.807  1.00  0.00    -0.237 OA
ATOM     84  O   UNL A   1      43.005  18.654  25.094  1.00  0.00    -0.744 OA
ENDBRANCH  80  81
ENDBRANCH  52  75
BRANCH  64  85
ATOM     85  C   UNL A   1      49.449  26.742  26.441  1.00  0.00    -0.014 A 
ATOM     86  C   UNL A   1      50.282  26.078  27.359  1.00  0.00     0.010 A 
ATOM     87  C   UNL A   1      49.898  26.931  25.121  1.00  0.00     0.010 A 
ATOM     88  C   UNL A   1      51.552  25.639  26.971  1.00  0.00     0.020 A 
ATOM     89  C   UNL A   1      51.155  26.467  24.722  1.00  0.00     0.020 A 
ATOM     90  C   UNL A   1      51.979  25.836  25.655  1.00  0.00     0.054 A 
BRANCH  90  91
ATOM     91  S   UNL A   1      53.612  25.216  25.165  1.00  0.00     0.124 S 
ATOM     92  O   UNL A   1      53.670  25.594  23.756  1.00  0.00    -0.237 OA
ATOM     93  O   UNL A   1      54.512  25.952  26.050  1.00  0.00    -0.237 OA
ATOM     94  O   UNL A   1      53.531  23.780  25.422  1.00  0.00    -0.744 OA
ENDBRANCH  90  91
ENDBRANCH  64  85
ENDBRANCH  38  39
ENDBRANCH  30  33
ENDBRANCH  28  29
ENDBRANCH   1  28
TORSDOF 16
ENDMDL
MODEL 3
REMARK VINA RESULT:     -12.1      4.738     10.480
REMARK SMILES O=C(Nc1c(F)cc(F)cc1F)N[C@H]1C=C[C@H](C(=O)NCCCCNC(=O)c2ccc(-c3c4nc(c(-c5ccc(S(=O)(=O)[O-])cc5)c5ccc([nH]5)c(-c5ccc(S(=O)(=O)[O-])cc5)c5nc(c(-c6ccc(S(=O)(=O)[O-])cc6)c6ccc3[nH]6)C=C5)C=C4)cc2)C1
REMARK SMILES IDX 23 1 22 2 21 3 20 4 18 5 19 6 17 8 14 9 15 10 88 11 16 12
REMARK SMILES IDX 13 13 1 14 2 15 3 16 4 19 5 20 11 21 6 22 7 23 10 24 12 25
REMARK SMILES IDX 8 26 9 27 24 28 25 29 26 30 27 32 28 33 29 34 87 35 30 36
REMARK SMILES IDX 86 37 31 38 32 39 33 40 80 41 34 42 85 43 79 44 81 45 35 46
REMARK SMILES IDX 84 47 78 48 77 49 36 51 66 52 47 53 65 54 48 55 51 56 64 57
REMARK SMILES IDX 82 58 49 59 50 60 63 62 83 63 52 64 37 65 38 66 46 67 39 68
REMARK SMILES IDX 45 69 40 70 41 71 42 72 43 73 44 74 67 75 68 76 76 77 69 78
REMARK SMILES IDX 75 79 70 80 71 81 72 82 73 83 74 84 53 85 54 86 62 87 55 88
REMARK SMILES IDX 61 89 56 90 57 91 58 92 59 93 60 94
REMARK H PARENT 20 7 3 17 13 18 25 31 81 50 51 61
REMARK Flexibility Score: inf
ROOT
ATOM      1  C   UNL A   1      32.924  27.115  26.361  1.00  0.00     0.023 C 
ENDROOT
BRANCH   1   2
ATOM      2  C   UNL A   1      31.560  27.746  26.064  1.00  0.00     0.023 C 
BRANCH   2   3
ATOM      3  C   UNL A   1      31.047  27.524  24.642  1.00  0.00     0.116 C 
BRANCH   3   4
ATOM      4  N   UNL A   1      32.122  27.584  23.670  1.00  0.00    -0.356 N 
ATOM      5  C   UNL A   1      32.741  26.572  22.994  1.00  0.00     0.227 C 
ATOM      6  O   UNL A   1      33.665  26.861  22.233  1.00  0.00    -0.274 OA
ATOM      7  H   UNL A   1      32.454  28.488  23.469  1.00  0.00     0.163 HD
BRANCH   5   8
ATOM      8  C   UNL A   1      32.239  25.139  23.168  1.00  0.00     0.103 C 
ATOM      9  C   UNL A   1      34.151  23.623  23.423  1.00  0.00     0.107 C 
ATOM     10  C   UNL A   1      33.559  23.539  22.054  1.00  0.00    -0.006 C 
ATOM     11  C   UNL A   1      33.060  24.364  24.210  1.00  0.00     0.047 C 
ATOM     12  C   UNL A   1      32.512  24.360  21.911  1.00  0.00    -0.016 C 
BRANCH   9  13
ATOM     13  N   UNL A   1      34.327  22.280  23.919  1.00  0.00    -0.332 N 
ATOM     14  O   UNL A   1      35.708  22.811  25.645  1.00  0.00    -0.248 OA
ATOM     15  C   UNL A   1      35.057  21.979  25.018  1.00  0.00     0.319 C 
ATOM     16  N   UNL A   1      34.956  20.721  25.528  1.00  0.00    -0.303 N 
ATOM     17  H   UNL A   1      35.386  20.622  26.408  1.00  0.00     0.172 HD
ATOM     18  H   UNL A   1      33.893  21.543  23.429  1.00  0.00     0.165 HD
BRANCH  16  19
ATOM     19  C   UNL A   1      34.365  19.530  25.060  1.00  0.00     0.115 A 
ATOM     20  C   UNL A   1      32.994  19.296  24.921  1.00  0.00     0.152 A 
ATOM     21  C   UNL A   1      35.236  18.502  24.676  1.00  0.00     0.152 A 
ATOM     22  F   UNL A   1      32.097  20.255  25.184  1.00  0.00    -0.204 F 
ATOM     23  C   UNL A   1      32.506  18.072  24.467  1.00  0.00     0.081 A 
ATOM     24  C   UNL A   1      34.770  17.267  24.240  1.00  0.00     0.081 A 
ATOM     25  F   UNL A   1      36.562  18.691  24.768  1.00  0.00    -0.204 F 
ATOM     26  C   UNL A   1      33.402  17.063  24.145  1.00  0.00     0.129 A 
ATOM     27  F   UNL A   1      32.937  15.880  23.727  1.00  0.00    -0.207 F 
ENDBRANCH  16  19
ENDBRANCH   9  13
ENDBRANCH   5   8
ENDBRANCH   3   4
ENDBRANCH   2   3
ENDBRANCH   1   2
BRANCH   1  28
ATOM     28  C   UNL A   1      34.089  28.093  26.488  1.00  0.00     0.116 C 
BRANCH  28  29
ATOM     29  N   UNL A   1      33.668  29.429  26.882  1.00  0.00    -0.352 N 
ATOM     30  C   UNL A   1      34.340  30.368  27.629  1.00  0.00     0.251 C 
ATOM     31  H   UNL A   1      32.775  29.699  26.569  1.00  0.00     0.163 HD
ATOM     32  O   UNL A   1      33.761  31.396  27.973  1.00  0.00    -0.269 OA
BRANCH  30  33
ATOM     33  C   UNL A   1      35.740  30.128  28.044  1.00  0.00     0.039 A 
ATOM     34  C   UNL A   1      35.991  29.694  29.349  1.00  0.00     0.014 A 
ATOM     35  C   UNL A   1      36.801  30.326  27.157  1.00  0.00     0.014 A 
ATOM     36  C   UNL A   1      37.299  29.389  29.740  1.00  0.00     0.010 A 
ATOM     37  C   UNL A   1      38.093  29.953  27.525  1.00  0.00     0.010 A 
ATOM     38  C   UNL A   1      38.357  29.478  28.820  1.00  0.00    -0.014 A 
BRANCH  38  39
ATOM     39  C   UNL A   1      39.738  29.070  29.188  1.00  0.00     0.031 A 
ATOM     40  C   UNL A   1      40.666  30.045  29.861  1.00  0.00     0.074 A 
ATOM     41  C   UNL A   1      40.182  27.840  28.856  1.00  0.00     0.049 A 
ATOM     42  N   UNL A   1      41.921  29.889  30.201  1.00  0.00    -0.248 NA
ATOM     43  C   UNL A   1      40.122  31.377  30.172  1.00  0.00     0.031 C 
ATOM     44  C   UNL A   1      39.396  26.813  28.167  1.00  0.00     0.029 A 
ATOM     45  N   UNL A   1      41.406  27.247  29.046  1.00  0.00    -0.354 N 
ATOM     46  C   UNL A   1      42.319  31.104  30.748  1.00  0.00     0.074 A 
ATOM     47  C   UNL A   1      41.189  32.002  30.649  1.00  0.00     0.031 C 
ATOM     48  C   UNL A   1      40.148  25.711  28.018  1.00  0.00     0.029 A 
ATOM     49  C   UNL A   1      41.480  25.964  28.555  1.00  0.00     0.049 A 
ATOM     50  H   UNL A   1      42.158  27.698  29.492  1.00  0.00     0.167 HD
ATOM     51  C   UNL A   1      43.511  31.438  31.300  1.00  0.00     0.031 A 
ATOM     52  C   UNL A   1      42.506  25.091  28.531  1.00  0.00     0.031 A 
ATOM     53  C   UNL A   1      44.634  30.542  31.402  1.00  0.00     0.049 A 
ATOM     54  C   UNL A   1      43.826  25.490  29.132  1.00  0.00     0.074 A 
ATOM     55  C   UNL A   1      45.865  30.770  31.991  1.00  0.00     0.029 A 
ATOM     56  N   UNL A   1      44.667  29.251  30.896  1.00  0.00    -0.354 N 
ATOM     57  N   UNL A   1      44.162  26.622  29.705  1.00  0.00    -0.248 NA
ATOM     58  C   UNL A   1      44.902  24.489  29.095  1.00  0.00     0.031 C 
ATOM     59  C   UNL A   1      46.661  29.637  31.793  1.00  0.00     0.029 A 
ATOM     60  C   UNL A   1      45.905  28.679  31.138  1.00  0.00     0.049 A 
ATOM     61  H   UNL A   1      43.919  28.806  30.435  1.00  0.00     0.167 HD
ATOM     62  C   UNL A   1      45.479  26.459  30.122  1.00  0.00     0.074 A 
ATOM     63  C   UNL A   1      45.872  25.115  29.748  1.00  0.00     0.031 C 
ATOM     64  C   UNL A   1      46.288  27.341  30.759  1.00  0.00     0.031 A 
BRANCH  51  65
ATOM     65  C   UNL A   1      43.665  32.842  31.827  1.00  0.00    -0.014 A 
ATOM     66  C   UNL A   1      44.154  33.878  31.009  1.00  0.00     0.010 A 
ATOM     67  C   UNL A   1      43.283  33.138  33.148  1.00  0.00     0.010 A 
ATOM     68  C   UNL A   1      44.305  35.170  31.517  1.00  0.00     0.020 A 
ATOM     69  C   UNL A   1      43.402  34.438  33.652  1.00  0.00     0.020 A 
ATOM     70  C   UNL A   1      43.931  35.442  32.837  1.00  0.00     0.054 A 
BRANCH  70  71
ATOM     71  S   UNL A   1      44.128  37.132  33.466  1.00  0.00     0.124 S 
ATOM     72  O   UNL A   1      44.094  37.916  32.233  1.00  0.00    -0.237 OA
ATOM     73  O   UNL A   1      42.966  37.285  34.339  1.00  0.00    -0.237 OA
ATOM     74  O   UNL A   1      45.418  37.100  34.149  1.00  0.00    -0.744 OA
ENDBRANCH  70  71
ENDBRANCH  51  65
BRANCH  52  75
ATOM     75  C   UNL A   1      42.318  23.744  27.924  1.00  0.00    -0.014 A 
ATOM     76  C   UNL A   1      42.393  23.571  26.531  1.00  0.00     0.010 A 
ATOM     77  C   UNL A   1      42.084  22.621  28.739  1.00  0.00     0.010 A 
ATOM     78  C   UNL A   1      42.225  22.306  25.963  1.00  0.00     0.020 A 
ATOM     79  C   UNL A   1      41.945  21.349  28.178  1.00  0.00     0.020 A 
ATOM     80  C   UNL A   1      42.007  21.201  26.791  1.00  0.00     0.054 A 
BRANCH  80  81
ATOM     81  S   UNL A   1      41.854  19.558  26.034  1.00  0.00     0.124 S 
ATOM     82  O   UNL A   1      40.434  19.508  25.701  1.00  0.00    -0.237 OA
ATOM     83  O   UNL A   1      42.768  19.649  24.899  1.00  0.00    -0.237 OA
ATOM     84  O   UNL A   1      42.282  18.651  27.097  1.00  0.00    -0.744 OA
ENDBRANCH  80  81
ENDBRANCH  52  75
BRANCH  64  85
ATOM     85  C   UNL A   1      47.672  26.877  31.127  1.00  0.00    -0.014 A 
ATOM     86  C   UNL A   1      47.918  26.189  32.329  1.00  0.00     0.010 A 
ATOM     87  C   UNL A   1      48.733  27.083  30.227  1.00  0.00     0.010 A 
ATOM     88  C   UNL A   1      49.208  25.745  32.638  1.00  0.00     0.020 A 
ATOM     89  C   UNL A   1      50.017  26.614  30.518  1.00  0.00     0.020 A 
ATOM     90  C   UNL A   1      50.248  25.960  31.729  1.00  0.00     0.054 A 
BRANCH  90  91
ATOM     91  S   UNL A   1      51.902  25.333  32.132  1.00  0.00     0.124 S 
ATOM     92  O   UNL A   1      52.677  25.747  30.965  1.00  0.00    -0.237 OA
ATOM     93  O   UNL A   1      52.216  26.034  33.375  1.00  0.00    -0.237 OA
ATOM     94  O   UNL A   1      51.704  23.892  32.269  1.00  0.00    -0.744 OA
ENDBRANCH  90  91
ENDBRANCH  64  85
ENDBRANCH  38  39
ENDBRANCH  30  33
ENDBRANCH  28  29
ENDBRANCH   1  28
TORSDOF 16
ENDMDL
