MODEL 1
REMARK VINA RESULT:     -11.9      0.000      0.000
REMARK SMILES COc1ccc(NC(=O)[C@@H]2[C@@H](C(=O)NCCCCNC(=O)c3ccc(-c4c5nc(c(-c6ccc(S(=O)(=O)[O-])cc6)c6ccc([nH]6)c(-c6ccc(S(=O)(=O)[O-])cc6)c6nc(c(-c7ccc(S(=O)(=O)[O-])cc7)c7ccc4[nH]7)C=C6)C=C5)cc3)[C@H]3C=C[C@@H]2C3)cc1O
REMARK SMILES IDX 16 1 15 2 14 3 12 4 13 5 11 7 10 8 85 9 82 10 84 11 86 12
REMARK SMILES IDX 83 13 8 14 7 15 9 17 6 18 3 19 4 20 88 21 5 22 87 23 2 24
REMARK SMILES IDX 1 25 89 26 17 28 18 29 19 30 20 31 21 33 22 34 23 35 81 36
REMARK SMILES IDX 24 37 80 38 25 39 26 40 27 41 74 42 28 43 79 44 73 45 75 46
REMARK SMILES IDX 29 47 78 48 72 49 71 50 30 52 60 53 41 54 59 55 42 56 45 57
REMARK SMILES IDX 58 58 76 59 43 60 44 61 57 63 77 64 46 65 31 66 32 67 40 68
REMARK SMILES IDX 33 69 39 70 34 71 35 72 36 73 37 74 38 75 61 76 62 77 70 78
REMARK SMILES IDX 63 79 69 80 64 81 65 82 66 83 67 84 68 85 47 86 48 87 56 88
REMARK SMILES IDX 49 89 55 90 50 91 51 92 52 93 53 94 54 95
REMARK H PARENT 14 6 7 16 89 27 19 32 75 51 45 62
REMARK Flexibility Score: inf
ROOT
ATOM      1  C   UNL A   1      37.318  20.970  24.899  1.00  0.00     0.023 C 
ENDROOT
BRANCH   1   2
ATOM      2  C   UNL A   1      35.873  20.476  24.891  1.00  0.00     0.116 C 
BRANCH   2   3
ATOM      3  N   UNL A   1      35.191  20.816  26.131  1.00  0.00    -0.356 N 
ATOM      4  C   UNL A   1      34.298  21.778  26.484  1.00  0.00     0.224 C 
ATOM      5  O   UNL A   1      33.922  21.754  27.663  1.00  0.00    -0.275 OA
ATOM      6  H   UNL A   1      35.428  20.219  26.878  1.00  0.00     0.163 HD
BRANCH   4   7
ATOM      7  C   UNL A   1      33.657  22.768  25.504  1.00  0.00     0.098 C 
ATOM      8  C   UNL A   1      33.923  22.608  23.993  1.00  0.00     0.099 C 
ATOM      9  C   UNL A   1      34.524  24.006  23.623  1.00  0.00     0.025 C 
ATOM     10  C   UNL A   1      34.142  24.217  25.804  1.00  0.00     0.025 C 
ATOM     11  C   UNL A   1      35.873  24.136  24.310  1.00  0.00    -0.027 C 
ATOM     12  C   UNL A   1      33.712  24.937  24.525  1.00  0.00     0.017 C 
ATOM     13  C   UNL A   1      35.638  24.279  25.621  1.00  0.00    -0.027 C 
BRANCH   8  14
ATOM     14  C   UNL A   1      32.789  22.246  23.016  1.00  0.00     0.228 C 
ATOM     15  N   UNL A   1      32.175  21.049  22.802  1.00  0.00    -0.326 N 
ATOM     16  H   UNL A   1      31.493  21.112  22.096  1.00  0.00     0.169 HD
ATOM     17  O   UNL A   1      32.337  23.169  22.314  1.00  0.00    -0.274 OA
BRANCH  15  18
ATOM     18  C   UNL A   1      32.263  19.748  23.324  1.00  0.00     0.045 A 
ATOM     19  C   UNL A   1      33.112  17.371  24.517  1.00  0.00     0.160 A 
ATOM     20  C   UNL A   1      32.883  17.407  23.150  1.00  0.00     0.052 A 
ATOM     21  C   UNL A   1      32.717  18.449  25.303  1.00  0.00     0.159 A 
ATOM     22  C   UNL A   1      32.393  18.585  22.574  1.00  0.00     0.030 A 
ATOM     23  C   UNL A   1      32.274  19.631  24.716  1.00  0.00     0.076 A 
BRANCH  19  24
ATOM     24  O   UNL A   1      33.932  16.419  25.054  1.00  0.00    -0.493 OA
ATOM     25  C   UNL A   1      33.291  15.180  25.316  1.00  0.00     0.278 C 
ENDBRANCH  19  24
BRANCH  21  26
ATOM     26  O   UNL A   1      32.832  18.409  26.662  1.00  0.00    -0.504 OA
ATOM     27  H   UNL A   1      32.285  17.835  27.163  1.00  0.00     0.293 HD
ENDBRANCH  21  26
ENDBRANCH  15  18
ENDBRANCH   8  14
ENDBRANCH   4   7
ENDBRANCH   2   3
ENDBRANCH   1   2
BRANCH   1  28
ATOM     28  C   UNL A   1      38.323  19.888  25.293  1.00  0.00     0.023 C 
BRANCH  28  29
ATOM     29  C   UNL A   1      39.556  20.411  26.018  1.00  0.00     0.116 C 
BRANCH  29  30
ATOM     30  N   UNL A   1      40.627  19.432  26.094  1.00  0.00    -0.352 N 
ATOM     31  C   UNL A   1      41.973  19.658  26.268  1.00  0.00     0.251 C 
ATOM     32  H   UNL A   1      40.356  18.490  26.012  1.00  0.00     0.163 HD
ATOM     33  O   UNL A   1      42.772  18.740  26.166  1.00  0.00    -0.269 OA
BRANCH  31  34
ATOM     34  C   UNL A   1      42.437  21.034  26.551  1.00  0.00     0.039 A 
ATOM     35  C   UNL A   1      42.657  21.413  27.875  1.00  0.00     0.014 A 
ATOM     36  C   UNL A   1      42.669  21.937  25.509  1.00  0.00     0.014 A 
ATOM     37  C   UNL A   1      43.140  22.692  28.152  1.00  0.00     0.010 A 
ATOM     38  C   UNL A   1      43.236  23.176  25.781  1.00  0.00     0.010 A 
ATOM     39  C   UNL A   1      43.450  23.578  27.106  1.00  0.00    -0.014 A 
BRANCH  39  40
ATOM     40  C   UNL A   1      43.937  24.950  27.390  1.00  0.00     0.031 A 
ATOM     41  C   UNL A   1      45.384  25.297  27.147  1.00  0.00     0.074 A 
ATOM     42  C   UNL A   1      43.092  25.874  27.887  1.00  0.00     0.049 A 
ATOM     43  N   UNL A   1      46.000  26.438  27.321  1.00  0.00    -0.248 NA
ATOM     44  C   UNL A   1      46.261  24.212  26.674  1.00  0.00     0.031 C 
ATOM     45  C   UNL A   1      41.682  25.647  28.213  1.00  0.00     0.029 A 
ATOM     46  N   UNL A   1      43.295  27.195  28.197  1.00  0.00    -0.354 N 
ATOM     47  C   UNL A   1      47.330  26.203  26.992  1.00  0.00     0.074 A 
ATOM     48  C   UNL A   1      47.448  24.798  26.677  1.00  0.00     0.031 C 
ATOM     49  C   UNL A   1      41.138  26.800  28.637  1.00  0.00     0.029 A 
ATOM     50  C   UNL A   1      42.165  27.837  28.645  1.00  0.00     0.049 A 
ATOM     51  H   UNL A   1      44.168  27.642  28.108  1.00  0.00     0.167 HD
ATOM     52  C   UNL A   1      48.358  27.083  26.929  1.00  0.00     0.031 A 
ATOM     53  C   UNL A   1      41.975  29.119  29.011  1.00  0.00     0.031 A 
ATOM     54  C   UNL A   1      48.234  28.484  27.229  1.00  0.00     0.049 A 
ATOM     55  C   UNL A   1      43.129  30.081  28.921  1.00  0.00     0.074 A 
ATOM     56  C   UNL A   1      49.198  29.472  27.145  1.00  0.00     0.029 A 
ATOM     57  N   UNL A   1      47.070  29.097  27.668  1.00  0.00    -0.354 N 
ATOM     58  N   UNL A   1      44.366  29.855  28.542  1.00  0.00    -0.248 NA
ATOM     59  C   UNL A   1      42.854  31.477  29.284  1.00  0.00     0.031 C 
ATOM     60  C   UNL A   1      48.631  30.673  27.584  1.00  0.00     0.029 A 
ATOM     61  C   UNL A   1      47.296  30.447  27.878  1.00  0.00     0.049 A 
ATOM     62  H   UNL A   1      46.209  28.640  27.809  1.00  0.00     0.167 HD
ATOM     63  C   UNL A   1      45.007  31.088  28.592  1.00  0.00     0.074 A 
ATOM     64  C   UNL A   1      44.016  32.056  29.016  1.00  0.00     0.031 C 
ATOM     65  C   UNL A   1      46.299  31.393  28.309  1.00  0.00     0.031 A 
BRANCH  52  66
ATOM     66  C   UNL A   1      49.707  26.547  26.520  1.00  0.00    -0.014 A 
ATOM     67  C   UNL A   1      50.540  25.888  27.444  1.00  0.00     0.010 A 
ATOM     68  C   UNL A   1      50.138  26.680  25.188  1.00  0.00     0.010 A 
ATOM     69  C   UNL A   1      51.797  25.418  27.056  1.00  0.00     0.020 A 
ATOM     70  C   UNL A   1      51.382  26.181  24.788  1.00  0.00     0.020 A 
ATOM     71  C   UNL A   1      52.211  25.570  25.730  1.00  0.00     0.054 A 
BRANCH  71  72
ATOM     72  S   UNL A   1      53.839  24.931  25.250  1.00  0.00     0.124 S 
ATOM     73  O   UNL A   1      54.660  25.305  26.398  1.00  0.00    -0.237 OA
ATOM     74  O   UNL A   1      53.589  23.500  25.095  1.00  0.00    -0.237 OA
ATOM     75  O   UNL A   1      54.140  25.645  24.011  1.00  0.00    -0.744 OA
ENDBRANCH  71  72
ENDBRANCH  52  66
BRANCH  53  76
ATOM     76  C   UNL A   1      40.631  29.575  29.465  1.00  0.00    -0.014 A 
ATOM     77  C   UNL A   1      40.344  29.707  30.835  1.00  0.00     0.010 A 
ATOM     78  C   UNL A   1      39.631  29.885  28.526  1.00  0.00     0.010 A 
ATOM     79  C   UNL A   1      39.075  30.114  31.258  1.00  0.00     0.020 A 
ATOM     80  C   UNL A   1      38.371  30.322  28.944  1.00  0.00     0.020 A 
ATOM     81  C   UNL A   1      38.096  30.420  30.309  1.00  0.00     0.054 A 
BRANCH  81  82
ATOM     82  S   UNL A   1      36.470  30.988  30.880  1.00  0.00     0.124 S 
ATOM     83  O   UNL A   1      36.791  32.287  31.464  1.00  0.00    -0.237 OA
ATOM     84  O   UNL A   1      35.696  31.023  29.642  1.00  0.00    -0.237 OA
ATOM     85  O   UNL A   1      36.063  29.956  31.832  1.00  0.00    -0.744 OA
ENDBRANCH  81  82
ENDBRANCH  53  76
BRANCH  65  86
ATOM     86  C   UNL A   1      46.699  32.843  28.412  1.00  0.00    -0.014 A 
ATOM     87  C   UNL A   1      46.567  33.722  27.322  1.00  0.00     0.010 A 
ATOM     88  C   UNL A   1      47.204  33.334  29.630  1.00  0.00     0.010 A 
ATOM     89  C   UNL A   1      46.989  35.049  27.430  1.00  0.00     0.020 A 
ATOM     90  C   UNL A   1      47.595  34.669  29.753  1.00  0.00     0.020 A 
ATOM     91  C   UNL A   1      47.508  35.512  28.644  1.00  0.00     0.054 A 
BRANCH  91  92
ATOM     92  S   UNL A   1      48.055  37.237  28.760  1.00  0.00     0.124 S 
ATOM     93  O   UNL A   1      49.004  37.329  27.653  1.00  0.00    -0.237 OA
ATOM     94  O   UNL A   1      46.809  37.980  28.584  1.00  0.00    -0.237 OA
ATOM     95  O   UNL A   1      48.643  37.325  30.094  1.00  0.00    -0.744 OA
ENDBRANCH  91  92
ENDBRANCH  65  86
ENDBRANCH  39  40
ENDBRANCH  31  34
ENDBRANCH  29  30
ENDBRANCH  28  29
ENDBRANCH   1  28
TORSDOF 18
ENDMDL
MODEL 2
REMARK VINA RESULT:     -11.5      3.901      5.411
REMARK SMILES COc1ccc(NC(=O)[C@@H]2[C@@H](C(=O)NCCCCNC(=O)c3ccc(-c4c5nc(c(-c6ccc(S(=O)(=O)[O-])cc6)c6ccc([nH]6)c(-c6ccc(S(=O)(=O)[O-])cc6)c6nc(c(-c7ccc(S(=O)(=O)[O-])cc7)c7ccc4[nH]7)C=C6)C=C5)cc3)[C@H]3C=C[C@@H]2C3)cc1O
REMARK SMILES IDX 16 1 15 2 14 3 12 4 13 5 11 7 10 8 85 9 82 10 84 11 86 12
REMARK SMILES IDX 83 13 8 14 7 15 9 17 6 18 3 19 4 20 88 21 5 22 87 23 2 24
REMARK SMILES IDX 1 25 89 26 17 28 18 29 19 30 20 31 21 33 22 34 23 35 81 36
REMARK SMILES IDX 24 37 80 38 25 39 26 40 27 41 74 42 28 43 79 44 73 45 75 46
REMARK SMILES IDX 29 47 78 48 72 49 71 50 30 52 60 53 41 54 59 55 42 56 45 57
REMARK SMILES IDX 58 58 76 59 43 60 44 61 57 63 77 64 46 65 31 66 32 67 40 68
REMARK SMILES IDX 33 69 39 70 34 71 35 72 36 73 37 74 38 75 61 76 62 77 70 78
REMARK SMILES IDX 63 79 69 80 64 81 65 82 66 83 67 84 68 85 47 86 48 87 56 88
REMARK SMILES IDX 49 89 55 90 50 91 51 92 52 93 53 94 54 95
REMARK H PARENT 14 6 7 16 89 27 19 32 75 51 45 62
REMARK Flexibility Score: inf
ROOT
ATOM      1  C   UNL A   1      34.445  25.059  24.395  1.00  0.00     0.023 C 
ENDROOT
BRANCH   1   2
ATOM      2  C   UNL A   1      34.021  25.687  25.721  1.00  0.00     0.116 C 
BRANCH   2   3
ATOM      3  N   UNL A   1      33.912  27.134  25.610  1.00  0.00    -0.356 N 
ATOM      4  C   UNL A   1      32.895  27.984  25.306  1.00  0.00     0.224 C 
ATOM      5  O   UNL A   1      33.182  29.187  25.314  1.00  0.00    -0.275 OA
ATOM      6  H   UNL A   1      34.759  27.600  25.798  1.00  0.00     0.163 HD
BRANCH   4   7
ATOM      7  C   UNL A   1      31.441  27.552  25.091  1.00  0.00     0.098 C 
ATOM      8  C   UNL A   1      31.145  26.119  24.603  1.00  0.00     0.099 C 
ATOM      9  C   UNL A   1      30.324  26.386  23.298  1.00  0.00     0.025 C 
ATOM     10  C   UNL A   1      30.765  28.447  24.009  1.00  0.00     0.025 C 
ATOM     11  C   UNL A   1      31.250  27.030  22.280  1.00  0.00    -0.027 C 
ATOM     12  C   UNL A   1      29.516  27.623  23.692  1.00  0.00     0.017 C 
ATOM     13  C   UNL A   1      31.501  28.276  22.705  1.00  0.00    -0.027 C 
BRANCH   8  14
ATOM     14  C   UNL A   1      30.402  25.109  25.497  1.00  0.00     0.228 C 
ATOM     15  N   UNL A   1      30.565  23.761  25.607  1.00  0.00    -0.326 N 
ATOM     16  H   UNL A   1      29.930  23.369  26.248  1.00  0.00     0.169 HD
ATOM     17  O   UNL A   1      29.524  25.566  26.251  1.00  0.00    -0.274 OA
BRANCH  15  18
ATOM     18  C   UNL A   1      31.402  22.784  25.043  1.00  0.00     0.045 A 
ATOM     19  C   UNL A   1      32.433  20.537  23.746  1.00  0.00     0.160 A 
ATOM     20  C   UNL A   1      32.559  20.649  25.121  1.00  0.00     0.052 A 
ATOM     21  C   UNL A   1      31.988  21.631  23.010  1.00  0.00     0.159 A 
ATOM     22  C   UNL A   1      32.098  21.811  25.753  1.00  0.00     0.030 A 
ATOM     23  C   UNL A   1      31.491  22.763  23.649  1.00  0.00     0.076 A 
BRANCH  19  24
ATOM     24  O   UNL A   1      32.499  19.311  23.145  1.00  0.00    -0.493 OA
ATOM     25  C   UNL A   1      32.448  18.217  24.049  1.00  0.00     0.278 C 
ENDBRANCH  19  24
BRANCH  21  26
ATOM     26  O   UNL A   1      31.948  21.593  21.645  1.00  0.00    -0.504 OA
ATOM     27  H   UNL A   1      31.577  22.308  21.167  1.00  0.00     0.293 HD
ENDBRANCH  21  26
ENDBRANCH  15  18
ENDBRANCH   8  14
ENDBRANCH   4   7
ENDBRANCH   2   3
ENDBRANCH   1   2
BRANCH   1  28
ATOM     28  C   UNL A   1      35.330  23.826  24.569  1.00  0.00     0.023 C 
BRANCH  28  29
ATOM     29  C   UNL A   1      36.409  23.973  25.634  1.00  0.00     0.116 C 
BRANCH  29  30
ATOM     30  N   UNL A   1      37.375  22.887  25.616  1.00  0.00    -0.352 N 
ATOM     31  C   UNL A   1      38.677  22.903  26.061  1.00  0.00     0.251 C 
ATOM     32  H   UNL A   1      37.058  22.035  25.239  1.00  0.00     0.163 HD
ATOM     33  O   UNL A   1      39.414  21.954  25.846  1.00  0.00    -0.269 OA
BRANCH  31  34
ATOM     34  C   UNL A   1      39.175  24.098  26.776  1.00  0.00     0.039 A 
ATOM     35  C   UNL A   1      39.917  25.045  26.070  1.00  0.00     0.014 A 
ATOM     36  C   UNL A   1      38.892  24.289  28.131  1.00  0.00     0.014 A 
ATOM     37  C   UNL A   1      40.352  26.200  26.721  1.00  0.00     0.010 A 
ATOM     38  C   UNL A   1      39.245  25.481  28.752  1.00  0.00     0.010 A 
ATOM     39  C   UNL A   1      40.005  26.436  28.062  1.00  0.00    -0.014 A 
BRANCH  39  40
ATOM     40  C   UNL A   1      40.485  27.647  28.771  1.00  0.00     0.031 A 
ATOM     41  C   UNL A   1      41.888  27.688  29.319  1.00  0.00     0.074 A 
ATOM     42  C   UNL A   1      39.657  28.696  28.943  1.00  0.00     0.049 A 
ATOM     43  N   UNL A   1      42.498  28.655  29.957  1.00  0.00    -0.248 NA
ATOM     44  C   UNL A   1      42.706  26.473  29.155  1.00  0.00     0.031 C 
ATOM     45  C   UNL A   1      38.261  28.758  28.504  1.00  0.00     0.029 A 
ATOM     46  N   UNL A   1      39.875  29.918  29.528  1.00  0.00    -0.354 N 
ATOM     47  C   UNL A   1      43.757  28.161  30.278  1.00  0.00     0.074 A 
ATOM     48  C   UNL A   1      43.801  26.788  29.829  1.00  0.00     0.031 C 
ATOM     49  C   UNL A   1      37.762  29.970  28.798  1.00  0.00     0.029 A 
ATOM     50  C   UNL A   1      38.788  30.757  29.475  1.00  0.00     0.049 A 
ATOM     51  H   UNL A   1      40.729  30.170  29.949  1.00  0.00     0.167 HD
ATOM     52  C   UNL A   1      44.796  28.799  30.867  1.00  0.00     0.031 A 
ATOM     53  C   UNL A   1      38.638  32.022  29.912  1.00  0.00     0.031 A 
ATOM     54  C   UNL A   1      44.753  30.170  31.298  1.00  0.00     0.049 A 
ATOM     55  C   UNL A   1      39.810  32.715  30.552  1.00  0.00     0.074 A 
ATOM     56  C   UNL A   1      45.765  30.930  31.857  1.00  0.00     0.029 A 
ATOM     57  N   UNL A   1      43.637  30.990  31.215  1.00  0.00    -0.354 N 
ATOM     58  N   UNL A   1      41.016  32.254  30.787  1.00  0.00    -0.248 NA
ATOM     59  C   UNL A   1      39.606  34.110  30.964  1.00  0.00     0.031 C 
ATOM     60  C   UNL A   1      45.246  32.193  32.161  1.00  0.00     0.029 A 
ATOM     61  C   UNL A   1      43.930  32.241  31.730  1.00  0.00     0.049 A 
ATOM     62  H   UNL A   1      42.765  30.722  30.844  1.00  0.00     0.167 HD
ATOM     63  C   UNL A   1      41.724  33.312  31.345  1.00  0.00     0.074 A 
ATOM     64  C   UNL A   1      40.816  34.441  31.392  1.00  0.00     0.031 C 
ATOM     65  C   UNL A   1      43.010  33.350  31.777  1.00  0.00     0.031 A 
BRANCH  52  66
ATOM     66  C   UNL A   1      46.065  28.013  31.078  1.00  0.00    -0.014 A 
ATOM     67  C   UNL A   1      46.277  27.275  32.258  1.00  0.00     0.010 A 
ATOM     68  C   UNL A   1      47.049  27.990  30.073  1.00  0.00     0.010 A 
ATOM     69  C   UNL A   1      47.468  26.571  32.449  1.00  0.00     0.020 A 
ATOM     70  C   UNL A   1      48.229  27.259  30.247  1.00  0.00     0.020 A 
ATOM     71  C   UNL A   1      48.438  26.569  31.442  1.00  0.00     0.054 A 
BRANCH  71  72
ATOM     72  S   UNL A   1      49.966  25.630  31.709  1.00  0.00     0.124 S 
ATOM     73  O   UNL A   1      49.568  24.700  32.763  1.00  0.00    -0.237 OA
ATOM     74  O   UNL A   1      50.205  25.028  30.399  1.00  0.00    -0.237 OA
ATOM     75  O   UNL A   1      50.934  26.648  32.110  1.00  0.00    -0.744 OA
ENDBRANCH  71  72
ENDBRANCH  52  66
BRANCH  53  76
ATOM     76  C   UNL A   1      37.338  32.727  29.728  1.00  0.00    -0.014 A 
ATOM     77  C   UNL A   1      37.035  33.365  28.511  1.00  0.00     0.010 A 
ATOM     78  C   UNL A   1      36.393  32.760  30.769  1.00  0.00     0.010 A 
ATOM     79  C   UNL A   1      35.823  34.044  28.350  1.00  0.00     0.020 A 
ATOM     80  C   UNL A   1      35.168  33.412  30.600  1.00  0.00     0.020 A 
ATOM     81  C   UNL A   1      34.897  34.063  29.395  1.00  0.00     0.054 A 
BRANCH  81  82
ATOM     82  S   UNL A   1      33.314  34.913  29.147  1.00  0.00     0.124 S 
ATOM     83  O   UNL A   1      33.743  36.213  28.642  1.00  0.00    -0.237 OA
ATOM     84  O   UNL A   1      32.639  34.049  28.182  1.00  0.00    -0.237 OA
ATOM     85  O   UNL A   1      32.720  34.925  30.483  1.00  0.00    -0.744 OA
ENDBRANCH  81  82
ENDBRANCH  53  76
BRANCH  65  86
ATOM     86  C   UNL A   1      43.519  34.669  32.301  1.00  0.00    -0.014 A 
ATOM     87  C   UNL A   1      43.460  34.989  33.669  1.00  0.00     0.010 A 
ATOM     88  C   UNL A   1      44.081  35.596  31.404  1.00  0.00     0.010 A 
ATOM     89  C   UNL A   1      43.895  36.238  34.120  1.00  0.00     0.020 A 
ATOM     90  C   UNL A   1      44.549  36.831  31.856  1.00  0.00     0.020 A 
ATOM     91  C   UNL A   1      44.430  37.154  33.208  1.00  0.00     0.054 A 
BRANCH  91  92
ATOM     92  S   UNL A   1      44.985  38.769  33.816  1.00  0.00     0.124 S 
ATOM     93  O   UNL A   1      45.543  39.373  32.608  1.00  0.00    -0.237 OA
ATOM     94  O   UNL A   1      43.745  39.371  34.303  1.00  0.00    -0.237 OA
ATOM     95  O   UNL A   1      45.957  38.435  34.853  1.00  0.00    -0.744 OA
ENDBRANCH  91  92
ENDBRANCH  65  86
ENDBRANCH  39  40
ENDBRANCH  31  34
ENDBRANCH  29  30
ENDBRANCH  28  29
ENDBRANCH   1  28
TORSDOF 18
ENDMDL
MODEL 3
REMARK VINA RESULT:     -11.5      1.590      3.559
REMARK SMILES COc1ccc(NC(=O)[C@@H]2[C@@H](C(=O)NCCCCNC(=O)c3ccc(-c4c5nc(c(-c6ccc(S(=O)(=O)[O-])cc6)c6ccc([nH]6)c(-c6ccc(S(=O)(=O)[O-])cc6)c6nc(c(-c7ccc(S(=O)(=O)[O-])cc7)c7ccc4[nH]7)C=C6)C=C5)cc3)[C@H]3C=C[C@@H]2C3)cc1O
REMARK SMILES IDX 16 1 15 2 14 3 12 4 13 5 11 7 10 8 85 9 82 10 84 11 86 12
REMARK SMILES IDX 83 13 8 14 7 15 9 17 6 18 3 19 4 20 88 21 5 22 87 23 2 24
REMARK SMILES IDX 1 25 89 26 17 28 18 29 19 30 20 31 21 33 22 34 23 35 81 36
REMARK SMILES IDX 24 37 80 38 25 39 26 40 27 41 74 42 28 43 79 44 73 45 75 46
REMARK SMILES IDX 29 47 78 48 72 49 71 50 30 52 60 53 41 54 59 55 42 56 45 57
REMARK SMILES IDX 58 58 76 59 43 60 44 61 57 63 77 64 46 65 31 66 32 67 40 68
REMARK SMILES IDX 33 69 39 70 34 71 35 72 36 73 37 74 38 75 61 76 62 77 70 78
REMARK SMILES IDX 63 79 69 80 64 81 65 82 66 83 67 84 68 85 47 86 48 87 56 88
REMARK SMILES IDX 49 89 55 90 50 91 51 92 52 93 53 94 54 95
REMARK H PARENT 14 6 7 16 89 27 19 32 75 51 45 62
REMARK Flexibility Score: inf
ROOT
ATOM      1  C   UNL A   1      37.388  22.204  24.604  1.00  0.00     0.023 C 
ENDROOT
BRANCH   1   2
ATOM      2  C   UNL A   1      36.699  23.069  25.656  1.00  0.00     0.116 C 
BRANCH   2   3
ATOM      3  N   UNL A   1      35.902  22.261  26.568  1.00  0.00    -0.356 N 
ATOM      4  C   UNL A   1      34.568  22.137  26.799  1.00  0.00     0.224 C 
ATOM      5  O   UNL A   1      34.251  21.321  27.673  1.00  0.00    -0.275 OA
ATOM      6  H   UNL A   1      36.448  21.675  27.141  1.00  0.00     0.163 HD
BRANCH   4   7
ATOM      7  C   UNL A   1      33.478  22.829  25.975  1.00  0.00     0.098 C 
ATOM      8  C   UNL A   1      31.999  22.471  26.232  1.00  0.00     0.099 C 
ATOM      9  C   UNL A   1      31.529  22.007  24.813  1.00  0.00     0.025 C 
ATOM     10  C   UNL A   1      33.665  22.520  24.460  1.00  0.00     0.025 C 
ATOM     11  C   UNL A   1      32.257  20.717  24.473  1.00  0.00    -0.027 C 
ATOM     12  C   UNL A   1      32.309  22.960  23.906  1.00  0.00     0.017 C 
ATOM     13  C   UNL A   1      33.538  21.033  24.246  1.00  0.00    -0.027 C 
BRANCH   8  14
ATOM     14  C   UNL A   1      31.014  23.508  26.802  1.00  0.00     0.228 C 
ATOM     15  N   UNL A   1      30.927  24.846  26.566  1.00  0.00    -0.326 N 
ATOM     16  H   UNL A   1      30.206  25.262  27.091  1.00  0.00     0.169 HD
ATOM     17  O   UNL A   1      30.147  23.085  27.589  1.00  0.00    -0.274 OA
BRANCH  15  18
ATOM     18  C   UNL A   1      31.600  25.789  25.771  1.00  0.00     0.045 A 
ATOM     19  C   UNL A   1      32.979  27.106  23.731  1.00  0.00     0.160 A 
ATOM     20  C   UNL A   1      33.629  26.818  24.921  1.00  0.00     0.052 A 
ATOM     21  C   UNL A   1      31.601  26.927  23.647  1.00  0.00     0.159 A 
ATOM     22  C   UNL A   1      32.908  26.218  25.962  1.00  0.00     0.030 A 
ATOM     23  C   UNL A   1      30.903  26.289  24.668  1.00  0.00     0.076 A 
BRANCH  19  24
ATOM     24  O   UNL A   1      33.696  27.317  22.588  1.00  0.00    -0.493 OA
ATOM     25  C   UNL A   1      34.181  28.644  22.442  1.00  0.00     0.278 C 
ENDBRANCH  19  24
BRANCH  21  26
ATOM     26  O   UNL A   1      30.911  27.295  22.527  1.00  0.00    -0.504 OA
ATOM     27  H   UNL A   1      29.987  27.443  22.573  1.00  0.00     0.293 HD
ENDBRANCH  21  26
ENDBRANCH  15  18
ENDBRANCH   8  14
ENDBRANCH   4   7
ENDBRANCH   2   3
ENDBRANCH   1   2
BRANCH   1  28
ATOM     28  C   UNL A   1      38.004  20.930  25.181  1.00  0.00     0.023 C 
BRANCH  28  29
ATOM     29  C   UNL A   1      39.179  21.172  26.121  1.00  0.00     0.116 C 
BRANCH  29  30
ATOM     30  N   UNL A   1      40.184  20.124  26.055  1.00  0.00    -0.352 N 
ATOM     31  C   UNL A   1      41.550  20.251  26.152  1.00  0.00     0.251 C 
ATOM     32  H   UNL A   1      39.844  19.210  25.924  1.00  0.00     0.163 HD
ATOM     33  O   UNL A   1      42.276  19.295  25.931  1.00  0.00    -0.269 OA
BRANCH  31  34
ATOM     34  C   UNL A   1      42.123  21.570  26.499  1.00  0.00     0.039 A 
ATOM     35  C   UNL A   1      42.330  22.504  25.484  1.00  0.00     0.014 A 
ATOM     36  C   UNL A   1      42.435  21.886  27.825  1.00  0.00     0.014 A 
ATOM     37  C   UNL A   1      42.825  23.768  25.805  1.00  0.00     0.010 A 
ATOM     38  C   UNL A   1      42.840  23.175  28.153  1.00  0.00     0.010 A 
ATOM     39  C   UNL A   1      43.068  24.120  27.144  1.00  0.00    -0.014 A 
BRANCH  39  40
ATOM     40  C   UNL A   1      43.620  25.452  27.493  1.00  0.00     0.031 A 
ATOM     41  C   UNL A   1      45.071  25.756  27.221  1.00  0.00     0.074 A 
ATOM     42  C   UNL A   1      42.829  26.375  28.073  1.00  0.00     0.049 A 
ATOM     43  N   UNL A   1      45.738  26.860  27.441  1.00  0.00    -0.248 NA
ATOM     44  C   UNL A   1      45.887  24.669  26.652  1.00  0.00     0.031 C 
ATOM     45  C   UNL A   1      41.422  26.184  28.434  1.00  0.00     0.029 A 
ATOM     46  N   UNL A   1      43.096  27.666  28.455  1.00  0.00    -0.354 N 
ATOM     47  C   UNL A   1      47.046  26.595  27.052  1.00  0.00     0.074 A 
ATOM     48  C   UNL A   1      47.096  25.208  26.649  1.00  0.00     0.031 C 
ATOM     49  C   UNL A   1      40.940  27.328  28.945  1.00  0.00     0.029 A 
ATOM     50  C   UNL A   1      42.008  28.322  28.980  1.00  0.00     0.049 A 
ATOM     51  H   UNL A   1      43.984  28.083  28.362  1.00  0.00     0.167 HD
ATOM     52  C   UNL A   1      48.107  27.436  27.007  1.00  0.00     0.031 A 
ATOM     53  C   UNL A   1      41.883  29.585  29.429  1.00  0.00     0.031 A 
ATOM     54  C   UNL A   1      48.049  28.819  27.394  1.00  0.00     0.049 A 
ATOM     55  C   UNL A   1      43.071  30.505  29.356  1.00  0.00     0.074 A 
ATOM     56  C   UNL A   1      49.050  29.773  27.336  1.00  0.00     0.029 A 
ATOM     57  N   UNL A   1      46.926  29.449  27.910  1.00  0.00    -0.354 N 
ATOM     58  N   UNL A   1      44.285  30.256  28.922  1.00  0.00    -0.248 NA
ATOM     59  C   UNL A   1      42.865  31.886  29.812  1.00  0.00     0.031 C 
ATOM     60  C   UNL A   1      48.547  30.966  27.867  1.00  0.00     0.029 A 
ATOM     61  C   UNL A   1      47.214  30.773  28.192  1.00  0.00     0.049 A 
ATOM     62  H   UNL A   1      46.052  29.018  28.053  1.00  0.00     0.167 HD
ATOM     63  C   UNL A   1      44.977  31.458  29.023  1.00  0.00     0.074 A 
ATOM     64  C   UNL A   1      44.040  32.435  29.539  1.00  0.00     0.031 C 
ATOM     65  C   UNL A   1      46.271  31.730  28.714  1.00  0.00     0.031 A 
BRANCH  52  66
ATOM     66  C   UNL A   1      49.419  26.874  26.519  1.00  0.00    -0.014 A 
ATOM     67  C   UNL A   1      50.284  26.185  27.390  1.00  0.00     0.010 A 
ATOM     68  C   UNL A   1      49.781  27.014  25.168  1.00  0.00     0.010 A 
ATOM     69  C   UNL A   1      51.507  25.691  26.929  1.00  0.00     0.020 A 
ATOM     70  C   UNL A   1      50.989  26.492  24.695  1.00  0.00     0.020 A 
ATOM     71  C   UNL A   1      51.853  25.850  25.584  1.00  0.00     0.054 A 
BRANCH  71  72
ATOM     72  S   UNL A   1      53.437  25.181  25.010  1.00  0.00     0.124 S 
ATOM     73  O   UNL A   1      53.265  23.750  25.249  1.00  0.00    -0.237 OA
ATOM     74  O   UNL A   1      53.465  25.584  23.606  1.00  0.00    -0.237 OA
ATOM     75  O   UNL A   1      54.422  25.840  25.864  1.00  0.00    -0.744 OA
ENDBRANCH  71  72
ENDBRANCH  52  66
BRANCH  53  76
ATOM     76  C   UNL A   1      40.574  30.065  29.955  1.00  0.00    -0.014 A 
ATOM     77  C   UNL A   1      39.537  30.425  29.076  1.00  0.00     0.010 A 
ATOM     78  C   UNL A   1      40.357  30.160  31.341  1.00  0.00     0.010 A 
ATOM     79  C   UNL A   1      38.318  30.896  29.573  1.00  0.00     0.020 A 
ATOM     80  C   UNL A   1      39.128  30.600  31.842  1.00  0.00     0.020 A 
ATOM     81  C   UNL A   1      38.121  30.980  30.953  1.00  0.00     0.054 A 
BRANCH  81  82
ATOM     82  S   UNL A   1      36.515  31.552  31.575  1.00  0.00     0.124 S 
ATOM     83  O   UNL A   1      36.023  30.370  32.276  1.00  0.00    -0.237 OA
ATOM     84  O   UNL A   1      36.890  32.681  32.422  1.00  0.00    -0.237 OA
ATOM     85  O   UNL A   1      35.786  31.909  30.360  1.00  0.00    -0.744 OA
ENDBRANCH  81  82
ENDBRANCH  53  76
BRANCH  65  86
ATOM     86  C   UNL A   1      46.733  33.154  28.890  1.00  0.00    -0.014 A 
ATOM     87  C   UNL A   1      46.545  34.118  27.884  1.00  0.00     0.010 A 
ATOM     88  C   UNL A   1      47.353  33.534  30.094  1.00  0.00     0.010 A 
ATOM     89  C   UNL A   1      47.026  35.418  28.054  1.00  0.00     0.020 A 
ATOM     90  C   UNL A   1      47.803  34.842  30.283  1.00  0.00     0.020 A 
ATOM     91  C   UNL A   1      47.659  35.770  29.250  1.00  0.00     0.054 A 
BRANCH  91  92
ATOM     92  S   UNL A   1      48.278  37.462  29.447  1.00  0.00     0.124 S 
ATOM     93  O   UNL A   1      47.614  38.158  28.347  1.00  0.00    -0.237 OA
ATOM     94  O   UNL A   1      47.815  37.820  30.787  1.00  0.00    -0.237 OA
ATOM     95  O   UNL A   1      49.726  37.320  29.312  1.00  0.00    -0.744 OA
ENDBRANCH  91  92
ENDBRANCH  65  86
ENDBRANCH  39  40
ENDBRANCH  31  34
ENDBRANCH  29  30
ENDBRANCH  28  29
ENDBRANCH   1  28
TORSDOF 18
ENDMDL
