MODEL 1
REMARK VINA RESULT:     -11.0      0.000      0.000
REMARK SMILES O=Cc1ccc2c(c1)C=C(C(=O)NCCCCNC(=O)c1ccc(-c3c4nc(c(-c5ccc(S(=O)(=O)[O-])cc5)c5ccc([nH]5)c(-c5ccc(S(=O)(=O)[O-])cc5)c5nc(c(-c6ccc(S(=O)(=O)[O-])cc6)c6ccc3[nH]6)C=C5)C=C4)cc1)[C@H](C(F)(F)F)O2
REMARK SMILES IDX 16 1 15 2 14 3 13 4 11 5 12 6 10 8 3 9 4 10 8 11 5 12 7 13
REMARK SMILES IDX 6 14 9 15 86 16 81 17 2 18 1 19 82 20 83 21 84 22 85 23
REMARK SMILES IDX 17 24 18 25 19 26 20 28 21 29 22 30 80 31 23 32 79 33 24 34
REMARK SMILES IDX 25 35 26 36 73 37 27 38 78 39 72 40 74 41 28 42 77 43 71 44
REMARK SMILES IDX 70 45 29 47 59 48 40 49 58 50 41 51 44 52 57 53 75 54 42 55
REMARK SMILES IDX 43 56 56 58 76 59 45 60 30 61 31 62 39 63 32 64 38 65 33 66
REMARK SMILES IDX 34 67 35 68 36 69 37 70 60 71 61 72 69 73 62 74 68 75 63 76
REMARK SMILES IDX 64 77 65 78 66 79 67 80 46 81 47 82 55 83 48 84 54 85 49 86
REMARK SMILES IDX 50 87 51 88 52 89 53 90
REMARK H PARENT 13 7 18 27 74 46 44 57
REMARK Flexibility Score: inf
ROOT
ATOM      1  C   UNL A   1      32.961  27.671  26.831  1.00  0.00     0.023 C 
ENDROOT
BRANCH   1   2
ATOM      2  C   UNL A   1      31.598  27.968  26.201  1.00  0.00     0.023 C 
BRANCH   2   3
ATOM      3  C   UNL A   1      30.932  26.756  25.536  1.00  0.00     0.116 C 
BRANCH   3   4
ATOM      4  N   UNL A   1      30.826  25.660  26.484  1.00  0.00    -0.352 N 
ATOM      5  C   UNL A   1      31.467  24.467  26.587  1.00  0.00     0.251 C 
ATOM      6  O   UNL A   1      31.059  23.658  27.417  1.00  0.00    -0.270 OA
ATOM      7  H   UNL A   1      30.156  25.811  27.190  1.00  0.00     0.163 HD
BRANCH   5   8
ATOM      8  C   UNL A   1      32.681  24.123  25.795  1.00  0.00     0.067 C 
ATOM      9  C   UNL A   1      37.381  23.155  25.248  1.00  0.00     0.015 A 
ATOM     10  C   UNL A   1      37.170  22.839  23.904  1.00  0.00     0.015 A 
ATOM     11  C   UNL A   1      36.321  23.589  26.046  1.00  0.00     0.023 A 
ATOM     12  C   UNL A   1      35.888  22.947  23.362  1.00  0.00     0.048 A 
ATOM     13  C   UNL A   1      35.037  23.697  25.495  1.00  0.00     0.018 A 
ATOM     14  C   UNL A   1      34.824  23.372  24.159  1.00  0.00     0.128 A 
ATOM     15  C   UNL A   1      33.909  24.075  26.328  1.00  0.00     0.025 C 
ATOM     16  O   UNL A   1      33.597  23.392  23.570  1.00  0.00    -0.475 OA
ATOM     17  C   UNL A   1      32.472  23.985  24.288  1.00  0.00     0.314 C 
BRANCH   9  18
ATOM     18  C   UNL A   1      38.722  23.006  25.849  1.00  0.00     0.260 C 
ATOM     19  O   UNL A   1      38.970  22.146  26.684  1.00  0.00    -0.298 OA
ENDBRANCH   9  18
BRANCH  17  20
ATOM     20  C   UNL A   1      31.200  23.227  23.843  1.00  0.00     0.429 C 
ATOM     21  F   UNL A   1      30.173  24.050  23.539  1.00  0.00    -0.167 F 
ATOM     22  F   UNL A   1      31.435  22.510  22.710  1.00  0.00    -0.167 F 
ATOM     23  F   UNL A   1      30.774  22.346  24.778  1.00  0.00    -0.167 F 
ENDBRANCH  17  20
ENDBRANCH   5   8
ENDBRANCH   3   4
ENDBRANCH   2   3
ENDBRANCH   1   2
BRANCH   1  24
ATOM     24  C   UNL A   1      34.041  28.702  26.528  1.00  0.00     0.116 C 
BRANCH  24  25
ATOM     25  N   UNL A   1      33.819  29.975  27.196  1.00  0.00    -0.352 N 
ATOM     26  C   UNL A   1      34.661  30.652  28.046  1.00  0.00     0.251 C 
ATOM     27  H   UNL A   1      32.953  30.408  27.016  1.00  0.00     0.163 HD
ATOM     28  O   UNL A   1      34.278  31.666  28.612  1.00  0.00    -0.269 OA
BRANCH  26  29
ATOM     29  C   UNL A   1      36.015  30.112  28.299  1.00  0.00     0.039 A 
ATOM     30  C   UNL A   1      36.977  30.219  27.293  1.00  0.00     0.014 A 
ATOM     31  C   UNL A   1      36.338  29.537  29.531  1.00  0.00     0.014 A 
ATOM     32  C   UNL A   1      38.287  29.806  27.548  1.00  0.00     0.010 A 
ATOM     33  C   UNL A   1      37.656  29.187  29.803  1.00  0.00     0.010 A 
ATOM     34  C   UNL A   1      38.643  29.320  28.816  1.00  0.00    -0.014 A 
BRANCH  34  35
ATOM     35  C   UNL A   1      40.043  28.940  29.128  1.00  0.00     0.031 A 
ATOM     36  C   UNL A   1      40.972  29.943  29.756  1.00  0.00     0.074 A 
ATOM     37  C   UNL A   1      40.494  27.715  28.791  1.00  0.00     0.049 A 
ATOM     38  N   UNL A   1      42.244  29.824  30.038  1.00  0.00    -0.248 NA
ATOM     39  C   UNL A   1      40.404  31.261  30.087  1.00  0.00     0.031 C 
ATOM     40  C   UNL A   1      39.701  26.667  28.142  1.00  0.00     0.029 A 
ATOM     41  N   UNL A   1      41.733  27.146  28.941  1.00  0.00    -0.354 N 
ATOM     42  C   UNL A   1      42.631  31.050  30.566  1.00  0.00     0.074 A 
ATOM     43  C   UNL A   1      41.471  31.915  30.521  1.00  0.00     0.031 C 
ATOM     44  C   UNL A   1      40.467  25.577  27.972  1.00  0.00     0.029 A 
ATOM     45  C   UNL A   1      41.811  25.858  28.465  1.00  0.00     0.049 A 
ATOM     46  H   UNL A   1      42.495  27.615  29.352  1.00  0.00     0.167 HD
ATOM     47  C   UNL A   1      43.835  31.417  31.063  1.00  0.00     0.031 A 
ATOM     48  C   UNL A   1      42.851  25.002  28.427  1.00  0.00     0.031 A 
ATOM     49  C   UNL A   1      44.981  30.550  31.124  1.00  0.00     0.049 A 
ATOM     50  C   UNL A   1      44.179  25.435  28.986  1.00  0.00     0.074 A 
ATOM     51  C   UNL A   1      46.234  30.815  31.649  1.00  0.00     0.029 A 
ATOM     52  N   UNL A   1      45.012  29.247  30.652  1.00  0.00    -0.354 N 
ATOM     53  N   UNL A   1      44.509  26.583  29.526  1.00  0.00    -0.248 NA
ATOM     54  C   UNL A   1      45.270  24.451  28.942  1.00  0.00     0.031 C 
ATOM     55  C   UNL A   1      47.034  29.683  31.462  1.00  0.00     0.029 A 
ATOM     56  C   UNL A   1      46.264  28.698  30.865  1.00  0.00     0.049 A 
ATOM     57  H   UNL A   1      44.255  28.781  30.230  1.00  0.00     0.167 HD
ATOM     58  C   UNL A   1      45.837  26.448  29.915  1.00  0.00     0.074 A 
ATOM     59  C   UNL A   1      46.245  25.105  29.558  1.00  0.00     0.031 C 
ATOM     60  C   UNL A   1      46.648  27.355  30.513  1.00  0.00     0.031 A 
BRANCH  47  61
ATOM     61  C   UNL A   1      43.971  32.819  31.594  1.00  0.00    -0.014 A 
ATOM     62  C   UNL A   1      44.376  33.872  30.753  1.00  0.00     0.010 A 
ATOM     63  C   UNL A   1      43.642  33.099  32.932  1.00  0.00     0.010 A 
ATOM     64  C   UNL A   1      44.484  35.172  31.249  1.00  0.00     0.020 A 
ATOM     65  C   UNL A   1      43.725  34.404  33.426  1.00  0.00     0.020 A 
ATOM     66  C   UNL A   1      44.160  35.430  32.585  1.00  0.00     0.054 A 
BRANCH  66  67
ATOM     67  S   UNL A   1      44.277  37.134  33.193  1.00  0.00     0.124 S 
ATOM     68  O   UNL A   1      44.613  37.866  31.974  1.00  0.00    -0.237 OA
ATOM     69  O   UNL A   1      42.939  37.379  33.724  1.00  0.00    -0.237 OA
ATOM     70  O   UNL A   1      45.339  37.072  34.195  1.00  0.00    -0.744 OA
ENDBRANCH  66  67
ENDBRANCH  47  61
BRANCH  48  71
ATOM     71  C   UNL A   1      42.679  23.640  27.851  1.00  0.00    -0.014 A 
ATOM     72  C   UNL A   1      42.931  23.406  26.488  1.00  0.00     0.010 A 
ATOM     73  C   UNL A   1      42.246  22.573  28.660  1.00  0.00     0.010 A 
ATOM     74  C   UNL A   1      42.724  22.139  25.937  1.00  0.00     0.020 A 
ATOM     75  C   UNL A   1      42.062  21.298  28.117  1.00  0.00     0.020 A 
ATOM     76  C   UNL A   1      42.287  21.093  26.754  1.00  0.00     0.054 A 
BRANCH  76  77
ATOM     77  S   UNL A   1      42.048  19.449  26.025  1.00  0.00     0.124 S 
ATOM     78  O   UNL A   1      42.501  18.573  27.101  1.00  0.00    -0.237 OA
ATOM     79  O   UNL A   1      40.613  19.428  25.752  1.00  0.00    -0.237 OA
ATOM     80  O   UNL A   1      42.899  19.477  24.837  1.00  0.00    -0.744 OA
ENDBRANCH  76  77
ENDBRANCH  48  71
BRANCH  60  81
ATOM     81  C   UNL A   1      48.042  26.912  30.864  1.00  0.00    -0.014 A 
ATOM     82  C   UNL A   1      49.123  27.154  29.998  1.00  0.00     0.010 A 
ATOM     83  C   UNL A   1      48.279  26.291  32.104  1.00  0.00     0.010 A 
ATOM     84  C   UNL A   1      50.413  26.755  30.354  1.00  0.00     0.020 A 
ATOM     85  C   UNL A   1      49.572  25.915  32.474  1.00  0.00     0.020 A 
ATOM     86  C   UNL A   1      50.629  26.136  31.590  1.00  0.00     0.054 A 
BRANCH  86  87
ATOM     87  S   UNL A   1      52.320  25.668  32.050  1.00  0.00     0.124 S 
ATOM     88  O   UNL A   1      52.546  26.482  33.241  1.00  0.00    -0.237 OA
ATOM     89  O   UNL A   1      52.205  24.231  32.284  1.00  0.00    -0.237 OA
ATOM     90  O   UNL A   1      53.112  26.041  30.880  1.00  0.00    -0.744 OA
ENDBRANCH  86  87
ENDBRANCH  60  81
ENDBRANCH  34  35
ENDBRANCH  26  29
ENDBRANCH  24  25
ENDBRANCH   1  24
TORSDOF 16
ENDMDL
MODEL 2
REMARK VINA RESULT:     -11.0      2.587      9.147
REMARK SMILES O=Cc1ccc2c(c1)C=C(C(=O)NCCCCNC(=O)c1ccc(-c3c4nc(c(-c5ccc(S(=O)(=O)[O-])cc5)c5ccc([nH]5)c(-c5ccc(S(=O)(=O)[O-])cc5)c5nc(c(-c6ccc(S(=O)(=O)[O-])cc6)c6ccc3[nH]6)C=C5)C=C4)cc1)[C@H](C(F)(F)F)O2
REMARK SMILES IDX 16 1 15 2 14 3 13 4 11 5 12 6 10 8 3 9 4 10 8 11 5 12 7 13
REMARK SMILES IDX 6 14 9 15 86 16 81 17 2 18 1 19 82 20 83 21 84 22 85 23
REMARK SMILES IDX 17 24 18 25 19 26 20 28 21 29 22 30 80 31 23 32 79 33 24 34
REMARK SMILES IDX 25 35 26 36 73 37 27 38 78 39 72 40 74 41 28 42 77 43 71 44
REMARK SMILES IDX 70 45 29 47 59 48 40 49 58 50 41 51 44 52 57 53 75 54 42 55
REMARK SMILES IDX 43 56 56 58 76 59 45 60 30 61 31 62 39 63 32 64 38 65 33 66
REMARK SMILES IDX 34 67 35 68 36 69 37 70 60 71 61 72 69 73 62 74 68 75 63 76
REMARK SMILES IDX 64 77 65 78 66 79 67 80 46 81 47 82 55 83 48 84 54 85 49 86
REMARK SMILES IDX 50 87 51 88 52 89 53 90
REMARK H PARENT 13 7 18 27 74 46 44 57
REMARK Flexibility Score: inf
ROOT
ATOM      1  C   UNL A   1      35.563  23.220  25.749  1.00  0.00     0.023 C 
ENDROOT
BRANCH   1   2
ATOM      2  C   UNL A   1      35.017  22.023  24.966  1.00  0.00     0.023 C 
BRANCH   2   3
ATOM      3  C   UNL A   1      33.664  22.277  24.289  1.00  0.00     0.116 C 
BRANCH   3   4
ATOM      4  N   UNL A   1      33.836  23.137  23.132  1.00  0.00    -0.352 N 
ATOM      5  C   UNL A   1      33.497  24.430  22.888  1.00  0.00     0.251 C 
ATOM      6  O   UNL A   1      33.632  24.859  21.745  1.00  0.00    -0.270 OA
ATOM      7  H   UNL A   1      34.288  22.698  22.375  1.00  0.00     0.163 HD
BRANCH   5   8
ATOM      8  C   UNL A   1      33.036  25.366  23.951  1.00  0.00     0.067 C 
ATOM      9  C   UNL A   1      33.588  29.033  27.045  1.00  0.00     0.015 A 
ATOM     10  C   UNL A   1      32.233  28.970  27.379  1.00  0.00     0.015 A 
ATOM     11  C   UNL A   1      34.134  28.127  26.135  1.00  0.00     0.023 A 
ATOM     12  C   UNL A   1      31.421  28.001  26.786  1.00  0.00     0.048 A 
ATOM     13  C   UNL A   1      33.314  27.156  25.545  1.00  0.00     0.018 A 
ATOM     14  C   UNL A   1      31.962  27.099  25.869  1.00  0.00     0.128 A 
ATOM     15  C   UNL A   1      33.848  26.254  24.540  1.00  0.00     0.025 C 
ATOM     16  O   UNL A   1      31.091  26.226  25.291  1.00  0.00    -0.475 OA
ATOM     17  C   UNL A   1      31.611  25.148  24.456  1.00  0.00     0.314 C 
BRANCH   9  18
ATOM     18  C   UNL A   1      34.452  30.078  27.631  1.00  0.00     0.260 C 
ATOM     19  O   UNL A   1      34.414  31.242  27.252  1.00  0.00    -0.298 OA
ENDBRANCH   9  18
BRANCH  17  20
ATOM     20  C   UNL A   1      30.543  24.855  23.376  1.00  0.00     0.429 C 
ATOM     21  F   UNL A   1      30.384  23.537  23.134  1.00  0.00    -0.167 F 
ATOM     22  F   UNL A   1      29.319  25.299  23.773  1.00  0.00    -0.167 F 
ATOM     23  F   UNL A   1      30.817  25.472  22.203  1.00  0.00    -0.167 F 
ENDBRANCH  17  20
ENDBRANCH   5   8
ENDBRANCH   3   4
ENDBRANCH   2   3
ENDBRANCH   1   2
BRANCH   1  24
ATOM     24  C   UNL A   1      36.921  23.726  25.276  1.00  0.00     0.116 C 
BRANCH  24  25
ATOM     25  N   UNL A   1      37.992  22.763  25.482  1.00  0.00    -0.352 N 
ATOM     26  C   UNL A   1      39.192  22.945  26.127  1.00  0.00     0.251 C 
ATOM     27  H   UNL A   1      37.836  21.864  25.111  1.00  0.00     0.163 HD
ATOM     28  O   UNL A   1      40.035  22.059  26.119  1.00  0.00    -0.269 OA
BRANCH  26  29
ATOM     29  C   UNL A   1      39.465  24.240  26.787  1.00  0.00     0.039 A 
ATOM     30  C   UNL A   1      38.973  24.452  28.076  1.00  0.00     0.014 A 
ATOM     31  C   UNL A   1      40.229  25.221  26.150  1.00  0.00     0.014 A 
ATOM     32  C   UNL A   1      39.304  25.626  28.755  1.00  0.00     0.010 A 
ATOM     33  C   UNL A   1      40.610  26.361  26.851  1.00  0.00     0.010 A 
ATOM     34  C   UNL A   1      40.153  26.574  28.160  1.00  0.00    -0.014 A 
BRANCH  34  35
ATOM     35  C   UNL A   1      40.572  27.796  28.889  1.00  0.00     0.031 A 
ATOM     36  C   UNL A   1      41.919  27.849  29.557  1.00  0.00     0.074 A 
ATOM     37  C   UNL A   1      39.717  28.832  29.003  1.00  0.00     0.049 A 
ATOM     38  N   UNL A   1      42.435  28.796  30.297  1.00  0.00    -0.248 NA
ATOM     39  C   UNL A   1      42.791  26.674  29.392  1.00  0.00     0.031 C 
ATOM     40  C   UNL A   1      38.367  28.885  28.433  1.00  0.00     0.029 A 
ATOM     41  N   UNL A   1      39.852  30.038  29.643  1.00  0.00    -0.354 N 
ATOM     42  C   UNL A   1      43.681  28.328  30.696  1.00  0.00     0.074 A 
ATOM     43  C   UNL A   1      43.825  26.994  30.155  1.00  0.00     0.031 C 
ATOM     44  C   UNL A   1      37.810  30.071  28.730  1.00  0.00     0.029 A 
ATOM     45  C   UNL A   1      38.746  30.847  29.538  1.00  0.00     0.049 A 
ATOM     46  H   UNL A   1      40.667  30.299  30.130  1.00  0.00     0.167 HD
ATOM     47  C   UNL A   1      44.630  28.960  31.427  1.00  0.00     0.031 A 
ATOM     48  C   UNL A   1      38.510  32.075  30.041  1.00  0.00     0.031 A 
ATOM     49  C   UNL A   1      44.492  30.293  31.948  1.00  0.00     0.049 A 
ATOM     50  C   UNL A   1      39.581  32.754  30.850  1.00  0.00     0.074 A 
ATOM     51  C   UNL A   1      45.414  31.036  32.664  1.00  0.00     0.029 A 
ATOM     52  N   UNL A   1      43.365  31.087  31.800  1.00  0.00    -0.354 N 
ATOM     53  N   UNL A   1      40.773  32.313  31.173  1.00  0.00    -0.248 NA
ATOM     54  C   UNL A   1      39.279  34.102  31.352  1.00  0.00     0.031 C 
ATOM     55  C   UNL A   1      44.830  32.267  32.981  1.00  0.00     0.029 A 
ATOM     56  C   UNL A   1      43.564  32.308  32.420  1.00  0.00     0.049 A 
ATOM     57  H   UNL A   1      42.545  30.821  31.325  1.00  0.00     0.167 HD
ATOM     58  C   UNL A   1      41.374  33.343  31.889  1.00  0.00     0.074 A 
ATOM     59  C   UNL A   1      40.420  34.431  31.941  1.00  0.00     0.031 C 
ATOM     60  C   UNL A   1      42.607  33.383  32.453  1.00  0.00     0.031 A 
BRANCH  47  61
ATOM     61  C   UNL A   1      45.910  28.215  31.697  1.00  0.00    -0.014 A 
ATOM     62  C   UNL A   1      47.014  28.344  30.836  1.00  0.00     0.010 A 
ATOM     63  C   UNL A   1      46.029  27.418  32.849  1.00  0.00     0.010 A 
ATOM     64  C   UNL A   1      48.203  27.662  31.103  1.00  0.00     0.020 A 
ATOM     65  C   UNL A   1      47.225  26.753  33.133  1.00  0.00     0.020 A 
ATOM     66  C   UNL A   1      48.300  26.868  32.249  1.00  0.00     0.054 A 
BRANCH  66  67
ATOM     67  S   UNL A   1      49.867  26.020  32.588  1.00  0.00     0.124 S 
ATOM     68  O   UNL A   1      50.846  27.020  32.167  1.00  0.00    -0.237 OA
ATOM     69  O   UNL A   1      49.797  25.777  34.027  1.00  0.00    -0.237 OA
ATOM     70  O   UNL A   1      49.800  24.823  31.754  1.00  0.00    -0.744 OA
ENDBRANCH  66  67
ENDBRANCH  47  61
BRANCH  48  71
ATOM     71  C   UNL A   1      37.210  32.753  29.783  1.00  0.00    -0.014 A 
ATOM     72  C   UNL A   1      36.085  32.461  30.575  1.00  0.00     0.010 A 
ATOM     73  C   UNL A   1      37.086  33.681  28.734  1.00  0.00     0.010 A 
ATOM     74  C   UNL A   1      34.853  33.061  30.304  1.00  0.00     0.020 A 
ATOM     75  C   UNL A   1      35.860  34.304  28.476  1.00  0.00     0.020 A 
ATOM     76  C   UNL A   1      34.747  33.976  29.253  1.00  0.00     0.054 A 
BRANCH  76  77
ATOM     77  S   UNL A   1      33.144  34.764  28.933  1.00  0.00     0.124 S 
ATOM     78  O   UNL A   1      32.527  33.825  28.003  1.00  0.00    -0.237 OA
ATOM     79  O   UNL A   1      32.548  34.822  30.265  1.00  0.00    -0.237 OA
ATOM     80  O   UNL A   1      33.511  36.060  28.366  1.00  0.00    -0.744 OA
ENDBRANCH  76  77
ENDBRANCH  48  71
BRANCH  60  81
ATOM     81  C   UNL A   1      43.013  34.661  33.134  1.00  0.00    -0.014 A 
ATOM     82  C   UNL A   1      42.851  34.831  34.520  1.00  0.00     0.010 A 
ATOM     83  C   UNL A   1      43.617  35.685  32.381  1.00  0.00     0.010 A 
ATOM     84  C   UNL A   1      43.257  36.017  35.136  1.00  0.00     0.020 A 
ATOM     85  C   UNL A   1      44.049  36.861  32.998  1.00  0.00     0.020 A 
ATOM     86  C   UNL A   1      43.852  37.026  34.370  1.00  0.00     0.054 A 
BRANCH  86  87
ATOM     87  S   UNL A   1      44.414  38.538  35.200  1.00  0.00     0.124 S 
ATOM     88  O   UNL A   1      43.737  39.576  34.427  1.00  0.00    -0.237 OA
ATOM     89  O   UNL A   1      43.930  38.355  36.566  1.00  0.00    -0.237 OA
ATOM     90  O   UNL A   1      45.867  38.495  35.050  1.00  0.00    -0.744 OA
ENDBRANCH  86  87
ENDBRANCH  60  81
ENDBRANCH  34  35
ENDBRANCH  26  29
ENDBRANCH  24  25
ENDBRANCH   1  24
TORSDOF 16
ENDMDL
MODEL 3
REMARK VINA RESULT:     -10.8      4.454     10.285
REMARK SMILES O=Cc1ccc2c(c1)C=C(C(=O)NCCCCNC(=O)c1ccc(-c3c4nc(c(-c5ccc(S(=O)(=O)[O-])cc5)c5ccc([nH]5)c(-c5ccc(S(=O)(=O)[O-])cc5)c5nc(c(-c6ccc(S(=O)(=O)[O-])cc6)c6ccc3[nH]6)C=C5)C=C4)cc1)[C@H](C(F)(F)F)O2
REMARK SMILES IDX 16 1 15 2 14 3 13 4 11 5 12 6 10 8 3 9 4 10 8 11 5 12 7 13
REMARK SMILES IDX 6 14 9 15 86 16 81 17 2 18 1 19 82 20 83 21 84 22 85 23
REMARK SMILES IDX 17 24 18 25 19 26 20 28 21 29 22 30 80 31 23 32 79 33 24 34
REMARK SMILES IDX 25 35 26 36 73 37 27 38 78 39 72 40 74 41 28 42 77 43 71 44
REMARK SMILES IDX 70 45 29 47 59 48 40 49 58 50 41 51 44 52 57 53 75 54 42 55
REMARK SMILES IDX 43 56 56 58 76 59 45 60 30 61 31 62 39 63 32 64 38 65 33 66
REMARK SMILES IDX 34 67 35 68 36 69 37 70 60 71 61 72 69 73 62 74 68 75 63 76
REMARK SMILES IDX 64 77 65 78 66 79 67 80 46 81 47 82 55 83 48 84 54 85 49 86
REMARK SMILES IDX 50 87 51 88 52 89 53 90
REMARK H PARENT 13 7 18 27 74 46 44 57
REMARK Flexibility Score: inf
ROOT
ATOM      1  C   UNL A   1      37.720  23.059  25.849  1.00  0.00     0.023 C 
ENDROOT
BRANCH   1   2
ATOM      2  C   UNL A   1      36.689  23.639  24.877  1.00  0.00     0.023 C 
BRANCH   2   3
ATOM      3  C   UNL A   1      35.625  22.637  24.414  1.00  0.00     0.116 C 
BRANCH   3   4
ATOM      4  N   UNL A   1      34.952  23.132  23.226  1.00  0.00    -0.352 N 
ATOM      5  C   UNL A   1      33.937  24.015  23.044  1.00  0.00     0.251 C 
ATOM      6  O   UNL A   1      33.462  24.130  21.917  1.00  0.00    -0.270 OA
ATOM      7  H   UNL A   1      35.301  22.752  22.387  1.00  0.00     0.163 HD
BRANCH   5   8
ATOM      8  C   UNL A   1      33.421  24.898  24.128  1.00  0.00     0.067 C 
ATOM      9  C   UNL A   1      33.095  29.063  26.550  1.00  0.00     0.015 A 
ATOM     10  C   UNL A   1      32.069  28.536  27.340  1.00  0.00     0.015 A 
ATOM     11  C   UNL A   1      33.713  28.275  25.578  1.00  0.00     0.023 A 
ATOM     12  C   UNL A   1      31.654  27.218  27.141  1.00  0.00     0.048 A 
ATOM     13  C   UNL A   1      33.292  26.953  25.386  1.00  0.00     0.018 A 
ATOM     14  C   UNL A   1      32.263  26.431  26.164  1.00  0.00     0.128 A 
ATOM     15  C   UNL A   1      33.872  26.144  24.329  1.00  0.00     0.025 C 
ATOM     16  O   UNL A   1      31.759  25.178  25.994  1.00  0.00    -0.475 OA
ATOM     17  C   UNL A   1      32.454  24.244  25.113  1.00  0.00     0.314 C 
BRANCH   9  18
ATOM     18  C   UNL A   1      33.518  30.468  26.718  1.00  0.00     0.260 C 
ATOM     19  O   UNL A   1      33.548  31.013  27.814  1.00  0.00    -0.298 OA
ENDBRANCH   9  18
BRANCH  17  20
ATOM     20  C   UNL A   1      31.379  23.316  24.498  1.00  0.00     0.429 C 
ATOM     21  F   UNL A   1      31.879  22.134  24.080  1.00  0.00    -0.167 F 
ATOM     22  F   UNL A   1      30.428  23.000  25.419  1.00  0.00    -0.167 F 
ATOM     23  F   UNL A   1      30.735  23.895  23.458  1.00  0.00    -0.167 F 
ENDBRANCH  17  20
ENDBRANCH   5   8
ENDBRANCH   3   4
ENDBRANCH   2   3
ENDBRANCH   1   2
BRANCH   1  24
ATOM     24  C   UNL A   1      38.612  24.094  26.525  1.00  0.00     0.116 C 
BRANCH  24  25
ATOM     25  N   UNL A   1      40.015  23.959  26.166  1.00  0.00    -0.352 N 
ATOM     26  C   UNL A   1      41.079  24.732  26.570  1.00  0.00     0.251 C 
ATOM     27  H   UNL A   1      40.232  23.218  25.555  1.00  0.00     0.163 HD
ATOM     28  O   UNL A   1      42.188  24.551  26.088  1.00  0.00    -0.269 OA
BRANCH  26  29
ATOM     29  C   UNL A   1      40.851  25.811  27.555  1.00  0.00     0.039 A 
ATOM     30  C   UNL A   1      39.852  25.641  28.516  1.00  0.00     0.014 A 
ATOM     31  C   UNL A   1      41.641  26.964  27.550  1.00  0.00     0.014 A 
ATOM     32  C   UNL A   1      39.688  26.603  29.515  1.00  0.00     0.010 A 
ATOM     33  C   UNL A   1      41.519  27.888  28.582  1.00  0.00     0.010 A 
ATOM     34  C   UNL A   1      40.543  27.715  29.576  1.00  0.00    -0.014 A 
BRANCH  34  35
ATOM     35  C   UNL A   1      40.430  28.713  30.668  1.00  0.00     0.031 A 
ATOM     36  C   UNL A   1      41.309  28.599  31.884  1.00  0.00     0.074 A 
ATOM     37  C   UNL A   1      39.497  29.682  30.594  1.00  0.00     0.049 A 
ATOM     38  N   UNL A   1      41.311  29.328  32.971  1.00  0.00    -0.248 NA
ATOM     39  C   UNL A   1      42.298  27.508  31.891  1.00  0.00     0.031 C 
ATOM     40  C   UNL A   1      38.558  29.874  29.484  1.00  0.00     0.029 A 
ATOM     41  N   UNL A   1      39.177  30.686  31.473  1.00  0.00    -0.354 N 
ATOM     42  C   UNL A   1      42.287  28.779  33.793  1.00  0.00     0.074 A 
ATOM     43  C   UNL A   1      42.824  27.627  33.101  1.00  0.00     0.031 C 
ATOM     44  C   UNL A   1      37.786  30.943  29.740  1.00  0.00     0.029 A 
ATOM     45  C   UNL A   1      38.148  31.490  31.043  1.00  0.00     0.049 A 
ATOM     46  H   UNL A   1      39.642  30.818  32.330  1.00  0.00     0.167 HD
ATOM     47  C   UNL A   1      42.714  29.207  35.005  1.00  0.00     0.031 A 
ATOM     48  C   UNL A   1      37.560  32.549  31.635  1.00  0.00     0.031 A 
ATOM     49  C   UNL A   1      42.191  30.362  35.682  1.00  0.00     0.049 A 
ATOM     50  C   UNL A   1      38.054  33.003  32.982  1.00  0.00     0.074 A 
ATOM     51  C   UNL A   1      42.587  30.901  36.893  1.00  0.00     0.029 A 
ATOM     52  N   UNL A   1      41.166  31.163  35.202  1.00  0.00    -0.354 N 
ATOM     53  N   UNL A   1      39.013  32.499  33.720  1.00  0.00    -0.248 NA
ATOM     54  C   UNL A   1      37.394  34.178  33.569  1.00  0.00     0.031 C 
ATOM     55  C   UNL A   1      41.776  32.009  37.164  1.00  0.00     0.029 A 
ATOM     56  C   UNL A   1      40.909  32.186  36.098  1.00  0.00     0.049 A 
ATOM     57  H   UNL A   1      40.692  31.024  34.351  1.00  0.00     0.167 HD
ATOM     58  C   UNL A   1      39.091  33.314  34.844  1.00  0.00     0.074 A 
ATOM     59  C   UNL A   1      38.092  34.349  34.682  1.00  0.00     0.031 C 
ATOM     60  C   UNL A   1      39.917  33.214  35.915  1.00  0.00     0.031 A 
BRANCH  47  61
ATOM     61  C   UNL A   1      43.812  28.422  35.672  1.00  0.00    -0.014 A 
ATOM     62  C   UNL A   1      43.512  27.346  36.526  1.00  0.00     0.010 A 
ATOM     63  C   UNL A   1      45.157  28.730  35.404  1.00  0.00     0.010 A 
ATOM     64  C   UNL A   1      44.537  26.614  37.129  1.00  0.00     0.020 A 
ATOM     65  C   UNL A   1      46.187  27.984  35.986  1.00  0.00     0.020 A 
ATOM     66  C   UNL A   1      45.869  26.939  36.856  1.00  0.00     0.054 A 
BRANCH  66  67
ATOM     67  S   UNL A   1      47.179  25.951  37.627  1.00  0.00     0.124 S 
ATOM     68  O   UNL A   1      47.589  25.084  36.524  1.00  0.00    -0.237 OA
ATOM     69  O   UNL A   1      48.154  26.963  38.025  1.00  0.00    -0.237 OA
ATOM     70  O   UNL A   1      46.501  25.276  38.731  1.00  0.00    -0.744 OA
ENDBRANCH  66  67
ENDBRANCH  47  61
BRANCH  48  71
ATOM     71  C   UNL A   1      36.447  33.265  30.955  1.00  0.00    -0.014 A 
ATOM     72  C   UNL A   1      36.654  33.880  29.707  1.00  0.00     0.010 A 
ATOM     73  C   UNL A   1      35.179  33.350  31.557  1.00  0.00     0.010 A 
ATOM     74  C   UNL A   1      35.623  34.593  29.090  1.00  0.00     0.020 A 
ATOM     75  C   UNL A   1      34.138  34.040  30.930  1.00  0.00     0.020 A 
ATOM     76  C   UNL A   1      34.372  34.673  29.707  1.00  0.00     0.054 A 
BRANCH  76  77
ATOM     77  S   UNL A   1      33.039  35.581  28.877  1.00  0.00     0.124 S 
ATOM     78  O   UNL A   1      32.463  34.553  28.017  1.00  0.00    -0.237 OA
ATOM     79  O   UNL A   1      32.205  36.012  29.996  1.00  0.00    -0.237 OA
ATOM     80  O   UNL A   1      33.742  36.659  28.184  1.00  0.00    -0.744 OA
ENDBRANCH  76  77
ENDBRANCH  48  71
BRANCH  60  81
ATOM     81  C   UNL A   1      39.809  34.278  36.973  1.00  0.00    -0.014 A 
ATOM     82  C   UNL A   1      40.453  35.519  36.826  1.00  0.00     0.010 A 
ATOM     83  C   UNL A   1      39.006  34.049  38.105  1.00  0.00     0.010 A 
ATOM     84  C   UNL A   1      40.320  36.502  37.809  1.00  0.00     0.020 A 
ATOM     85  C   UNL A   1      38.850  35.039  39.078  1.00  0.00     0.020 A 
ATOM     86  C   UNL A   1      39.520  36.255  38.931  1.00  0.00     0.054 A 
BRANCH  86  87
ATOM     87  S   UNL A   1      39.326  37.562  40.173  1.00  0.00     0.124 S 
ATOM     88  O   UNL A   1      38.943  36.800  41.358  1.00  0.00    -0.237 OA
ATOM     89  O   UNL A   1      40.656  38.166  40.217  1.00  0.00    -0.237 OA
ATOM     90  O   UNL A   1      38.279  38.416  39.614  1.00  0.00    -0.744 OA
ENDBRANCH  86  87
ENDBRANCH  60  81
ENDBRANCH  34  35
ENDBRANCH  26  29
ENDBRANCH  24  25
ENDBRANCH   1  24
TORSDOF 16
ENDMDL
