MODEL 1
REMARK VINA RESULT:      -9.9      0.000      0.000
REMARK SMILES C#CCN(CC(=O)NCCCCNC(=O)c1ccc(-c2c3nc(c(-c4ccc(S(=O)(=O)[O-])cc4)c4ccc([nH]4)c(-c4ccc(S(=O)(=O)[O-])cc4)c4nc(c(-c5ccc(S(=O)(=O)[O-])cc5)c5ccc2[nH]5)C=C4)C=C3)cc1)C(=O)c1cc(C)c(C)s1
REMARK SMILES IDX 10 1 9 2 8 3 6 4 7 5 5 7 4 8 3 9 2 10 1 11 76 12 77 13 78 14
REMARK SMILES IDX 79 15 84 16 80 17 82 18 81 19 83 20 11 21 12 22 13 23 14 24
REMARK SMILES IDX 15 26 16 27 17 28 75 29 18 30 74 31 19 32 20 33 21 34 68 35
REMARK SMILES IDX 22 36 73 37 67 38 69 39 23 40 72 41 66 42 65 43 24 45 54 46
REMARK SMILES IDX 35 47 53 48 36 49 39 50 52 51 70 52 37 53 38 54 51 56 71 57
REMARK SMILES IDX 40 58 25 59 26 60 34 61 27 62 33 63 28 64 29 65 30 66 31 67
REMARK SMILES IDX 32 68 55 69 56 70 64 71 57 72 63 73 58 74 59 75 60 76 61 77
REMARK SMILES IDX 62 78 41 79 42 80 50 81 43 82 49 83 44 84 45 85 46 86 47 87
REMARK SMILES IDX 48 88
REMARK H PARENT 8 6 13 25 69 44 39 55
REMARK Flexibility Score: inf
ROOT
ATOM      1  C   UNL A   1      32.104  29.947  26.834  1.00  0.00     0.023 C 
ENDROOT
BRANCH   1   2
ATOM      2  C   UNL A   1      33.298  29.372  26.075  1.00  0.00     0.116 C 
BRANCH   2   3
ATOM      3  N   UNL A   1      33.254  29.604  24.647  1.00  0.00    -0.355 N 
ATOM      4  C   UNL A   1      33.361  28.735  23.602  1.00  0.00     0.239 C 
ATOM      5  O   UNL A   1      32.949  29.137  22.507  1.00  0.00    -0.273 OA
ATOM      6  H   UNL A   1      33.124  30.545  24.387  1.00  0.00     0.163 HD
BRANCH   4   7
ATOM      7  C   UNL A   1      33.820  27.273  23.758  1.00  0.00     0.220 C 
BRANCH   7   8
ATOM      8  N   UNL A   1      32.930  26.229  23.250  1.00  0.00    -0.318 N 
BRANCH   8   9
ATOM      9  C   UNL A   1      31.496  26.425  23.396  1.00  0.00     0.210 C 
BRANCH   9  10
ATOM     10  C   UNL A   1      31.059  26.351  24.850  1.00  0.00    -0.085 C 
ATOM     11  C   UNL A   1      30.685  26.287  26.098  1.00  0.00     0.006 C 
ENDBRANCH   9  10
ENDBRANCH   8   9
BRANCH   8  12
ATOM     12  C   UNL A   1      33.366  25.093  22.546  1.00  0.00     0.265 C 
ATOM     13  O   UNL A   1      33.217  25.021  21.323  1.00  0.00    -0.268 OA
BRANCH  12  14
ATOM     14  C   UNL A   1      33.998  24.019  23.289  1.00  0.00     0.093 A 
ATOM     15  C   UNL A   1      35.316  23.612  23.315  1.00  0.00     0.029 A 
ATOM     16  S   UNL A   1      33.050  23.117  24.387  1.00  0.00    -0.135 S 
ATOM     17  C   UNL A   1      35.537  22.484  24.172  1.00  0.00    -0.037 A 
ATOM     18  C   UNL A   1      34.378  22.142  24.851  1.00  0.00     0.005 A 
ATOM     19  C   UNL A   1      36.856  21.798  24.323  1.00  0.00     0.045 C 
ATOM     20  C   UNL A   1      34.194  21.077  25.880  1.00  0.00     0.056 C 
ENDBRANCH  12  14
ENDBRANCH   8  12
ENDBRANCH   7   8
ENDBRANCH   4   7
ENDBRANCH   2   3
ENDBRANCH   1   2
BRANCH   1  21
ATOM     21  C   UNL A   1      31.913  31.459  26.742  1.00  0.00     0.023 C 
BRANCH  21  22
ATOM     22  C   UNL A   1      33.001  32.303  27.393  1.00  0.00     0.116 C 
BRANCH  22  23
ATOM     23  N   UNL A   1      32.602  33.676  27.653  1.00  0.00    -0.352 N 
ATOM     24  C   UNL A   1      33.142  34.571  28.545  1.00  0.00     0.251 C 
ATOM     25  H   UNL A   1      31.845  34.010  27.119  1.00  0.00     0.163 HD
ATOM     26  O   UNL A   1      32.634  35.682  28.681  1.00  0.00    -0.269 OA
BRANCH  24  27
ATOM     27  C   UNL A   1      34.301  34.175  29.373  1.00  0.00     0.039 A 
ATOM     28  C   UNL A   1      34.065  33.544  30.597  1.00  0.00     0.014 A 
ATOM     29  C   UNL A   1      35.611  34.392  28.936  1.00  0.00     0.014 A 
ATOM     30  C   UNL A   1      35.139  33.064  31.349  1.00  0.00     0.010 A 
ATOM     31  C   UNL A   1      36.677  33.860  29.655  1.00  0.00     0.010 A 
ATOM     32  C   UNL A   1      36.451  33.186  30.865  1.00  0.00    -0.014 A 
BRANCH  32  33
ATOM     33  C   UNL A   1      37.601  32.611  31.603  1.00  0.00     0.031 A 
ATOM     34  C   UNL A   1      38.322  31.411  31.055  1.00  0.00     0.074 A 
ATOM     35  C   UNL A   1      37.955  33.128  32.796  1.00  0.00     0.049 A 
ATOM     36  N   UNL A   1      39.284  30.710  31.596  1.00  0.00    -0.248 NA
ATOM     37  C   UNL A   1      37.888  30.922  29.736  1.00  0.00     0.031 C 
ATOM     38  C   UNL A   1      37.316  34.272  33.450  1.00  0.00     0.029 A 
ATOM     39  N   UNL A   1      38.938  32.750  33.675  1.00  0.00    -0.354 N 
ATOM     40  C   UNL A   1      39.560  29.689  30.695  1.00  0.00     0.074 A 
ATOM     41  C   UNL A   1      38.639  29.840  29.589  1.00  0.00     0.031 C 
ATOM     42  C   UNL A   1      37.939  34.517  34.615  1.00  0.00     0.029 A 
ATOM     43  C   UNL A   1      38.996  33.528  34.806  1.00  0.00     0.049 A 
ATOM     44  H   UNL A   1      39.545  31.992  33.510  1.00  0.00     0.167 HD
ATOM     45  C   UNL A   1      40.505  28.722  30.771  1.00  0.00     0.031 A 
ATOM     46  C   UNL A   1      39.807  33.452  35.879  1.00  0.00     0.031 A 
ATOM     47  C   UNL A   1      41.432  28.579  31.861  1.00  0.00     0.049 A 
ATOM     48  C   UNL A   1      40.853  32.375  35.936  1.00  0.00     0.074 A 
ATOM     49  C   UNL A   1      42.439  27.643  32.020  1.00  0.00     0.029 A 
ATOM     50  N   UNL A   1      41.474  29.405  32.974  1.00  0.00    -0.354 N 
ATOM     51  N   UNL A   1      41.109  31.429  35.064  1.00  0.00    -0.248 NA
ATOM     52  C   UNL A   1      41.724  32.361  37.120  1.00  0.00     0.031 C 
ATOM     53  C   UNL A   1      43.079  27.891  33.240  1.00  0.00     0.029 A 
ATOM     54  C   UNL A   1      42.488  29.001  33.824  1.00  0.00     0.049 A 
ATOM     55  H   UNL A   1      40.869  30.165  33.136  1.00  0.00     0.167 HD
ATOM     56  C   UNL A   1      42.187  30.722  35.582  1.00  0.00     0.074 A 
ATOM     57  C   UNL A   1      42.540  31.353  36.839  1.00  0.00     0.031 C 
ATOM     58  C   UNL A   1      42.829  29.647  35.064  1.00  0.00     0.031 A 
BRANCH  45  59
ATOM     59  C   UNL A   1      40.578  27.744  29.632  1.00  0.00    -0.014 A 
ATOM     60  C   UNL A   1      41.593  27.843  28.665  1.00  0.00     0.010 A 
ATOM     61  C   UNL A   1      39.632  26.708  29.534  1.00  0.00     0.010 A 
ATOM     62  C   UNL A   1      41.637  26.950  27.592  1.00  0.00     0.020 A 
ATOM     63  C   UNL A   1      39.686  25.799  28.474  1.00  0.00     0.020 A 
ATOM     64  C   UNL A   1      40.676  25.939  27.499  1.00  0.00     0.054 A 
BRANCH  64  65
ATOM     65  S   UNL A   1      40.753  24.786  26.100  1.00  0.00     0.124 S 
ATOM     66  O   UNL A   1      39.363  24.346  25.999  1.00  0.00    -0.237 OA
ATOM     67  O   UNL A   1      41.225  25.630  25.006  1.00  0.00    -0.237 OA
ATOM     68  O   UNL A   1      41.699  23.765  26.547  1.00  0.00    -0.744 OA
ENDBRANCH  64  65
ENDBRANCH  45  59
BRANCH  46  69
ATOM     69  C   UNL A   1      39.678  34.441  36.980  1.00  0.00    -0.014 A 
ATOM     70  C   UNL A   1      38.947  34.117  38.137  1.00  0.00     0.010 A 
ATOM     71  C   UNL A   1      40.279  35.707  36.878  1.00  0.00     0.010 A 
ATOM     72  C   UNL A   1      38.801  35.052  39.166  1.00  0.00     0.020 A 
ATOM     73  C   UNL A   1      40.151  36.637  37.914  1.00  0.00     0.020 A 
ATOM     74  C   UNL A   1      39.401  36.309  39.045  1.00  0.00     0.054 A 
BRANCH  74  75
ATOM     75  S   UNL A   1      39.236  37.498  40.405  1.00  0.00     0.124 S 
ATOM     76  O   UNL A   1      38.635  36.678  41.452  1.00  0.00    -0.237 OA
ATOM     77  O   UNL A   1      40.618  37.912  40.640  1.00  0.00    -0.237 OA
ATOM     78  O   UNL A   1      38.371  38.534  39.843  1.00  0.00    -0.744 OA
ENDBRANCH  74  75
ENDBRANCH  46  69
BRANCH  58  79
ATOM     79  C   UNL A   1      44.000  29.110  35.836  1.00  0.00    -0.014 A 
ATOM     80  C   UNL A   1      45.294  29.619  35.634  1.00  0.00     0.010 A 
ATOM     81  C   UNL A   1      43.793  28.116  36.809  1.00  0.00     0.010 A 
ATOM     82  C   UNL A   1      46.370  29.123  36.377  1.00  0.00     0.020 A 
ATOM     83  C   UNL A   1      44.862  27.631  37.565  1.00  0.00     0.020 A 
ATOM     84  C   UNL A   1      46.146  28.130  37.335  1.00  0.00     0.054 A 
BRANCH  84  85
ATOM     85  S   UNL A   1      47.546  27.530  38.323  1.00  0.00     0.124 S 
ATOM     86  O   UNL A   1      47.971  28.744  39.014  1.00  0.00    -0.237 OA
ATOM     87  O   UNL A   1      46.932  26.508  39.168  1.00  0.00    -0.237 OA
ATOM     88  O   UNL A   1      48.479  27.020  37.321  1.00  0.00    -0.744 OA
ENDBRANCH  84  85
ENDBRANCH  58  79
ENDBRANCH  32  33
ENDBRANCH  24  27
ENDBRANCH  22  23
ENDBRANCH  21  22
ENDBRANCH   1  21
TORSDOF 19
ENDMDL
MODEL 2
REMARK VINA RESULT:      -9.8      6.461      8.724
REMARK SMILES C#CCN(CC(=O)NCCCCNC(=O)c1ccc(-c2c3nc(c(-c4ccc(S(=O)(=O)[O-])cc4)c4ccc([nH]4)c(-c4ccc(S(=O)(=O)[O-])cc4)c4nc(c(-c5ccc(S(=O)(=O)[O-])cc5)c5ccc2[nH]5)C=C4)C=C3)cc1)C(=O)c1cc(C)c(C)s1
REMARK SMILES IDX 10 1 9 2 8 3 6 4 7 5 5 7 4 8 3 9 2 10 1 11 76 12 77 13 78 14
REMARK SMILES IDX 79 15 84 16 80 17 82 18 81 19 83 20 11 21 12 22 13 23 14 24
REMARK SMILES IDX 15 26 16 27 17 28 75 29 18 30 74 31 19 32 20 33 21 34 68 35
REMARK SMILES IDX 22 36 73 37 67 38 69 39 23 40 72 41 66 42 65 43 24 45 54 46
REMARK SMILES IDX 35 47 53 48 36 49 39 50 52 51 70 52 37 53 38 54 51 56 71 57
REMARK SMILES IDX 40 58 25 59 26 60 34 61 27 62 33 63 28 64 29 65 30 66 31 67
REMARK SMILES IDX 32 68 55 69 56 70 64 71 57 72 63 73 58 74 59 75 60 76 61 77
REMARK SMILES IDX 62 78 41 79 42 80 50 81 43 82 49 83 44 84 45 85 46 86 47 87
REMARK SMILES IDX 48 88
REMARK H PARENT 8 6 13 25 69 44 39 55
REMARK Flexibility Score: inf
ROOT
ATOM      1  C   UNL A   1      33.391  30.232  26.885  1.00  0.00     0.023 C 
ENDROOT
BRANCH   1   2
ATOM      2  C   UNL A   1      32.330  29.816  25.869  1.00  0.00     0.116 C 
BRANCH   2   3
ATOM      3  N   UNL A   1      32.807  29.781  24.503  1.00  0.00    -0.355 N 
ATOM      4  C   UNL A   1      33.109  28.725  23.695  1.00  0.00     0.239 C 
ATOM      5  O   UNL A   1      33.163  28.958  22.481  1.00  0.00    -0.273 OA
ATOM      6  H   UNL A   1      32.933  30.665  24.089  1.00  0.00     0.163 HD
BRANCH   4   7
ATOM      7  C   UNL A   1      33.234  27.276  24.203  1.00  0.00     0.220 C 
BRANCH   7   8
ATOM      8  N   UNL A   1      32.604  26.225  23.403  1.00  0.00    -0.318 N 
BRANCH   8   9
ATOM      9  C   UNL A   1      31.151  26.199  23.334  1.00  0.00     0.210 C 
BRANCH   9  10
ATOM     10  C   UNL A   1      30.523  25.957  24.697  1.00  0.00    -0.085 C 
ATOM     11  C   UNL A   1      29.984  25.750  25.866  1.00  0.00     0.006 C 
ENDBRANCH   9  10
ENDBRANCH   8   9
BRANCH   8  12
ATOM     12  C   UNL A   1      33.312  25.295  22.623  1.00  0.00     0.265 C 
ATOM     13  O   UNL A   1      33.754  25.617  21.516  1.00  0.00    -0.268 OA
BRANCH  12  14
ATOM     14  C   UNL A   1      33.516  23.960  23.152  1.00  0.00     0.093 A 
ATOM     15  C   UNL A   1      32.689  22.856  23.123  1.00  0.00     0.029 A 
ATOM     16  S   UNL A   1      35.021  23.586  23.869  1.00  0.00    -0.135 S 
ATOM     17  C   UNL A   1      33.254  21.715  23.782  1.00  0.00    -0.037 A 
ATOM     18  C   UNL A   1      34.550  21.975  24.199  1.00  0.00     0.005 A 
ATOM     19  C   UNL A   1      32.537  20.416  23.961  1.00  0.00     0.045 C 
ATOM     20  C   UNL A   1      35.508  21.042  24.863  1.00  0.00     0.056 C 
ENDBRANCH  12  14
ENDBRANCH   8  12
ENDBRANCH   7   8
ENDBRANCH   4   7
ENDBRANCH   2   3
ENDBRANCH   1   2
BRANCH   1  21
ATOM     21  C   UNL A   1      34.521  29.233  27.126  1.00  0.00     0.023 C 
BRANCH  21  22
ATOM     22  C   UNL A   1      35.742  29.780  27.852  1.00  0.00     0.116 C 
BRANCH  22  23
ATOM     23  N   UNL A   1      35.639  29.722  29.301  1.00  0.00    -0.352 N 
ATOM     24  C   UNL A   1      36.644  29.579  30.227  1.00  0.00     0.251 C 
ATOM     25  H   UNL A   1      34.728  29.795  29.667  1.00  0.00     0.163 HD
ATOM     26  O   UNL A   1      36.368  29.484  31.420  1.00  0.00    -0.269 OA
BRANCH  24  27
ATOM     27  C   UNL A   1      38.050  29.491  29.777  1.00  0.00     0.039 A 
ATOM     28  C   UNL A   1      39.041  29.227  30.727  1.00  0.00     0.014 A 
ATOM     29  C   UNL A   1      38.390  29.635  28.429  1.00  0.00     0.014 A 
ATOM     30  C   UNL A   1      40.361  29.033  30.316  1.00  0.00     0.010 A 
ATOM     31  C   UNL A   1      39.694  29.381  28.013  1.00  0.00     0.010 A 
ATOM     32  C   UNL A   1      40.690  29.071  28.952  1.00  0.00    -0.014 A 
BRANCH  32  33
ATOM     33  C   UNL A   1      42.067  28.787  28.483  1.00  0.00     0.031 A 
ATOM     34  C   UNL A   1      42.445  27.393  28.065  1.00  0.00     0.074 A 
ATOM     35  C   UNL A   1      42.993  29.765  28.495  1.00  0.00     0.049 A 
ATOM     36  N   UNL A   1      43.617  26.927  27.717  1.00  0.00    -0.248 NA
ATOM     37  C   UNL A   1      41.370  26.388  28.058  1.00  0.00     0.031 C 
ATOM     38  C   UNL A   1      42.760  31.151  28.907  1.00  0.00     0.029 A 
ATOM     39  N   UNL A   1      44.322  29.740  28.157  1.00  0.00    -0.354 N 
ATOM     40  C   UNL A   1      43.425  25.574  27.467  1.00  0.00     0.074 A 
ATOM     41  C   UNL A   1      42.032  25.286  27.738  1.00  0.00     0.031 C 
ATOM     42  C   UNL A   1      43.902  31.848  28.776  1.00  0.00     0.029 A 
ATOM     43  C   UNL A   1      44.953  30.951  28.304  1.00  0.00     0.049 A 
ATOM     44  H   UNL A   1      44.781  28.928  27.840  1.00  0.00     0.167 HD
ATOM     45  C   UNL A   1      44.321  24.655  27.034  1.00  0.00     0.031 A 
ATOM     46  C   UNL A   1      46.235  31.302  28.086  1.00  0.00     0.031 A 
ATOM     47  C   UNL A   1      45.701  24.941  26.749  1.00  0.00     0.049 A 
ATOM     48  C   UNL A   1      47.209  30.266  27.599  1.00  0.00     0.074 A 
ATOM     49  C   UNL A   1      46.683  24.081  26.288  1.00  0.00     0.029 A 
ATOM     50  N   UNL A   1      46.293  26.187  26.885  1.00  0.00    -0.354 N 
ATOM     51  N   UNL A   1      47.003  28.994  27.352  1.00  0.00    -0.248 NA
ATOM     52  C   UNL A   1      48.587  30.715  27.355  1.00  0.00     0.031 C 
ATOM     53  C   UNL A   1      47.875  24.805  26.164  1.00  0.00     0.029 A 
ATOM     54  C   UNL A   1      47.625  26.121  26.518  1.00  0.00     0.049 A 
ATOM     55  H   UNL A   1      45.832  26.999  27.200  1.00  0.00     0.167 HD
ATOM     56  C   UNL A   1      48.219  28.498  26.899  1.00  0.00     0.074 A 
ATOM     57  C   UNL A   1      49.153  29.606  26.899  1.00  0.00     0.031 C 
ATOM     58  C   UNL A   1      48.535  27.236  26.517  1.00  0.00     0.031 A 
BRANCH  45  59
ATOM     59  C   UNL A   1      43.824  23.249  26.844  1.00  0.00    -0.014 A 
ATOM     60  C   UNL A   1      44.159  22.521  25.689  1.00  0.00     0.010 A 
ATOM     61  C   UNL A   1      43.026  22.646  27.832  1.00  0.00     0.010 A 
ATOM     62  C   UNL A   1      43.668  21.226  25.504  1.00  0.00     0.020 A 
ATOM     63  C   UNL A   1      42.552  21.343  27.660  1.00  0.00     0.020 A 
ATOM     64  C   UNL A   1      42.859  20.649  26.487  1.00  0.00     0.054 A 
BRANCH  64  65
ATOM     65  S   UNL A   1      42.236  18.965  26.229  1.00  0.00     0.124 S 
ATOM     66  O   UNL A   1      40.854  19.217  25.823  1.00  0.00    -0.237 OA
ATOM     67  O   UNL A   1      43.113  18.449  25.181  1.00  0.00    -0.237 OA
ATOM     68  O   UNL A   1      42.397  18.334  27.537  1.00  0.00    -0.744 OA
ENDBRANCH  64  65
ENDBRANCH  45  59
BRANCH  46  69
ATOM     69  C   UNL A   1      46.671  32.705  28.306  1.00  0.00    -0.014 A 
ATOM     70  C   UNL A   1      47.030  33.139  29.594  1.00  0.00     0.010 A 
ATOM     71  C   UNL A   1      46.725  33.613  27.234  1.00  0.00     0.010 A 
ATOM     72  C   UNL A   1      47.416  34.465  29.811  1.00  0.00     0.020 A 
ATOM     73  C   UNL A   1      47.130  34.934  27.445  1.00  0.00     0.020 A 
ATOM     74  C   UNL A   1      47.459  35.356  28.735  1.00  0.00     0.054 A 
BRANCH  74  75
ATOM     75  S   UNL A   1      48.000  37.063  29.025  1.00  0.00     0.124 S 
ATOM     76  O   UNL A   1      46.973  37.827  28.325  1.00  0.00    -0.237 OA
ATOM     77  O   UNL A   1      47.981  37.163  30.483  1.00  0.00    -0.237 OA
ATOM     78  O   UNL A   1      49.331  37.101  28.423  1.00  0.00    -0.744 OA
ENDBRANCH  74  75
ENDBRANCH  46  69
BRANCH  58  79
ATOM     79  C   UNL A   1      49.935  26.998  26.030  1.00  0.00    -0.014 A 
ATOM     80  C   UNL A   1      50.952  26.604  26.916  1.00  0.00     0.010 A 
ATOM     81  C   UNL A   1      50.224  27.123  24.659  1.00  0.00     0.010 A 
ATOM     82  C   UNL A   1      52.245  26.365  26.443  1.00  0.00     0.020 A 
ATOM     83  C   UNL A   1      51.510  26.868  24.180  1.00  0.00     0.020 A 
ATOM     84  C   UNL A   1      52.516  26.502  25.078  1.00  0.00     0.054 A 
BRANCH  84  85
ATOM     85  S   UNL A   1      54.189  26.142  24.472  1.00  0.00     0.124 S 
ATOM     86  O   UNL A   1      54.361  24.747  24.869  1.00  0.00    -0.237 OA
ATOM     87  O   UNL A   1      54.072  26.376  23.035  1.00  0.00    -0.237 OA
ATOM     88  O   UNL A   1      55.026  27.104  25.186  1.00  0.00    -0.744 OA
ENDBRANCH  84  85
ENDBRANCH  58  79
ENDBRANCH  32  33
ENDBRANCH  24  27
ENDBRANCH  22  23
ENDBRANCH  21  22
ENDBRANCH   1  21
TORSDOF 19
ENDMDL
MODEL 3
REMARK VINA RESULT:      -9.8      4.366      9.799
REMARK SMILES C#CCN(CC(=O)NCCCCNC(=O)c1ccc(-c2c3nc(c(-c4ccc(S(=O)(=O)[O-])cc4)c4ccc([nH]4)c(-c4ccc(S(=O)(=O)[O-])cc4)c4nc(c(-c5ccc(S(=O)(=O)[O-])cc5)c5ccc2[nH]5)C=C4)C=C3)cc1)C(=O)c1cc(C)c(C)s1
REMARK SMILES IDX 10 1 9 2 8 3 6 4 7 5 5 7 4 8 3 9 2 10 1 11 76 12 77 13 78 14
REMARK SMILES IDX 79 15 84 16 80 17 82 18 81 19 83 20 11 21 12 22 13 23 14 24
REMARK SMILES IDX 15 26 16 27 17 28 75 29 18 30 74 31 19 32 20 33 21 34 68 35
REMARK SMILES IDX 22 36 73 37 67 38 69 39 23 40 72 41 66 42 65 43 24 45 54 46
REMARK SMILES IDX 35 47 53 48 36 49 39 50 52 51 70 52 37 53 38 54 51 56 71 57
REMARK SMILES IDX 40 58 25 59 26 60 34 61 27 62 33 63 28 64 29 65 30 66 31 67
REMARK SMILES IDX 32 68 55 69 56 70 64 71 57 72 63 73 58 74 59 75 60 76 61 77
REMARK SMILES IDX 62 78 41 79 42 80 50 81 43 82 49 83 44 84 45 85 46 86 47 87
REMARK SMILES IDX 48 88
REMARK H PARENT 8 6 13 25 69 44 39 55
REMARK Flexibility Score: inf
ROOT
ATOM      1  C   UNL A   1      33.482  25.477  25.743  1.00  0.00     0.023 C 
ENDROOT
BRANCH   1   2
ATOM      2  C   UNL A   1      32.627  24.293  26.188  1.00  0.00     0.116 C 
BRANCH   2   3
ATOM      3  N   UNL A   1      33.325  23.348  27.032  1.00  0.00    -0.355 N 
ATOM      4  C   UNL A   1      33.460  21.995  26.930  1.00  0.00     0.239 C 
ATOM      5  O   UNL A   1      34.380  21.482  27.578  1.00  0.00    -0.273 OA
ATOM      6  H   UNL A   1      33.779  23.748  27.809  1.00  0.00     0.163 HD
BRANCH   4   7
ATOM      7  C   UNL A   1      32.635  21.132  25.955  1.00  0.00     0.220 C 
BRANCH   7   8
ATOM      8  N   UNL A   1      33.207  20.875  24.633  1.00  0.00    -0.318 N 
BRANCH   8   9
ATOM      9  C   UNL A   1      34.240  21.778  24.150  1.00  0.00     0.210 C 
BRANCH   9  10
ATOM     10  C   UNL A   1      33.717  22.713  23.072  1.00  0.00    -0.085 C 
ATOM     11  C   UNL A   1      33.267  23.515  22.147  1.00  0.00     0.006 C 
ENDBRANCH   9  10
ENDBRANCH   8   9
BRANCH   8  12
ATOM     12  C   UNL A   1      32.890  19.760  23.839  1.00  0.00     0.265 C 
ATOM     13  O   UNL A   1      32.288  19.904  22.771  1.00  0.00    -0.268 OA
BRANCH  12  14
ATOM     14  C   UNL A   1      33.295  18.445  24.300  1.00  0.00     0.093 A 
ATOM     15  C   UNL A   1      34.551  17.947  24.574  1.00  0.00     0.029 A 
ATOM     16  S   UNL A   1      32.082  17.297  24.660  1.00  0.00    -0.135 S 
ATOM     17  C   UNL A   1      34.531  16.575  24.993  1.00  0.00    -0.037 A 
ATOM     18  C   UNL A   1      33.230  16.115  25.120  1.00  0.00     0.005 A 
ATOM     19  C   UNL A   1      35.759  15.773  25.278  1.00  0.00     0.045 C 
ATOM     20  C   UNL A   1      32.770  14.775  25.590  1.00  0.00     0.056 C 
ENDBRANCH  12  14
ENDBRANCH   8  12
ENDBRANCH   7   8
ENDBRANCH   4   7
ENDBRANCH   2   3
ENDBRANCH   1   2
BRANCH   1  21
ATOM     21  C   UNL A   1      32.992  26.859  26.169  1.00  0.00     0.023 C 
BRANCH  21  22
ATOM     22  C   UNL A   1      34.079  27.869  26.512  1.00  0.00     0.116 C 
BRANCH  22  23
ATOM     23  N   UNL A   1      33.567  29.172  26.903  1.00  0.00    -0.352 N 
ATOM     24  C   UNL A   1      34.206  30.171  27.597  1.00  0.00     0.251 C 
ATOM     25  H   UNL A   1      32.640  29.366  26.633  1.00  0.00     0.163 HD
ATOM     26  O   UNL A   1      33.596  31.193  27.899  1.00  0.00    -0.269 OA
BRANCH  24  27
ATOM     27  C   UNL A   1      35.611  29.988  28.020  1.00  0.00     0.039 A 
ATOM     28  C   UNL A   1      35.870  29.635  29.347  1.00  0.00     0.014 A 
ATOM     29  C   UNL A   1      36.665  30.131  27.113  1.00  0.00     0.014 A 
ATOM     30  C   UNL A   1      37.177  29.352  29.748  1.00  0.00     0.010 A 
ATOM     31  C   UNL A   1      37.959  29.790  27.497  1.00  0.00     0.010 A 
ATOM     32  C   UNL A   1      38.226  29.392  28.815  1.00  0.00    -0.014 A 
BRANCH  32  33
ATOM     33  C   UNL A   1      39.609  29.015  29.195  1.00  0.00     0.031 A 
ATOM     34  C   UNL A   1      40.494  30.011  29.891  1.00  0.00     0.074 A 
ATOM     35  C   UNL A   1      40.089  27.803  28.855  1.00  0.00     0.049 A 
ATOM     36  N   UNL A   1      41.757  29.904  30.218  1.00  0.00    -0.248 NA
ATOM     37  C   UNL A   1      39.887  31.304  30.247  1.00  0.00     0.031 C 
ATOM     38  C   UNL A   1      39.340  26.759  28.151  1.00  0.00     0.029 A 
ATOM     39  N   UNL A   1      41.328  27.247  29.051  1.00  0.00    -0.354 N 
ATOM     40  C   UNL A   1      42.099  31.118  30.801  1.00  0.00     0.074 A 
ATOM     41  C   UNL A   1      40.922  31.959  30.750  1.00  0.00     0.031 C 
ATOM     42  C   UNL A   1      40.129  25.682  27.996  1.00  0.00     0.029 A 
ATOM     43  C   UNL A   1      41.445  25.971  28.556  1.00  0.00     0.049 A 
ATOM     44  H   UNL A   1      42.064  27.720  29.504  1.00  0.00     0.167 HD
ATOM     45  C   UNL A   1      43.281  31.494  31.345  1.00  0.00     0.031 A 
ATOM     46  C   UNL A   1      42.495  25.128  28.552  1.00  0.00     0.031 A 
ATOM     47  C   UNL A   1      44.446  30.655  31.411  1.00  0.00     0.049 A 
ATOM     48  C   UNL A   1      43.794  25.567  29.168  1.00  0.00     0.074 A 
ATOM     49  C   UNL A   1      45.685  30.941  31.960  1.00  0.00     0.029 A 
ATOM     50  N   UNL A   1      44.514  29.360  30.922  1.00  0.00    -0.354 N 
ATOM     51  N   UNL A   1      44.092  26.713  29.731  1.00  0.00    -0.248 NA
ATOM     52  C   UNL A   1      44.895  24.593  29.156  1.00  0.00     0.031 C 
ATOM     53  C   UNL A   1      46.508  29.822  31.785  1.00  0.00     0.029 A 
ATOM     54  C   UNL A   1      45.771  28.832  31.156  1.00  0.00     0.049 A 
ATOM     55  H   UNL A   1      43.777  28.887  30.473  1.00  0.00     0.167 HD
ATOM     56  C   UNL A   1      45.408  26.590  30.161  1.00  0.00     0.074 A 
ATOM     57  C   UNL A   1      45.845  25.256  29.802  1.00  0.00     0.031 C 
ATOM     58  C   UNL A   1      46.184  27.500  30.798  1.00  0.00     0.031 A 
BRANCH  45  59
ATOM     59  C   UNL A   1      43.361  32.884  31.914  1.00  0.00    -0.014 A 
ATOM     60  C   UNL A   1      43.746  33.968  31.107  1.00  0.00     0.010 A 
ATOM     61  C   UNL A   1      43.036  33.110  33.263  1.00  0.00     0.010 A 
ATOM     62  C   UNL A   1      43.848  35.251  31.649  1.00  0.00     0.020 A 
ATOM     63  C   UNL A   1      43.116  34.397  33.804  1.00  0.00     0.020 A 
ATOM     64  C   UNL A   1      43.542  35.455  32.998  1.00  0.00     0.054 A 
BRANCH  64  65
ATOM     65  S   UNL A   1      43.677  37.130  33.681  1.00  0.00     0.124 S 
ATOM     66  O   UNL A   1      44.927  37.045  34.434  1.00  0.00    -0.237 OA
ATOM     67  O   UNL A   1      43.721  37.968  32.486  1.00  0.00    -0.237 OA
ATOM     68  O   UNL A   1      42.469  37.270  34.492  1.00  0.00    -0.744 OA
ENDBRANCH  64  65
ENDBRANCH  45  59
BRANCH  46  69
ATOM     69  C   UNL A   1      42.359  23.772  27.961  1.00  0.00    -0.014 A 
ATOM     70  C   UNL A   1      42.651  23.561  26.603  1.00  0.00     0.010 A 
ATOM     71  C   UNL A   1      41.934  22.688  28.750  1.00  0.00     0.010 A 
ATOM     72  C   UNL A   1      42.500  22.292  26.035  1.00  0.00     0.020 A 
ATOM     73  C   UNL A   1      41.801  21.415  28.190  1.00  0.00     0.020 A 
ATOM     74  C   UNL A   1      42.071  21.227  26.832  1.00  0.00     0.054 A 
BRANCH  74  75
ATOM     75  S   UNL A   1      41.917  19.578  26.092  1.00  0.00     0.124 S 
ATOM     76  O   UNL A   1      40.479  19.484  25.863  1.00  0.00    -0.237 OA
ATOM     77  O   UNL A   1      42.744  19.686  24.892  1.00  0.00    -0.237 OA
ATOM     78  O   UNL A   1      42.449  18.694  27.127  1.00  0.00    -0.744 OA
ENDBRANCH  74  75
ENDBRANCH  46  69
BRANCH  58  79
ATOM     79  C   UNL A   1      47.571  27.070  31.181  1.00  0.00    -0.014 A 
ATOM     80  C   UNL A   1      48.648  27.225  30.293  1.00  0.00     0.010 A 
ATOM     81  C   UNL A   1      47.805  26.547  32.466  1.00  0.00     0.010 A 
ATOM     82  C   UNL A   1      49.937  26.839  30.674  1.00  0.00     0.020 A 
ATOM     83  C   UNL A   1      49.094  26.177  32.856  1.00  0.00     0.020 A 
ATOM     84  C   UNL A   1      50.149  26.314  31.952  1.00  0.00     0.054 A 
BRANCH  84  85
ATOM     85  S   UNL A   1      51.836  25.862  32.448  1.00  0.00     0.124 S 
ATOM     86  O   UNL A   1      52.635  26.872  31.759  1.00  0.00    -0.237 OA
ATOM     87  O   UNL A   1      51.790  25.983  33.903  1.00  0.00    -0.237 OA
ATOM     88  O   UNL A   1      51.986  24.497  31.948  1.00  0.00    -0.744 OA
ENDBRANCH  84  85
ENDBRANCH  58  79
ENDBRANCH  32  33
ENDBRANCH  24  27
ENDBRANCH  22  23
ENDBRANCH  21  22
ENDBRANCH   1  21
TORSDOF 19
ENDMDL
