MODEL 1
REMARK VINA RESULT:     -10.4      0.000      0.000
REMARK SMILES O=C(NCCCCNC(=O)c1noc(-c2ccccc2Cl)n1)c1ccc(-c2c3nc(c(-c4ccc(S(=O)(=O)[O-])cc4)c4ccc([nH]4)c(-c4ccc(S(=O)(=O)[O-])cc4)c4nc(c(-c5ccc(S(=O)(=O)[O-])cc5)c5ccc2[nH]5)C=C4)C=C3)cc1
REMARK SMILES IDX 4 1 3 2 1 3 2 4 23 6 24 7 82 8 25 9 81 10 26 11 27 12 28 13
REMARK SMILES IDX 75 14 29 15 80 16 74 17 76 18 30 19 79 20 73 21 72 22 31 24
REMARK SMILES IDX 61 25 42 26 60 27 43 28 46 29 59 30 77 31 44 32 45 33 58 35
REMARK SMILES IDX 78 36 47 37 32 38 33 39 41 40 34 41 40 42 35 43 36 44 37 45
REMARK SMILES IDX 38 46 39 47 62 48 63 49 71 50 64 51 70 52 65 53 66 54 67 55
REMARK SMILES IDX 68 56 69 57 48 58 49 59 57 60 50 61 56 62 51 63 52 64 53 65
REMARK SMILES IDX 54 66 55 67 5 68 6 69 7 70 8 71 9 72 10 74 11 75 12 76 22 77
REMARK SMILES IDX 13 78 14 79 15 80 16 81 20 82 17 83 19 84 21 85 18 86
REMARK H PARENT 3 5 76 23 46 34 8 73
REMARK Flexibility Score: inf
ROOT
ATOM      1  C   UNL A   1      40.762  21.762  26.247  1.00  0.00     0.116 C 
ENDROOT
BRANCH   1   2
ATOM      2  N   UNL A   1      39.372  22.002  25.890  1.00  0.00    -0.352 N 
ATOM      3  O   UNL A   1      37.397  23.092  25.888  1.00  0.00    -0.269 OA
ATOM      4  C   UNL A   1      38.597  23.111  26.145  1.00  0.00     0.251 C 
ATOM      5  H   UNL A   1      38.925  21.274  25.401  1.00  0.00     0.163 HD
BRANCH   4   6
ATOM      6  C   UNL A   1      39.213  24.310  26.755  1.00  0.00     0.039 A 
ATOM      7  C   UNL A   1      39.842  25.269  25.959  1.00  0.00     0.014 A 
ATOM      8  C   UNL A   1      39.165  24.471  28.144  1.00  0.00     0.014 A 
ATOM      9  C   UNL A   1      40.539  26.312  26.557  1.00  0.00     0.010 A 
ATOM     10  C   UNL A   1      39.801  25.566  28.738  1.00  0.00     0.010 A 
ATOM     11  C   UNL A   1      40.518  26.480  27.952  1.00  0.00    -0.014 A 
BRANCH  11  12
ATOM     12  C   UNL A   1      41.197  27.660  28.546  1.00  0.00     0.031 A 
ATOM     13  C   UNL A   1      42.696  27.766  28.585  1.00  0.00     0.074 A 
ATOM     14  C   UNL A   1      40.432  28.669  29.009  1.00  0.00     0.049 A 
ATOM     15  N   UNL A   1      43.435  28.758  29.013  1.00  0.00    -0.248 NA
ATOM     16  C   UNL A   1      43.467  26.617  28.085  1.00  0.00     0.031 C 
ATOM     17  C   UNL A   1      38.967  28.673  29.034  1.00  0.00     0.029 A 
ATOM     18  N   UNL A   1      40.775  29.895  29.517  1.00  0.00    -0.354 N 
ATOM     19  C   UNL A   1      44.754  28.352  28.851  1.00  0.00     0.074 A 
ATOM     20  C   UNL A   1      44.716  27.013  28.302  1.00  0.00     0.031 C 
ATOM     21  C   UNL A   1      38.538  29.863  29.480  1.00  0.00     0.029 A 
ATOM     22  C   UNL A   1      39.693  30.684  29.822  1.00  0.00     0.049 A 
ATOM     23  H   UNL A   1      41.708  30.182  29.651  1.00  0.00     0.167 HD
ATOM     24  C   UNL A   1      45.892  29.034  29.130  1.00  0.00     0.031 A 
ATOM     25  C   UNL A   1      39.630  31.929  30.330  1.00  0.00     0.031 A 
ATOM     26  C   UNL A   1      45.925  30.368  29.673  1.00  0.00     0.049 A 
ATOM     27  C   UNL A   1      40.906  32.657  30.635  1.00  0.00     0.074 A 
ATOM     28  C   UNL A   1      47.030  31.149  29.970  1.00  0.00     0.029 A 
ATOM     29  N   UNL A   1      44.808  31.120  30.001  1.00  0.00    -0.354 N 
ATOM     30  N   UNL A   1      42.142  32.259  30.454  1.00  0.00    -0.248 NA
ATOM     31  C   UNL A   1      40.777  33.999  31.216  1.00  0.00     0.031 C 
ATOM     32  C   UNL A   1      46.580  32.357  30.514  1.00  0.00     0.029 A 
ATOM     33  C   UNL A   1      45.195  32.348  30.513  1.00  0.00     0.049 A 
ATOM     34  H   UNL A   1      43.876  30.826  29.886  1.00  0.00     0.167 HD
ATOM     35  C   UNL A   1      42.941  33.306  30.896  1.00  0.00     0.074 A 
ATOM     36  C   UNL A   1      42.047  34.363  31.325  1.00  0.00     0.031 C 
ATOM     37  C   UNL A   1      44.293  33.381  30.950  1.00  0.00     0.031 A 
BRANCH  24  38
ATOM     38  C   UNL A   1      47.205  28.347  28.868  1.00  0.00    -0.014 A 
ATOM     39  C   UNL A   1      47.767  27.474  29.815  1.00  0.00     0.010 A 
ATOM     40  C   UNL A   1      47.851  28.520  27.629  1.00  0.00     0.010 A 
ATOM     41  C   UNL A   1      48.964  26.805  29.539  1.00  0.00     0.020 A 
ATOM     42  C   UNL A   1      49.037  27.838  27.341  1.00  0.00     0.020 A 
ATOM     43  C   UNL A   1      49.593  26.993  28.304  1.00  0.00     0.054 A 
BRANCH  43  44
ATOM     44  S   UNL A   1      51.125  26.085  27.955  1.00  0.00     0.124 S 
ATOM     45  O   UNL A   1      50.611  24.801  27.483  1.00  0.00    -0.237 OA
ATOM     46  O   UNL A   1      51.768  26.915  26.941  1.00  0.00    -0.237 OA
ATOM     47  O   UNL A   1      51.805  26.045  29.248  1.00  0.00    -0.744 OA
ENDBRANCH  43  44
ENDBRANCH  24  38
BRANCH  25  48
ATOM     48  C   UNL A   1      38.307  32.552  30.596  1.00  0.00    -0.014 A 
ATOM     49  C   UNL A   1      37.642  33.280  29.595  1.00  0.00     0.010 A 
ATOM     50  C   UNL A   1      37.695  32.395  31.854  1.00  0.00     0.010 A 
ATOM     51  C   UNL A   1      36.396  33.857  29.853  1.00  0.00     0.020 A 
ATOM     52  C   UNL A   1      36.438  32.947  32.106  1.00  0.00     0.020 A 
ATOM     53  C   UNL A   1      35.802  33.687  31.107  1.00  0.00     0.054 A 
BRANCH  53  54
ATOM     54  S   UNL A   1      34.159  34.395  31.411  1.00  0.00     0.124 S 
ATOM     55  O   UNL A   1      33.543  34.305  30.092  1.00  0.00    -0.237 OA
ATOM     56  O   UNL A   1      33.609  33.503  32.429  1.00  0.00    -0.237 OA
ATOM     57  O   UNL A   1      34.456  35.748  31.877  1.00  0.00    -0.744 OA
ENDBRANCH  53  54
ENDBRANCH  25  48
BRANCH  37  58
ATOM     58  C   UNL A   1      44.880  34.656  31.489  1.00  0.00    -0.014 A 
ATOM     59  C   UNL A   1      45.209  34.778  32.851  1.00  0.00     0.010 A 
ATOM     60  C   UNL A   1      45.115  35.737  30.623  1.00  0.00     0.010 A 
ATOM     61  C   UNL A   1      45.729  35.976  33.345  1.00  0.00     0.020 A 
ATOM     62  C   UNL A   1      45.656  36.930  31.108  1.00  0.00     0.020 A 
ATOM     63  C   UNL A   1      45.942  37.048  32.472  1.00  0.00     0.054 A 
BRANCH  63  64
ATOM     64  S   UNL A   1      46.634  38.590  33.129  1.00  0.00     0.124 S 
ATOM     65  O   UNL A   1      45.497  39.500  33.025  1.00  0.00    -0.237 OA
ATOM     66  O   UNL A   1      47.020  38.219  34.488  1.00  0.00    -0.237 OA
ATOM     67  O   UNL A   1      47.749  38.878  32.229  1.00  0.00    -0.744 OA
ENDBRANCH  63  64
ENDBRANCH  37  58
ENDBRANCH  11  12
ENDBRANCH   4   6
ENDBRANCH   1   2
BRANCH   1  68
ATOM     68  C   UNL A   1      40.918  20.943  27.522  1.00  0.00     0.023 C 
BRANCH  68  69
ATOM     69  C   UNL A   1      41.985  19.850  27.467  1.00  0.00     0.023 C 
BRANCH  69  70
ATOM     70  C   UNL A   1      42.324  19.353  26.062  1.00  0.00     0.116 C 
BRANCH  70  71
ATOM     71  N   UNL A   1      43.556  18.581  26.044  1.00  0.00    -0.349 N 
ATOM     72  C   UNL A   1      44.746  18.864  25.402  1.00  0.00     0.292 C 
ATOM     73  H   UNL A   1      43.540  17.742  26.560  1.00  0.00     0.163 HD
ATOM     74  O   UNL A   1      45.602  17.980  25.342  1.00  0.00    -0.266 OA
BRANCH  72  75
ATOM     75  C   UNL A   1      44.935  20.199  24.820  1.00  0.00     0.260 A 
ATOM     76  N   UNL A   1      44.497  20.529  23.592  1.00  0.00    -0.051 NA
ATOM     77  N   UNL A   1      45.554  21.239  25.490  1.00  0.00    -0.182 NA
ATOM     78  O   UNL A   1      44.798  21.889  23.489  1.00  0.00    -0.333 OA
ATOM     79  C   UNL A   1      45.428  22.235  24.649  1.00  0.00     0.259 A 
BRANCH  79  80
ATOM     80  C   UNL A   1      45.766  23.633  24.822  1.00  0.00     0.058 A 
ATOM     81  C   UNL A   1      47.113  24.024  24.726  1.00  0.00     0.015 A 
ATOM     82  C   UNL A   1      44.787  24.619  25.008  1.00  0.00     0.053 A 
ATOM     83  C   UNL A   1      47.471  25.371  24.804  1.00  0.00     0.001 A 
ATOM     84  C   UNL A   1      45.151  25.967  25.094  1.00  0.00     0.021 A 
ATOM     85  Cl  UNL A   1      43.107  24.237  25.167  1.00  0.00    -0.083 Cl
ATOM     86  C   UNL A   1      46.490  26.342  24.986  1.00  0.00     0.002 A 
ENDBRANCH  79  80
ENDBRANCH  72  75
ENDBRANCH  70  71
ENDBRANCH  69  70
ENDBRANCH  68  69
ENDBRANCH   1  68
TORSDOF 15
ENDMDL
MODEL 2
REMARK VINA RESULT:     -10.3      4.889      6.365
REMARK SMILES O=C(NCCCCNC(=O)c1noc(-c2ccccc2Cl)n1)c1ccc(-c2c3nc(c(-c4ccc(S(=O)(=O)[O-])cc4)c4ccc([nH]4)c(-c4ccc(S(=O)(=O)[O-])cc4)c4nc(c(-c5ccc(S(=O)(=O)[O-])cc5)c5ccc2[nH]5)C=C4)C=C3)cc1
REMARK SMILES IDX 4 1 3 2 1 3 2 4 23 6 24 7 82 8 25 9 81 10 26 11 27 12 28 13
REMARK SMILES IDX 75 14 29 15 80 16 74 17 76 18 30 19 79 20 73 21 72 22 31 24
REMARK SMILES IDX 61 25 42 26 60 27 43 28 46 29 59 30 77 31 44 32 45 33 58 35
REMARK SMILES IDX 78 36 47 37 32 38 33 39 41 40 34 41 40 42 35 43 36 44 37 45
REMARK SMILES IDX 38 46 39 47 62 48 63 49 71 50 64 51 70 52 65 53 66 54 67 55
REMARK SMILES IDX 68 56 69 57 48 58 49 59 57 60 50 61 56 62 51 63 52 64 53 65
REMARK SMILES IDX 54 66 55 67 5 68 6 69 7 70 8 71 9 72 10 74 11 75 12 76 22 77
REMARK SMILES IDX 13 78 14 79 15 80 16 81 20 82 17 83 19 84 21 85 18 86
REMARK H PARENT 3 5 76 23 46 34 8 73
REMARK Flexibility Score: inf
ROOT
ATOM      1  C   UNL A   1      44.622  24.337  26.923  1.00  0.00     0.116 C 
ENDROOT
BRANCH   1   2
ATOM      2  N   UNL A   1      43.689  24.710  25.872  1.00  0.00    -0.352 N 
ATOM      3  O   UNL A   1      41.847  25.665  24.986  1.00  0.00    -0.269 OA
ATOM      4  C   UNL A   1      42.614  25.567  25.939  1.00  0.00     0.251 C 
ATOM      5  H   UNL A   1      43.845  24.292  24.994  1.00  0.00     0.163 HD
BRANCH   4   6
ATOM      6  C   UNL A   1      42.374  26.345  27.174  1.00  0.00     0.039 A 
ATOM      7  C   UNL A   1      41.529  25.853  28.171  1.00  0.00     0.014 A 
ATOM      8  C   UNL A   1      43.000  27.586  27.333  1.00  0.00     0.014 A 
ATOM      9  C   UNL A   1      41.201  26.657  29.256  1.00  0.00     0.010 A 
ATOM     10  C   UNL A   1      42.729  28.360  28.466  1.00  0.00     0.010 A 
ATOM     11  C   UNL A   1      41.806  27.915  29.423  1.00  0.00    -0.014 A 
BRANCH  11  12
ATOM     12  C   UNL A   1      41.501  28.703  30.644  1.00  0.00     0.031 A 
ATOM     13  C   UNL A   1      42.360  28.610  31.874  1.00  0.00     0.074 A 
ATOM     14  C   UNL A   1      40.455  29.553  30.610  1.00  0.00     0.049 A 
ATOM     15  N   UNL A   1      42.260  29.280  32.995  1.00  0.00    -0.248 NA
ATOM     16  C   UNL A   1      43.470  27.645  31.850  1.00  0.00     0.031 C 
ATOM     17  C   UNL A   1      39.541  29.720  29.476  1.00  0.00     0.029 A 
ATOM     18  N   UNL A   1      40.000  30.455  31.536  1.00  0.00    -0.354 N 
ATOM     19  C   UNL A   1      43.279  28.810  33.815  1.00  0.00     0.074 A 
ATOM     20  C   UNL A   1      43.977  27.783  33.070  1.00  0.00     0.031 C 
ATOM     21  C   UNL A   1      38.672  30.703  29.752  1.00  0.00     0.029 A 
ATOM     22  C   UNL A   1      38.929  31.198  31.099  1.00  0.00     0.049 A 
ATOM     23  H   UNL A   1      40.402  30.560  32.430  1.00  0.00     0.167 HD
ATOM     24  C   UNL A   1      43.606  29.202  35.070  1.00  0.00     0.031 A 
ATOM     25  C   UNL A   1      38.224  32.165  31.713  1.00  0.00     0.031 A 
ATOM     26  C   UNL A   1      42.912  30.227  35.807  1.00  0.00     0.049 A 
ATOM     27  C   UNL A   1      38.605  32.574  33.105  1.00  0.00     0.074 A 
ATOM     28  C   UNL A   1      43.183  30.707  37.078  1.00  0.00     0.029 A 
ATOM     29  N   UNL A   1      41.812  30.931  35.342  1.00  0.00    -0.354 N 
ATOM     30  N   UNL A   1      39.586  32.129  33.853  1.00  0.00    -0.248 NA
ATOM     31  C   UNL A   1      37.781  33.612  33.737  1.00  0.00     0.031 C 
ATOM     32  C   UNL A   1      42.222  31.674  37.396  1.00  0.00     0.029 A 
ATOM     33  C   UNL A   1      41.381  31.828  36.306  1.00  0.00     0.049 A 
ATOM     34  H   UNL A   1      41.398  30.812  34.457  1.00  0.00     0.167 HD
ATOM     35  C   UNL A   1      39.499  32.836  35.045  1.00  0.00     0.074 A 
ATOM     36  C   UNL A   1      38.389  33.758  34.906  1.00  0.00     0.031 C 
ATOM     37  C   UNL A   1      40.265  32.726  36.157  1.00  0.00     0.031 A 
BRANCH  24  38
ATOM     38  C   UNL A   1      44.761  28.510  35.744  1.00  0.00    -0.014 A 
ATOM     39  C   UNL A   1      46.051  29.068  35.724  1.00  0.00     0.010 A 
ATOM     40  C   UNL A   1      44.540  27.322  36.466  1.00  0.00     0.010 A 
ATOM     41  C   UNL A   1      47.105  28.438  36.394  1.00  0.00     0.020 A 
ATOM     42  C   UNL A   1      45.586  26.700  37.154  1.00  0.00     0.020 A 
ATOM     43  C   UNL A   1      46.867  27.256  37.103  1.00  0.00     0.054 A 
BRANCH  43  44
ATOM     44  S   UNL A   1      48.243  26.479  37.996  1.00  0.00     0.124 S 
ATOM     45  O   UNL A   1      47.905  25.062  37.892  1.00  0.00    -0.237 OA
ATOM     46  O   UNL A   1      49.408  26.904  37.225  1.00  0.00    -0.237 OA
ATOM     47  O   UNL A   1      48.147  27.046  39.339  1.00  0.00    -0.744 OA
ENDBRANCH  43  44
ENDBRANCH  24  38
BRANCH  25  48
ATOM     48  C   UNL A   1      37.075  32.797  31.013  1.00  0.00    -0.014 A 
ATOM     49  C   UNL A   1      37.279  33.843  30.096  1.00  0.00     0.010 A 
ATOM     50  C   UNL A   1      35.767  32.334  31.248  1.00  0.00     0.010 A 
ATOM     51  C   UNL A   1      36.193  34.426  29.439  1.00  0.00     0.020 A 
ATOM     52  C   UNL A   1      34.682  32.897  30.573  1.00  0.00     0.020 A 
ATOM     53  C   UNL A   1      34.901  33.949  29.682  1.00  0.00     0.054 A 
BRANCH  53  54
ATOM     54  S   UNL A   1      33.505  34.680  28.782  1.00  0.00     0.124 S 
ATOM     55  O   UNL A   1      33.125  33.595  27.884  1.00  0.00    -0.237 OA
ATOM     56  O   UNL A   1      32.556  34.979  29.852  1.00  0.00    -0.237 OA
ATOM     57  O   UNL A   1      34.094  35.853  28.140  1.00  0.00    -0.744 OA
ENDBRANCH  53  54
ENDBRANCH  25  48
BRANCH  37  58
ATOM     58  C   UNL A   1      39.925  33.633  37.306  1.00  0.00    -0.014 A 
ATOM     59  C   UNL A   1      40.532  34.896  37.431  1.00  0.00     0.010 A 
ATOM     60  C   UNL A   1      38.980  33.225  38.263  1.00  0.00     0.010 A 
ATOM     61  C   UNL A   1      40.227  35.719  38.518  1.00  0.00     0.020 A 
ATOM     62  C   UNL A   1      38.655  34.055  39.338  1.00  0.00     0.020 A 
ATOM     63  C   UNL A   1      39.296  35.290  39.469  1.00  0.00     0.054 A 
BRANCH  63  64
ATOM     64  S   UNL A   1      38.901  36.381  40.863  1.00  0.00     0.124 S 
ATOM     65  O   UNL A   1      40.185  36.466  41.553  1.00  0.00    -0.237 OA
ATOM     66  O   UNL A   1      38.461  37.607  40.201  1.00  0.00    -0.237 OA
ATOM     67  O   UNL A   1      37.853  35.658  41.580  1.00  0.00    -0.744 OA
ENDBRANCH  63  64
ENDBRANCH  37  58
ENDBRANCH  11  12
ENDBRANCH   4   6
ENDBRANCH   1   2
BRANCH   1  68
ATOM     68  C   UNL A   1      44.836  22.832  27.026  1.00  0.00     0.023 C 
BRANCH  68  69
ATOM     69  C   UNL A   1      45.392  22.166  25.768  1.00  0.00     0.023 C 
BRANCH  69  70
ATOM     70  C   UNL A   1      44.345  21.499  24.877  1.00  0.00     0.116 C 
BRANCH  70  71
ATOM     71  N   UNL A   1      44.357  20.052  25.018  1.00  0.00    -0.349 N 
ATOM     72  C   UNL A   1      43.497  19.245  25.738  1.00  0.00     0.292 C 
ATOM     73  H   UNL A   1      45.077  19.584  24.536  1.00  0.00     0.163 HD
ATOM     74  O   UNL A   1      43.802  18.062  25.898  1.00  0.00    -0.266 OA
BRANCH  72  75
ATOM     75  C   UNL A   1      42.264  19.832  26.280  1.00  0.00     0.260 A 
ATOM     76  N   UNL A   1      41.866  19.649  27.552  1.00  0.00    -0.051 NA
ATOM     77  N   UNL A   1      41.421  20.643  25.542  1.00  0.00    -0.182 NA
ATOM     78  O   UNL A   1      40.724  20.446  27.657  1.00  0.00    -0.333 OA
ATOM     79  C   UNL A   1      40.521  20.997  26.425  1.00  0.00     0.259 A 
BRANCH  79  80
ATOM     80  C   UNL A   1      39.432  21.944  26.300  1.00  0.00     0.058 A 
ATOM     81  C   UNL A   1      39.590  23.236  26.830  1.00  0.00     0.015 A 
ATOM     82  C   UNL A   1      38.255  21.639  25.601  1.00  0.00     0.053 A 
ATOM     83  C   UNL A   1      38.599  24.204  26.658  1.00  0.00     0.001 A 
ATOM     84  C   UNL A   1      37.261  22.609  25.437  1.00  0.00     0.021 A 
ATOM     85  Cl  UNL A   1      37.953  20.070  24.937  1.00  0.00    -0.083 Cl
ATOM     86  C   UNL A   1      37.435  23.890  25.960  1.00  0.00     0.002 A 
ENDBRANCH  79  80
ENDBRANCH  72  75
ENDBRANCH  70  71
ENDBRANCH  69  70
ENDBRANCH  68  69
ENDBRANCH   1  68
TORSDOF 15
ENDMDL
MODEL 3
REMARK VINA RESULT:     -10.3      4.036      9.025
REMARK SMILES O=C(NCCCCNC(=O)c1noc(-c2ccccc2Cl)n1)c1ccc(-c2c3nc(c(-c4ccc(S(=O)(=O)[O-])cc4)c4ccc([nH]4)c(-c4ccc(S(=O)(=O)[O-])cc4)c4nc(c(-c5ccc(S(=O)(=O)[O-])cc5)c5ccc2[nH]5)C=C4)C=C3)cc1
REMARK SMILES IDX 4 1 3 2 1 3 2 4 23 6 24 7 82 8 25 9 81 10 26 11 27 12 28 13
REMARK SMILES IDX 75 14 29 15 80 16 74 17 76 18 30 19 79 20 73 21 72 22 31 24
REMARK SMILES IDX 61 25 42 26 60 27 43 28 46 29 59 30 77 31 44 32 45 33 58 35
REMARK SMILES IDX 78 36 47 37 32 38 33 39 41 40 34 41 40 42 35 43 36 44 37 45
REMARK SMILES IDX 38 46 39 47 62 48 63 49 71 50 64 51 70 52 65 53 66 54 67 55
REMARK SMILES IDX 68 56 69 57 48 58 49 59 57 60 50 61 56 62 51 63 52 64 53 65
REMARK SMILES IDX 54 66 55 67 5 68 6 69 7 70 8 71 9 72 10 74 11 75 12 76 22 77
REMARK SMILES IDX 13 78 14 79 15 80 16 81 20 82 17 83 19 84 21 85 18 86
REMARK H PARENT 3 5 76 23 46 34 8 73
REMARK Flexibility Score: inf
ROOT
ATOM      1  C   UNL A   1      34.038  28.104  26.330  1.00  0.00     0.116 C 
ENDROOT
BRANCH   1   2
ATOM      2  N   UNL A   1      33.594  29.405  26.807  1.00  0.00    -0.352 N 
ATOM      3  O   UNL A   1      33.674  31.294  28.037  1.00  0.00    -0.269 OA
ATOM      4  C   UNL A   1      34.254  30.296  27.622  1.00  0.00     0.251 C 
ATOM      5  H   UNL A   1      32.699  29.686  26.507  1.00  0.00     0.163 HD
BRANCH   4   6
ATOM      6  C   UNL A   1      35.655  30.025  28.017  1.00  0.00     0.039 A 
ATOM      7  C   UNL A   1      36.703  30.258  27.124  1.00  0.00     0.014 A 
ATOM      8  C   UNL A   1      35.920  29.526  29.297  1.00  0.00     0.014 A 
ATOM      9  C   UNL A   1      37.993  29.865  27.457  1.00  0.00     0.010 A 
ATOM     10  C   UNL A   1      37.232  29.204  29.659  1.00  0.00     0.010 A 
ATOM     11  C   UNL A   1      38.276  29.344  28.731  1.00  0.00    -0.014 A 
BRANCH  11  12
ATOM     12  C   UNL A   1      39.682  29.023  29.082  1.00  0.00     0.031 A 
ATOM     13  C   UNL A   1      40.300  27.700  28.722  1.00  0.00     0.074 A 
ATOM     14  C   UNL A   1      40.420  29.972  29.693  1.00  0.00     0.049 A 
ATOM     15  N   UNL A   1      41.531  27.295  28.905  1.00  0.00    -0.248 NA
ATOM     16  C   UNL A   1      39.430  26.702  28.079  1.00  0.00     0.031 C 
ATOM     17  C   UNL A   1      39.926  31.290  30.103  1.00  0.00     0.029 A 
ATOM     18  N   UNL A   1      41.744  29.990  30.048  1.00  0.00    -0.354 N 
ATOM     19  C   UNL A   1      41.583  25.995  28.416  1.00  0.00     0.074 A 
ATOM     20  C   UNL A   1      40.253  25.670  27.945  1.00  0.00     0.031 C 
ATOM     21  C   UNL A   1      40.944  32.006  30.602  1.00  0.00     0.029 A 
ATOM     22  C   UNL A   1      42.147  31.183  30.598  1.00  0.00     0.049 A 
ATOM     23  H   UNL A   1      42.347  29.222  29.921  1.00  0.00     0.167 HD
ATOM     24  C   UNL A   1      42.644  25.152  28.360  1.00  0.00     0.031 A 
ATOM     25  C   UNL A   1      43.350  31.574  31.059  1.00  0.00     0.031 A 
ATOM     26  C   UNL A   1      43.967  25.480  28.827  1.00  0.00     0.049 A 
ATOM     27  C   UNL A   1      44.503  30.617  30.990  1.00  0.00     0.074 A 
ATOM     28  C   UNL A   1      45.109  24.699  28.794  1.00  0.00     0.029 A 
ATOM     29  N   UNL A   1      44.326  26.686  29.409  1.00  0.00    -0.354 N 
ATOM     30  N   UNL A   1      44.533  29.400  30.505  1.00  0.00    -0.248 NA
ATOM     31  C   UNL A   1      45.783  31.087  31.535  1.00  0.00     0.031 C 
ATOM     32  C   UNL A   1      46.150  25.418  29.392  1.00  0.00     0.029 A 
ATOM     33  C   UNL A   1      45.667  26.664  29.756  1.00  0.00     0.049 A 
ATOM     34  H   UNL A   1      43.718  27.446  29.554  1.00  0.00     0.167 HD
ATOM     35  C   UNL A   1      45.837  28.957  30.683  1.00  0.00     0.074 A 
ATOM     36  C   UNL A   1      46.571  30.048  31.293  1.00  0.00     0.031 C 
ATOM     37  C   UNL A   1      46.376  27.752  30.377  1.00  0.00     0.031 A 
BRANCH  24  38
ATOM     38  C   UNL A   1      42.419  23.778  27.787  1.00  0.00    -0.014 A 
ATOM     39  C   UNL A   1      42.543  23.539  26.408  1.00  0.00     0.010 A 
ATOM     40  C   UNL A   1      42.150  22.697  28.648  1.00  0.00     0.010 A 
ATOM     41  C   UNL A   1      42.379  22.248  25.895  1.00  0.00     0.020 A 
ATOM     42  C   UNL A   1      42.004  21.402  28.142  1.00  0.00     0.020 A 
ATOM     43  C   UNL A   1      42.108  21.187  26.766  1.00  0.00     0.054 A 
BRANCH  43  44
ATOM     44  S   UNL A   1      41.936  19.516  26.080  1.00  0.00     0.124 S 
ATOM     45  O   UNL A   1      42.795  19.587  24.900  1.00  0.00    -0.237 OA
ATOM     46  O   UNL A   1      42.427  18.670  27.164  1.00  0.00    -0.237 OA
ATOM     47  O   UNL A   1      40.506  19.401  25.802  1.00  0.00    -0.744 OA
ENDBRANCH  43  44
ENDBRANCH  24  38
BRANCH  25  48
ATOM     48  C   UNL A   1      43.511  32.933  31.640  1.00  0.00    -0.014 A 
ATOM     49  C   UNL A   1      43.832  34.030  30.822  1.00  0.00     0.010 A 
ATOM     50  C   UNL A   1      43.319  33.135  33.019  1.00  0.00     0.010 A 
ATOM     51  C   UNL A   1      43.975  35.304  31.378  1.00  0.00     0.020 A 
ATOM     52  C   UNL A   1      43.435  34.412  33.573  1.00  0.00     0.020 A 
ATOM     53  C   UNL A   1      43.776  35.486  32.750  1.00  0.00     0.054 A 
BRANCH  53  54
ATOM     54  S   UNL A   1      43.913  37.155  33.449  1.00  0.00     0.124 S 
ATOM     55  O   UNL A   1      44.021  37.977  32.248  1.00  0.00    -0.237 OA
ATOM     56  O   UNL A   1      42.666  37.291  34.199  1.00  0.00    -0.237 OA
ATOM     57  O   UNL A   1      45.118  37.080  34.271  1.00  0.00    -0.744 OA
ENDBRANCH  53  54
ENDBRANCH  25  48
BRANCH  37  58
ATOM     58  C   UNL A   1      47.833  27.561  30.695  1.00  0.00    -0.014 A 
ATOM     59  C   UNL A   1      48.827  27.915  29.764  1.00  0.00     0.010 A 
ATOM     60  C   UNL A   1      48.213  27.036  31.942  1.00  0.00     0.010 A 
ATOM     61  C   UNL A   1      50.175  27.708  30.061  1.00  0.00     0.020 A 
ATOM     62  C   UNL A   1      49.562  26.849  32.251  1.00  0.00     0.020 A 
ATOM     63  C   UNL A   1      50.535  27.169  31.300  1.00  0.00     0.054 A 
BRANCH  63  64
ATOM     64  S   UNL A   1      52.293  26.925  31.674  1.00  0.00     0.124 S 
ATOM     65  O   UNL A   1      52.933  27.807  30.701  1.00  0.00    -0.237 OA
ATOM     66  O   UNL A   1      52.390  27.351  33.068  1.00  0.00    -0.237 OA
ATOM     67  O   UNL A   1      52.497  25.496  31.451  1.00  0.00    -0.744 OA
ENDBRANCH  63  64
ENDBRANCH  37  58
ENDBRANCH  11  12
ENDBRANCH   4   6
ENDBRANCH   1   2
BRANCH   1  68
ATOM     68  C   UNL A   1      32.934  27.054  26.345  1.00  0.00     0.023 C 
BRANCH  68  69
ATOM     69  C   UNL A   1      31.631  27.470  25.662  1.00  0.00     0.023 C 
BRANCH  69  70
ATOM     70  C   UNL A   1      31.424  26.889  24.264  1.00  0.00     0.116 C 
BRANCH  70  71
ATOM     71  N   UNL A   1      32.234  27.573  23.269  1.00  0.00    -0.349 N 
ATOM     72  C   UNL A   1      33.307  27.090  22.544  1.00  0.00     0.292 C 
ATOM     73  H   UNL A   1      31.984  28.508  23.087  1.00  0.00     0.163 HD
ATOM     74  O   UNL A   1      33.987  27.893  21.903  1.00  0.00    -0.266 OA
BRANCH  72  75
ATOM     75  C   UNL A   1      33.588  25.649  22.573  1.00  0.00     0.260 A 
ATOM     76  N   UNL A   1      33.233  24.815  21.579  1.00  0.00    -0.051 NA
ATOM     77  N   UNL A   1      34.263  25.027  23.608  1.00  0.00    -0.182 NA
ATOM     78  O   UNL A   1      33.770  23.587  21.972  1.00  0.00    -0.333 OA
ATOM     79  C   UNL A   1      34.359  23.792  23.185  1.00  0.00     0.259 A 
BRANCH  79  80
ATOM     80  C   UNL A   1      35.072  22.673  23.767  1.00  0.00     0.058 A 
ATOM     81  C   UNL A   1      36.477  22.658  23.712  1.00  0.00     0.015 A 
ATOM     82  C   UNL A   1      34.411  21.642  24.450  1.00  0.00     0.053 A 
ATOM     83  C   UNL A   1      37.204  21.642  24.333  1.00  0.00     0.001 A 
ATOM     84  C   UNL A   1      35.143  20.621  25.065  1.00  0.00     0.021 A 
ATOM     85  Cl  UNL A   1      32.686  21.556  24.550  1.00  0.00    -0.083 Cl
ATOM     86  C   UNL A   1      36.537  20.624  25.010  1.00  0.00     0.002 A 
ENDBRANCH  79  80
ENDBRANCH  72  75
ENDBRANCH  70  71
ENDBRANCH  69  70
ENDBRANCH  68  69
ENDBRANCH   1  68
TORSDOF 15
ENDMDL
