MODEL 1
REMARK VINA RESULT:      -9.5      0.000      0.000
REMARK SMILES O=C(CNc1nccs1)NCCCCNC(=O)c1ccc(-c2c3nc(c(-c4ccc(S(=O)(=O)[O-])cc4)c4ccc([nH]4)c(-c4ccc(S(=O)(=O)[O-])cc4)c4nc(c(-c5ccc(S(=O)(=O)[O-])cc5)c5ccc2[nH]5)C=C4)C=C3)cc1
REMARK SMILES IDX 13 1 12 2 11 3 10 4 1 5 2 6 3 8 4 9 5 11 6 12 9 13 7 14 8 15
REMARK SMILES IDX 14 16 15 17 16 18 17 20 18 21 19 22 77 23 20 24 76 25 21 26
REMARK SMILES IDX 22 27 23 28 70 29 24 30 75 31 69 32 71 33 25 34 74 35 68 36
REMARK SMILES IDX 67 37 26 39 56 40 37 41 55 42 38 43 41 44 54 45 72 46 39 47
REMARK SMILES IDX 40 48 53 50 73 51 42 52 27 53 28 54 36 55 29 56 35 57 30 58
REMARK SMILES IDX 31 59 32 60 33 61 34 62 57 63 58 64 66 65 59 66 65 67 60 68
REMARK SMILES IDX 61 69 62 70 63 71 64 72 43 73 44 74 52 75 45 76 51 77 46 78
REMARK SMILES IDX 47 79 48 80 49 81 50 82
REMARK H PARENT 10 7 4 10 15 19 71 38 41 49
REMARK Flexibility Score: inf
ROOT
ATOM      1  C   UNL A   1      34.820  33.935  28.358  1.00  0.00     0.023 C 
ENDROOT
BRANCH   1   2
ATOM      2  C   UNL A   1      33.386  34.397  28.085  1.00  0.00     0.023 C 
BRANCH   2   3
ATOM      3  C   UNL A   1      32.949  35.648  28.843  1.00  0.00     0.116 C 
BRANCH   3   4
ATOM      4  N   UNL A   1      32.745  35.399  30.253  1.00  0.00    -0.355 N 
ATOM      5  O   UNL A   1      32.900  37.585  30.967  1.00  0.00    -0.273 OA
ATOM      6  C   UNL A   1      32.713  36.397  31.209  1.00  0.00     0.239 C 
ATOM      7  H   UNL A   1      32.622  34.467  30.547  1.00  0.00     0.163 HD
BRANCH   6   8
ATOM      8  C   UNL A   1      32.442  35.866  32.624  1.00  0.00     0.215 C 
BRANCH   8   9
ATOM      9  N   UNL A   1      33.708  35.700  33.328  1.00  0.00    -0.352 N 
ATOM     10  H   UNL A   1      34.052  36.442  33.877  1.00  0.00     0.163 HD
BRANCH   9  11
ATOM     11  C   UNL A   1      34.414  34.561  33.247  1.00  0.00     0.183 A 
ATOM     12  N   UNL A   1      34.107  33.532  32.493  1.00  0.00    -0.229 NA
ATOM     13  S   UNL A   1      35.823  34.356  34.219  1.00  0.00    -0.106 S 
ATOM     14  C   UNL A   1      35.016  32.510  32.690  1.00  0.00     0.125 A 
ATOM     15  C   UNL A   1      36.005  32.766  33.614  1.00  0.00     0.088 A 
ENDBRANCH   9  11
ENDBRANCH   8   9
ENDBRANCH   6   8
ENDBRANCH   3   4
ENDBRANCH   2   3
ENDBRANCH   1   2
BRANCH   1  16
ATOM     16  C   UNL A   1      34.960  32.621  29.122  1.00  0.00     0.116 C 
BRANCH  16  17
ATOM     17  N   UNL A   1      34.197  31.533  28.532  1.00  0.00    -0.352 N 
ATOM     18  C   UNL A   1      34.621  30.297  28.099  1.00  0.00     0.251 C 
ATOM     19  H   UNL A   1      33.233  31.704  28.428  1.00  0.00     0.163 HD
ATOM     20  O   UNL A   1      33.838  29.563  27.502  1.00  0.00    -0.269 OA
BRANCH  18  21
ATOM     21  C   UNL A   1      36.020  29.863  28.318  1.00  0.00     0.039 A 
ATOM     22  C   UNL A   1      36.941  30.007  27.277  1.00  0.00     0.014 A 
ATOM     23  C   UNL A   1      36.429  29.313  29.536  1.00  0.00     0.014 A 
ATOM     24  C   UNL A   1      38.284  29.672  27.482  1.00  0.00     0.010 A 
ATOM     25  C   UNL A   1      37.781  29.051  29.763  1.00  0.00     0.010 A 
ATOM     26  C   UNL A   1      38.725  29.231  28.740  1.00  0.00    -0.014 A 
BRANCH  26  27
ATOM     27  C   UNL A   1      40.165  28.973  29.008  1.00  0.00     0.031 A 
ATOM     28  C   UNL A   1      40.778  27.639  28.671  1.00  0.00     0.074 A 
ATOM     29  C   UNL A   1      40.912  29.920  29.615  1.00  0.00     0.049 A 
ATOM     30  N   UNL A   1      41.997  27.214  28.890  1.00  0.00    -0.248 NA
ATOM     31  C   UNL A   1      39.903  26.647  28.028  1.00  0.00     0.031 C 
ATOM     32  C   UNL A   1      40.433  31.240  30.028  1.00  0.00     0.029 A 
ATOM     33  N   UNL A   1      42.232  29.913  29.996  1.00  0.00    -0.354 N 
ATOM     34  C   UNL A   1      42.032  25.904  28.421  1.00  0.00     0.074 A 
ATOM     35  C   UNL A   1      40.697  25.589  27.959  1.00  0.00     0.031 C 
ATOM     36  C   UNL A   1      41.447  31.923  30.583  1.00  0.00     0.029 A 
ATOM     37  C   UNL A   1      42.636  31.076  30.608  1.00  0.00     0.049 A 
ATOM     38  H   UNL A   1      42.832  29.147  29.847  1.00  0.00     0.167 HD
ATOM     39  C   UNL A   1      43.082  25.049  28.362  1.00  0.00     0.031 A 
ATOM     40  C   UNL A   1      43.824  31.425  31.141  1.00  0.00     0.031 A 
ATOM     41  C   UNL A   1      44.408  25.364  28.822  1.00  0.00     0.049 A 
ATOM     42  C   UNL A   1      44.968  30.449  31.087  1.00  0.00     0.074 A 
ATOM     43  C   UNL A   1      45.548  24.580  28.764  1.00  0.00     0.029 A 
ATOM     44  N   UNL A   1      44.776  26.555  29.430  1.00  0.00    -0.354 N 
ATOM     45  N   UNL A   1      44.995  29.238  30.585  1.00  0.00    -0.248 NA
ATOM     46  C   UNL A   1      46.247  30.892  31.662  1.00  0.00     0.031 C 
ATOM     47  C   UNL A   1      46.589  25.273  29.390  1.00  0.00     0.029 A 
ATOM     48  C   UNL A   1      46.117  26.517  29.775  1.00  0.00     0.049 A 
ATOM     49  H   UNL A   1      44.173  27.316  29.593  1.00  0.00     0.167 HD
ATOM     50  C   UNL A   1      46.299  28.786  30.757  1.00  0.00     0.074 A 
ATOM     51  C   UNL A   1      47.033  29.858  31.394  1.00  0.00     0.031 C 
ATOM     52  C   UNL A   1      46.839  27.589  30.414  1.00  0.00     0.031 A 
BRANCH  39  53
ATOM     53  C   UNL A   1      42.831  23.680  27.782  1.00  0.00    -0.014 A 
ATOM     54  C   UNL A   1      43.074  23.410  26.421  1.00  0.00     0.010 A 
ATOM     55  C   UNL A   1      42.386  22.636  28.614  1.00  0.00     0.010 A 
ATOM     56  C   UNL A   1      42.831  22.139  25.896  1.00  0.00     0.020 A 
ATOM     57  C   UNL A   1      42.173  21.354  28.099  1.00  0.00     0.020 A 
ATOM     58  C   UNL A   1      42.380  21.119  26.738  1.00  0.00     0.054 A 
BRANCH  58  59
ATOM     59  S   UNL A   1      42.088  19.475  26.030  1.00  0.00     0.124 S 
ATOM     60  O   UNL A   1      40.655  19.518  25.749  1.00  0.00    -0.237 OA
ATOM     61  O   UNL A   1      42.959  19.472  24.858  1.00  0.00    -0.237 OA
ATOM     62  O   UNL A   1      42.485  18.560  27.098  1.00  0.00    -0.744 OA
ENDBRANCH  58  59
ENDBRANCH  39  53
BRANCH  40  63
ATOM     63  C   UNL A   1      43.990  32.764  31.772  1.00  0.00    -0.014 A 
ATOM     64  C   UNL A   1      44.410  33.869  31.010  1.00  0.00     0.010 A 
ATOM     65  C   UNL A   1      43.715  32.945  33.140  1.00  0.00     0.010 A 
ATOM     66  C   UNL A   1      44.568  35.124  31.607  1.00  0.00     0.020 A 
ATOM     67  C   UNL A   1      43.841  34.204  33.733  1.00  0.00     0.020 A 
ATOM     68  C   UNL A   1      44.278  35.283  32.965  1.00  0.00     0.054 A 
BRANCH  68  69
ATOM     69  S   UNL A   1      44.437  36.932  33.706  1.00  0.00     0.124 S 
ATOM     70  O   UNL A   1      43.344  36.938  34.672  1.00  0.00    -0.237 OA
ATOM     71  O   UNL A   1      45.783  36.894  34.271  1.00  0.00    -0.237 OA
ATOM     72  O   UNL A   1      44.273  37.835  32.568  1.00  0.00    -0.744 OA
ENDBRANCH  68  69
ENDBRANCH  40  63
BRANCH  52  73
ATOM     73  C   UNL A   1      48.307  27.384  30.688  1.00  0.00    -0.014 A 
ATOM     74  C   UNL A   1      48.757  26.834  31.901  1.00  0.00     0.010 A 
ATOM     75  C   UNL A   1      49.247  27.696  29.688  1.00  0.00     0.010 A 
ATOM     76  C   UNL A   1      50.122  26.630  32.121  1.00  0.00     0.020 A 
ATOM     77  C   UNL A   1      50.610  27.465  29.892  1.00  0.00     0.020 A 
ATOM     78  C   UNL A   1      51.040  26.946  31.114  1.00  0.00     0.054 A 
BRANCH  78  79
ATOM     79  S   UNL A   1      52.802  26.629  31.408  1.00  0.00     0.124 S 
ATOM     80  O   UNL A   1      53.130  27.643  32.406  1.00  0.00    -0.237 OA
ATOM     81  O   UNL A   1      52.801  25.249  31.890  1.00  0.00    -0.237 OA
ATOM     82  O   UNL A   1      53.414  26.823  30.096  1.00  0.00    -0.744 OA
ENDBRANCH  78  79
ENDBRANCH  52  73
ENDBRANCH  26  27
ENDBRANCH  18  21
ENDBRANCH  16  17
ENDBRANCH   1  16
TORSDOF 16
ENDMDL
MODEL 2
REMARK VINA RESULT:      -9.4      4.465     12.385
REMARK SMILES O=C(CNc1nccs1)NCCCCNC(=O)c1ccc(-c2c3nc(c(-c4ccc(S(=O)(=O)[O-])cc4)c4ccc([nH]4)c(-c4ccc(S(=O)(=O)[O-])cc4)c4nc(c(-c5ccc(S(=O)(=O)[O-])cc5)c5ccc2[nH]5)C=C4)C=C3)cc1
REMARK SMILES IDX 13 1 12 2 11 3 10 4 1 5 2 6 3 8 4 9 5 11 6 12 9 13 7 14 8 15
REMARK SMILES IDX 14 16 15 17 16 18 17 20 18 21 19 22 77 23 20 24 76 25 21 26
REMARK SMILES IDX 22 27 23 28 70 29 24 30 75 31 69 32 71 33 25 34 74 35 68 36
REMARK SMILES IDX 67 37 26 39 56 40 37 41 55 42 38 43 41 44 54 45 72 46 39 47
REMARK SMILES IDX 40 48 53 50 73 51 42 52 27 53 28 54 36 55 29 56 35 57 30 58
REMARK SMILES IDX 31 59 32 60 33 61 34 62 57 63 58 64 66 65 59 66 65 67 60 68
REMARK SMILES IDX 61 69 62 70 63 71 64 72 43 73 44 74 52 75 45 76 51 77 46 78
REMARK SMILES IDX 47 79 48 80 49 81 50 82
REMARK H PARENT 10 7 4 10 15 19 71 38 41 49
REMARK Flexibility Score: inf
ROOT
ATOM      1  C   UNL A   1      44.979  22.891  26.715  1.00  0.00     0.023 C 
ENDROOT
BRANCH   1   2
ATOM      2  C   UNL A   1      45.844  22.328  25.584  1.00  0.00     0.023 C 
BRANCH   2   3
ATOM      3  C   UNL A   1      45.292  21.077  24.903  1.00  0.00     0.116 C 
BRANCH   3   4
ATOM      4  N   UNL A   1      44.311  20.392  25.716  1.00  0.00    -0.355 N 
ATOM      5  O   UNL A   1      44.213  18.446  24.484  1.00  0.00    -0.273 OA
ATOM      6  C   UNL A   1      43.862  19.110  25.454  1.00  0.00     0.239 C 
ATOM      7  H   UNL A   1      43.944  20.864  26.499  1.00  0.00     0.163 HD
BRANCH   6   8
ATOM      8  C   UNL A   1      42.851  18.603  26.492  1.00  0.00     0.215 C 
BRANCH   8   9
ATOM      9  N   UNL A   1      41.557  19.229  26.251  1.00  0.00    -0.352 N 
ATOM     10  H   UNL A   1      40.885  18.751  25.712  1.00  0.00     0.163 HD
BRANCH   9  11
ATOM     11  C   UNL A   1      41.258  20.440  26.748  1.00  0.00     0.183 A 
ATOM     12  N   UNL A   1      41.942  21.069  27.674  1.00  0.00    -0.229 NA
ATOM     13  S   UNL A   1      39.850  21.268  26.196  1.00  0.00    -0.106 S 
ATOM     14  C   UNL A   1      41.329  22.266  27.988  1.00  0.00     0.125 A 
ATOM     15  C   UNL A   1      40.163  22.533  27.306  1.00  0.00     0.088 A 
ENDBRANCH   9  11
ENDBRANCH   8   9
ENDBRANCH   6   8
ENDBRANCH   3   4
ENDBRANCH   2   3
ENDBRANCH   1   2
BRANCH   1  16
ATOM     16  C   UNL A   1      44.732  24.396  26.676  1.00  0.00     0.116 C 
BRANCH  16  17
ATOM     17  N   UNL A   1      43.694  24.781  25.732  1.00  0.00    -0.352 N 
ATOM     18  C   UNL A   1      42.620  25.624  25.906  1.00  0.00     0.251 C 
ATOM     19  H   UNL A   1      43.771  24.380  24.837  1.00  0.00     0.163 HD
ATOM     20  O   UNL A   1      41.773  25.716  25.020  1.00  0.00    -0.269 OA
BRANCH  18  21
ATOM     21  C   UNL A   1      42.462  26.393  27.162  1.00  0.00     0.039 A 
ATOM     22  C   UNL A   1      43.168  27.590  27.313  1.00  0.00     0.014 A 
ATOM     23  C   UNL A   1      41.629  25.944  28.190  1.00  0.00     0.014 A 
ATOM     24  C   UNL A   1      42.980  28.371  28.458  1.00  0.00     0.010 A 
ATOM     25  C   UNL A   1      41.384  26.760  29.295  1.00  0.00     0.010 A 
ATOM     26  C   UNL A   1      42.054  27.985  29.440  1.00  0.00    -0.014 A 
BRANCH  26  27
ATOM     27  C   UNL A   1      41.761  28.853  30.612  1.00  0.00     0.031 A 
ATOM     28  C   UNL A   1      42.581  28.742  31.871  1.00  0.00     0.074 A 
ATOM     29  C   UNL A   1      40.714  29.704  30.568  1.00  0.00     0.049 A 
ATOM     30  N   UNL A   1      42.433  29.371  33.009  1.00  0.00    -0.248 NA
ATOM     31  C   UNL A   1      43.696  27.783  31.856  1.00  0.00     0.031 C 
ATOM     32  C   UNL A   1      39.816  29.883  29.425  1.00  0.00     0.029 A 
ATOM     33  N   UNL A   1      40.223  30.572  31.512  1.00  0.00    -0.354 N 
ATOM     34  C   UNL A   1      43.427  28.878  33.848  1.00  0.00     0.074 A 
ATOM     35  C   UNL A   1      44.134  27.857  33.105  1.00  0.00     0.031 C 
ATOM     36  C   UNL A   1      38.901  30.818  29.726  1.00  0.00     0.029 A 
ATOM     37  C   UNL A   1      39.115  31.272  31.096  1.00  0.00     0.049 A 
ATOM     38  H   UNL A   1      40.626  30.682  32.404  1.00  0.00     0.167 HD
ATOM     39  C   UNL A   1      43.736  29.252  35.113  1.00  0.00     0.031 A 
ATOM     40  C   UNL A   1      38.347  32.172  31.743  1.00  0.00     0.031 A 
ATOM     41  C   UNL A   1      43.031  30.266  35.852  1.00  0.00     0.049 A 
ATOM     42  C   UNL A   1      38.694  32.553  33.157  1.00  0.00     0.074 A 
ATOM     43  C   UNL A   1      43.298  30.746  37.122  1.00  0.00     0.029 A 
ATOM     44  N   UNL A   1      41.919  30.955  35.392  1.00  0.00    -0.354 N 
ATOM     45  N   UNL A   1      39.675  32.117  33.910  1.00  0.00    -0.248 NA
ATOM     46  C   UNL A   1      37.837  33.556  33.804  1.00  0.00     0.031 C 
ATOM     47  C   UNL A   1      42.311  31.681  37.453  1.00  0.00     0.029 A 
ATOM     48  C   UNL A   1      41.472  31.836  36.362  1.00  0.00     0.049 A 
ATOM     49  H   UNL A   1      41.507  30.835  34.505  1.00  0.00     0.167 HD
ATOM     50  C   UNL A   1      39.570  32.815  35.109  1.00  0.00     0.074 A 
ATOM     51  C   UNL A   1      38.441  33.711  34.974  1.00  0.00     0.031 C 
ATOM     52  C   UNL A   1      40.343  32.722  36.220  1.00  0.00     0.031 A 
BRANCH  39  53
ATOM     53  C   UNL A   1      44.890  28.549  35.784  1.00  0.00    -0.014 A 
ATOM     54  C   UNL A   1      44.690  27.373  36.532  1.00  0.00     0.010 A 
ATOM     55  C   UNL A   1      46.197  29.046  35.634  1.00  0.00     0.010 A 
ATOM     56  C   UNL A   1      45.766  26.736  37.154  1.00  0.00     0.020 A 
ATOM     57  C   UNL A   1      47.281  28.394  36.228  1.00  0.00     0.020 A 
ATOM     58  C   UNL A   1      47.056  27.253  37.000  1.00  0.00     0.054 A 
BRANCH  58  59
ATOM     59  S   UNL A   1      48.435  26.396  37.807  1.00  0.00     0.124 S 
ATOM     60  O   UNL A   1      47.873  26.093  39.122  1.00  0.00    -0.237 OA
ATOM     61  O   UNL A   1      48.650  25.243  36.936  1.00  0.00    -0.237 OA
ATOM     62  O   UNL A   1      49.510  27.385  37.803  1.00  0.00    -0.744 OA
ENDBRANCH  58  59
ENDBRANCH  39  53
BRANCH  40  63
ATOM     63  C   UNL A   1      37.173  32.776  31.055  1.00  0.00    -0.014 A 
ATOM     64  C   UNL A   1      37.344  33.799  30.106  1.00  0.00     0.010 A 
ATOM     65  C   UNL A   1      35.871  32.320  31.336  1.00  0.00     0.010 A 
ATOM     66  C   UNL A   1      36.238  34.366  29.465  1.00  0.00     0.020 A 
ATOM     67  C   UNL A   1      34.766  32.861  30.675  1.00  0.00     0.020 A 
ATOM     68  C   UNL A   1      34.956  33.889  29.751  1.00  0.00     0.054 A 
BRANCH  68  69
ATOM     69  S   UNL A   1      33.541  34.601  28.866  1.00  0.00     0.124 S 
ATOM     70  O   UNL A   1      33.197  33.534  27.932  1.00  0.00    -0.237 OA
ATOM     71  O   UNL A   1      32.582  34.834  29.943  1.00  0.00    -0.237 OA
ATOM     72  O   UNL A   1      34.091  35.812  28.259  1.00  0.00    -0.744 OA
ENDBRANCH  68  69
ENDBRANCH  40  63
BRANCH  52  73
ATOM     73  C   UNL A   1      40.019  33.638  37.372  1.00  0.00    -0.014 A 
ATOM     74  C   UNL A   1      40.624  34.901  37.497  1.00  0.00     0.010 A 
ATOM     75  C   UNL A   1      39.049  33.248  38.314  1.00  0.00     0.010 A 
ATOM     76  C   UNL A   1      40.288  35.743  38.562  1.00  0.00     0.020 A 
ATOM     77  C   UNL A   1      38.687  34.099  39.362  1.00  0.00     0.020 A 
ATOM     78  C   UNL A   1      39.320  35.337  39.487  1.00  0.00     0.054 A 
BRANCH  78  79
ATOM     79  S   UNL A   1      38.870  36.467  40.832  1.00  0.00     0.124 S 
ATOM     80  O   UNL A   1      40.142  36.629  41.531  1.00  0.00    -0.237 OA
ATOM     81  O   UNL A   1      38.394  37.646  40.112  1.00  0.00    -0.237 OA
ATOM     82  O   UNL A   1      37.841  35.738  41.570  1.00  0.00    -0.744 OA
ENDBRANCH  78  79
ENDBRANCH  52  73
ENDBRANCH  26  27
ENDBRANCH  18  21
ENDBRANCH  16  17
ENDBRANCH   1  16
TORSDOF 16
ENDMDL
MODEL 3
REMARK VINA RESULT:      -9.3      4.530     12.488
REMARK SMILES O=C(CNc1nccs1)NCCCCNC(=O)c1ccc(-c2c3nc(c(-c4ccc(S(=O)(=O)[O-])cc4)c4ccc([nH]4)c(-c4ccc(S(=O)(=O)[O-])cc4)c4nc(c(-c5ccc(S(=O)(=O)[O-])cc5)c5ccc2[nH]5)C=C4)C=C3)cc1
REMARK SMILES IDX 13 1 12 2 11 3 10 4 1 5 2 6 3 8 4 9 5 11 6 12 9 13 7 14 8 15
REMARK SMILES IDX 14 16 15 17 16 18 17 20 18 21 19 22 77 23 20 24 76 25 21 26
REMARK SMILES IDX 22 27 23 28 70 29 24 30 75 31 69 32 71 33 25 34 74 35 68 36
REMARK SMILES IDX 67 37 26 39 56 40 37 41 55 42 38 43 41 44 54 45 72 46 39 47
REMARK SMILES IDX 40 48 53 50 73 51 42 52 27 53 28 54 36 55 29 56 35 57 30 58
REMARK SMILES IDX 31 59 32 60 33 61 34 62 57 63 58 64 66 65 59 66 65 67 60 68
REMARK SMILES IDX 61 69 62 70 63 71 64 72 43 73 44 74 52 75 45 76 51 77 46 78
REMARK SMILES IDX 47 79 48 80 49 81 50 82
REMARK H PARENT 10 7 4 10 15 19 71 38 41 49
REMARK Flexibility Score: inf
ROOT
ATOM      1  C   UNL A   1      41.093  21.256  27.431  1.00  0.00     0.023 C 
ENDROOT
BRANCH   1   2
ATOM      2  C   UNL A   1      41.592  20.866  26.036  1.00  0.00     0.023 C 
BRANCH   2   3
ATOM      3  C   UNL A   1      42.575  19.697  26.000  1.00  0.00     0.116 C 
BRANCH   3   4
ATOM      4  N   UNL A   1      43.953  20.134  25.941  1.00  0.00    -0.355 N 
ATOM      5  O   UNL A   1      44.337  19.601  23.731  1.00  0.00    -0.273 OA
ATOM      6  C   UNL A   1      44.725  20.073  24.795  1.00  0.00     0.239 C 
ATOM      7  H   UNL A   1      44.363  20.495  26.761  1.00  0.00     0.163 HD
BRANCH   6   8
ATOM      8  C   UNL A   1      46.140  20.636  24.993  1.00  0.00     0.215 C 
BRANCH   8   9
ATOM      9  N   UNL A   1      46.303  21.832  24.175  1.00  0.00    -0.352 N 
ATOM     10  H   UNL A   1      46.383  21.738  23.198  1.00  0.00     0.163 HD
BRANCH   9  11
ATOM     11  C   UNL A   1      46.346  23.057  24.723  1.00  0.00     0.183 A 
ATOM     12  N   UNL A   1      46.875  24.119  24.162  1.00  0.00    -0.229 NA
ATOM     13  S   UNL A   1      45.711  23.311  26.306  1.00  0.00    -0.106 S 
ATOM     14  C   UNL A   1      46.797  25.199  25.020  1.00  0.00     0.125 A 
ATOM     15  C   UNL A   1      46.219  24.944  26.245  1.00  0.00     0.088 A 
ENDBRANCH   9  11
ENDBRANCH   8   9
ENDBRANCH   6   8
ENDBRANCH   3   4
ENDBRANCH   2   3
ENDBRANCH   1   2
BRANCH   1  16
ATOM     16  C   UNL A   1      40.958  22.753  27.692  1.00  0.00     0.116 C 
BRANCH  16  17
ATOM     17  N   UNL A   1      41.189  23.564  26.507  1.00  0.00    -0.352 N 
ATOM     18  C   UNL A   1      41.230  24.933  26.375  1.00  0.00     0.251 C 
ATOM     19  H   UNL A   1      41.338  23.059  25.675  1.00  0.00     0.163 HD
ATOM     20  O   UNL A   1      41.306  25.432  25.254  1.00  0.00    -0.269 OA
BRANCH  18  21
ATOM     21  C   UNL A   1      41.152  25.807  27.568  1.00  0.00     0.039 A 
ATOM     22  C   UNL A   1      42.258  26.593  27.902  1.00  0.00     0.014 A 
ATOM     23  C   UNL A   1      40.001  25.855  28.360  1.00  0.00     0.014 A 
ATOM     24  C   UNL A   1      42.183  27.481  28.981  1.00  0.00     0.010 A 
ATOM     25  C   UNL A   1      39.902  26.794  29.387  1.00  0.00     0.010 A 
ATOM     26  C   UNL A   1      40.990  27.621  29.707  1.00  0.00    -0.014 A 
BRANCH  26  27
ATOM     27  C   UNL A   1      40.856  28.634  30.788  1.00  0.00     0.031 A 
ATOM     28  C   UNL A   1      41.722  28.560  32.018  1.00  0.00     0.074 A 
ATOM     29  C   UNL A   1      39.910  29.591  30.693  1.00  0.00     0.049 A 
ATOM     30  N   UNL A   1      41.704  29.317  33.086  1.00  0.00    -0.248 NA
ATOM     31  C   UNL A   1      42.722  27.481  32.064  1.00  0.00     0.031 C 
ATOM     32  C   UNL A   1      38.979  29.755  29.574  1.00  0.00     0.029 A 
ATOM     33  N   UNL A   1      39.567  30.604  31.556  1.00  0.00    -0.354 N 
ATOM     34  C   UNL A   1      42.679  28.801  33.934  1.00  0.00     0.074 A 
ATOM     35  C   UNL A   1      43.229  27.633  33.279  1.00  0.00     0.031 C 
ATOM     36  C   UNL A   1      38.190  30.815  29.807  1.00  0.00     0.029 A 
ATOM     37  C   UNL A   1      38.524  31.381  31.110  1.00  0.00     0.049 A 
ATOM     38  H   UNL A   1      40.025  30.758  32.414  1.00  0.00     0.167 HD
ATOM     39  C   UNL A   1      43.093  29.266  35.138  1.00  0.00     0.031 A 
ATOM     40  C   UNL A   1      37.895  32.426  31.685  1.00  0.00     0.031 A 
ATOM     41  C   UNL A   1      42.544  30.426  35.789  1.00  0.00     0.049 A 
ATOM     42  C   UNL A   1      38.355  32.909  33.034  1.00  0.00     0.074 A 
ATOM     43  C   UNL A   1      42.928  31.001  36.988  1.00  0.00     0.029 A 
ATOM     44  N   UNL A   1      41.493  31.188  35.301  1.00  0.00    -0.354 N 
ATOM     45  N   UNL A   1      39.319  32.443  33.791  1.00  0.00    -0.248 NA
ATOM     46  C   UNL A   1      37.649  34.067  33.601  1.00  0.00     0.031 C 
ATOM     47  C   UNL A   1      42.069  32.074  37.254  1.00  0.00     0.029 A 
ATOM     48  C   UNL A   1      41.197  32.211  36.186  1.00  0.00     0.049 A 
ATOM     49  H   UNL A   1      41.025  31.025  34.449  1.00  0.00     0.167 HD
ATOM     50  C   UNL A   1      39.354  33.269  34.910  1.00  0.00     0.074 A 
ATOM     51  C   UNL A   1      38.326  34.271  34.723  1.00  0.00     0.031 C 
ATOM     52  C   UNL A   1      40.168  33.202  35.993  1.00  0.00     0.031 A 
BRANCH  39  53
ATOM     53  C   UNL A   1      44.194  28.507  35.836  1.00  0.00    -0.014 A 
ATOM     54  C   UNL A   1      43.903  27.452  36.721  1.00  0.00     0.010 A 
ATOM     55  C   UNL A   1      45.539  28.825  35.574  1.00  0.00     0.010 A 
ATOM     56  C   UNL A   1      44.933  26.763  37.366  1.00  0.00     0.020 A 
ATOM     57  C   UNL A   1      46.573  28.116  36.192  1.00  0.00     0.020 A 
ATOM     58  C   UNL A   1      46.262  27.101  37.099  1.00  0.00     0.054 A 
BRANCH  58  59
ATOM     59  S   UNL A   1      47.577  26.178  37.940  1.00  0.00     0.124 S 
ATOM     60  O   UNL A   1      46.996  25.964  39.263  1.00  0.00    -0.237 OA
ATOM     61  O   UNL A   1      47.710  24.983  37.111  1.00  0.00    -0.237 OA
ATOM     62  O   UNL A   1      48.720  27.088  37.903  1.00  0.00    -0.744 OA
ENDBRANCH  58  59
ENDBRANCH  39  53
BRANCH  40  63
ATOM     63  C   UNL A   1      36.761  33.088  30.981  1.00  0.00    -0.014 A 
ATOM     64  C   UNL A   1      35.440  32.915  31.428  1.00  0.00     0.010 A 
ATOM     65  C   UNL A   1      37.000  33.911  29.865  1.00  0.00     0.010 A 
ATOM     66  C   UNL A   1      34.378  33.536  30.763  1.00  0.00     0.020 A 
ATOM     67  C   UNL A   1      35.946  34.559  29.216  1.00  0.00     0.020 A 
ATOM     68  C   UNL A   1      34.639  34.358  29.663  1.00  0.00     0.054 A 
BRANCH  68  69
ATOM     69  S   UNL A   1      33.252  35.198  28.849  1.00  0.00     0.124 S 
ATOM     70  O   UNL A   1      32.699  34.134  28.017  1.00  0.00    -0.237 OA
ATOM     71  O   UNL A   1      32.426  35.610  29.982  1.00  0.00    -0.237 OA
ATOM     72  O   UNL A   1      33.893  36.293  28.124  1.00  0.00    -0.744 OA
ENDBRANCH  68  69
ENDBRANCH  40  63
BRANCH  52  73
ATOM     73  C   UNL A   1      40.007  34.264  37.050  1.00  0.00    -0.014 A 
ATOM     74  C   UNL A   1      40.567  35.545  36.894  1.00  0.00     0.010 A 
ATOM     75  C   UNL A   1      39.235  33.990  38.194  1.00  0.00     0.010 A 
ATOM     76  C   UNL A   1      40.383  36.521  37.878  1.00  0.00     0.020 A 
ATOM     77  C   UNL A   1      39.022  34.973  39.165  1.00  0.00     0.020 A 
ATOM     78  C   UNL A   1      39.610  36.229  39.007  1.00  0.00     0.054 A 
BRANCH  78  79
ATOM     79  S   UNL A   1      39.350  37.528  40.246  1.00  0.00     0.124 S 
ATOM     80  O   UNL A   1      40.697  38.066  40.410  1.00  0.00    -0.237 OA
ATOM     81  O   UNL A   1      38.395  38.414  39.583  1.00  0.00    -0.237 OA
ATOM     82  O   UNL A   1      38.822  36.806  41.401  1.00  0.00    -0.744 OA
ENDBRANCH  78  79
ENDBRANCH  52  73
ENDBRANCH  26  27
ENDBRANCH  18  21
ENDBRANCH  16  17
ENDBRANCH   1  16
TORSDOF 16
ENDMDL
