MODEL 1
REMARK VINA RESULT:      -9.1      0.000      0.000
REMARK SMILES O=C(COc1ccc([N+](=O)[O-])cc1)Nc1ccc(C(=O)NCCCCNC(=O)c2ccc(-c3c4nc(c(-c5ccc(S(=O)(=O)[O-])cc5)c5ccc([nH]5)c(-c5ccc(S(=O)(=O)[O-])cc5)c5nc(c(-c6ccc(S(=O)(=O)[O-])cc6)c6ccc3[nH]6)C=C5)C=C4)cc2)c(O)c1
REMARK SMILES IDX 22 1 21 2 19 3 20 4 18 6 15 7 16 8 91 9 17 10 89 11 14 12
REMARK SMILES IDX 1 13 2 14 3 16 4 17 5 18 6 19 13 20 7 21 12 22 8 23 9 24
REMARK SMILES IDX 10 25 11 26 90 27 23 29 24 30 25 31 26 32 27 33 28 35 29 36
REMARK SMILES IDX 30 37 88 38 31 39 87 40 32 41 33 42 34 43 81 44 35 45 86 46
REMARK SMILES IDX 80 47 82 48 36 49 85 50 79 51 78 52 37 54 67 55 48 56 66 57
REMARK SMILES IDX 49 58 52 59 65 60 83 61 50 62 51 63 64 65 84 66 53 67 38 68
REMARK SMILES IDX 39 69 47 70 40 71 46 72 41 73 42 74 43 75 44 76 45 77 68 78
REMARK SMILES IDX 69 79 77 80 70 81 76 82 71 83 72 84 73 85 74 86 75 87 54 88
REMARK SMILES IDX 55 89 63 90 56 91 62 92 57 93 58 94 59 95 60 96 61 97
REMARK H PARENT 21 5 14 15 90 28 26 34 82 53 52 64
REMARK Flexibility Score: inf
ROOT
ATOM      1  C   UNL A   1      36.557  32.647  31.540  1.00  0.00     0.116 C 
ENDROOT
BRANCH   1   2
ATOM      2  N   UNL A   1      36.514  32.846  32.974  1.00  0.00    -0.352 N 
ATOM      3  C   UNL A   1      37.163  32.213  34.003  1.00  0.00     0.255 C 
ATOM      4  O   UNL A   1      36.890  32.585  35.148  1.00  0.00    -0.269 OA
ATOM      5  H   UNL A   1      35.908  33.568  33.262  1.00  0.00     0.163 HD
BRANCH   3   6
ATOM      6  C   UNL A   1      38.239  31.188  33.834  1.00  0.00     0.081 A 
ATOM      7  C   UNL A   1      40.497  29.488  33.579  1.00  0.00     0.045 A 
ATOM      8  C   UNL A   1      40.632  30.745  34.163  1.00  0.00     0.027 A 
ATOM      9  C   UNL A   1      39.232  29.058  33.199  1.00  0.00     0.073 A 
ATOM     10  C   UNL A   1      39.519  31.590  34.269  1.00  0.00     0.020 A 
ATOM     11  C   UNL A   1      38.113  29.882  33.352  1.00  0.00     0.130 A 
BRANCH   7  12
ATOM     12  N   UNL A   1      41.647  28.706  33.383  1.00  0.00    -0.323 N 
ATOM     13  O   UNL A   1      41.238  26.947  34.866  1.00  0.00    -0.271 OA
ATOM     14  C   UNL A   1      41.919  27.494  34.002  1.00  0.00     0.262 C 
ATOM     15  H   UNL A   1      42.320  29.048  32.752  1.00  0.00     0.170 HD
BRANCH  14  16
ATOM     16  C   UNL A   1      43.178  26.813  33.470  1.00  0.00     0.329 C 
BRANCH  16  17
ATOM     17  O   UNL A   1      44.235  26.655  34.409  1.00  0.00    -0.484 OA
BRANCH  17  18
ATOM     18  C   UNL A   1      44.803  25.410  34.438  1.00  0.00     0.120 A 
ATOM     19  C   UNL A   1      44.325  24.501  33.494  1.00  0.00     0.053 A 
ATOM     20  C   UNL A   1      45.698  24.989  35.425  1.00  0.00     0.053 A 
ATOM     21  C   UNL A   1      44.732  23.165  33.533  1.00  0.00     0.089 A 
ATOM     22  C   UNL A   1      46.094  23.651  35.488  1.00  0.00     0.089 A 
ATOM     23  C   UNL A   1      45.601  22.741  34.546  1.00  0.00     0.269 A 
BRANCH  23  24
ATOM     24  N   UNL A   1      45.968  21.323  34.644  1.00  0.00     0.062 N 
ATOM     25  O   UNL A   1      45.056  20.504  34.828  1.00  0.00    -0.258 OA
ATOM     26  O   UNL A   1      47.168  21.030  34.549  1.00  0.00    -0.258 OA
ENDBRANCH  23  24
ENDBRANCH  17  18
ENDBRANCH  16  17
ENDBRANCH  14  16
ENDBRANCH   7  12
BRANCH  11  27
ATOM     27  O   UNL A   1      36.911  29.312  33.064  1.00  0.00    -0.507 OA
ATOM     28  H   UNL A   1      36.376  29.668  32.382  1.00  0.00     0.293 HD
ENDBRANCH  11  27
ENDBRANCH   3   6
ENDBRANCH   1   2
BRANCH   1  29
ATOM     29  C   UNL A   1      35.777  33.755  30.823  1.00  0.00     0.023 C 
BRANCH  29  30
ATOM     30  C   UNL A   1      34.558  33.290  30.035  1.00  0.00     0.023 C 
BRANCH  30  31
ATOM     31  C   UNL A   1      34.850  32.905  28.595  1.00  0.00     0.116 C 
BRANCH  31  32
ATOM     32  N   UNL A   1      33.975  31.861  28.081  1.00  0.00    -0.352 N 
ATOM     33  C   UNL A   1      34.284  30.548  27.823  1.00  0.00     0.251 C 
ATOM     34  H   UNL A   1      33.047  32.130  27.892  1.00  0.00     0.163 HD
ATOM     35  O   UNL A   1      33.457  29.806  27.300  1.00  0.00    -0.269 OA
BRANCH  33  36
ATOM     36  C   UNL A   1      35.639  30.055  28.143  1.00  0.00     0.039 A 
ATOM     37  C   UNL A   1      36.623  30.100  27.154  1.00  0.00     0.014 A 
ATOM     38  C   UNL A   1      35.947  29.604  29.429  1.00  0.00     0.014 A 
ATOM     39  C   UNL A   1      37.934  29.744  27.474  1.00  0.00     0.010 A 
ATOM     40  C   UNL A   1      37.266  29.335  29.768  1.00  0.00     0.010 A 
ATOM     41  C   UNL A   1      38.270  29.388  28.790  1.00  0.00    -0.014 A 
BRANCH  41  42
ATOM     42  C   UNL A   1      39.662  29.033  29.158  1.00  0.00     0.031 A 
ATOM     43  C   UNL A   1      40.525  30.040  29.870  1.00  0.00     0.074 A 
ATOM     44  C   UNL A   1      40.164  27.834  28.806  1.00  0.00     0.049 A 
ATOM     45  N   UNL A   1      41.773  29.936  30.247  1.00  0.00    -0.248 NA
ATOM     46  C   UNL A   1      39.915  31.346  30.171  1.00  0.00     0.031 C 
ATOM     47  C   UNL A   1      39.443  26.796  28.063  1.00  0.00     0.029 A 
ATOM     48  N   UNL A   1      41.403  27.286  29.023  1.00  0.00    -0.354 N 
ATOM     49  C   UNL A   1      42.101  31.164  30.809  1.00  0.00     0.074 A 
ATOM     50  C   UNL A   1      40.942  32.017  30.672  1.00  0.00     0.031 C 
ATOM     51  C   UNL A   1      40.241  25.725  27.918  1.00  0.00     0.029 A 
ATOM     52  C   UNL A   1      41.538  26.011  28.525  1.00  0.00     0.049 A 
ATOM     53  H   UNL A   1      42.127  27.760  29.490  1.00  0.00     0.167 HD
ATOM     54  C   UNL A   1      43.254  31.543  31.409  1.00  0.00     0.031 A 
ATOM     55  C   UNL A   1      42.586  25.167  28.560  1.00  0.00     0.031 A 
ATOM     56  C   UNL A   1      44.396  30.683  31.564  1.00  0.00     0.049 A 
ATOM     57  C   UNL A   1      43.848  25.599  29.257  1.00  0.00     0.074 A 
ATOM     58  C   UNL A   1      45.593  30.948  32.206  1.00  0.00     0.029 A 
ATOM     59  N   UNL A   1      44.481  29.389  31.074  1.00  0.00    -0.354 N 
ATOM     60  N   UNL A   1      44.116  26.742  29.842  1.00  0.00    -0.248 NA
ATOM     61  C   UNL A   1      44.940  24.617  29.317  1.00  0.00     0.031 C 
ATOM     62  C   UNL A   1      46.417  29.826  32.071  1.00  0.00     0.029 A 
ATOM     63  C   UNL A   1      45.714  28.844  31.390  1.00  0.00     0.049 A 
ATOM     64  H   UNL A   1      43.770  28.925  30.576  1.00  0.00     0.167 HD
ATOM     65  C   UNL A   1      45.397  26.606  30.366  1.00  0.00     0.074 A 
ATOM     66  C   UNL A   1      45.842  25.266  30.039  1.00  0.00     0.031 C 
ATOM     67  C   UNL A   1      46.137  27.508  31.058  1.00  0.00     0.031 A 
BRANCH  54  68
ATOM     68  C   UNL A   1      43.327  32.948  31.944  1.00  0.00    -0.014 A 
ATOM     69  C   UNL A   1      43.674  34.025  31.107  1.00  0.00     0.010 A 
ATOM     70  C   UNL A   1      43.025  33.201  33.294  1.00  0.00     0.010 A 
ATOM     71  C   UNL A   1      43.765  35.321  31.622  1.00  0.00     0.020 A 
ATOM     72  C   UNL A   1      43.085  34.500  33.806  1.00  0.00     0.020 A 
ATOM     73  C   UNL A   1      43.473  35.550  32.970  1.00  0.00     0.054 A 
BRANCH  73  74
ATOM     74  S   UNL A   1      43.582  37.244  33.608  1.00  0.00     0.124 S 
ATOM     75  O   UNL A   1      42.288  37.399  34.271  1.00  0.00    -0.237 OA
ATOM     76  O   UNL A   1      44.737  37.178  34.498  1.00  0.00    -0.237 OA
ATOM     77  O   UNL A   1      43.769  38.056  32.408  1.00  0.00    -0.744 OA
ENDBRANCH  73  74
ENDBRANCH  54  68
BRANCH  55  78
ATOM     78  C   UNL A   1      42.472  23.813  27.950  1.00  0.00    -0.014 A 
ATOM     79  C   UNL A   1      42.839  23.603  26.610  1.00  0.00     0.010 A 
ATOM     80  C   UNL A   1      42.012  22.725  28.713  1.00  0.00     0.010 A 
ATOM     81  C   UNL A   1      42.727  22.334  26.035  1.00  0.00     0.020 A 
ATOM     82  C   UNL A   1      41.922  21.448  28.149  1.00  0.00     0.020 A 
ATOM     83  C   UNL A   1      42.269  21.263  26.809  1.00  0.00     0.054 A 
BRANCH  83  84
ATOM     84  S   UNL A   1      42.179  19.614  26.057  1.00  0.00     0.124 S 
ATOM     85  O   UNL A   1      40.764  19.514  25.714  1.00  0.00    -0.237 OA
ATOM     86  O   UNL A   1      43.098  19.730  24.928  1.00  0.00    -0.237 OA
ATOM     87  O   UNL A   1      42.630  18.727  27.127  1.00  0.00    -0.744 OA
ENDBRANCH  83  84
ENDBRANCH  55  78
BRANCH  67  88
ATOM     88  C   UNL A   1      47.487  27.061  31.547  1.00  0.00    -0.014 A 
ATOM     89  C   UNL A   1      47.631  26.352  32.753  1.00  0.00     0.010 A 
ATOM     90  C   UNL A   1      48.625  27.316  30.760  1.00  0.00     0.010 A 
ATOM     91  C   UNL A   1      48.896  25.942  33.183  1.00  0.00     0.020 A 
ATOM     92  C   UNL A   1      49.887  26.884  31.173  1.00  0.00     0.020 A 
ATOM     93  C   UNL A   1      50.016  26.215  32.392  1.00  0.00     0.054 A 
BRANCH  93  94
ATOM     94  S   UNL A   1      51.644  25.646  32.955  1.00  0.00     0.124 S 
ATOM     95  O   UNL A   1      52.488  26.799  32.654  1.00  0.00    -0.237 OA
ATOM     96  O   UNL A   1      51.421  25.383  34.374  1.00  0.00    -0.237 OA
ATOM     97  O   UNL A   1      51.896  24.459  32.141  1.00  0.00    -0.744 OA
ENDBRANCH  93  94
ENDBRANCH  67  88
ENDBRANCH  41  42
ENDBRANCH  33  36
ENDBRANCH  31  32
ENDBRANCH  30  31
ENDBRANCH  29  30
ENDBRANCH   1  29
TORSDOF 20
ENDMDL
MODEL 2
REMARK VINA RESULT:      -7.8      4.341      9.981
REMARK SMILES O=C(COc1ccc([N+](=O)[O-])cc1)Nc1ccc(C(=O)NCCCCNC(=O)c2ccc(-c3c4nc(c(-c5ccc(S(=O)(=O)[O-])cc5)c5ccc([nH]5)c(-c5ccc(S(=O)(=O)[O-])cc5)c5nc(c(-c6ccc(S(=O)(=O)[O-])cc6)c6ccc3[nH]6)C=C5)C=C4)cc2)c(O)c1
REMARK SMILES IDX 22 1 21 2 19 3 20 4 18 6 15 7 16 8 91 9 17 10 89 11 14 12
REMARK SMILES IDX 1 13 2 14 3 16 4 17 5 18 6 19 13 20 7 21 12 22 8 23 9 24
REMARK SMILES IDX 10 25 11 26 90 27 23 29 24 30 25 31 26 32 27 33 28 35 29 36
REMARK SMILES IDX 30 37 88 38 31 39 87 40 32 41 33 42 34 43 81 44 35 45 86 46
REMARK SMILES IDX 80 47 82 48 36 49 85 50 79 51 78 52 37 54 67 55 48 56 66 57
REMARK SMILES IDX 49 58 52 59 65 60 83 61 50 62 51 63 64 65 84 66 53 67 38 68
REMARK SMILES IDX 39 69 47 70 40 71 46 72 41 73 42 74 43 75 44 76 45 77 68 78
REMARK SMILES IDX 69 79 77 80 70 81 76 82 71 83 72 84 73 85 74 86 75 87 54 88
REMARK SMILES IDX 55 89 63 90 56 91 62 92 57 93 58 94 59 95 60 96 61 97
REMARK H PARENT 21 5 14 15 90 28 26 34 82 53 52 64
REMARK Flexibility Score: inf
ROOT
ATOM      1  C   UNL A   1      37.209  29.216  27.999  1.00  0.00     0.116 C 
ENDROOT
BRANCH   1   2
ATOM      2  N   UNL A   1      38.550  29.663  27.687  1.00  0.00    -0.352 N 
ATOM      3  C   UNL A   1      39.738  28.985  27.585  1.00  0.00     0.255 C 
ATOM      4  O   UNL A   1      40.744  29.656  27.337  1.00  0.00    -0.269 OA
ATOM      5  H   UNL A   1      38.622  30.631  27.518  1.00  0.00     0.163 HD
BRANCH   3   6
ATOM      6  C   UNL A   1      39.882  27.497  27.650  1.00  0.00     0.081 A 
ATOM      7  C   UNL A   1      40.234  24.689  27.450  1.00  0.00     0.045 A 
ATOM      8  C   UNL A   1      40.695  25.524  26.435  1.00  0.00     0.027 A 
ATOM      9  C   UNL A   1      39.674  25.260  28.586  1.00  0.00     0.073 A 
ATOM     10  C   UNL A   1      40.501  26.909  26.528  1.00  0.00     0.020 A 
ATOM     11  C   UNL A   1      39.528  26.645  28.700  1.00  0.00     0.130 A 
BRANCH   7  12
ATOM     12  N   UNL A   1      40.340  23.299  27.282  1.00  0.00    -0.323 N 
ATOM     13  O   UNL A   1      38.455  22.870  25.968  1.00  0.00    -0.271 OA
ATOM     14  C   UNL A   1      39.480  22.503  26.537  1.00  0.00     0.262 C 
ATOM     15  H   UNL A   1      41.091  22.848  27.731  1.00  0.00     0.170 HD
BRANCH  14  16
ATOM     16  C   UNL A   1      39.946  21.053  26.422  1.00  0.00     0.329 C 
BRANCH  16  17
ATOM     17  O   UNL A   1      41.028  20.686  27.269  1.00  0.00    -0.484 OA
BRANCH  17  18
ATOM     18  C   UNL A   1      42.151  20.251  26.619  1.00  0.00     0.120 A 
ATOM     19  C   UNL A   1      42.983  21.248  26.108  1.00  0.00     0.053 A 
ATOM     20  C   UNL A   1      42.412  18.909  26.335  1.00  0.00     0.053 A 
ATOM     21  C   UNL A   1      44.075  20.912  25.304  1.00  0.00     0.089 A 
ATOM     22  C   UNL A   1      43.487  18.561  25.513  1.00  0.00     0.089 A 
ATOM     23  C   UNL A   1      44.310  19.567  24.992  1.00  0.00     0.269 A 
BRANCH  23  24
ATOM     24  N   UNL A   1      45.404  19.211  24.081  1.00  0.00     0.062 N 
ATOM     25  O   UNL A   1      46.564  19.419  24.468  1.00  0.00    -0.258 OA
ATOM     26  O   UNL A   1      45.105  18.735  22.978  1.00  0.00    -0.258 OA
ENDBRANCH  23  24
ENDBRANCH  17  18
ENDBRANCH  16  17
ENDBRANCH  14  16
ENDBRANCH   7  12
BRANCH  11  27
ATOM     27  O   UNL A   1      39.085  27.099  29.904  1.00  0.00    -0.507 OA
ATOM     28  H   UNL A   1      38.912  26.493  30.598  1.00  0.00     0.293 HD
ENDBRANCH  11  27
ENDBRANCH   3   6
ENDBRANCH   1   2
BRANCH   1  29
ATOM     29  C   UNL A   1      36.465  30.281  28.813  1.00  0.00     0.023 C 
BRANCH  29  30
ATOM     30  C   UNL A   1      35.348  31.007  28.072  1.00  0.00     0.023 C 
BRANCH  30  31
ATOM     31  C   UNL A   1      35.530  32.512  27.979  1.00  0.00     0.116 C 
BRANCH  31  32
ATOM     32  N   UNL A   1      34.501  33.269  28.677  1.00  0.00    -0.352 N 
ATOM     33  C   UNL A   1      34.470  33.638  30.000  1.00  0.00     0.251 C 
ATOM     34  H   UNL A   1      33.729  33.549  28.133  1.00  0.00     0.163 HD
ATOM     35  O   UNL A   1      33.483  34.199  30.465  1.00  0.00    -0.269 OA
BRANCH  33  36
ATOM     36  C   UNL A   1      35.624  33.309  30.861  1.00  0.00     0.039 A 
ATOM     37  C   UNL A   1      35.553  32.180  31.679  1.00  0.00     0.014 A 
ATOM     38  C   UNL A   1      36.787  34.082  30.818  1.00  0.00     0.014 A 
ATOM     39  C   UNL A   1      36.676  31.794  32.413  1.00  0.00     0.010 A 
ATOM     40  C   UNL A   1      37.928  33.647  31.479  1.00  0.00     0.010 A 
ATOM     41  C   UNL A   1      37.880  32.508  32.295  1.00  0.00    -0.014 A 
BRANCH  41  42
ATOM     42  C   UNL A   1      39.092  32.098  33.044  1.00  0.00     0.031 A 
ATOM     43  C   UNL A   1      40.130  31.240  32.371  1.00  0.00     0.074 A 
ATOM     44  C   UNL A   1      39.232  32.449  34.337  1.00  0.00     0.049 A 
ATOM     45  N   UNL A   1      41.239  30.751  32.862  1.00  0.00    -0.248 NA
ATOM     46  C   UNL A   1      39.874  30.857  30.972  1.00  0.00     0.031 C 
ATOM     47  C   UNL A   1      38.267  33.231  35.114  1.00  0.00     0.029 A 
ATOM     48  N   UNL A   1      40.243  32.190  35.228  1.00  0.00    -0.354 N 
ATOM     49  C   UNL A   1      41.799  29.989  31.843  1.00  0.00     0.074 A 
ATOM     50  C   UNL A   1      40.881  30.033  30.727  1.00  0.00     0.031 C 
ATOM     51  C   UNL A   1      38.748  33.416  36.355  1.00  0.00     0.029 A 
ATOM     52  C   UNL A   1      40.038  32.741  36.471  1.00  0.00     0.049 A 
ATOM     53  H   UNL A   1      41.040  31.661  34.999  1.00  0.00     0.167 HD
ATOM     54  C   UNL A   1      42.982  29.333  31.826  1.00  0.00     0.031 A 
ATOM     55  C   UNL A   1      40.806  32.710  37.576  1.00  0.00     0.031 A 
ATOM     56  C   UNL A   1      43.903  29.312  32.930  1.00  0.00     0.049 A 
ATOM     57  C   UNL A   1      42.130  31.998  37.526  1.00  0.00     0.074 A 
ATOM     58  C   UNL A   1      45.154  28.725  32.998  1.00  0.00     0.029 A 
ATOM     59  N   UNL A   1      43.673  29.908  34.160  1.00  0.00    -0.354 N 
ATOM     60  N   UNL A   1      42.673  31.339  36.530  1.00  0.00    -0.248 NA
ATOM     61  C   UNL A   1      42.953  32.045  38.742  1.00  0.00     0.031 C 
ATOM     62  C   UNL A   1      45.664  28.934  34.284  1.00  0.00     0.029 A 
ATOM     63  C   UNL A   1      44.753  29.696  34.999  1.00  0.00     0.049 A 
ATOM     64  H   UNL A   1      42.860  30.410  34.403  1.00  0.00     0.167 HD
ATOM     65  C   UNL A   1      43.917  30.919  36.989  1.00  0.00     0.074 A 
ATOM     66  C   UNL A   1      44.048  31.409  38.347  1.00  0.00     0.031 C 
ATOM     67  C   UNL A   1      44.866  30.195  36.345  1.00  0.00     0.031 A 
BRANCH  54  68
ATOM     68  C   UNL A   1      43.344  28.589  30.568  1.00  0.00    -0.014 A 
ATOM     69  C   UNL A   1      44.075  29.214  29.541  1.00  0.00     0.010 A 
ATOM     70  C   UNL A   1      42.968  27.243  30.418  1.00  0.00     0.010 A 
ATOM     71  C   UNL A   1      44.382  28.521  28.367  1.00  0.00     0.020 A 
ATOM     72  C   UNL A   1      43.298  26.536  29.258  1.00  0.00     0.020 A 
ATOM     73  C   UNL A   1      43.987  27.186  28.231  1.00  0.00     0.054 A 
BRANCH  73  74
ATOM     74  S   UNL A   1      44.413  26.305  26.704  1.00  0.00     0.124 S 
ATOM     75  O   UNL A   1      43.743  27.117  25.691  1.00  0.00    -0.237 OA
ATOM     76  O   UNL A   1      45.872  26.367  26.693  1.00  0.00    -0.237 OA
ATOM     77  O   UNL A   1      43.851  24.971  26.906  1.00  0.00    -0.744 OA
ENDBRANCH  73  74
ENDBRANCH  54  68
BRANCH  55  78
ATOM     78  C   UNL A   1      40.358  33.408  38.813  1.00  0.00    -0.014 A 
ATOM     79  C   UNL A   1      40.556  34.792  38.960  1.00  0.00     0.010 A 
ATOM     80  C   UNL A   1      39.717  32.695  39.842  1.00  0.00     0.010 A 
ATOM     81  C   UNL A   1      40.141  35.447  40.124  1.00  0.00     0.020 A 
ATOM     82  C   UNL A   1      39.277  33.351  40.996  1.00  0.00     0.020 A 
ATOM     83  C   UNL A   1      39.503  34.722  41.134  1.00  0.00     0.054 A 
BRANCH  83  84
ATOM     84  S   UNL A   1      38.927  35.602  42.614  1.00  0.00     0.124 S 
ATOM     85  O   UNL A   1      39.283  36.983  42.302  1.00  0.00    -0.237 OA
ATOM     86  O   UNL A   1      37.498  35.303  42.625  1.00  0.00    -0.237 OA
ATOM     87  O   UNL A   1      39.693  34.986  43.695  1.00  0.00    -0.744 OA
ENDBRANCH  83  84
ENDBRANCH  55  78
BRANCH  67  88
ATOM     88  C   UNL A   1      46.148  29.927  37.085  1.00  0.00    -0.014 A 
ATOM     89  C   UNL A   1      46.312  28.771  37.869  1.00  0.00     0.010 A 
ATOM     90  C   UNL A   1      47.221  30.828  36.954  1.00  0.00     0.010 A 
ATOM     91  C   UNL A   1      47.515  28.541  38.542  1.00  0.00     0.020 A 
ATOM     92  C   UNL A   1      48.435  30.587  37.602  1.00  0.00     0.020 A 
ATOM     93  C   UNL A   1      48.567  29.453  38.407  1.00  0.00     0.054 A 
BRANCH  93  94
ATOM     94  S   UNL A   1      50.130  29.119  39.265  1.00  0.00     0.124 S 
ATOM     95  O   UNL A   1      50.136  30.153  40.296  1.00  0.00    -0.237 OA
ATOM     96  O   UNL A   1      49.948  27.752  39.746  1.00  0.00    -0.237 OA
ATOM     97  O   UNL A   1      51.138  29.275  38.220  1.00  0.00    -0.744 OA
ENDBRANCH  93  94
ENDBRANCH  67  88
ENDBRANCH  41  42
ENDBRANCH  33  36
ENDBRANCH  31  32
ENDBRANCH  30  31
ENDBRANCH  29  30
ENDBRANCH   1  29
TORSDOF 20
ENDMDL
MODEL 3
REMARK VINA RESULT:      -7.5      4.186      7.020
REMARK SMILES O=C(COc1ccc([N+](=O)[O-])cc1)Nc1ccc(C(=O)NCCCCNC(=O)c2ccc(-c3c4nc(c(-c5ccc(S(=O)(=O)[O-])cc5)c5ccc([nH]5)c(-c5ccc(S(=O)(=O)[O-])cc5)c5nc(c(-c6ccc(S(=O)(=O)[O-])cc6)c6ccc3[nH]6)C=C5)C=C4)cc2)c(O)c1
REMARK SMILES IDX 22 1 21 2 19 3 20 4 18 6 15 7 16 8 91 9 17 10 89 11 14 12
REMARK SMILES IDX 1 13 2 14 3 16 4 17 5 18 6 19 13 20 7 21 12 22 8 23 9 24
REMARK SMILES IDX 10 25 11 26 90 27 23 29 24 30 25 31 26 32 27 33 28 35 29 36
REMARK SMILES IDX 30 37 88 38 31 39 87 40 32 41 33 42 34 43 81 44 35 45 86 46
REMARK SMILES IDX 80 47 82 48 36 49 85 50 79 51 78 52 37 54 67 55 48 56 66 57
REMARK SMILES IDX 49 58 52 59 65 60 83 61 50 62 51 63 64 65 84 66 53 67 38 68
REMARK SMILES IDX 39 69 47 70 40 71 46 72 41 73 42 74 43 75 44 76 45 77 68 78
REMARK SMILES IDX 69 79 77 80 70 81 76 82 71 83 72 84 73 85 74 86 75 87 54 88
REMARK SMILES IDX 55 89 63 90 56 91 62 92 57 93 58 94 59 95 60 96 61 97
REMARK H PARENT 21 5 14 15 90 28 26 34 82 53 52 64
REMARK Flexibility Score: inf
ROOT
ATOM      1  C   UNL A   1      37.032  29.353  28.080  1.00  0.00     0.116 C 
ENDROOT
BRANCH   1   2
ATOM      2  N   UNL A   1      38.369  29.830  27.793  1.00  0.00    -0.352 N 
ATOM      3  C   UNL A   1      39.571  29.177  27.702  1.00  0.00     0.255 C 
ATOM      4  O   UNL A   1      40.567  29.871  27.475  1.00  0.00    -0.269 OA
ATOM      5  H   UNL A   1      38.424  30.801  27.634  1.00  0.00     0.163 HD
BRANCH   3   6
ATOM      6  C   UNL A   1      39.746  27.692  27.755  1.00  0.00     0.081 A 
ATOM      7  C   UNL A   1      40.171  24.896  27.537  1.00  0.00     0.045 A 
ATOM      8  C   UNL A   1      40.670  25.756  26.561  1.00  0.00     0.027 A 
ATOM      9  C   UNL A   1      39.535  25.437  28.647  1.00  0.00     0.073 A 
ATOM     10  C   UNL A   1      40.440  27.135  26.662  1.00  0.00     0.020 A 
ATOM     11  C   UNL A   1      39.352  26.817  28.771  1.00  0.00     0.130 A 
BRANCH   7  12
ATOM     12  N   UNL A   1      40.318  23.511  27.356  1.00  0.00    -0.323 N 
ATOM     13  O   UNL A   1      38.348  23.007  26.204  1.00  0.00    -0.271 OA
ATOM     14  C   UNL A   1      39.431  22.681  26.684  1.00  0.00     0.262 C 
ATOM     15  H   UNL A   1      41.121  23.090  27.740  1.00  0.00     0.170 HD
BRANCH  14  16
ATOM     16  C   UNL A   1      39.942  21.251  26.527  1.00  0.00     0.329 C 
BRANCH  16  17
ATOM     17  O   UNL A   1      41.138  20.944  27.233  1.00  0.00    -0.484 OA
BRANCH  17  18
ATOM     18  C   UNL A   1      42.149  20.432  26.466  1.00  0.00     0.120 A 
ATOM     19  C   UNL A   1      42.237  19.040  26.424  1.00  0.00     0.053 A 
ATOM     20  C   UNL A   1      43.139  21.215  25.866  1.00  0.00     0.053 A 
ATOM     21  C   UNL A   1      43.317  18.421  25.790  1.00  0.00     0.089 A 
ATOM     22  C   UNL A   1      44.236  20.607  25.249  1.00  0.00     0.089 A 
ATOM     23  C   UNL A   1      44.325  19.210  25.223  1.00  0.00     0.269 A 
BRANCH  23  24
ATOM     24  N   UNL A   1      45.504  18.570  24.628  1.00  0.00     0.062 N 
ATOM     25  O   UNL A   1      46.147  17.780  25.335  1.00  0.00    -0.258 OA
ATOM     26  O   UNL A   1      45.794  18.864  23.460  1.00  0.00    -0.258 OA
ENDBRANCH  23  24
ENDBRANCH  17  18
ENDBRANCH  16  17
ENDBRANCH  14  16
ENDBRANCH   7  12
BRANCH  11  27
ATOM     27  O   UNL A   1      38.831  27.244  29.954  1.00  0.00    -0.507 OA
ATOM     28  H   UNL A   1      37.903  27.260  30.078  1.00  0.00     0.293 HD
ENDBRANCH  11  27
ENDBRANCH   3   6
ENDBRANCH   1   2
BRANCH   1  29
ATOM     29  C   UNL A   1      36.256  30.393  28.896  1.00  0.00     0.023 C 
BRANCH  29  30
ATOM     30  C   UNL A   1      35.364  31.326  28.085  1.00  0.00     0.023 C 
BRANCH  30  31
ATOM     31  C   UNL A   1      35.600  32.803  28.346  1.00  0.00     0.116 C 
BRANCH  31  32
ATOM     32  N   UNL A   1      34.574  33.421  29.173  1.00  0.00    -0.352 N 
ATOM     33  C   UNL A   1      34.582  33.611  30.533  1.00  0.00     0.251 C 
ATOM     34  H   UNL A   1      33.773  33.742  28.698  1.00  0.00     0.163 HD
ATOM     35  O   UNL A   1      33.596  34.067  31.103  1.00  0.00    -0.269 OA
BRANCH  33  36
ATOM     36  C   UNL A   1      35.779  33.214  31.304  1.00  0.00     0.039 A 
ATOM     37  C   UNL A   1      35.735  32.042  32.060  1.00  0.00     0.014 A 
ATOM     38  C   UNL A   1      36.952  33.970  31.232  1.00  0.00     0.014 A 
ATOM     39  C   UNL A   1      36.893  31.597  32.701  1.00  0.00     0.010 A 
ATOM     40  C   UNL A   1      38.122  33.480  31.798  1.00  0.00     0.010 A 
ATOM     41  C   UNL A   1      38.101  32.297  32.550  1.00  0.00    -0.014 A 
BRANCH  41  42
ATOM     42  C   UNL A   1      39.347  31.825  33.200  1.00  0.00     0.031 A 
ATOM     43  C   UNL A   1      39.689  32.296  34.588  1.00  0.00     0.074 A 
ATOM     44  C   UNL A   1      40.193  31.023  32.524  1.00  0.00     0.049 A 
ATOM     45  N   UNL A   1      40.744  32.026  35.313  1.00  0.00    -0.248 NA
ATOM     46  C   UNL A   1      38.736  33.213  35.234  1.00  0.00     0.031 C 
ATOM     47  C   UNL A   1      39.998  30.546  31.152  1.00  0.00     0.029 A 
ATOM     48  N   UNL A   1      41.390  30.468  32.901  1.00  0.00    -0.354 N 
ATOM     49  C   UNL A   1      40.590  32.754  36.487  1.00  0.00     0.074 A 
ATOM     50  C   UNL A   1      39.372  33.521  36.355  1.00  0.00     0.031 C 
ATOM     51  C   UNL A   1      41.022  29.743  30.816  1.00  0.00     0.029 A 
ATOM     52  C   UNL A   1      41.960  29.676  31.933  1.00  0.00     0.049 A 
ATOM     53  H   UNL A   1      41.802  30.623  33.781  1.00  0.00     0.167 HD
ATOM     54  C   UNL A   1      41.377  32.764  37.588  1.00  0.00     0.031 A 
ATOM     55  C   UNL A   1      43.107  28.969  31.948  1.00  0.00     0.031 A 
ATOM     56  C   UNL A   1      42.575  31.981  37.724  1.00  0.00     0.049 A 
ATOM     57  C   UNL A   1      43.951  28.973  33.193  1.00  0.00     0.074 A 
ATOM     58  C   UNL A   1      43.415  31.875  38.819  1.00  0.00     0.029 A 
ATOM     59  N   UNL A   1      43.102  31.167  36.734  1.00  0.00    -0.354 N 
ATOM     60  N   UNL A   1      43.755  29.616  34.319  1.00  0.00    -0.248 NA
ATOM     61  C   UNL A   1      45.161  28.139  33.175  1.00  0.00     0.031 C 
ATOM     62  C   UNL A   1      44.471  31.024  38.476  1.00  0.00     0.029 A 
ATOM     63  C   UNL A   1      44.261  30.561  37.187  1.00  0.00     0.049 A 
ATOM     64  H   UNL A   1      42.709  31.037  35.840  1.00  0.00     0.167 HD
ATOM     65  C   UNL A   1      44.799  29.240  35.156  1.00  0.00     0.074 A 
ATOM     66  C   UNL A   1      45.617  28.305  34.409  1.00  0.00     0.031 C 
ATOM     67  C   UNL A   1      45.058  29.631  36.429  1.00  0.00     0.031 A 
BRANCH  54  68
ATOM     68  C   UNL A   1      40.957  33.650  38.731  1.00  0.00    -0.014 A 
ATOM     69  C   UNL A   1      40.125  33.166  39.756  1.00  0.00     0.010 A 
ATOM     70  C   UNL A   1      41.418  34.978  38.793  1.00  0.00     0.010 A 
ATOM     71  C   UNL A   1      39.721  34.006  40.798  1.00  0.00     0.020 A 
ATOM     72  C   UNL A   1      41.041  35.813  39.849  1.00  0.00     0.020 A 
ATOM     73  C   UNL A   1      40.179  35.327  40.835  1.00  0.00     0.054 A 
BRANCH  73  74
ATOM     74  S   UNL A   1      39.654  36.391  42.206  1.00  0.00     0.124 S 
ATOM     75  O   UNL A   1      40.852  36.418  43.042  1.00  0.00    -0.237 OA
ATOM     76  O   UNL A   1      39.331  37.646  41.533  1.00  0.00    -0.237 OA
ATOM     77  O   UNL A   1      38.511  35.682  42.777  1.00  0.00    -0.744 OA
ENDBRANCH  73  74
ENDBRANCH  54  68
BRANCH  55  78
ATOM     78  C   UNL A   1      43.501  28.167  30.757  1.00  0.00    -0.014 A 
ATOM     79  C   UNL A   1      44.341  28.717  29.774  1.00  0.00     0.010 A 
ATOM     80  C   UNL A   1      43.051  26.842  30.609  1.00  0.00     0.010 A 
ATOM     81  C   UNL A   1      44.707  27.966  28.653  1.00  0.00     0.020 A 
ATOM     82  C   UNL A   1      43.435  26.079  29.502  1.00  0.00     0.020 A 
ATOM     83  C   UNL A   1      44.252  26.651  28.525  1.00  0.00     0.054 A 
BRANCH  83  84
ATOM     84  S   UNL A   1      44.780  25.677  27.086  1.00  0.00     0.124 S 
ATOM     85  O   UNL A   1      44.475  26.581  25.981  1.00  0.00    -0.237 OA
ATOM     86  O   UNL A   1      46.199  25.461  27.354  1.00  0.00    -0.237 OA
ATOM     87  O   UNL A   1      43.950  24.477  27.164  1.00  0.00    -0.744 OA
ENDBRANCH  83  84
ENDBRANCH  55  78
BRANCH  67  88
ATOM     88  C   UNL A   1      46.250  29.014  37.110  1.00  0.00    -0.014 A 
ATOM     89  C   UNL A   1      46.204  27.706  37.620  1.00  0.00     0.010 A 
ATOM     90  C   UNL A   1      47.449  29.746  37.198  1.00  0.00     0.010 A 
ATOM     91  C   UNL A   1      47.326  27.153  38.244  1.00  0.00     0.020 A 
ATOM     92  C   UNL A   1      48.580  29.186  37.795  1.00  0.00     0.020 A 
ATOM     93  C   UNL A   1      48.506  27.899  38.331  1.00  0.00     0.054 A 
BRANCH  93  94
ATOM     94  S   UNL A   1      49.958  27.150  39.117  1.00  0.00     0.124 S 
ATOM     95  O   UNL A   1      51.056  27.812  38.417  1.00  0.00    -0.237 OA
ATOM     96  O   UNL A   1      49.793  27.521  40.520  1.00  0.00    -0.237 OA
ATOM     97  O   UNL A   1      49.808  25.725  38.835  1.00  0.00    -0.744 OA
ENDBRANCH  93  94
ENDBRANCH  67  88
ENDBRANCH  41  42
ENDBRANCH  33  36
ENDBRANCH  31  32
ENDBRANCH  30  31
ENDBRANCH  29  30
ENDBRANCH   1  29
TORSDOF 20
ENDMDL
