MODEL 1
REMARK VINA RESULT:     -13.3      0.000      0.000
REMARK SMILES Cc1c(CC(=O)NCCCCNC(=O)c2ccc(-c3c4nc(c(-c5ccc(S(=O)(=O)[O-])cc5)c5ccc([nH]5)c(-c5ccc(S(=O)(=O)[O-])cc5)c5nc(c(-c6ccc(S(=O)(=O)[O-])cc6)c6ccc3[nH]6)C=C5)C=C4)cc2)cccc1-c1ccn(C(F)F)c(=O)c1
REMARK SMILES IDX 9 1 8 2 7 3 5 4 6 5 4 7 3 8 1 9 2 10 78 11 75 12 77 13 76 14
REMARK SMILES IDX 79 15 80 16 88 17 81 18 86 19 82 20 87 21 83 22 84 23 85 24
REMARK SMILES IDX 10 25 11 26 12 27 13 28 14 30 15 31 16 32 74 33 17 34 73 35
REMARK SMILES IDX 18 36 19 37 20 38 67 39 21 40 72 41 66 42 68 43 22 44 71 45
REMARK SMILES IDX 65 46 64 47 23 49 53 50 34 51 52 52 35 53 38 54 51 55 69 56
REMARK SMILES IDX 36 57 37 58 50 60 70 61 39 62 24 63 25 64 33 65 26 66 32 67
REMARK SMILES IDX 27 68 28 69 29 70 30 71 31 72 54 73 55 74 63 75 56 76 62 77
REMARK SMILES IDX 57 78 58 79 59 80 60 81 61 82 40 83 41 84 49 85 42 86 48 87
REMARK SMILES IDX 43 88 44 89 45 90 46 91 47 92
REMARK H PARENT 7 6 12 29 68 48 38 59
REMARK Flexibility Score: inf
ROOT
ATOM      1  C   UNL A   1      32.884  29.314  25.332  1.00  0.00     0.023 C 
ENDROOT
BRANCH   1   2
ATOM      2  C   UNL A   1      33.227  29.062  23.855  1.00  0.00     0.116 C 
BRANCH   2   3
ATOM      3  N   UNL A   1      32.419  28.019  23.239  1.00  0.00    -0.356 N 
ATOM      4  C   UNL A   1      32.607  26.668  23.215  1.00  0.00     0.224 C 
ATOM      5  O   UNL A   1      31.781  25.967  22.625  1.00  0.00    -0.275 OA
ATOM      6  H   UNL A   1      31.614  28.338  22.769  1.00  0.00     0.163 HD
BRANCH   4   7
ATOM      7  C   UNL A   1      33.815  26.045  23.904  1.00  0.00     0.135 C 
BRANCH   7   8
ATOM      8  C   UNL A   1      33.459  24.812  24.717  1.00  0.00    -0.035 A 
ATOM      9  C   UNL A   1      34.870  23.238  23.274  1.00  0.00     0.045 C 
ATOM     10  C   UNL A   1      33.865  23.498  24.374  1.00  0.00    -0.040 A 
ATOM     11  C   UNL A   1      33.339  22.409  25.120  1.00  0.00    -0.015 A 
ATOM     12  C   UNL A   1      32.625  25.009  25.838  1.00  0.00     0.004 A 
ATOM     13  C   UNL A   1      32.491  22.644  26.217  1.00  0.00     0.009 A 
ATOM     14  C   UNL A   1      32.147  23.938  26.582  1.00  0.00     0.001 A 
BRANCH  11  15
ATOM     15  C   UNL A   1      33.589  21.000  24.743  1.00  0.00    -0.011 A 
ATOM     16  C   UNL A   1      32.584  20.141  24.147  1.00  0.00     0.027 A 
ATOM     17  C   UNL A   1      34.803  20.491  25.024  1.00  0.00     0.080 A 
ATOM     18  C   UNL A   1      32.835  18.840  23.958  1.00  0.00     0.095 A 
ATOM     19  C   UNL A   1      35.130  19.074  24.709  1.00  0.00     0.255 A 
ATOM     20  N   UNL A   1      34.071  18.300  24.261  1.00  0.00    -0.258 N 
ATOM     21  O   UNL A   1      36.287  18.693  24.838  1.00  0.00    -0.269 OA
BRANCH  20  22
ATOM     22  C   UNL A   1      34.334  16.899  24.057  1.00  0.00     0.451 C 
ATOM     23  F   UNL A   1      34.397  16.238  25.239  1.00  0.00    -0.185 F 
ATOM     24  F   UNL A   1      33.384  16.313  23.293  1.00  0.00    -0.185 F 
ENDBRANCH  20  22
ENDBRANCH  11  15
ENDBRANCH   7   8
ENDBRANCH   4   7
ENDBRANCH   2   3
ENDBRANCH   1   2
BRANCH   1  25
ATOM     25  C   UNL A   1      34.057  29.180  26.309  1.00  0.00     0.023 C 
BRANCH  25  26
ATOM     26  C   UNL A   1      33.772  29.776  27.682  1.00  0.00     0.116 C 
BRANCH  26  27
ATOM     27  N   UNL A   1      34.545  30.964  27.991  1.00  0.00    -0.352 N 
ATOM     28  C   UNL A   1      35.571  30.976  28.925  1.00  0.00     0.251 C 
ATOM     29  H   UNL A   1      34.332  31.800  27.516  1.00  0.00     0.163 HD
ATOM     30  O   UNL A   1      35.698  31.836  29.780  1.00  0.00    -0.269 OA
BRANCH  28  31
ATOM     31  C   UNL A   1      36.581  29.904  28.754  1.00  0.00     0.039 A 
ATOM     32  C   UNL A   1      36.953  29.156  29.874  1.00  0.00     0.014 A 
ATOM     33  C   UNL A   1      37.294  29.803  27.560  1.00  0.00     0.014 A 
ATOM     34  C   UNL A   1      38.108  28.369  29.820  1.00  0.00     0.010 A 
ATOM     35  C   UNL A   1      38.483  29.072  27.540  1.00  0.00     0.010 A 
ATOM     36  C   UNL A   1      38.928  28.378  28.679  1.00  0.00    -0.014 A 
BRANCH  36  37
ATOM     37  C   UNL A   1      40.313  27.859  28.699  1.00  0.00     0.031 A 
ATOM     38  C   UNL A   1      40.702  26.486  28.225  1.00  0.00     0.074 A 
ATOM     39  C   UNL A   1      41.336  28.574  29.235  1.00  0.00     0.049 A 
ATOM     40  N   UNL A   1      41.622  25.770  28.813  1.00  0.00    -0.248 NA
ATOM     41  C   UNL A   1      40.106  25.815  27.070  1.00  0.00     0.031 C 
ATOM     42  C   UNL A   1      42.759  28.282  29.049  1.00  0.00     0.029 A 
ATOM     43  N   UNL A   1      41.333  29.554  30.228  1.00  0.00    -0.354 N 
ATOM     44  C   UNL A   1      41.909  24.706  27.990  1.00  0.00     0.074 A 
ATOM     45  C   UNL A   1      40.889  24.734  26.959  1.00  0.00     0.031 C 
ATOM     46  C   UNL A   1      43.440  28.775  30.092  1.00  0.00     0.029 A 
ATOM     47  C   UNL A   1      42.484  29.361  31.013  1.00  0.00     0.049 A 
ATOM     48  H   UNL A   1      40.650  30.251  30.356  1.00  0.00     0.167 HD
ATOM     49  C   UNL A   1      43.044  23.959  28.107  1.00  0.00     0.031 A 
ATOM     50  C   UNL A   1      42.547  29.327  32.373  1.00  0.00     0.031 A 
ATOM     51  C   UNL A   1      44.013  24.434  29.085  1.00  0.00     0.049 A 
ATOM     52  C   UNL A   1      43.346  28.187  32.955  1.00  0.00     0.074 A 
ATOM     53  C   UNL A   1      45.203  25.134  28.955  1.00  0.00     0.029 A 
ATOM     54  N   UNL A   1      43.767  24.335  30.445  1.00  0.00    -0.354 N 
ATOM     55  N   UNL A   1      43.858  27.224  32.249  1.00  0.00    -0.248 NA
ATOM     56  C   UNL A   1      43.519  27.975  34.393  1.00  0.00     0.031 C 
ATOM     57  C   UNL A   1      45.694  25.433  30.246  1.00  0.00     0.029 A 
ATOM     58  C   UNL A   1      44.781  24.946  31.161  1.00  0.00     0.049 A 
ATOM     59  H   UNL A   1      42.983  23.893  30.845  1.00  0.00     0.167 HD
ATOM     60  C   UNL A   1      44.302  26.236  33.091  1.00  0.00     0.074 A 
ATOM     61  C   UNL A   1      44.132  26.779  34.422  1.00  0.00     0.031 C 
ATOM     62  C   UNL A   1      44.717  25.029  32.610  1.00  0.00     0.031 A 
BRANCH  49  63
ATOM     63  C   UNL A   1      43.392  22.944  27.046  1.00  0.00    -0.014 A 
ATOM     64  C   UNL A   1      42.697  21.718  26.990  1.00  0.00     0.010 A 
ATOM     65  C   UNL A   1      44.450  23.138  26.132  1.00  0.00     0.010 A 
ATOM     66  C   UNL A   1      43.126  20.674  26.167  1.00  0.00     0.020 A 
ATOM     67  C   UNL A   1      44.905  22.089  25.316  1.00  0.00     0.020 A 
ATOM     68  C   UNL A   1      44.253  20.852  25.365  1.00  0.00     0.054 A 
BRANCH  68  69
ATOM     69  S   UNL A   1      44.927  19.402  24.503  1.00  0.00     0.124 S 
ATOM     70  O   UNL A   1      44.236  18.290  25.157  1.00  0.00    -0.237 OA
ATOM     71  O   UNL A   1      44.538  19.652  23.119  1.00  0.00    -0.237 OA
ATOM     72  O   UNL A   1      46.360  19.475  24.778  1.00  0.00    -0.744 OA
ENDBRANCH  68  69
ENDBRANCH  49  63
BRANCH  50  73
ATOM     73  C   UNL A   1      41.412  29.967  33.073  1.00  0.00    -0.014 A 
ATOM     74  C   UNL A   1      41.284  31.367  32.983  1.00  0.00     0.010 A 
ATOM     75  C   UNL A   1      40.315  29.194  33.490  1.00  0.00     0.010 A 
ATOM     76  C   UNL A   1      40.037  31.966  33.154  1.00  0.00     0.020 A 
ATOM     77  C   UNL A   1      39.065  29.794  33.667  1.00  0.00     0.020 A 
ATOM     78  C   UNL A   1      38.926  31.166  33.434  1.00  0.00     0.054 A 
BRANCH  78  79
ATOM     79  S   UNL A   1      37.274  31.907  33.265  1.00  0.00     0.124 S 
ATOM     80  O   UNL A   1      36.493  30.798  32.729  1.00  0.00    -0.237 OA
ATOM     81  O   UNL A   1      36.983  32.294  34.645  1.00  0.00    -0.237 OA
ATOM     82  O   UNL A   1      37.499  33.022  32.350  1.00  0.00    -0.744 OA
ENDBRANCH  78  79
ENDBRANCH  50  73
BRANCH  62  83
ATOM     83  C   UNL A   1      45.149  23.848  33.438  1.00  0.00    -0.014 A 
ATOM     84  C   UNL A   1      46.438  23.711  33.985  1.00  0.00     0.010 A 
ATOM     85  C   UNL A   1      44.186  22.866  33.781  1.00  0.00     0.010 A 
ATOM     86  C   UNL A   1      46.767  22.612  34.796  1.00  0.00     0.020 A 
ATOM     87  C   UNL A   1      44.496  21.784  34.611  1.00  0.00     0.020 A 
ATOM     88  C   UNL A   1      45.795  21.656  35.100  1.00  0.00     0.054 A 
BRANCH  88  89
ATOM     89  S   UNL A   1      46.181  20.268  36.206  1.00  0.00     0.124 S 
ATOM     90  O   UNL A   1      45.362  19.195  35.650  1.00  0.00    -0.237 OA
ATOM     91  O   UNL A   1      47.624  20.097  36.045  1.00  0.00    -0.237 OA
ATOM     92  O   UNL A   1      45.764  20.764  37.515  1.00  0.00    -0.744 OA
ENDBRANCH  88  89
ENDBRANCH  62  83
ENDBRANCH  36  37
ENDBRANCH  28  31
ENDBRANCH  26  27
ENDBRANCH  25  26
ENDBRANCH   1  25
TORSDOF 17
ENDMDL
MODEL 2
REMARK VINA RESULT:     -13.2      1.578      2.148
REMARK SMILES Cc1c(CC(=O)NCCCCNC(=O)c2ccc(-c3c4nc(c(-c5ccc(S(=O)(=O)[O-])cc5)c5ccc([nH]5)c(-c5ccc(S(=O)(=O)[O-])cc5)c5nc(c(-c6ccc(S(=O)(=O)[O-])cc6)c6ccc3[nH]6)C=C5)C=C4)cc2)cccc1-c1ccn(C(F)F)c(=O)c1
REMARK SMILES IDX 9 1 8 2 7 3 5 4 6 5 4 7 3 8 1 9 2 10 78 11 75 12 77 13 76 14
REMARK SMILES IDX 79 15 80 16 88 17 81 18 86 19 82 20 87 21 83 22 84 23 85 24
REMARK SMILES IDX 10 25 11 26 12 27 13 28 14 30 15 31 16 32 74 33 17 34 73 35
REMARK SMILES IDX 18 36 19 37 20 38 67 39 21 40 72 41 66 42 68 43 22 44 71 45
REMARK SMILES IDX 65 46 64 47 23 49 53 50 34 51 52 52 35 53 38 54 51 55 69 56
REMARK SMILES IDX 36 57 37 58 50 60 70 61 39 62 24 63 25 64 33 65 26 66 32 67
REMARK SMILES IDX 27 68 28 69 29 70 30 71 31 72 54 73 55 74 63 75 56 76 62 77
REMARK SMILES IDX 57 78 58 79 59 80 60 81 61 82 40 83 41 84 49 85 42 86 48 87
REMARK SMILES IDX 43 88 44 89 45 90 46 91 47 92
REMARK H PARENT 7 6 12 29 68 48 38 59
REMARK Flexibility Score: inf
ROOT
ATOM      1  C   UNL A   1      31.836  29.207  26.077  1.00  0.00     0.023 C 
ENDROOT
BRANCH   1   2
ATOM      2  C   UNL A   1      31.883  29.629  24.600  1.00  0.00     0.116 C 
BRANCH   2   3
ATOM      3  N   UNL A   1      30.574  29.661  23.962  1.00  0.00    -0.356 N 
ATOM      4  C   UNL A   1      29.994  28.765  23.113  1.00  0.00     0.224 C 
ATOM      5  O   UNL A   1      28.859  29.000  22.690  1.00  0.00    -0.275 OA
ATOM      6  H   UNL A   1      30.024  30.449  24.177  1.00  0.00     0.163 HD
BRANCH   4   7
ATOM      7  C   UNL A   1      30.738  27.501  22.699  1.00  0.00     0.135 C 
BRANCH   7   8
ATOM      8  C   UNL A   1      31.053  26.590  23.873  1.00  0.00    -0.035 A 
ATOM      9  C   UNL A   1      33.485  26.224  23.162  1.00  0.00     0.045 C 
ATOM     10  C   UNL A   1      32.291  25.920  24.041  1.00  0.00    -0.040 A 
ATOM     11  C   UNL A   1      32.412  24.972  25.092  1.00  0.00    -0.015 A 
ATOM     12  C   UNL A   1      30.015  26.370  24.802  1.00  0.00     0.004 A 
ATOM     13  C   UNL A   1      31.346  24.762  25.985  1.00  0.00     0.009 A 
ATOM     14  C   UNL A   1      30.159  25.468  25.849  1.00  0.00     0.001 A 
BRANCH  11  15
ATOM     15  C   UNL A   1      33.612  24.120  25.252  1.00  0.00    -0.011 A 
ATOM     16  C   UNL A   1      34.896  24.621  25.701  1.00  0.00     0.027 A 
ATOM     17  C   UNL A   1      33.498  22.823  24.908  1.00  0.00     0.080 A 
ATOM     18  C   UNL A   1      35.971  23.825  25.691  1.00  0.00     0.095 A 
ATOM     19  C   UNL A   1      34.661  21.901  25.006  1.00  0.00     0.255 A 
ATOM     20  N   UNL A   1      35.873  22.496  25.321  1.00  0.00    -0.258 N 
ATOM     21  O   UNL A   1      34.480  20.703  24.830  1.00  0.00    -0.269 OA
BRANCH  20  22
ATOM     22  C   UNL A   1      37.034  21.645  25.311  1.00  0.00     0.451 C 
ATOM     23  F   UNL A   1      37.428  21.374  24.043  1.00  0.00    -0.185 F 
ATOM     24  F   UNL A   1      38.075  22.204  25.970  1.00  0.00    -0.185 F 
ENDBRANCH  20  22
ENDBRANCH  11  15
ENDBRANCH   7   8
ENDBRANCH   4   7
ENDBRANCH   2   3
ENDBRANCH   1   2
BRANCH   1  25
ATOM     25  C   UNL A   1      32.405  30.228  27.069  1.00  0.00     0.023 C 
BRANCH  25  26
ATOM     26  C   UNL A   1      33.841  29.935  27.483  1.00  0.00     0.116 C 
BRANCH  26  27
ATOM     27  N   UNL A   1      34.621  31.111  27.817  1.00  0.00    -0.352 N 
ATOM     28  C   UNL A   1      35.630  31.103  28.770  1.00  0.00     0.251 C 
ATOM     29  H   UNL A   1      34.427  31.953  27.344  1.00  0.00     0.163 HD
ATOM     30  O   UNL A   1      35.751  31.955  29.634  1.00  0.00    -0.269 OA
BRANCH  28  31
ATOM     31  C   UNL A   1      36.629  30.020  28.610  1.00  0.00     0.039 A 
ATOM     32  C   UNL A   1      36.990  29.277  29.736  1.00  0.00     0.014 A 
ATOM     33  C   UNL A   1      37.345  29.904  27.419  1.00  0.00     0.014 A 
ATOM     34  C   UNL A   1      38.138  28.478  29.692  1.00  0.00     0.010 A 
ATOM     35  C   UNL A   1      38.527  29.162  27.407  1.00  0.00     0.010 A 
ATOM     36  C   UNL A   1      38.961  28.471  28.554  1.00  0.00    -0.014 A 
BRANCH  36  37
ATOM     37  C   UNL A   1      40.341  27.939  28.581  1.00  0.00     0.031 A 
ATOM     38  C   UNL A   1      40.718  26.556  28.125  1.00  0.00     0.074 A 
ATOM     39  C   UNL A   1      41.371  28.650  29.110  1.00  0.00     0.049 A 
ATOM     40  N   UNL A   1      41.630  25.838  28.722  1.00  0.00    -0.248 NA
ATOM     41  C   UNL A   1      40.117  25.877  26.977  1.00  0.00     0.031 C 
ATOM     42  C   UNL A   1      42.791  28.342  28.930  1.00  0.00     0.029 A 
ATOM     43  N   UNL A   1      41.377  29.643  30.091  1.00  0.00    -0.354 N 
ATOM     44  C   UNL A   1      41.907  24.762  27.913  1.00  0.00     0.074 A 
ATOM     45  C   UNL A   1      40.889  24.787  26.881  1.00  0.00     0.031 C 
ATOM     46  C   UNL A   1      43.475  28.841  29.967  1.00  0.00     0.029 A 
ATOM     47  C   UNL A   1      42.524  29.448  30.880  1.00  0.00     0.049 A 
ATOM     48  H   UNL A   1      40.700  30.348  30.209  1.00  0.00     0.167 HD
ATOM     49  C   UNL A   1      43.035  24.005  28.041  1.00  0.00     0.031 A 
ATOM     50  C   UNL A   1      42.586  29.430  32.240  1.00  0.00     0.031 A 
ATOM     51  C   UNL A   1      44.007  24.483  29.014  1.00  0.00     0.049 A 
ATOM     52  C   UNL A   1      43.372  28.290  32.837  1.00  0.00     0.074 A 
ATOM     53  C   UNL A   1      45.204  25.169  28.877  1.00  0.00     0.029 A 
ATOM     54  N   UNL A   1      43.758  24.404  30.376  1.00  0.00    -0.354 N 
ATOM     55  N   UNL A   1      43.876  27.314  32.143  1.00  0.00    -0.248 NA
ATOM     56  C   UNL A   1      43.542  28.094  34.278  1.00  0.00     0.031 C 
ATOM     57  C   UNL A   1      45.697  25.480  30.165  1.00  0.00     0.029 A 
ATOM     58  C   UNL A   1      44.778  25.013  31.085  1.00  0.00     0.049 A 
ATOM     59  H   UNL A   1      42.970  23.974  30.779  1.00  0.00     0.167 HD
ATOM     60  C   UNL A   1      44.309  26.331  32.998  1.00  0.00     0.074 A 
ATOM     61  C   UNL A   1      44.143  26.893  34.322  1.00  0.00     0.031 C 
ATOM     62  C   UNL A   1      44.713  25.115  32.533  1.00  0.00     0.031 A 
BRANCH  49  63
ATOM     63  C   UNL A   1      43.374  22.974  26.993  1.00  0.00    -0.014 A 
ATOM     64  C   UNL A   1      42.698  21.736  26.980  1.00  0.00     0.010 A 
ATOM     65  C   UNL A   1      44.407  23.166  26.050  1.00  0.00     0.010 A 
ATOM     66  C   UNL A   1      43.125  20.682  26.168  1.00  0.00     0.020 A 
ATOM     67  C   UNL A   1      44.860  22.107  25.246  1.00  0.00     0.020 A 
ATOM     68  C   UNL A   1      44.229  20.861  25.336  1.00  0.00     0.054 A 
BRANCH  68  69
ATOM     69  S   UNL A   1      44.906  19.404  24.488  1.00  0.00     0.124 S 
ATOM     70  O   UNL A   1      44.601  19.679  23.084  1.00  0.00    -0.237 OA
ATOM     71  O   UNL A   1      46.319  19.463  24.844  1.00  0.00    -0.237 OA
ATOM     72  O   UNL A   1      44.155  18.292  25.067  1.00  0.00    -0.744 OA
ENDBRANCH  68  69
ENDBRANCH  49  63
BRANCH  50  73
ATOM     73  C   UNL A   1      41.456  30.090  32.931  1.00  0.00    -0.014 A 
ATOM     74  C   UNL A   1      41.518  31.485  33.116  1.00  0.00     0.010 A 
ATOM     75  C   UNL A   1      40.225  29.425  33.060  1.00  0.00     0.010 A 
ATOM     76  C   UNL A   1      40.344  32.222  33.271  1.00  0.00     0.020 A 
ATOM     77  C   UNL A   1      39.047  30.162  33.221  1.00  0.00     0.020 A 
ATOM     78  C   UNL A   1      39.115  31.558  33.261  1.00  0.00     0.054 A 
BRANCH  78  79
ATOM     79  S   UNL A   1      37.606  32.557  33.071  1.00  0.00     0.124 S 
ATOM     80  O   UNL A   1      37.839  33.225  31.796  1.00  0.00    -0.237 OA
ATOM     81  O   UNL A   1      36.568  31.526  33.080  1.00  0.00    -0.237 OA
ATOM     82  O   UNL A   1      37.624  33.418  34.249  1.00  0.00    -0.744 OA
ENDBRANCH  78  79
ENDBRANCH  50  73
BRANCH  62  83
ATOM     83  C   UNL A   1      45.133  23.940  33.376  1.00  0.00    -0.014 A 
ATOM     84  C   UNL A   1      46.322  23.905  34.127  1.00  0.00     0.010 A 
ATOM     85  C   UNL A   1      44.241  22.846  33.515  1.00  0.00     0.010 A 
ATOM     86  C   UNL A   1      46.634  22.803  34.938  1.00  0.00     0.020 A 
ATOM     87  C   UNL A   1      44.529  21.756  34.342  1.00  0.00     0.020 A 
ATOM     88  C   UNL A   1      45.737  21.736  35.038  1.00  0.00     0.054 A 
BRANCH  88  89
ATOM     89  S   UNL A   1      46.089  20.335  36.139  1.00  0.00     0.124 S 
ATOM     90  O   UNL A   1      45.192  19.306  35.622  1.00  0.00    -0.237 OA
ATOM     91  O   UNL A   1      47.514  20.084  35.925  1.00  0.00    -0.237 OA
ATOM     92  O   UNL A   1      45.750  20.860  37.459  1.00  0.00    -0.744 OA
ENDBRANCH  88  89
ENDBRANCH  62  83
ENDBRANCH  36  37
ENDBRANCH  28  31
ENDBRANCH  26  27
ENDBRANCH  25  26
ENDBRANCH   1  25
TORSDOF 17
ENDMDL
MODEL 3
REMARK VINA RESULT:     -13.1      5.336     11.727
REMARK SMILES Cc1c(CC(=O)NCCCCNC(=O)c2ccc(-c3c4nc(c(-c5ccc(S(=O)(=O)[O-])cc5)c5ccc([nH]5)c(-c5ccc(S(=O)(=O)[O-])cc5)c5nc(c(-c6ccc(S(=O)(=O)[O-])cc6)c6ccc3[nH]6)C=C5)C=C4)cc2)cccc1-c1ccn(C(F)F)c(=O)c1
REMARK SMILES IDX 9 1 8 2 7 3 5 4 6 5 4 7 3 8 1 9 2 10 78 11 75 12 77 13 76 14
REMARK SMILES IDX 79 15 80 16 88 17 81 18 86 19 82 20 87 21 83 22 84 23 85 24
REMARK SMILES IDX 10 25 11 26 12 27 13 28 14 30 15 31 16 32 74 33 17 34 73 35
REMARK SMILES IDX 18 36 19 37 20 38 67 39 21 40 72 41 66 42 68 43 22 44 71 45
REMARK SMILES IDX 65 46 64 47 23 49 53 50 34 51 52 52 35 53 38 54 51 55 69 56
REMARK SMILES IDX 36 57 37 58 50 60 70 61 39 62 24 63 25 64 33 65 26 66 32 67
REMARK SMILES IDX 27 68 28 69 29 70 30 71 31 72 54 73 55 74 63 75 56 76 62 77
REMARK SMILES IDX 57 78 58 79 59 80 60 81 61 82 40 83 41 84 49 85 42 86 48 87
REMARK SMILES IDX 43 88 44 89 45 90 46 91 47 92
REMARK H PARENT 7 6 12 29 68 48 38 59
REMARK Flexibility Score: inf
ROOT
ATOM      1  C   UNL A   1      36.121  21.302  25.729  1.00  0.00     0.023 C 
ENDROOT
BRANCH   1   2
ATOM      2  C   UNL A   1      34.809  21.867  25.162  1.00  0.00     0.116 C 
BRANCH   2   3
ATOM      3  N   UNL A   1      35.007  22.876  24.132  1.00  0.00    -0.356 N 
ATOM      4  C   UNL A   1      34.121  23.392  23.232  1.00  0.00     0.224 C 
ATOM      5  O   UNL A   1      34.516  24.251  22.440  1.00  0.00    -0.275 OA
ATOM      6  H   UNL A   1      35.920  23.242  24.076  1.00  0.00     0.163 HD
BRANCH   4   7
ATOM      7  C   UNL A   1      32.675  22.911  23.210  1.00  0.00     0.135 C 
BRANCH   7   8
ATOM      8  C   UNL A   1      31.737  23.830  23.973  1.00  0.00    -0.035 A 
ATOM      9  C   UNL A   1      31.589  25.541  22.076  1.00  0.00     0.045 C 
ATOM     10  C   UNL A   1      31.308  25.092  23.492  1.00  0.00    -0.040 A 
ATOM     11  C   UNL A   1      30.559  25.931  24.362  1.00  0.00    -0.015 A 
ATOM     12  C   UNL A   1      31.332  23.403  25.256  1.00  0.00     0.004 A 
ATOM     13  C   UNL A   1      30.196  25.480  25.643  1.00  0.00     0.009 A 
ATOM     14  C   UNL A   1      30.568  24.217  26.082  1.00  0.00     0.001 A 
BRANCH  11  15
ATOM     15  C   UNL A   1      30.197  27.320  24.002  1.00  0.00    -0.011 A 
ATOM     16  C   UNL A   1      31.042  28.465  24.279  1.00  0.00     0.027 A 
ATOM     17  C   UNL A   1      28.992  27.517  23.435  1.00  0.00     0.080 A 
ATOM     18  C   UNL A   1      30.595  29.705  24.052  1.00  0.00     0.095 A 
ATOM     19  C   UNL A   1      28.533  28.884  23.070  1.00  0.00     0.255 A 
ATOM     20  N   UNL A   1      29.350  29.922  23.489  1.00  0.00    -0.258 N 
ATOM     21  O   UNL A   1      27.502  29.006  22.421  1.00  0.00    -0.269 OA
BRANCH  20  22
ATOM     22  C   UNL A   1      28.874  31.259  23.248  1.00  0.00     0.451 C 
ATOM     23  F   UNL A   1      29.313  32.112  24.206  1.00  0.00    -0.185 F 
ATOM     24  F   UNL A   1      29.273  31.729  22.045  1.00  0.00    -0.185 F 
ENDBRANCH  20  22
ENDBRANCH  11  15
ENDBRANCH   7   8
ENDBRANCH   4   7
ENDBRANCH   2   3
ENDBRANCH   1   2
BRANCH   1  25
ATOM     25  C   UNL A   1      37.400  21.823  25.064  1.00  0.00     0.023 C 
BRANCH  25  26
ATOM     26  C   UNL A   1      38.022  23.007  25.792  1.00  0.00     0.116 C 
BRANCH  26  27
ATOM     27  N   UNL A   1      39.123  22.661  26.671  1.00  0.00    -0.352 N 
ATOM     28  C   UNL A   1      40.146  23.545  26.984  1.00  0.00     0.251 C 
ATOM     29  H   UNL A   1      39.143  21.758  27.064  1.00  0.00     0.163 HD
ATOM     30  O   UNL A   1      41.328  23.246  26.962  1.00  0.00    -0.269 OA
BRANCH  28  31
ATOM     31  C   UNL A   1      39.696  24.878  27.450  1.00  0.00     0.039 A 
ATOM     32  C   UNL A   1      40.159  26.009  26.775  1.00  0.00     0.014 A 
ATOM     33  C   UNL A   1      39.015  24.999  28.661  1.00  0.00     0.014 A 
ATOM     34  C   UNL A   1      40.017  27.268  27.367  1.00  0.00     0.010 A 
ATOM     35  C   UNL A   1      38.942  26.250  29.276  1.00  0.00     0.010 A 
ATOM     36  C   UNL A   1      39.477  27.395  28.658  1.00  0.00    -0.014 A 
BRANCH  36  37
ATOM     37  C   UNL A   1      39.627  28.629  29.460  1.00  0.00     0.031 A 
ATOM     38  C   UNL A   1      38.604  29.730  29.508  1.00  0.00     0.074 A 
ATOM     39  C   UNL A   1      40.764  28.894  30.155  1.00  0.00     0.049 A 
ATOM     40  N   UNL A   1      38.927  30.993  29.569  1.00  0.00    -0.248 NA
ATOM     41  C   UNL A   1      37.158  29.509  29.498  1.00  0.00     0.031 C 
ATOM     42  C   UNL A   1      40.902  29.924  31.188  1.00  0.00     0.029 A 
ATOM     43  N   UNL A   1      42.077  28.474  29.940  1.00  0.00    -0.354 N 
ATOM     44  C   UNL A   1      37.784  31.700  29.860  1.00  0.00     0.074 A 
ATOM     45  C   UNL A   1      36.700  30.746  29.729  1.00  0.00     0.031 C 
ATOM     46  C   UNL A   1      42.187  30.293  31.259  1.00  0.00     0.029 A 
ATOM     47  C   UNL A   1      42.921  29.555  30.248  1.00  0.00     0.049 A 
ATOM     48  H   UNL A   1      42.359  27.583  29.629  1.00  0.00     0.167 HD
ATOM     49  C   UNL A   1      37.800  32.977  30.339  1.00  0.00     0.031 A 
ATOM     50  C   UNL A   1      43.952  30.026  29.493  1.00  0.00     0.031 A 
ATOM     51  C   UNL A   1      39.117  33.517  30.651  1.00  0.00     0.049 A 
ATOM     52  C   UNL A   1      43.989  31.523  29.312  1.00  0.00     0.074 A 
ATOM     53  C   UNL A   1      39.792  33.696  31.849  1.00  0.00     0.029 A 
ATOM     54  N   UNL A   1      40.014  33.845  29.647  1.00  0.00    -0.354 N 
ATOM     55  N   UNL A   1      43.063  32.329  29.737  1.00  0.00    -0.248 NA
ATOM     56  C   UNL A   1      45.012  32.216  28.525  1.00  0.00     0.031 C 
ATOM     57  C   UNL A   1      41.095  34.165  31.567  1.00  0.00     0.029 A 
ATOM     58  C   UNL A   1      41.224  34.235  30.194  1.00  0.00     0.049 A 
ATOM     59  H   UNL A   1      39.817  33.808  28.682  1.00  0.00     0.167 HD
ATOM     60  C   UNL A   1      43.274  33.577  29.204  1.00  0.00     0.074 A 
ATOM     61  C   UNL A   1      44.540  33.474  28.510  1.00  0.00     0.031 C 
ATOM     62  C   UNL A   1      42.348  34.569  29.337  1.00  0.00     0.031 A 
BRANCH  49  63
ATOM     63  C   UNL A   1      36.524  33.615  30.831  1.00  0.00    -0.014 A 
ATOM     64  C   UNL A   1      35.503  33.941  29.916  1.00  0.00     0.010 A 
ATOM     65  C   UNL A   1      36.330  33.973  32.183  1.00  0.00     0.010 A 
ATOM     66  C   UNL A   1      34.405  34.718  30.295  1.00  0.00     0.020 A 
ATOM     67  C   UNL A   1      35.243  34.773  32.572  1.00  0.00     0.020 A 
ATOM     68  C   UNL A   1      34.303  35.163  31.613  1.00  0.00     0.054 A 
BRANCH  68  69
ATOM     69  S   UNL A   1      33.005  36.371  32.008  1.00  0.00     0.124 S 
ATOM     70  O   UNL A   1      33.571  37.089  33.150  1.00  0.00    -0.237 OA
ATOM     71  O   UNL A   1      32.907  37.141  30.773  1.00  0.00    -0.237 OA
ATOM     72  O   UNL A   1      31.847  35.538  32.325  1.00  0.00    -0.744 OA
ENDBRANCH  68  69
ENDBRANCH  49  63
BRANCH  50  73
ATOM     73  C   UNL A   1      44.493  29.072  28.500  1.00  0.00    -0.014 A 
ATOM     74  C   UNL A   1      43.905  29.042  27.221  1.00  0.00     0.010 A 
ATOM     75  C   UNL A   1      45.760  28.495  28.697  1.00  0.00     0.010 A 
ATOM     76  C   UNL A   1      44.637  28.586  26.126  1.00  0.00     0.020 A 
ATOM     77  C   UNL A   1      46.493  28.032  27.600  1.00  0.00     0.020 A 
ATOM     78  C   UNL A   1      45.948  28.141  26.317  1.00  0.00     0.054 A 
BRANCH  78  79
ATOM     79  S   UNL A   1      47.000  27.926  24.850  1.00  0.00     0.124 S 
ATOM     80  O   UNL A   1      46.606  26.603  24.380  1.00  0.00    -0.237 OA
ATOM     81  O   UNL A   1      46.582  29.057  24.021  1.00  0.00    -0.237 OA
ATOM     82  O   UNL A   1      48.352  28.029  25.390  1.00  0.00    -0.744 OA
ENDBRANCH  78  79
ENDBRANCH  50  73
BRANCH  62  83
ATOM     83  C   UNL A   1      42.434  35.946  28.733  1.00  0.00    -0.014 A 
ATOM     84  C   UNL A   1      41.848  36.294  27.502  1.00  0.00     0.010 A 
ATOM     85  C   UNL A   1      43.044  36.983  29.482  1.00  0.00     0.010 A 
ATOM     86  C   UNL A   1      41.915  37.609  27.014  1.00  0.00     0.020 A 
ATOM     87  C   UNL A   1      43.092  38.302  29.018  1.00  0.00     0.020 A 
ATOM     88  C   UNL A   1      42.538  38.602  27.774  1.00  0.00     0.054 A 
BRANCH  88  89
ATOM     89  S   UNL A   1      42.571  40.323  27.195  1.00  0.00     0.124 S 
ATOM     90  O   UNL A   1      43.415  40.231  26.007  1.00  0.00    -0.237 OA
ATOM     91  O   UNL A   1      41.162  40.621  26.936  1.00  0.00    -0.237 OA
ATOM     92  O   UNL A   1      43.152  41.040  28.325  1.00  0.00    -0.744 OA
ENDBRANCH  88  89
ENDBRANCH  62  83
ENDBRANCH  36  37
ENDBRANCH  28  31
ENDBRANCH  26  27
ENDBRANCH  25  26
ENDBRANCH   1  25
TORSDOF 17
ENDMDL
