MODEL 1
REMARK VINA RESULT:     -11.1      0.000      0.000
REMARK SMILES CCC(CC)(NC(=O)c1cc(C)ccc1OC)C(=O)NCCCCNC(=O)c1ccc(-c2c3nc(c(-c4ccc(S(=O)(=O)[O-])cc4)c4ccc([nH]4)c(-c4ccc(S(=O)(=O)[O-])cc4)c4nc(c(-c5ccc(S(=O)(=O)[O-])cc5)c5ccc2[nH]5)C=C4)C=C3)cc1
REMARK SMILES IDX 22 1 21 2 20 3 18 4 19 5 3 7 2 8 1 9 4 10 5 11 6 12 7 13
REMARK SMILES IDX 8 15 9 16 10 17 15 18 11 19 14 20 12 21 13 22 16 23 17 24
REMARK SMILES IDX 23 25 24 26 25 27 26 28 27 30 28 31 29 32 87 33 30 34 86 35
REMARK SMILES IDX 31 36 32 37 33 38 80 39 34 40 85 41 79 42 81 43 35 44 84 45
REMARK SMILES IDX 78 46 77 47 36 49 66 50 47 51 65 52 48 53 51 54 64 55 82 56
REMARK SMILES IDX 49 57 50 58 63 60 83 61 52 62 37 63 38 64 46 65 39 66 45 67
REMARK SMILES IDX 40 68 41 69 42 70 43 71 44 72 67 73 68 74 76 75 69 76 75 77
REMARK SMILES IDX 70 78 71 79 72 80 73 81 74 82 53 83 54 84 62 85 55 86 61 87
REMARK SMILES IDX 56 88 57 89 58 90 59 91 60 92
REMARK H PARENT 20 6 6 14 25 29 81 48 51 59
REMARK Flexibility Score: inf
ROOT
ATOM      1  C   UNL A   1      35.005  22.941  26.034  1.00  0.00     0.023 C 
ENDROOT
BRANCH   1   2
ATOM      2  C   UNL A   1      34.607  24.440  25.767  1.00  0.00     0.116 C 
BRANCH   2   3
ATOM      3  N   UNL A   1      33.440  25.166  26.314  1.00  0.00    -0.354 N 
ATOM      4  C   UNL A   1      32.668  26.287  26.118  1.00  0.00     0.245 C 
ATOM      5  O   UNL A   1      31.666  26.314  26.860  1.00  0.00    -0.272 OA
ATOM      6  H   UNL A   1      33.096  24.674  27.095  1.00  0.00     0.163 HD
BRANCH   4   7
ATOM      7  C   UNL A   1      32.930  27.566  25.171  1.00  0.00     0.118 C 
BRANCH   7   8
ATOM      8  C   UNL A   1      34.375  28.089  25.544  1.00  0.00     0.035 C 
ATOM      9  C   UNL A   1      34.546  28.840  26.858  1.00  0.00     0.007 C 
ENDBRANCH   7   8
BRANCH   7  10
ATOM     10  C   UNL A   1      31.866  28.654  25.484  1.00  0.00     0.035 C 
ATOM     11  C   UNL A   1      31.183  29.330  24.297  1.00  0.00     0.007 C 
ENDBRANCH   7  10
BRANCH   7  12
ATOM     12  N   UNL A   1      33.074  27.423  23.628  1.00  0.00    -0.338 N 
ATOM     13  C   UNL A   1      33.117  26.404  22.681  1.00  0.00     0.255 C 
ATOM     14  H   UNL A   1      33.160  28.306  23.199  1.00  0.00     0.164 HD
ATOM     15  O   UNL A   1      33.648  26.630  21.592  1.00  0.00    -0.269 OA
BRANCH  13  16
ATOM     16  C   UNL A   1      32.437  25.107  22.885  1.00  0.00     0.082 A 
ATOM     17  C   UNL A   1      32.870  23.846  22.463  1.00  0.00     0.021 A 
ATOM     18  C   UNL A   1      31.151  25.155  23.332  1.00  0.00     0.131 A 
ATOM     19  C   UNL A   1      32.119  22.704  22.830  1.00  0.00    -0.050 A 
ATOM     20  C   UNL A   1      30.647  24.084  24.057  1.00  0.00     0.047 A 
ATOM     21  C   UNL A   1      32.161  21.413  22.070  1.00  0.00     0.044 C 
ATOM     22  C   UNL A   1      31.147  22.828  23.816  1.00  0.00     0.007 A 
BRANCH  18  23
ATOM     23  O   UNL A   1      30.353  26.229  23.044  1.00  0.00    -0.496 OA
ATOM     24  C   UNL A   1      29.164  26.306  23.849  1.00  0.00     0.278 C 
ENDBRANCH  18  23
ENDBRANCH  13  16
ENDBRANCH   7  12
ENDBRANCH   4   7
ENDBRANCH   2   3
ENDBRANCH   1   2
BRANCH   1  25
ATOM     25  C   UNL A   1      36.207  22.063  25.572  1.00  0.00     0.023 C 
BRANCH  25  26
ATOM     26  C   UNL A   1      37.520  22.700  25.146  1.00  0.00     0.116 C 
BRANCH  26  27
ATOM     27  N   UNL A   1      38.697  22.171  25.876  1.00  0.00    -0.352 N 
ATOM     28  C   UNL A   1      39.684  22.876  26.566  1.00  0.00     0.251 C 
ATOM     29  H   UNL A   1      38.795  21.192  25.873  1.00  0.00     0.163 HD
ATOM     30  O   UNL A   1      40.622  22.403  27.131  1.00  0.00    -0.269 OA
BRANCH  28  31
ATOM     31  C   UNL A   1      39.443  24.337  26.644  1.00  0.00     0.039 A 
ATOM     32  C   UNL A   1      40.485  25.139  26.164  1.00  0.00     0.014 A 
ATOM     33  C   UNL A   1      38.540  24.770  27.611  1.00  0.00     0.014 A 
ATOM     34  C   UNL A   1      40.793  26.292  26.865  1.00  0.00     0.010 A 
ATOM     35  C   UNL A   1      38.890  25.882  28.347  1.00  0.00     0.010 A 
ATOM     36  C   UNL A   1      40.066  26.573  28.027  1.00  0.00    -0.014 A 
BRANCH  36  37
ATOM     37  C   UNL A   1      40.576  27.509  29.015  1.00  0.00     0.031 A 
ATOM     38  C   UNL A   1      39.787  28.718  29.274  1.00  0.00     0.074 A 
ATOM     39  C   UNL A   1      41.801  27.348  29.566  1.00  0.00     0.049 A 
ATOM     40  N   UNL A   1      40.297  29.889  29.433  1.00  0.00    -0.248 NA
ATOM     41  C   UNL A   1      38.329  28.700  29.257  1.00  0.00     0.031 C 
ATOM     42  C   UNL A   1      42.412  28.181  30.596  1.00  0.00     0.029 A 
ATOM     43  N   UNL A   1      42.846  26.535  29.116  1.00  0.00    -0.354 N 
ATOM     44  C   UNL A   1      39.267  30.728  29.786  1.00  0.00     0.074 A 
ATOM     45  C   UNL A   1      38.056  29.968  29.569  1.00  0.00     0.031 C 
ATOM     46  C   UNL A   1      43.747  28.067  30.497  1.00  0.00     0.029 A 
ATOM     47  C   UNL A   1      44.039  27.230  29.341  1.00  0.00     0.049 A 
ATOM     48  H   UNL A   1      42.759  25.640  28.716  1.00  0.00     0.167 HD
ATOM     49  C   UNL A   1      39.536  31.926  30.373  1.00  0.00     0.031 A 
ATOM     50  C   UNL A   1      44.949  27.504  28.366  1.00  0.00     0.031 A 
ATOM     51  C   UNL A   1      40.972  32.141  30.516  1.00  0.00     0.049 A 
ATOM     52  C   UNL A   1      45.154  28.994  28.186  1.00  0.00     0.074 A 
ATOM     53  C   UNL A   1      41.843  31.913  31.570  1.00  0.00     0.029 A 
ATOM     54  N   UNL A   1      41.761  32.319  29.385  1.00  0.00    -0.354 N 
ATOM     55  N   UNL A   1      44.343  29.902  28.658  1.00  0.00    -0.248 NA
ATOM     56  C   UNL A   1      46.264  29.577  27.439  1.00  0.00     0.031 C 
ATOM     57  C   UNL A   1      43.162  31.877  31.051  1.00  0.00     0.029 A 
ATOM     58  C   UNL A   1      43.096  32.124  29.690  1.00  0.00     0.049 A 
ATOM     59  H   UNL A   1      41.417  32.551  28.493  1.00  0.00     0.167 HD
ATOM     60  C   UNL A   1      44.791  31.151  28.308  1.00  0.00     0.074 A 
ATOM     61  C   UNL A   1      46.004  30.892  27.551  1.00  0.00     0.031 C 
ATOM     62  C   UNL A   1      44.126  32.289  28.669  1.00  0.00     0.031 A 
BRANCH  49  63
ATOM     63  C   UNL A   1      38.469  32.685  31.121  1.00  0.00    -0.014 A 
ATOM     64  C   UNL A   1      38.552  32.804  32.523  1.00  0.00     0.010 A 
ATOM     65  C   UNL A   1      37.322  33.226  30.510  1.00  0.00     0.010 A 
ATOM     66  C   UNL A   1      37.492  33.319  33.282  1.00  0.00     0.020 A 
ATOM     67  C   UNL A   1      36.234  33.696  31.259  1.00  0.00     0.020 A 
ATOM     68  C   UNL A   1      36.322  33.728  32.647  1.00  0.00     0.054 A 
BRANCH  68  69
ATOM     69  S   UNL A   1      34.922  34.286  33.653  1.00  0.00     0.124 S 
ATOM     70  O   UNL A   1      35.083  35.739  33.640  1.00  0.00    -0.237 OA
ATOM     71  O   UNL A   1      33.778  33.773  32.906  1.00  0.00    -0.237 OA
ATOM     72  O   UNL A   1      35.154  33.655  34.950  1.00  0.00    -0.744 OA
ENDBRANCH  68  69
ENDBRANCH  49  63
BRANCH  50  73
ATOM     73  C   UNL A   1      45.093  26.472  27.301  1.00  0.00    -0.014 A 
ATOM     74  C   UNL A   1      45.686  25.241  27.647  1.00  0.00     0.010 A 
ATOM     75  C   UNL A   1      44.382  26.552  26.090  1.00  0.00     0.010 A 
ATOM     76  C   UNL A   1      45.494  24.096  26.862  1.00  0.00     0.020 A 
ATOM     77  C   UNL A   1      44.177  25.403  25.306  1.00  0.00     0.020 A 
ATOM     78  C   UNL A   1      44.698  24.173  25.720  1.00  0.00     0.054 A 
BRANCH  78  79
ATOM     79  S   UNL A   1      44.350  22.649  24.780  1.00  0.00     0.124 S 
ATOM     80  O   UNL A   1      42.890  22.616  24.759  1.00  0.00    -0.237 OA
ATOM     81  O   UNL A   1      44.982  22.925  23.491  1.00  0.00    -0.237 OA
ATOM     82  O   UNL A   1      44.988  21.613  25.584  1.00  0.00    -0.744 OA
ENDBRANCH  78  79
ENDBRANCH  50  73
BRANCH  62  83
ATOM     83  C   UNL A   1      44.410  33.696  28.185  1.00  0.00    -0.014 A 
ATOM     84  C   UNL A   1      43.856  34.273  27.032  1.00  0.00     0.010 A 
ATOM     85  C   UNL A   1      45.193  34.549  29.005  1.00  0.00     0.010 A 
ATOM     86  C   UNL A   1      44.108  35.612  26.691  1.00  0.00     0.020 A 
ATOM     87  C   UNL A   1      45.409  35.896  28.703  1.00  0.00     0.020 A 
ATOM     88  C   UNL A   1      44.880  36.416  27.532  1.00  0.00     0.054 A 
BRANCH  88  89
ATOM     89  S   UNL A   1      45.125  38.163  27.130  1.00  0.00     0.124 S 
ATOM     90  O   UNL A   1      43.811  38.541  26.613  1.00  0.00    -0.237 OA
ATOM     91  O   UNL A   1      45.482  38.749  28.420  1.00  0.00    -0.237 OA
ATOM     92  O   UNL A   1      46.203  38.141  26.146  1.00  0.00    -0.744 OA
ENDBRANCH  88  89
ENDBRANCH  62  83
ENDBRANCH  36  37
ENDBRANCH  28  31
ENDBRANCH  26  27
ENDBRANCH  25  26
ENDBRANCH   1  25
TORSDOF 19
ENDMDL
MODEL 2
REMARK VINA RESULT:     -10.7      1.823      3.232
REMARK SMILES CCC(CC)(NC(=O)c1cc(C)ccc1OC)C(=O)NCCCCNC(=O)c1ccc(-c2c3nc(c(-c4ccc(S(=O)(=O)[O-])cc4)c4ccc([nH]4)c(-c4ccc(S(=O)(=O)[O-])cc4)c4nc(c(-c5ccc(S(=O)(=O)[O-])cc5)c5ccc2[nH]5)C=C4)C=C3)cc1
REMARK SMILES IDX 22 1 21 2 20 3 18 4 19 5 3 7 2 8 1 9 4 10 5 11 6 12 7 13
REMARK SMILES IDX 8 15 9 16 10 17 15 18 11 19 14 20 12 21 13 22 16 23 17 24
REMARK SMILES IDX 23 25 24 26 25 27 26 28 27 30 28 31 29 32 87 33 30 34 86 35
REMARK SMILES IDX 31 36 32 37 33 38 80 39 34 40 85 41 79 42 81 43 35 44 84 45
REMARK SMILES IDX 78 46 77 47 36 49 66 50 47 51 65 52 48 53 51 54 64 55 82 56
REMARK SMILES IDX 49 57 50 58 63 60 83 61 52 62 37 63 38 64 46 65 39 66 45 67
REMARK SMILES IDX 40 68 41 69 42 70 43 71 44 72 67 73 68 74 76 75 69 76 75 77
REMARK SMILES IDX 70 78 71 79 72 80 73 81 74 82 53 83 54 84 62 85 55 86 61 87
REMARK SMILES IDX 56 88 57 89 58 90 59 91 60 92
REMARK H PARENT 20 6 6 14 25 29 81 48 51 59
REMARK Flexibility Score: inf
ROOT
ATOM      1  C   UNL A   1      37.369  21.474  24.718  1.00  0.00     0.023 C 
ENDROOT
BRANCH   1   2
ATOM      2  C   UNL A   1      36.087  20.826  25.359  1.00  0.00     0.116 C 
BRANCH   2   3
ATOM      3  N   UNL A   1      35.267  21.372  26.464  1.00  0.00    -0.354 N 
ATOM      4  C   UNL A   1      34.139  22.117  26.715  1.00  0.00     0.245 C 
ATOM      5  O   UNL A   1      33.840  22.141  27.925  1.00  0.00    -0.272 OA
ATOM      6  H   UNL A   1      35.674  21.110  27.322  1.00  0.00     0.163 HD
BRANCH   4   7
ATOM      7  C   UNL A   1      33.250  23.009  25.708  1.00  0.00     0.118 C 
BRANCH   7   8
ATOM      8  C   UNL A   1      33.088  22.145  24.394  1.00  0.00     0.035 C 
ATOM      9  C   UNL A   1      32.336  20.824  24.496  1.00  0.00     0.007 C 
ENDBRANCH   7   8
BRANCH   7  10
ATOM     10  C   UNL A   1      34.010  24.329  25.396  1.00  0.00     0.035 C 
ATOM     11  C   UNL A   1      34.450  24.560  23.953  1.00  0.00     0.007 C 
ENDBRANCH   7  10
BRANCH   7  12
ATOM     12  N   UNL A   1      31.759  23.340  26.011  1.00  0.00    -0.338 N 
ATOM     13  C   UNL A   1      30.991  24.451  26.345  1.00  0.00     0.255 C 
ATOM     14  H   UNL A   1      31.200  22.532  25.948  1.00  0.00     0.164 HD
ATOM     15  O   UNL A   1      29.910  24.276  26.910  1.00  0.00    -0.269 OA
BRANCH  13  16
ATOM     16  C   UNL A   1      31.365  25.822  25.934  1.00  0.00     0.082 A 
ATOM     17  C   UNL A   1      31.775  26.873  26.759  1.00  0.00     0.021 A 
ATOM     18  C   UNL A   1      31.069  26.177  24.652  1.00  0.00     0.131 A 
ATOM     19  C   UNL A   1      32.174  28.095  26.167  1.00  0.00    -0.050 A 
ATOM     20  C   UNL A   1      31.833  27.153  24.029  1.00  0.00     0.047 A 
ATOM     21  C   UNL A   1      32.149  29.406  26.892  1.00  0.00     0.044 C 
ATOM     22  C   UNL A   1      32.415  28.131  24.799  1.00  0.00     0.007 A 
BRANCH  18  23
ATOM     23  O   UNL A   1      30.015  25.604  23.996  1.00  0.00    -0.496 OA
ATOM     24  C   UNL A   1      28.867  26.461  23.871  1.00  0.00     0.278 C 
ENDBRANCH  18  23
ENDBRANCH  13  16
ENDBRANCH   7  12
ENDBRANCH   4   7
ENDBRANCH   2   3
ENDBRANCH   1   2
BRANCH   1  25
ATOM     25  C   UNL A   1      38.298  22.648  25.154  1.00  0.00     0.023 C 
BRANCH  25  26
ATOM     26  C   UNL A   1      38.890  22.695  26.554  1.00  0.00     0.116 C 
BRANCH  26  27
ATOM     27  N   UNL A   1      40.350  22.949  26.567  1.00  0.00    -0.352 N 
ATOM     28  C   UNL A   1      41.023  24.159  26.746  1.00  0.00     0.251 C 
ATOM     29  H   UNL A   1      40.921  22.159  26.431  1.00  0.00     0.163 HD
ATOM     30  O   UNL A   1      42.206  24.314  26.738  1.00  0.00    -0.269 OA
BRANCH  28  31
ATOM     31  C   UNL A   1      40.136  25.304  27.059  1.00  0.00     0.039 A 
ATOM     32  C   UNL A   1      40.505  26.520  26.472  1.00  0.00     0.014 A 
ATOM     33  C   UNL A   1      39.411  25.228  28.245  1.00  0.00     0.014 A 
ATOM     34  C   UNL A   1      40.383  27.671  27.231  1.00  0.00     0.010 A 
ATOM     35  C   UNL A   1      39.353  26.364  29.023  1.00  0.00     0.010 A 
ATOM     36  C   UNL A   1      39.928  27.550  28.547  1.00  0.00    -0.014 A 
BRANCH  36  37
ATOM     37  C   UNL A   1      40.152  28.613  29.514  1.00  0.00     0.031 A 
ATOM     38  C   UNL A   1      39.234  29.756  29.489  1.00  0.00     0.074 A 
ATOM     39  C   UNL A   1      41.250  28.620  30.304  1.00  0.00     0.049 A 
ATOM     40  N   UNL A   1      39.607  30.981  29.622  1.00  0.00    -0.248 NA
ATOM     41  C   UNL A   1      37.815  29.593  29.193  1.00  0.00     0.031 C 
ATOM     42  C   UNL A   1      41.573  29.594  31.341  1.00  0.00     0.029 A 
ATOM     43  N   UNL A   1      42.426  27.879  30.151  1.00  0.00    -0.354 N 
ATOM     44  C   UNL A   1      38.463  31.741  29.682  1.00  0.00     0.074 A 
ATOM     45  C   UNL A   1      37.385  30.850  29.315  1.00  0.00     0.031 C 
ATOM     46  C   UNL A   1      42.905  29.604  31.513  1.00  0.00     0.029 A 
ATOM     47  C   UNL A   1      43.490  28.705  30.528  1.00  0.00     0.049 A 
ATOM     48  H   UNL A   1      42.492  26.949  29.835  1.00  0.00     0.167 HD
ATOM     49  C   UNL A   1      38.512  33.006  30.182  1.00  0.00     0.031 A 
ATOM     50  C   UNL A   1      44.552  28.983  29.724  1.00  0.00     0.031 A 
ATOM     51  C   UNL A   1      39.868  33.372  30.577  1.00  0.00     0.049 A 
ATOM     52  C   UNL A   1      44.671  30.464  29.434  1.00  0.00     0.074 A 
ATOM     53  C   UNL A   1      40.524  33.321  31.797  1.00  0.00     0.029 A 
ATOM     54  N   UNL A   1      40.851  33.530  29.607  1.00  0.00    -0.354 N 
ATOM     55  N   UNL A   1      43.711  31.325  29.645  1.00  0.00    -0.248 NA
ATOM     56  C   UNL A   1      45.858  31.088  28.859  1.00  0.00     0.031 C 
ATOM     57  C   UNL A   1      41.920  33.371  31.548  1.00  0.00     0.029 A 
ATOM     58  C   UNL A   1      42.110  33.493  30.183  1.00  0.00     0.049 A 
ATOM     59  H   UNL A   1      40.678  33.650  28.646  1.00  0.00     0.167 HD
ATOM     60  C   UNL A   1      44.120  32.578  29.261  1.00  0.00     0.074 A 
ATOM     61  C   UNL A   1      45.477  32.376  28.783  1.00  0.00     0.031 C 
ATOM     62  C   UNL A   1      43.307  33.671  29.367  1.00  0.00     0.031 A 
BRANCH  49  63
ATOM     63  C   UNL A   1      37.260  33.716  30.629  1.00  0.00    -0.014 A 
ATOM     64  C   UNL A   1      37.125  34.113  31.974  1.00  0.00     0.010 A 
ATOM     65  C   UNL A   1      36.150  33.944  29.792  1.00  0.00     0.010 A 
ATOM     66  C   UNL A   1      35.909  34.590  32.484  1.00  0.00     0.020 A 
ATOM     67  C   UNL A   1      34.915  34.373  30.296  1.00  0.00     0.020 A 
ATOM     68  C   UNL A   1      34.798  34.682  31.647  1.00  0.00     0.054 A 
BRANCH  68  69
ATOM     69  S   UNL A   1      33.208  35.196  32.348  1.00  0.00     0.124 S 
ATOM     70  O   UNL A   1      32.428  35.522  31.156  1.00  0.00    -0.237 OA
ATOM     71  O   UNL A   1      32.786  34.000  33.070  1.00  0.00    -0.237 OA
ATOM     72  O   UNL A   1      33.553  36.342  33.187  1.00  0.00    -0.744 OA
ENDBRANCH  68  69
ENDBRANCH  49  63
BRANCH  50  73
ATOM     73  C   UNL A   1      44.990  27.883  28.818  1.00  0.00    -0.014 A 
ATOM     74  C   UNL A   1      44.119  27.494  27.779  1.00  0.00     0.010 A 
ATOM     75  C   UNL A   1      46.329  27.460  28.759  1.00  0.00     0.010 A 
ATOM     76  C   UNL A   1      44.591  26.792  26.662  1.00  0.00     0.020 A 
ATOM     77  C   UNL A   1      46.809  26.765  27.634  1.00  0.00     0.020 A 
ATOM     78  C   UNL A   1      45.945  26.473  26.573  1.00  0.00     0.054 A 
BRANCH  78  79
ATOM     79  S   UNL A   1      46.568  25.675  25.056  1.00  0.00     0.124 S 
ATOM     80  O   UNL A   1      45.418  24.889  24.617  1.00  0.00    -0.237 OA
ATOM     81  O   UNL A   1      46.895  26.821  24.210  1.00  0.00    -0.237 OA
ATOM     82  O   UNL A   1      47.707  24.901  25.534  1.00  0.00    -0.744 OA
ENDBRANCH  78  79
ENDBRANCH  50  73
BRANCH  62  83
ATOM     83  C   UNL A   1      43.570  35.054  28.805  1.00  0.00    -0.014 A 
ATOM     84  C   UNL A   1      43.961  35.319  27.484  1.00  0.00     0.010 A 
ATOM     85  C   UNL A   1      43.291  36.181  29.620  1.00  0.00     0.010 A 
ATOM     86  C   UNL A   1      44.110  36.634  27.016  1.00  0.00     0.020 A 
ATOM     87  C   UNL A   1      43.387  37.493  29.151  1.00  0.00     0.020 A 
ATOM     88  C   UNL A   1      43.818  37.713  27.852  1.00  0.00     0.054 A 
BRANCH  88  89
ATOM     89  S   UNL A   1      43.928  39.403  27.212  1.00  0.00     0.124 S 
ATOM     90  O   UNL A   1      45.054  39.302  26.287  1.00  0.00    -0.237 OA
ATOM     91  O   UNL A   1      42.621  39.602  26.589  1.00  0.00    -0.237 OA
ATOM     92  O   UNL A   1      44.167  40.206  28.407  1.00  0.00    -0.744 OA
ENDBRANCH  88  89
ENDBRANCH  62  83
ENDBRANCH  36  37
ENDBRANCH  28  31
ENDBRANCH  26  27
ENDBRANCH  25  26
ENDBRANCH   1  25
TORSDOF 19
ENDMDL
MODEL 3
REMARK VINA RESULT:     -10.7      2.105      3.644
REMARK SMILES CCC(CC)(NC(=O)c1cc(C)ccc1OC)C(=O)NCCCCNC(=O)c1ccc(-c2c3nc(c(-c4ccc(S(=O)(=O)[O-])cc4)c4ccc([nH]4)c(-c4ccc(S(=O)(=O)[O-])cc4)c4nc(c(-c5ccc(S(=O)(=O)[O-])cc5)c5ccc2[nH]5)C=C4)C=C3)cc1
REMARK SMILES IDX 22 1 21 2 20 3 18 4 19 5 3 7 2 8 1 9 4 10 5 11 6 12 7 13
REMARK SMILES IDX 8 15 9 16 10 17 15 18 11 19 14 20 12 21 13 22 16 23 17 24
REMARK SMILES IDX 23 25 24 26 25 27 26 28 27 30 28 31 29 32 87 33 30 34 86 35
REMARK SMILES IDX 31 36 32 37 33 38 80 39 34 40 85 41 79 42 81 43 35 44 84 45
REMARK SMILES IDX 78 46 77 47 36 49 66 50 47 51 65 52 48 53 51 54 64 55 82 56
REMARK SMILES IDX 49 57 50 58 63 60 83 61 52 62 37 63 38 64 46 65 39 66 45 67
REMARK SMILES IDX 40 68 41 69 42 70 43 71 44 72 67 73 68 74 76 75 69 76 75 77
REMARK SMILES IDX 70 78 71 79 72 80 73 81 74 82 53 83 54 84 62 85 55 86 61 87
REMARK SMILES IDX 56 88 57 89 58 90 59 91 60 92
REMARK H PARENT 20 6 6 14 25 29 81 48 51 59
REMARK Flexibility Score: inf
ROOT
ATOM      1  C   UNL A   1      37.610  22.241  25.268  1.00  0.00     0.023 C 
ENDROOT
BRANCH   1   2
ATOM      2  C   UNL A   1      36.692  22.486  24.014  1.00  0.00     0.116 C 
BRANCH   2   3
ATOM      3  N   UNL A   1      35.233  22.260  23.917  1.00  0.00    -0.354 N 
ATOM      4  C   UNL A   1      34.021  22.844  24.203  1.00  0.00     0.245 C 
ATOM      5  O   UNL A   1      33.058  22.201  23.739  1.00  0.00    -0.272 OA
ATOM      6  H   UNL A   1      35.073  21.380  23.502  1.00  0.00     0.163 HD
BRANCH   4   7
ATOM      7  C   UNL A   1      33.689  24.138  25.107  1.00  0.00     0.118 C 
BRANCH   7   8
ATOM      8  C   UNL A   1      34.117  25.390  24.241  1.00  0.00     0.035 C 
ATOM      9  C   UNL A   1      33.673  25.437  22.785  1.00  0.00     0.007 C 
ENDBRANCH   7   8
BRANCH   7  10
ATOM     10  C   UNL A   1      34.530  24.072  26.412  1.00  0.00     0.035 C 
ATOM     11  C   UNL A   1      34.345  22.848  27.306  1.00  0.00     0.007 C 
ENDBRANCH   7  10
BRANCH   7  12
ATOM     12  N   UNL A   1      32.226  24.531  25.463  1.00  0.00    -0.338 N 
ATOM     13  C   UNL A   1      31.547  25.619  26.002  1.00  0.00     0.255 C 
ATOM     14  H   UNL A   1      31.603  23.800  25.245  1.00  0.00     0.164 HD
ATOM     15  O   UNL A   1      30.445  25.432  26.519  1.00  0.00    -0.269 OA
BRANCH  13  16
ATOM     16  C   UNL A   1      32.041  27.006  25.862  1.00  0.00     0.082 A 
ATOM     17  C   UNL A   1      32.799  27.734  26.784  1.00  0.00     0.021 A 
ATOM     18  C   UNL A   1      31.525  27.738  24.835  1.00  0.00     0.131 A 
ATOM     19  C   UNL A   1      33.252  29.027  26.432  1.00  0.00    -0.050 A 
ATOM     20  C   UNL A   1      32.279  28.770  24.296  1.00  0.00     0.047 A 
ATOM     21  C   UNL A   1      33.614  30.075  27.440  1.00  0.00     0.044 C 
ATOM     22  C   UNL A   1      33.176  29.426  25.102  1.00  0.00     0.007 A 
BRANCH  18  23
ATOM     23  O   UNL A   1      30.267  27.482  24.361  1.00  0.00    -0.496 OA
ATOM     24  C   UNL A   1      30.211  27.266  22.940  1.00  0.00     0.278 C 
ENDBRANCH  18  23
ENDBRANCH  13  16
ENDBRANCH   7  12
ENDBRANCH   4   7
ENDBRANCH   2   3
ENDBRANCH   1   2
BRANCH   1  25
ATOM     25  C   UNL A   1      38.367  23.203  26.234  1.00  0.00     0.023 C 
BRANCH  25  26
ATOM     26  C   UNL A   1      39.827  22.966  26.585  1.00  0.00     0.116 C 
BRANCH  26  27
ATOM     27  N   UNL A   1      40.740  23.998  26.040  1.00  0.00    -0.352 N 
ATOM     28  C   UNL A   1      40.870  25.335  26.421  1.00  0.00     0.251 C 
ATOM     29  H   UNL A   1      41.333  23.702  25.313  1.00  0.00     0.163 HD
ATOM     30  O   UNL A   1      41.615  26.134  25.942  1.00  0.00    -0.269 OA
BRANCH  28  31
ATOM     31  C   UNL A   1      40.043  25.715  27.591  1.00  0.00     0.039 A 
ATOM     32  C   UNL A   1      39.064  26.683  27.340  1.00  0.00     0.014 A 
ATOM     33  C   UNL A   1      40.615  25.527  28.847  1.00  0.00     0.014 A 
ATOM     34  C   UNL A   1      38.855  27.660  28.297  1.00  0.00     0.010 A 
ATOM     35  C   UNL A   1      40.454  26.539  29.770  1.00  0.00     0.010 A 
ATOM     36  C   UNL A   1      39.654  27.642  29.445  1.00  0.00    -0.014 A 
BRANCH  36  37
ATOM     37  C   UNL A   1      39.783  28.824  30.281  1.00  0.00     0.031 A 
ATOM     38  C   UNL A   1      38.736  29.847  30.176  1.00  0.00     0.074 A 
ATOM     39  C   UNL A   1      40.897  29.044  31.016  1.00  0.00     0.049 A 
ATOM     40  N   UNL A   1      38.967  31.113  30.160  1.00  0.00    -0.248 NA
ATOM     41  C   UNL A   1      37.338  29.493  29.963  1.00  0.00     0.031 C 
ATOM     42  C   UNL A   1      41.136  30.157  31.928  1.00  0.00     0.029 A 
ATOM     43  N   UNL A   1      42.146  28.428  30.890  1.00  0.00    -0.354 N 
ATOM     44  C   UNL A   1      37.745  31.741  30.190  1.00  0.00     0.074 A 
ATOM     45  C   UNL A   1      36.768  30.699  29.969  1.00  0.00     0.031 C 
ATOM     46  C   UNL A   1      42.463  30.337  32.038  1.00  0.00     0.029 A 
ATOM     47  C   UNL A   1      43.118  29.405  31.130  1.00  0.00     0.049 A 
ATOM     48  H   UNL A   1      42.311  27.482  30.674  1.00  0.00     0.167 HD
ATOM     49  C   UNL A   1      37.661  33.051  30.550  1.00  0.00     0.031 A 
ATOM     50  C   UNL A   1      44.114  29.710  30.253  1.00  0.00     0.031 A 
ATOM     51  C   UNL A   1      38.978  33.610  30.842  1.00  0.00     0.049 A 
ATOM     52  C   UNL A   1      44.048  31.154  29.803  1.00  0.00     0.074 A 
ATOM     53  C   UNL A   1      39.673  33.769  32.030  1.00  0.00     0.029 A 
ATOM     54  N   UNL A   1      39.904  33.769  29.818  1.00  0.00    -0.354 N 
ATOM     55  N   UNL A   1      43.002  31.919  29.963  1.00  0.00    -0.248 NA
ATOM     56  C   UNL A   1      45.135  31.840  29.112  1.00  0.00     0.031 C 
ATOM     57  C   UNL A   1      41.045  33.948  31.715  1.00  0.00     0.029 A 
ATOM     58  C   UNL A   1      41.175  33.939  30.337  1.00  0.00     0.049 A 
ATOM     59  H   UNL A   1      39.686  33.761  28.858  1.00  0.00     0.167 HD
ATOM     60  C   UNL A   1      43.248  33.159  29.429  1.00  0.00     0.074 A 
ATOM     61  C   UNL A   1      44.604  33.060  28.915  1.00  0.00     0.031 C 
ATOM     62  C   UNL A   1      42.317  34.159  29.455  1.00  0.00     0.031 A 
BRANCH  49  63
ATOM     63  C   UNL A   1      36.349  33.661  30.973  1.00  0.00    -0.014 A 
ATOM     64  C   UNL A   1      35.383  33.983  30.000  1.00  0.00     0.010 A 
ATOM     65  C   UNL A   1      36.047  34.017  32.302  1.00  0.00     0.010 A 
ATOM     66  C   UNL A   1      34.240  34.731  30.315  1.00  0.00     0.020 A 
ATOM     67  C   UNL A   1      34.936  34.808  32.624  1.00  0.00     0.020 A 
ATOM     68  C   UNL A   1      34.042  35.172  31.622  1.00  0.00     0.054 A 
BRANCH  68  69
ATOM     69  S   UNL A   1      32.618  36.231  31.988  1.00  0.00     0.124 S 
ATOM     70  O   UNL A   1      33.195  37.242  32.873  1.00  0.00    -0.237 OA
ATOM     71  O   UNL A   1      32.232  36.702  30.662  1.00  0.00    -0.237 OA
ATOM     72  O   UNL A   1      31.668  35.325  32.630  1.00  0.00    -0.744 OA
ENDBRANCH  68  69
ENDBRANCH  49  63
BRANCH  50  73
ATOM     73  C   UNL A   1      44.647  28.573  29.452  1.00  0.00    -0.014 A 
ATOM     74  C   UNL A   1      45.616  27.739  30.049  1.00  0.00     0.010 A 
ATOM     75  C   UNL A   1      44.001  28.118  28.289  1.00  0.00     0.010 A 
ATOM     76  C   UNL A   1      45.862  26.448  29.561  1.00  0.00     0.020 A 
ATOM     77  C   UNL A   1      44.237  26.819  27.804  1.00  0.00     0.020 A 
ATOM     78  C   UNL A   1      45.134  25.977  28.469  1.00  0.00     0.054 A 
BRANCH  78  79
ATOM     79  S   UNL A   1      45.372  24.252  27.926  1.00  0.00     0.124 S 
ATOM     80  O   UNL A   1      44.494  24.162  26.762  1.00  0.00    -0.237 OA
ATOM     81  O   UNL A   1      46.803  24.213  27.627  1.00  0.00    -0.237 OA
ATOM     82  O   UNL A   1      44.951  23.479  29.088  1.00  0.00    -0.744 OA
ENDBRANCH  78  79
ENDBRANCH  50  73
BRANCH  62  83
ATOM     83  C   UNL A   1      42.398  35.491  28.737  1.00  0.00    -0.014 A 
ATOM     84  C   UNL A   1      41.782  35.777  27.509  1.00  0.00     0.010 A 
ATOM     85  C   UNL A   1      43.035  36.577  29.393  1.00  0.00     0.010 A 
ATOM     86  C   UNL A   1      41.839  37.061  26.944  1.00  0.00     0.020 A 
ATOM     87  C   UNL A   1      43.054  37.870  28.865  1.00  0.00     0.020 A 
ATOM     88  C   UNL A   1      42.472  38.100  27.628  1.00  0.00     0.054 A 
BRANCH  88  89
ATOM     89  S   UNL A   1      42.462  39.772  26.934  1.00  0.00     0.124 S 
ATOM     90  O   UNL A   1      42.236  40.591  28.122  1.00  0.00    -0.237 OA
ATOM     91  O   UNL A   1      43.791  39.886  26.338  1.00  0.00    -0.237 OA
ATOM     92  O   UNL A   1      41.361  39.738  25.975  1.00  0.00    -0.744 OA
ENDBRANCH  88  89
ENDBRANCH  62  83
ENDBRANCH  36  37
ENDBRANCH  28  31
ENDBRANCH  26  27
ENDBRANCH  25  26
ENDBRANCH   1  25
TORSDOF 19
ENDMDL
