MODEL 1
REMARK VINA RESULT:     -10.9      0.000      0.000
REMARK SMILES O=CN[C@H](C(=O)NCCCCNC(=O)c1ccc(-c2c3nc(c(-c4ccc(S(=O)(=O)[O-])cc4)c4ccc([nH]4)c(-c4ccc(S(=O)(=O)[O-])cc4)c4nc(c(-c5ccc(S(=O)(=O)[O-])cc5)c5ccc2[nH]5)C=C4)C=C3)cc1)[C@@H]1CCO[C@@]2(CCOC2)C1
REMARK SMILES IDX 10 1 9 2 8 3 7 4 5 5 6 6 4 8 3 9 1 10 2 11 75 13 76 14 84 15
REMARK SMILES IDX 77 16 79 17 78 18 80 19 83 20 81 21 82 22 11 23 12 24 13 25
REMARK SMILES IDX 14 27 15 28 16 29 74 30 17 31 73 32 18 33 19 34 20 35 67 36
REMARK SMILES IDX 21 37 72 38 66 39 68 40 22 41 71 42 65 43 64 44 23 46 53 47
REMARK SMILES IDX 34 48 52 49 35 50 38 51 51 52 69 53 36 54 37 55 50 57 70 58
REMARK SMILES IDX 39 59 24 60 25 61 33 62 26 63 32 64 27 65 28 66 29 67 30 68
REMARK SMILES IDX 31 69 54 70 55 71 63 72 56 73 62 74 57 75 58 76 59 77 60 78
REMARK SMILES IDX 61 79 40 80 41 81 49 82 42 83 48 84 43 85 44 86 45 87 46 88
REMARK SMILES IDX 47 89
REMARK H PARENT 7 7 3 12 12 26 68 45 38 56
REMARK Flexibility Score: inf
ROOT
ATOM      1  C   UNL A   1      33.665  28.024  25.771  1.00  0.00     0.023 C 
ENDROOT
BRANCH   1   2
ATOM      2  C   UNL A   1      33.757  26.539  25.442  1.00  0.00     0.023 C 
BRANCH   2   3
ATOM      3  C   UNL A   1      33.479  26.161  23.988  1.00  0.00     0.116 C 
BRANCH   3   4
ATOM      4  N   UNL A   1      32.070  25.893  23.857  1.00  0.00    -0.354 N 
ATOM      5  C   UNL A   1      31.378  24.732  23.962  1.00  0.00     0.242 C 
ATOM      6  O   UNL A   1      30.243  24.755  23.467  1.00  0.00    -0.273 OA
ATOM      7  H   UNL A   1      31.518  26.684  23.658  1.00  0.00     0.163 HD
BRANCH   5   8
ATOM      8  C   UNL A   1      31.879  23.485  24.761  1.00  0.00     0.174 C 
BRANCH   8   9
ATOM      9  N   UNL A   1      30.667  23.170  25.554  1.00  0.00    -0.347 N 
ATOM     10  O   UNL A   1      29.461  22.986  27.468  1.00  0.00    -0.279 OA
ATOM     11  C   UNL A   1      30.444  23.402  26.872  1.00  0.00     0.337 C 
ATOM     12  H   UNL A   1      29.932  22.737  25.063  1.00  0.00     0.164 HD
ENDBRANCH   8   9
BRANCH   8  13
ATOM     13  C   UNL A   1      32.475  22.151  24.175  1.00  0.00     0.026 C 
ATOM     14  C   UNL A   1      32.199  20.763  24.782  1.00  0.00     0.035 C 
ATOM     15  C   UNL A   1      33.953  22.188  23.749  1.00  0.00     0.044 C 
ATOM     16  C   UNL A   1      33.329  20.134  25.615  1.00  0.00     0.161 C 
ATOM     17  C   UNL A   1      34.916  21.708  24.835  1.00  0.00     0.094 C 
ATOM     18  O   UNL A   1      34.630  20.331  25.062  1.00  0.00    -0.372 OA
ATOM     19  C   UNL A   1      36.346  21.926  24.364  1.00  0.00     0.066 C 
ATOM     20  C   UNL A   1      34.972  22.539  26.113  1.00  0.00     0.195 C 
ATOM     21  C   UNL A   1      36.577  23.395  24.700  1.00  0.00     0.163 C 
ATOM     22  O   UNL A   1      35.696  23.725  25.785  1.00  0.00    -0.378 OA
ENDBRANCH   8  13
ENDBRANCH   5   8
ENDBRANCH   3   4
ENDBRANCH   2   3
ENDBRANCH   1   2
BRANCH   1  23
ATOM     23  C   UNL A   1      33.527  28.325  27.249  1.00  0.00     0.116 C 
BRANCH  23  24
ATOM     24  N   UNL A   1      33.376  29.742  27.548  1.00  0.00    -0.352 N 
ATOM     25  C   UNL A   1      34.324  30.605  28.051  1.00  0.00     0.251 C 
ATOM     26  H   UNL A   1      32.489  30.129  27.368  1.00  0.00     0.163 HD
ATOM     27  O   UNL A   1      34.027  31.755  28.331  1.00  0.00    -0.269 OA
BRANCH  25  28
ATOM     28  C   UNL A   1      35.688  30.088  28.288  1.00  0.00     0.039 A 
ATOM     29  C   UNL A   1      36.631  30.170  27.263  1.00  0.00     0.014 A 
ATOM     30  C   UNL A   1      36.048  29.600  29.546  1.00  0.00     0.014 A 
ATOM     31  C   UNL A   1      37.953  29.810  27.522  1.00  0.00     0.010 A 
ATOM     32  C   UNL A   1      37.382  29.354  29.833  1.00  0.00     0.010 A 
ATOM     33  C   UNL A   1      38.345  29.428  28.817  1.00  0.00    -0.014 A 
BRANCH  33  34
ATOM     34  C   UNL A   1      39.744  29.043  29.118  1.00  0.00     0.031 A 
ATOM     35  C   UNL A   1      40.658  30.036  29.789  1.00  0.00     0.074 A 
ATOM     36  C   UNL A   1      40.207  27.834  28.744  1.00  0.00     0.049 A 
ATOM     37  N   UNL A   1      41.921  29.911  30.107  1.00  0.00    -0.248 NA
ATOM     38  C   UNL A   1      40.091  31.358  30.110  1.00  0.00     0.031 C 
ATOM     39  C   UNL A   1      39.440  26.813  28.024  1.00  0.00     0.029 A 
ATOM     40  N   UNL A   1      41.438  27.257  28.921  1.00  0.00    -0.354 N 
ATOM     41  C   UNL A   1      42.300  31.141  30.634  1.00  0.00     0.074 A 
ATOM     42  C   UNL A   1      41.157  32.019  30.533  1.00  0.00     0.031 C 
ATOM     43  C   UNL A   1      40.206  25.723  27.858  1.00  0.00     0.029 A 
ATOM     44  C   UNL A   1      41.522  25.974  28.433  1.00  0.00     0.049 A 
ATOM     45  H   UNL A   1      42.192  27.718  29.357  1.00  0.00     0.167 HD
ATOM     46  C   UNL A   1      43.482  31.500  31.187  1.00  0.00     0.031 A 
ATOM     47  C   UNL A   1      42.545  25.097  28.459  1.00  0.00     0.031 A 
ATOM     48  C   UNL A   1      44.600  30.608  31.329  1.00  0.00     0.049 A 
ATOM     49  C   UNL A   1      43.827  25.498  29.136  1.00  0.00     0.074 A 
ATOM     50  C   UNL A   1      45.820  30.846  31.935  1.00  0.00     0.029 A 
ATOM     51  N   UNL A   1      44.625  29.300  30.872  1.00  0.00    -0.354 N 
ATOM     52  N   UNL A   1      44.145  26.644  29.692  1.00  0.00    -0.248 NA
ATOM     53  C   UNL A   1      44.880  24.476  29.216  1.00  0.00     0.031 C 
ATOM     54  C   UNL A   1      46.598  29.690  31.814  1.00  0.00     0.029 A 
ATOM     55  C   UNL A   1      45.841  28.717  31.179  1.00  0.00     0.049 A 
ATOM     56  H   UNL A   1      43.888  28.852  30.398  1.00  0.00     0.167 HD
ATOM     57  C   UNL A   1      45.420  26.468  30.219  1.00  0.00     0.074 A 
ATOM     58  C   UNL A   1      45.807  25.103  29.928  1.00  0.00     0.031 C 
ATOM     59  C   UNL A   1      46.201  27.354  30.886  1.00  0.00     0.031 A 
BRANCH  46  60
ATOM     60  C   UNL A   1      43.611  32.912  31.693  1.00  0.00    -0.014 A 
ATOM     61  C   UNL A   1      44.114  33.935  30.868  1.00  0.00     0.010 A 
ATOM     62  C   UNL A   1      43.201  33.227  33.000  1.00  0.00     0.010 A 
ATOM     63  C   UNL A   1      44.247  35.238  31.355  1.00  0.00     0.020 A 
ATOM     64  C   UNL A   1      43.302  34.537  33.481  1.00  0.00     0.020 A 
ATOM     65  C   UNL A   1      43.841  35.529  32.660  1.00  0.00     0.054 A 
BRANCH  65  66
ATOM     66  S   UNL A   1      43.998  37.235  33.258  1.00  0.00     0.124 S 
ATOM     67  O   UNL A   1      45.317  37.212  33.886  1.00  0.00    -0.237 OA
ATOM     68  O   UNL A   1      43.902  38.015  32.028  1.00  0.00    -0.237 OA
ATOM     69  O   UNL A   1      42.873  37.384  34.177  1.00  0.00    -0.744 OA
ENDBRANCH  65  66
ENDBRANCH  46  60
BRANCH  47  70
ATOM     70  C   UNL A   1      42.383  23.740  27.871  1.00  0.00    -0.014 A 
ATOM     71  C   UNL A   1      41.824  22.695  28.629  1.00  0.00     0.010 A 
ATOM     72  C   UNL A   1      42.787  23.482  26.548  1.00  0.00     0.010 A 
ATOM     73  C   UNL A   1      41.702  21.412  28.089  1.00  0.00     0.020 A 
ATOM     74  C   UNL A   1      42.641  22.207  25.995  1.00  0.00     0.020 A 
ATOM     75  C   UNL A   1      42.114  21.175  26.775  1.00  0.00     0.054 A 
BRANCH  75  76
ATOM     76  S   UNL A   1      41.915  19.510  26.080  1.00  0.00     0.124 S 
ATOM     77  O   UNL A   1      42.423  18.669  27.160  1.00  0.00    -0.237 OA
ATOM     78  O   UNL A   1      40.475  19.437  25.843  1.00  0.00    -0.237 OA
ATOM     79  O   UNL A   1      42.736  19.545  24.872  1.00  0.00    -0.744 OA
ENDBRANCH  75  76
ENDBRANCH  47  70
BRANCH  59  80
ATOM     80  C   UNL A   1      47.525  26.855  31.394  1.00  0.00    -0.014 A 
ATOM     81  C   UNL A   1      47.671  26.365  32.703  1.00  0.00     0.010 A 
ATOM     82  C   UNL A   1      48.636  26.852  30.530  1.00  0.00     0.010 A 
ATOM     83  C   UNL A   1      48.920  25.931  33.157  1.00  0.00     0.020 A 
ATOM     84  C   UNL A   1      49.878  26.393  30.971  1.00  0.00     0.020 A 
ATOM     85  C   UNL A   1      50.017  25.955  32.289  1.00  0.00     0.054 A 
BRANCH  85  86
ATOM     86  S   UNL A   1      51.626  25.382  32.896  1.00  0.00     0.124 S 
ATOM     87  O   UNL A   1      51.377  25.243  34.328  1.00  0.00    -0.237 OA
ATOM     88  O   UNL A   1      51.819  24.131  32.167  1.00  0.00    -0.237 OA
ATOM     89  O   UNL A   1      52.540  26.460  32.524  1.00  0.00    -0.744 OA
ENDBRANCH  85  86
ENDBRANCH  59  80
ENDBRANCH  33  34
ENDBRANCH  25  28
ENDBRANCH  23  24
ENDBRANCH   1  23
TORSDOF 16
ENDMDL
MODEL 2
REMARK VINA RESULT:     -10.4      4.397     10.237
REMARK SMILES O=CN[C@H](C(=O)NCCCCNC(=O)c1ccc(-c2c3nc(c(-c4ccc(S(=O)(=O)[O-])cc4)c4ccc([nH]4)c(-c4ccc(S(=O)(=O)[O-])cc4)c4nc(c(-c5ccc(S(=O)(=O)[O-])cc5)c5ccc2[nH]5)C=C4)C=C3)cc1)[C@@H]1CCO[C@@]2(CCOC2)C1
REMARK SMILES IDX 10 1 9 2 8 3 7 4 5 5 6 6 4 8 3 9 1 10 2 11 75 13 76 14 84 15
REMARK SMILES IDX 77 16 79 17 78 18 80 19 83 20 81 21 82 22 11 23 12 24 13 25
REMARK SMILES IDX 14 27 15 28 16 29 74 30 17 31 73 32 18 33 19 34 20 35 67 36
REMARK SMILES IDX 21 37 72 38 66 39 68 40 22 41 71 42 65 43 64 44 23 46 53 47
REMARK SMILES IDX 34 48 52 49 35 50 38 51 51 52 69 53 36 54 37 55 50 57 70 58
REMARK SMILES IDX 39 59 24 60 25 61 33 62 26 63 32 64 27 65 28 66 29 67 30 68
REMARK SMILES IDX 31 69 54 70 55 71 63 72 56 73 62 74 57 75 58 76 59 77 60 78
REMARK SMILES IDX 61 79 40 80 41 81 49 82 42 83 48 84 43 85 44 86 45 87 46 88
REMARK SMILES IDX 47 89
REMARK H PARENT 7 7 3 12 12 26 68 45 38 56
REMARK Flexibility Score: inf
ROOT
ATOM      1  C   UNL A   1      40.092  22.037  27.062  1.00  0.00     0.023 C 
ENDROOT
BRANCH   1   2
ATOM      2  C   UNL A   1      39.368  21.673  25.772  1.00  0.00     0.023 C 
BRANCH   2   3
ATOM      3  C   UNL A   1      37.853  21.877  25.778  1.00  0.00     0.116 C 
BRANCH   3   4
ATOM      4  N   UNL A   1      37.492  22.580  24.574  1.00  0.00    -0.354 N 
ATOM      5  C   UNL A   1      36.288  22.742  23.974  1.00  0.00     0.242 C 
ATOM      6  O   UNL A   1      36.339  23.098  22.789  1.00  0.00    -0.273 OA
ATOM      7  H   UNL A   1      38.244  23.015  24.111  1.00  0.00     0.163 HD
BRANCH   5   8
ATOM      8  C   UNL A   1      34.918  22.637  24.720  1.00  0.00     0.174 C 
BRANCH   8   9
ATOM      9  N   UNL A   1      34.814  21.167  24.884  1.00  0.00    -0.347 N 
ATOM     10  O   UNL A   1      33.750  19.164  24.788  1.00  0.00    -0.279 OA
ATOM     11  C   UNL A   1      33.807  20.349  24.490  1.00  0.00     0.337 C 
ATOM     12  H   UNL A   1      35.571  20.731  25.337  1.00  0.00     0.164 HD
ENDBRANCH   8   9
BRANCH   8  13
ATOM     13  C   UNL A   1      34.508  23.338  26.069  1.00  0.00     0.026 C 
ATOM     14  C   UNL A   1      34.341  22.580  27.399  1.00  0.00     0.035 C 
ATOM     15  C   UNL A   1      33.383  24.384  25.984  1.00  0.00     0.044 C 
ATOM     16  C   UNL A   1      32.901  22.304  27.863  1.00  0.00     0.161 C 
ATOM     17  C   UNL A   1      31.995  23.817  26.285  1.00  0.00     0.094 C 
ATOM     18  O   UNL A   1      32.007  23.395  27.645  1.00  0.00    -0.372 OA
ATOM     19  C   UNL A   1      30.951  24.893  26.028  1.00  0.00     0.066 C 
ATOM     20  C   UNL A   1      31.466  22.758  25.322  1.00  0.00     0.195 C 
ATOM     21  C   UNL A   1      30.749  24.796  24.521  1.00  0.00     0.163 C 
ATOM     22  O   UNL A   1      31.088  23.455  24.133  1.00  0.00    -0.378 OA
ENDBRANCH   8  13
ENDBRANCH   5   8
ENDBRANCH   3   4
ENDBRANCH   2   3
ENDBRANCH   1   2
BRANCH   1  23
ATOM     23  C   UNL A   1      40.254  23.526  27.285  1.00  0.00     0.116 C 
BRANCH  23  24
ATOM     24  N   UNL A   1      40.832  24.230  26.149  1.00  0.00    -0.352 N 
ATOM     25  C   UNL A   1      41.236  25.545  26.087  1.00  0.00     0.251 C 
ATOM     26  H   UNL A   1      40.946  23.702  25.326  1.00  0.00     0.163 HD
ATOM     27  O   UNL A   1      41.627  26.022  25.034  1.00  0.00    -0.269 OA
BRANCH  25  28
ATOM     28  C   UNL A   1      41.136  26.368  27.310  1.00  0.00     0.039 A 
ATOM     29  C   UNL A   1      41.979  27.470  27.455  1.00  0.00     0.014 A 
ATOM     30  C   UNL A   1      40.157  26.093  28.267  1.00  0.00     0.014 A 
ATOM     31  C   UNL A   1      41.799  28.328  28.539  1.00  0.00     0.010 A 
ATOM     32  C   UNL A   1      39.905  27.009  29.276  1.00  0.00     0.010 A 
ATOM     33  C   UNL A   1      40.741  28.121  29.441  1.00  0.00    -0.014 A 
BRANCH  33  34
ATOM     34  C   UNL A   1      40.528  29.021  30.600  1.00  0.00     0.031 A 
ATOM     35  C   UNL A   1      41.384  28.862  31.830  1.00  0.00     0.074 A 
ATOM     36  C   UNL A   1      39.538  29.936  30.570  1.00  0.00     0.049 A 
ATOM     37  N   UNL A   1      41.336  29.521  32.959  1.00  0.00    -0.248 NA
ATOM     38  C   UNL A   1      42.403  27.797  31.804  1.00  0.00     0.031 C 
ATOM     39  C   UNL A   1      38.596  30.137  29.465  1.00  0.00     0.029 A 
ATOM     40  N   UNL A   1      39.162  30.872  31.498  1.00  0.00    -0.354 N 
ATOM     41  C   UNL A   1      42.292  28.932  33.779  1.00  0.00     0.074 A 
ATOM     42  C   UNL A   1      42.857  27.822  33.047  1.00  0.00     0.031 C 
ATOM     43  C   UNL A   1      37.779  31.160  29.765  1.00  0.00     0.029 A 
ATOM     44  C   UNL A   1      38.119  31.668  31.089  1.00  0.00     0.049 A 
ATOM     45  H   UNL A   1      39.598  30.965  32.377  1.00  0.00     0.167 HD
ATOM     46  C   UNL A   1      42.692  29.301  35.019  1.00  0.00     0.031 A 
ATOM     47  C   UNL A   1      37.514  32.701  31.709  1.00  0.00     0.031 A 
ATOM     48  C   UNL A   1      42.159  30.435  35.724  1.00  0.00     0.049 A 
ATOM     49  C   UNL A   1      38.019  33.133  33.059  1.00  0.00     0.074 A 
ATOM     50  C   UNL A   1      42.539  30.940  36.954  1.00  0.00     0.029 A 
ATOM     51  N   UNL A   1      41.143  31.249  35.250  1.00  0.00    -0.354 N 
ATOM     52  N   UNL A   1      38.972  32.605  33.791  1.00  0.00    -0.248 NA
ATOM     53  C   UNL A   1      37.385  34.317  33.654  1.00  0.00     0.031 C 
ATOM     54  C   UNL A   1      41.727  32.042  37.240  1.00  0.00     0.029 A 
ATOM     55  C   UNL A   1      40.878  32.252  36.164  1.00  0.00     0.049 A 
ATOM     56  H   UNL A   1      40.677  31.130  34.391  1.00  0.00     0.167 HD
ATOM     57  C   UNL A   1      39.076  33.416  34.916  1.00  0.00     0.074 A 
ATOM     58  C   UNL A   1      38.101  34.476  34.759  1.00  0.00     0.031 C 
ATOM     59  C   UNL A   1      39.907  33.300  35.983  1.00  0.00     0.031 A 
BRANCH  46  60
ATOM     60  C   UNL A   1      43.767  28.478  35.675  1.00  0.00    -0.014 A 
ATOM     61  C   UNL A   1      43.451  27.306  36.387  1.00  0.00     0.010 A 
ATOM     62  C   UNL A   1      45.113  28.864  35.558  1.00  0.00     0.010 A 
ATOM     63  C   UNL A   1      44.456  26.560  37.008  1.00  0.00     0.020 A 
ATOM     64  C   UNL A   1      46.126  28.104  36.151  1.00  0.00     0.020 A 
ATOM     65  C   UNL A   1      45.788  26.967  36.887  1.00  0.00     0.054 A 
BRANCH  65  66
ATOM     66  S   UNL A   1      47.077  25.965  37.679  1.00  0.00     0.124 S 
ATOM     67  O   UNL A   1      46.547  25.810  39.032  1.00  0.00    -0.237 OA
ATOM     68  O   UNL A   1      47.084  24.751  36.867  1.00  0.00    -0.237 OA
ATOM     69  O   UNL A   1      48.275  26.792  37.569  1.00  0.00    -0.744 OA
ENDBRANCH  65  66
ENDBRANCH  46  60
BRANCH  47  70
ATOM     70  C   UNL A   1      36.401  33.428  31.040  1.00  0.00    -0.014 A 
ATOM     71  C   UNL A   1      36.525  33.852  29.705  1.00  0.00     0.010 A 
ATOM     72  C   UNL A   1      35.209  33.702  31.736  1.00  0.00     0.010 A 
ATOM     73  C   UNL A   1      35.493  34.565  29.087  1.00  0.00     0.020 A 
ATOM     74  C   UNL A   1      34.164  34.390  31.113  1.00  0.00     0.020 A 
ATOM     75  C   UNL A   1      34.319  34.832  29.797  1.00  0.00     0.054 A 
BRANCH  75  76
ATOM     76  S   UNL A   1      32.977  35.727  28.966  1.00  0.00     0.124 S 
ATOM     77  O   UNL A   1      33.707  36.772  28.254  1.00  0.00    -0.237 OA
ATOM     78  O   UNL A   1      32.375  34.691  28.130  1.00  0.00    -0.237 OA
ATOM     79  O   UNL A   1      32.140  36.188  30.071  1.00  0.00    -0.744 OA
ENDBRANCH  75  76
ENDBRANCH  47  70
BRANCH  59  80
ATOM     80  C   UNL A   1      39.831  34.374  37.032  1.00  0.00    -0.014 A 
ATOM     81  C   UNL A   1      40.524  35.589  36.889  1.00  0.00     0.010 A 
ATOM     82  C   UNL A   1      39.026  34.170  38.168  1.00  0.00     0.010 A 
ATOM     83  C   UNL A   1      40.456  36.559  37.892  1.00  0.00     0.020 A 
ATOM     84  C   UNL A   1      38.934  35.150  39.158  1.00  0.00     0.020 A 
ATOM     85  C   UNL A   1      39.667  36.330  39.024  1.00  0.00     0.054 A 
BRANCH  85  86
ATOM     86  S   UNL A   1      39.589  37.605  40.310  1.00  0.00     0.124 S 
ATOM     87  O   UNL A   1      40.995  37.960  40.470  1.00  0.00    -0.237 OA
ATOM     88  O   UNL A   1      38.746  38.629  39.698  1.00  0.00    -0.237 OA
ATOM     89  O   UNL A   1      38.987  36.911  41.448  1.00  0.00    -0.744 OA
ENDBRANCH  85  86
ENDBRANCH  59  80
ENDBRANCH  33  34
ENDBRANCH  25  28
ENDBRANCH  23  24
ENDBRANCH   1  23
TORSDOF 16
ENDMDL
MODEL 3
REMARK VINA RESULT:     -10.4      2.698      9.265
REMARK SMILES O=CN[C@H](C(=O)NCCCCNC(=O)c1ccc(-c2c3nc(c(-c4ccc(S(=O)(=O)[O-])cc4)c4ccc([nH]4)c(-c4ccc(S(=O)(=O)[O-])cc4)c4nc(c(-c5ccc(S(=O)(=O)[O-])cc5)c5ccc2[nH]5)C=C4)C=C3)cc1)[C@@H]1CCO[C@@]2(CCOC2)C1
REMARK SMILES IDX 10 1 9 2 8 3 7 4 5 5 6 6 4 8 3 9 1 10 2 11 75 13 76 14 84 15
REMARK SMILES IDX 77 16 79 17 78 18 80 19 83 20 81 21 82 22 11 23 12 24 13 25
REMARK SMILES IDX 14 27 15 28 16 29 74 30 17 31 73 32 18 33 19 34 20 35 67 36
REMARK SMILES IDX 21 37 72 38 66 39 68 40 22 41 71 42 65 43 64 44 23 46 53 47
REMARK SMILES IDX 34 48 52 49 35 50 38 51 51 52 69 53 36 54 37 55 50 57 70 58
REMARK SMILES IDX 39 59 24 60 25 61 33 62 26 63 32 64 27 65 28 66 29 67 30 68
REMARK SMILES IDX 31 69 54 70 55 71 63 72 56 73 62 74 57 75 58 76 59 77 60 78
REMARK SMILES IDX 61 79 40 80 41 81 49 82 42 83 48 84 43 85 44 86 45 87 46 88
REMARK SMILES IDX 47 89
REMARK H PARENT 7 7 3 12 12 26 68 45 38 56
REMARK Flexibility Score: inf
ROOT
ATOM      1  C   UNL A   1      36.065  23.514  24.132  1.00  0.00     0.023 C 
ENDROOT
BRANCH   1   2
ATOM      2  C   UNL A   1      34.743  24.272  24.131  1.00  0.00     0.023 C 
BRANCH   2   3
ATOM      3  C   UNL A   1      33.639  23.688  25.012  1.00  0.00     0.116 C 
BRANCH   3   4
ATOM      4  N   UNL A   1      32.546  23.297  24.160  1.00  0.00    -0.354 N 
ATOM      5  C   UNL A   1      31.540  24.030  23.623  1.00  0.00     0.242 C 
ATOM      6  O   UNL A   1      30.572  23.371  23.222  1.00  0.00    -0.273 OA
ATOM      7  H   UNL A   1      32.527  22.341  23.928  1.00  0.00     0.163 HD
BRANCH   5   8
ATOM      8  C   UNL A   1      31.615  25.573  23.381  1.00  0.00     0.174 C 
BRANCH   8   9
ATOM      9  N   UNL A   1      31.732  25.606  21.903  1.00  0.00    -0.347 N 
ATOM     10  O   UNL A   1      32.866  25.598  19.937  1.00  0.00    -0.279 OA
ATOM     11  C   UNL A   1      32.842  25.421  21.146  1.00  0.00     0.337 C 
ATOM     12  H   UNL A   1      30.900  25.787  21.410  1.00  0.00     0.164 HD
ENDBRANCH   8   9
BRANCH   8  13
ATOM     13  C   UNL A   1      30.577  26.663  23.842  1.00  0.00     0.026 C 
ATOM     14  C   UNL A   1      29.881  27.634  22.869  1.00  0.00     0.035 C 
ATOM     15  C   UNL A   1      30.932  27.454  25.113  1.00  0.00     0.044 C 
ATOM     16  C   UNL A   1      30.404  29.080  22.841  1.00  0.00     0.161 C 
ATOM     17  C   UNL A   1      31.644  28.778  24.834  1.00  0.00     0.094 C 
ATOM     18  O   UNL A   1      30.721  29.603  24.131  1.00  0.00    -0.372 OA
ATOM     19  C   UNL A   1      32.078  29.398  26.153  1.00  0.00     0.066 C 
ATOM     20  C   UNL A   1      33.014  28.689  24.168  1.00  0.00     0.195 C 
ATOM     21  C   UNL A   1      33.384  28.668  26.442  1.00  0.00     0.163 C 
ATOM     22  O   UNL A   1      33.920  28.243  25.179  1.00  0.00    -0.378 OA
ENDBRANCH   8  13
ENDBRANCH   5   8
ENDBRANCH   3   4
ENDBRANCH   2   3
ENDBRANCH   1   2
BRANCH   1  23
ATOM     23  C   UNL A   1      36.897  23.718  25.381  1.00  0.00     0.116 C 
BRANCH  23  24
ATOM     24  N   UNL A   1      37.978  22.755  25.530  1.00  0.00    -0.352 N 
ATOM     25  C   UNL A   1      39.194  22.939  26.151  1.00  0.00     0.251 C 
ATOM     26  H   UNL A   1      37.822  21.866  25.139  1.00  0.00     0.163 HD
ATOM     27  O   UNL A   1      40.041  22.061  26.124  1.00  0.00    -0.269 OA
BRANCH  25  28
ATOM     28  C   UNL A   1      39.459  24.240  26.802  1.00  0.00     0.039 A 
ATOM     29  C   UNL A   1      39.036  24.437  28.116  1.00  0.00     0.014 A 
ATOM     30  C   UNL A   1      40.194  25.224  26.137  1.00  0.00     0.014 A 
ATOM     31  C   UNL A   1      39.401  25.607  28.782  1.00  0.00     0.010 A 
ATOM     32  C   UNL A   1      40.652  26.330  26.836  1.00  0.00     0.010 A 
ATOM     33  C   UNL A   1      40.237  26.549  28.156  1.00  0.00    -0.014 A 
BRANCH  33  34
ATOM     34  C   UNL A   1      40.641  27.799  28.843  1.00  0.00     0.031 A 
ATOM     35  C   UNL A   1      42.022  27.906  29.436  1.00  0.00     0.074 A 
ATOM     36  C   UNL A   1      39.758  28.808  28.982  1.00  0.00     0.049 A 
ATOM     37  N   UNL A   1      42.558  28.895  30.104  1.00  0.00    -0.248 NA
ATOM     38  C   UNL A   1      42.905  26.735  29.294  1.00  0.00     0.031 C 
ATOM     39  C   UNL A   1      38.368  28.796  28.514  1.00  0.00     0.029 A 
ATOM     40  N   UNL A   1      39.900  30.045  29.556  1.00  0.00    -0.354 N 
ATOM     41  C   UNL A   1      43.820  28.451  30.483  1.00  0.00     0.074 A 
ATOM     42  C   UNL A   1      43.947  27.085  30.031  1.00  0.00     0.031 C 
ATOM     43  C   UNL A   1      37.802  29.983  28.785  1.00  0.00     0.029 A 
ATOM     44  C   UNL A   1      38.775  30.829  29.467  1.00  0.00     0.049 A 
ATOM     45  H   UNL A   1      40.732  30.343  29.992  1.00  0.00     0.167 HD
ATOM     46  C   UNL A   1      44.803  29.131  31.120  1.00  0.00     0.031 A 
ATOM     47  C   UNL A   1      38.559  32.093  29.879  1.00  0.00     0.031 A 
ATOM     48  C   UNL A   1      44.690  30.504  31.525  1.00  0.00     0.049 A 
ATOM     49  C   UNL A   1      39.687  32.849  30.526  1.00  0.00     0.074 A 
ATOM     50  C   UNL A   1      45.647  31.310  32.115  1.00  0.00     0.029 A 
ATOM     51  N   UNL A   1      43.553  31.281  31.366  1.00  0.00    -0.354 N 
ATOM     52  N   UNL A   1      40.899  32.435  30.815  1.00  0.00    -0.248 NA
ATOM     53  C   UNL A   1      39.428  34.251  30.878  1.00  0.00     0.031 C 
ATOM     54  C   UNL A   1      45.076  32.566  32.345  1.00  0.00     0.029 A 
ATOM     55  C   UNL A   1      43.781  32.556  31.849  1.00  0.00     0.049 A 
ATOM     56  H   UNL A   1      42.707  30.969  30.970  1.00  0.00     0.167 HD
ATOM     57  C   UNL A   1      41.557  33.538  31.348  1.00  0.00     0.074 A 
ATOM     58  C   UNL A   1      40.614  34.637  31.328  1.00  0.00     0.031 C 
ATOM     59  C   UNL A   1      42.829  33.636  31.811  1.00  0.00     0.031 A 
BRANCH  46  60
ATOM     60  C   UNL A   1      46.088  28.396  31.397  1.00  0.00    -0.014 A 
ATOM     61  C   UNL A   1      47.109  28.330  30.431  1.00  0.00     0.010 A 
ATOM     62  C   UNL A   1      46.289  27.785  32.646  1.00  0.00     0.010 A 
ATOM     63  C   UNL A   1      48.289  27.630  30.692  1.00  0.00     0.020 A 
ATOM     64  C   UNL A   1      47.481  27.109  32.925  1.00  0.00     0.020 A 
ATOM     65  C   UNL A   1      48.465  27.021  31.939  1.00  0.00     0.054 A 
BRANCH  65  66
ATOM     66  S   UNL A   1      50.019  26.141  32.263  1.00  0.00     0.124 S 
ATOM     67  O   UNL A   1      50.784  26.428  31.052  1.00  0.00    -0.237 OA
ATOM     68  O   UNL A   1      50.504  26.787  33.480  1.00  0.00    -0.237 OA
ATOM     69  O   UNL A   1      49.602  24.751  32.422  1.00  0.00    -0.744 OA
ENDBRANCH  65  66
ENDBRANCH  46  60
BRANCH  47  70
ATOM     70  C   UNL A   1      37.239  32.741  29.648  1.00  0.00    -0.014 A 
ATOM     71  C   UNL A   1      36.940  33.330  28.406  1.00  0.00     0.010 A 
ATOM     72  C   UNL A   1      36.272  32.774  30.669  1.00  0.00     0.010 A 
ATOM     73  C   UNL A   1      35.714  33.968  28.198  1.00  0.00     0.020 A 
ATOM     74  C   UNL A   1      35.033  33.387  30.457  1.00  0.00     0.020 A 
ATOM     75  C   UNL A   1      34.769  33.995  29.227  1.00  0.00     0.054 A 
BRANCH  75  76
ATOM     76  S   UNL A   1      33.168  34.797  28.926  1.00  0.00     0.124 S 
ATOM     77  O   UNL A   1      32.558  33.897  27.952  1.00  0.00    -0.237 OA
ATOM     78  O   UNL A   1      32.561  34.799  30.255  1.00  0.00    -0.237 OA
ATOM     79  O   UNL A   1      33.539  36.115  28.417  1.00  0.00    -0.744 OA
ENDBRANCH  75  76
ENDBRANCH  47  70
BRANCH  59  80
ATOM     80  C   UNL A   1      43.287  34.989  32.279  1.00  0.00    -0.014 A 
ATOM     81  C   UNL A   1      43.253  35.346  33.638  1.00  0.00     0.010 A 
ATOM     82  C   UNL A   1      43.785  35.910  31.338  1.00  0.00     0.010 A 
ATOM     83  C   UNL A   1      43.660  36.621  34.041  1.00  0.00     0.020 A 
ATOM     84  C   UNL A   1      44.219  37.173  31.741  1.00  0.00     0.020 A 
ATOM     85  C   UNL A   1      44.134  37.529  33.089  1.00  0.00     0.054 A 
BRANCH  85  86
ATOM     86  S   UNL A   1      44.662  39.174  33.634  1.00  0.00     0.124 S 
ATOM     87  O   UNL A   1      45.328  39.689  32.441  1.00  0.00    -0.237 OA
ATOM     88  O   UNL A   1      43.399  39.821  33.979  1.00  0.00    -0.237 OA
ATOM     89  O   UNL A   1      45.542  38.896  34.768  1.00  0.00    -0.744 OA
ENDBRANCH  85  86
ENDBRANCH  59  80
ENDBRANCH  33  34
ENDBRANCH  25  28
ENDBRANCH  23  24
ENDBRANCH   1  23
TORSDOF 16
ENDMDL
