MODEL 1
REMARK VINA RESULT:     -10.3      0.000      0.000
REMARK SMILES C[C@@H](C(=O)NCCCCNC(=O)c1ccc(-c2c3nc(c(-c4ccc(S(=O)(=O)[O-])cc4)c4ccc([nH]4)c(-c4ccc(S(=O)(=O)[O-])cc4)c4nc(c(-c5ccc(S(=O)(=O)[O-])cc5)c5ccc2[nH]5)C=C4)C=C3)cc1)c1ccc(=O)n(C(F)F)c1
REMARK SMILES IDX 8 1 7 2 6 3 5 4 3 5 4 6 2 8 1 9 73 10 74 11 82 12 75 13
REMARK SMILES IDX 78 14 76 15 77 16 79 17 80 18 81 19 9 20 10 21 11 22 12 24
REMARK SMILES IDX 13 25 14 26 72 27 15 28 71 29 16 30 17 31 18 32 65 33 19 34
REMARK SMILES IDX 70 35 64 36 66 37 20 38 69 39 63 40 62 41 21 43 51 44 32 45
REMARK SMILES IDX 50 46 33 47 36 48 49 49 67 50 34 51 35 52 48 54 68 55 37 56
REMARK SMILES IDX 22 57 23 58 31 59 24 60 30 61 25 62 26 63 27 64 28 65 29 66
REMARK SMILES IDX 52 67 53 68 61 69 54 70 60 71 55 72 56 73 57 74 58 75 59 76
REMARK SMILES IDX 38 77 39 78 47 79 40 80 46 81 41 82 42 83 43 84 44 85 45 86
REMARK H PARENT 5 7 10 23 66 42 36 53
REMARK Flexibility Score: inf
ROOT
ATOM      1  C   UNL A   1      32.473  27.641  26.900  1.00  0.00     0.023 C 
ENDROOT
BRANCH   1   2
ATOM      2  C   UNL A   1      31.514  27.770  25.714  1.00  0.00     0.023 C 
BRANCH   2   3
ATOM      3  C   UNL A   1      30.756  26.491  25.352  1.00  0.00     0.116 C 
BRANCH   3   4
ATOM      4  N   UNL A   1      30.794  25.529  26.435  1.00  0.00    -0.356 N 
ATOM      5  C   UNL A   1      31.227  24.237  26.478  1.00  0.00     0.227 C 
ATOM      6  O   UNL A   1      31.085  23.667  27.563  1.00  0.00    -0.274 OA
ATOM      7  H   UNL A   1      30.444  25.868  27.290  1.00  0.00     0.163 HD
BRANCH   5   8
ATOM      8  C   UNL A   1      31.904  23.584  25.242  1.00  0.00     0.107 C 
ATOM      9  C   UNL A   1      31.363  22.178  24.962  1.00  0.00     0.023 C 
BRANCH   8  10
ATOM     10  C   UNL A   1      33.433  23.481  25.286  1.00  0.00    -0.019 A 
ATOM     11  C   UNL A   1      34.159  24.726  25.502  1.00  0.00     0.012 A 
ATOM     12  C   UNL A   1      34.159  22.369  25.068  1.00  0.00     0.099 A 
ATOM     13  C   UNL A   1      35.494  24.777  25.417  1.00  0.00     0.072 A 
ATOM     14  N   UNL A   1      35.544  22.383  25.035  1.00  0.00    -0.258 N 
ATOM     15  C   UNL A   1      36.282  23.546  25.145  1.00  0.00     0.254 A 
ATOM     16  O   UNL A   1      37.500  23.643  25.039  1.00  0.00    -0.269 OA
BRANCH  14  17
ATOM     17  C   UNL A   1      36.266  21.159  24.794  1.00  0.00     0.451 C 
ATOM     18  F   UNL A   1      37.095  20.879  25.829  1.00  0.00    -0.185 F 
ATOM     19  F   UNL A   1      35.421  20.109  24.643  1.00  0.00    -0.185 F 
ENDBRANCH  14  17
ENDBRANCH   8  10
ENDBRANCH   5   8
ENDBRANCH   3   4
ENDBRANCH   2   3
ENDBRANCH   1   2
BRANCH   1  20
ATOM     20  C   UNL A   1      33.758  28.450  26.788  1.00  0.00     0.116 C 
BRANCH  20  21
ATOM     21  N   UNL A   1      33.609  29.808  27.285  1.00  0.00    -0.352 N 
ATOM     22  C   UNL A   1      34.489  30.554  28.031  1.00  0.00     0.251 C 
ATOM     23  H   UNL A   1      32.763  30.254  27.054  1.00  0.00     0.163 HD
ATOM     24  O   UNL A   1      34.133  31.636  28.492  1.00  0.00    -0.269 OA
BRANCH  22  25
ATOM     25  C   UNL A   1      35.847  30.037  28.299  1.00  0.00     0.039 A 
ATOM     26  C   UNL A   1      36.814  30.122  27.294  1.00  0.00     0.014 A 
ATOM     27  C   UNL A   1      36.171  29.486  29.541  1.00  0.00     0.014 A 
ATOM     28  C   UNL A   1      38.121  29.707  27.556  1.00  0.00     0.010 A 
ATOM     29  C   UNL A   1      37.490  29.147  29.825  1.00  0.00     0.010 A 
ATOM     30  C   UNL A   1      38.478  29.247  28.834  1.00  0.00    -0.014 A 
BRANCH  30  31
ATOM     31  C   UNL A   1      39.876  28.857  29.151  1.00  0.00     0.031 A 
ATOM     32  C   UNL A   1      40.803  29.839  29.815  1.00  0.00     0.074 A 
ATOM     33  C   UNL A   1      40.331  27.641  28.786  1.00  0.00     0.049 A 
ATOM     34  N   UNL A   1      42.066  29.701  30.126  1.00  0.00    -0.248 NA
ATOM     35  C   UNL A   1      40.243  31.159  30.149  1.00  0.00     0.031 C 
ATOM     36  C   UNL A   1      39.543  26.612  28.102  1.00  0.00     0.029 A 
ATOM     37  N   UNL A   1      41.568  27.068  28.935  1.00  0.00    -0.354 N 
ATOM     38  C   UNL A   1      42.456  30.918  30.674  1.00  0.00     0.074 A 
ATOM     39  C   UNL A   1      41.311  31.799  30.601  1.00  0.00     0.031 C 
ATOM     40  C   UNL A   1      40.307  25.522  27.922  1.00  0.00     0.029 A 
ATOM     41  C   UNL A   1      41.648  25.789  28.434  1.00  0.00     0.049 A 
ATOM     42  H   UNL A   1      42.327  27.527  29.361  1.00  0.00     0.167 HD
ATOM     43  C   UNL A   1      43.650  31.267  31.209  1.00  0.00     0.031 A 
ATOM     44  C   UNL A   1      42.683  24.928  28.389  1.00  0.00     0.031 A 
ATOM     45  C   UNL A   1      44.786  30.385  31.281  1.00  0.00     0.049 A 
ATOM     46  C   UNL A   1      44.007  25.341  28.971  1.00  0.00     0.074 A 
ATOM     47  C   UNL A   1      46.024  30.624  31.851  1.00  0.00     0.029 A 
ATOM     48  N   UNL A   1      44.826  29.099  30.763  1.00  0.00    -0.354 N 
ATOM     49  N   UNL A   1      44.338  26.473  29.546  1.00  0.00    -0.248 NA
ATOM     50  C   UNL A   1      45.094  24.355  28.910  1.00  0.00     0.031 C 
ATOM     51  C   UNL A   1      46.832  29.504  31.625  1.00  0.00     0.029 A 
ATOM     52  C   UNL A   1      46.076  28.542  30.975  1.00  0.00     0.049 A 
ATOM     53  H   UNL A   1      44.076  28.650  30.311  1.00  0.00     0.167 HD
ATOM     54  C   UNL A   1      45.662  26.324  29.942  1.00  0.00     0.074 A 
ATOM     55  C   UNL A   1      46.067  24.989  29.552  1.00  0.00     0.031 C 
ATOM     56  C   UNL A   1      46.467  27.212  30.577  1.00  0.00     0.031 A 
BRANCH  43  57
ATOM     57  C   UNL A   1      43.788  32.670  31.741  1.00  0.00    -0.014 A 
ATOM     58  C   UNL A   1      44.209  33.727  30.913  1.00  0.00     0.010 A 
ATOM     59  C   UNL A   1      43.480  32.940  33.088  1.00  0.00     0.010 A 
ATOM     60  C   UNL A   1      44.377  35.013  31.435  1.00  0.00     0.020 A 
ATOM     61  C   UNL A   1      43.614  34.232  33.605  1.00  0.00     0.020 A 
ATOM     62  C   UNL A   1      44.084  35.255  32.780  1.00  0.00     0.054 A 
BRANCH  62  63
ATOM     63  S   UNL A   1      44.316  36.932  33.431  1.00  0.00     0.124 S 
ATOM     64  O   UNL A   1      43.530  36.888  34.662  1.00  0.00    -0.237 OA
ATOM     65  O   UNL A   1      45.763  37.007  33.613  1.00  0.00    -0.237 OA
ATOM     66  O   UNL A   1      43.778  37.791  32.379  1.00  0.00    -0.744 OA
ENDBRANCH  62  63
ENDBRANCH  43  57
BRANCH  44  67
ATOM     67  C   UNL A   1      42.495  23.577  27.791  1.00  0.00    -0.014 A 
ATOM     68  C   UNL A   1      42.944  23.307  26.487  1.00  0.00     0.010 A 
ATOM     69  C   UNL A   1      41.895  22.544  28.535  1.00  0.00     0.010 A 
ATOM     70  C   UNL A   1      42.791  22.033  25.933  1.00  0.00     0.020 A 
ATOM     71  C   UNL A   1      41.765  21.261  27.996  1.00  0.00     0.020 A 
ATOM     72  C   UNL A   1      42.208  21.015  26.695  1.00  0.00     0.054 A 
BRANCH  72  73
ATOM     73  S   UNL A   1      42.085  19.352  25.981  1.00  0.00     0.124 S 
ATOM     74  O   UNL A   1      42.633  18.520  27.048  1.00  0.00    -0.237 OA
ATOM     75  O   UNL A   1      40.650  19.217  25.745  1.00  0.00    -0.237 OA
ATOM     76  O   UNL A   1      42.901  19.439  24.771  1.00  0.00    -0.744 OA
ENDBRANCH  72  73
ENDBRANCH  44  67
BRANCH  56  77
ATOM     77  C   UNL A   1      47.862  26.760  30.925  1.00  0.00    -0.014 A 
ATOM     78  C   UNL A   1      48.946  26.991  30.060  1.00  0.00     0.010 A 
ATOM     79  C   UNL A   1      48.097  26.140  32.167  1.00  0.00     0.010 A 
ATOM     80  C   UNL A   1      50.235  26.585  30.418  1.00  0.00     0.020 A 
ATOM     81  C   UNL A   1      49.388  25.760  32.541  1.00  0.00     0.020 A 
ATOM     82  C   UNL A   1      50.447  25.973  31.657  1.00  0.00     0.054 A 
BRANCH  82  83
ATOM     83  S   UNL A   1      52.135  25.495  32.117  1.00  0.00     0.124 S 
ATOM     84  O   UNL A   1      52.339  26.249  33.351  1.00  0.00    -0.237 OA
ATOM     85  O   UNL A   1      52.026  24.046  32.275  1.00  0.00    -0.237 OA
ATOM     86  O   UNL A   1      52.942  25.932  30.981  1.00  0.00    -0.744 OA
ENDBRANCH  82  83
ENDBRANCH  56  77
ENDBRANCH  30  31
ENDBRANCH  22  25
ENDBRANCH  20  21
ENDBRANCH   1  20
TORSDOF 16
ENDMDL
MODEL 2
REMARK VINA RESULT:     -10.3      4.407      6.789
REMARK SMILES C[C@@H](C(=O)NCCCCNC(=O)c1ccc(-c2c3nc(c(-c4ccc(S(=O)(=O)[O-])cc4)c4ccc([nH]4)c(-c4ccc(S(=O)(=O)[O-])cc4)c4nc(c(-c5ccc(S(=O)(=O)[O-])cc5)c5ccc2[nH]5)C=C4)C=C3)cc1)c1ccc(=O)n(C(F)F)c1
REMARK SMILES IDX 8 1 7 2 6 3 5 4 3 5 4 6 2 8 1 9 73 10 74 11 82 12 75 13
REMARK SMILES IDX 78 14 76 15 77 16 79 17 80 18 81 19 9 20 10 21 11 22 12 24
REMARK SMILES IDX 13 25 14 26 72 27 15 28 71 29 16 30 17 31 18 32 65 33 19 34
REMARK SMILES IDX 70 35 64 36 66 37 20 38 69 39 63 40 62 41 21 43 51 44 32 45
REMARK SMILES IDX 50 46 33 47 36 48 49 49 67 50 34 51 35 52 48 54 68 55 37 56
REMARK SMILES IDX 22 57 23 58 31 59 24 60 30 61 25 62 26 63 27 64 28 65 29 66
REMARK SMILES IDX 52 67 53 68 61 69 54 70 60 71 55 72 56 73 57 74 58 75 59 76
REMARK SMILES IDX 38 77 39 78 47 79 40 80 46 81 41 82 42 83 43 84 44 85 45 86
REMARK H PARENT 5 7 10 23 66 42 36 53
REMARK Flexibility Score: inf
ROOT
ATOM      1  C   UNL A   1      34.035  34.198  28.048  1.00  0.00     0.023 C 
ENDROOT
BRANCH   1   2
ATOM      2  C   UNL A   1      34.222  35.274  29.120  1.00  0.00     0.023 C 
BRANCH   2   3
ATOM      3  C   UNL A   1      33.159  35.283  30.221  1.00  0.00     0.116 C 
BRANCH   3   4
ATOM      4  N   UNL A   1      33.576  36.087  31.352  1.00  0.00    -0.356 N 
ATOM      5  C   UNL A   1      34.319  35.778  32.452  1.00  0.00     0.227 C 
ATOM      6  O   UNL A   1      34.465  36.694  33.266  1.00  0.00    -0.274 OA
ATOM      7  H   UNL A   1      33.266  37.021  31.321  1.00  0.00     0.163 HD
BRANCH   5   8
ATOM      8  C   UNL A   1      34.970  34.377  32.603  1.00  0.00     0.107 C 
ATOM      9  C   UNL A   1      34.784  33.801  34.011  1.00  0.00     0.023 C 
BRANCH   8  10
ATOM     10  C   UNL A   1      36.465  34.288  32.272  1.00  0.00    -0.019 A 
ATOM     11  C   UNL A   1      37.388  34.577  33.362  1.00  0.00     0.012 A 
ATOM     12  C   UNL A   1      36.995  34.045  31.059  1.00  0.00     0.099 A 
ATOM     13  C   UNL A   1      38.706  34.668  33.153  1.00  0.00     0.072 A 
ATOM     14  N   UNL A   1      38.360  34.073  30.827  1.00  0.00    -0.258 N 
ATOM     15  C   UNL A   1      39.275  34.428  31.800  1.00  0.00     0.254 A 
ATOM     16  O   UNL A   1      40.485  34.557  31.643  1.00  0.00    -0.269 OA
BRANCH  14  17
ATOM     17  C   UNL A   1      38.867  33.807  29.505  1.00  0.00     0.451 C 
ATOM     18  F   UNL A   1      37.933  33.178  28.751  1.00  0.00    -0.185 F 
ATOM     19  F   UNL A   1      39.211  34.955  28.868  1.00  0.00    -0.185 F 
ENDBRANCH  14  17
ENDBRANCH   8  10
ENDBRANCH   5   8
ENDBRANCH   3   4
ENDBRANCH   2   3
ENDBRANCH   1   2
BRANCH   1  20
ATOM     20  C   UNL A   1      34.529  32.808  28.428  1.00  0.00     0.116 C 
BRANCH  20  21
ATOM     21  N   UNL A   1      33.919  31.759  27.626  1.00  0.00    -0.352 N 
ATOM     22  C   UNL A   1      34.404  30.509  27.329  1.00  0.00     0.251 C 
ATOM     23  H   UNL A   1      33.038  31.975  27.245  1.00  0.00     0.163 HD
ATOM     24  O   UNL A   1      33.819  29.806  26.509  1.00  0.00    -0.269 OA
BRANCH  22  25
ATOM     25  C   UNL A   1      35.643  30.030  27.977  1.00  0.00     0.039 A 
ATOM     26  C   UNL A   1      36.861  30.190  27.309  1.00  0.00     0.014 A 
ATOM     27  C   UNL A   1      35.608  29.440  29.242  1.00  0.00     0.014 A 
ATOM     28  C   UNL A   1      38.048  29.811  27.939  1.00  0.00     0.010 A 
ATOM     29  C   UNL A   1      36.797  29.137  29.898  1.00  0.00     0.010 A 
ATOM     30  C   UNL A   1      38.029  29.312  29.251  1.00  0.00    -0.014 A 
BRANCH  30  31
ATOM     31  C   UNL A   1      39.286  28.960  29.961  1.00  0.00     0.031 A 
ATOM     32  C   UNL A   1      39.693  29.714  31.198  1.00  0.00     0.074 A 
ATOM     33  C   UNL A   1      40.093  28.003  29.458  1.00  0.00     0.049 A 
ATOM     34  N   UNL A   1      40.774  29.585  31.925  1.00  0.00    -0.248 NA
ATOM     35  C   UNL A   1      38.779  30.768  31.664  1.00  0.00     0.031 C 
ATOM     36  C   UNL A   1      39.830  27.225  28.245  1.00  0.00     0.029 A 
ATOM     37  N   UNL A   1      41.300  27.527  29.903  1.00  0.00    -0.354 N 
ATOM     38  C   UNL A   1      40.677  30.552  32.920  1.00  0.00     0.074 A 
ATOM     39  C   UNL A   1      39.462  31.295  32.669  1.00  0.00     0.031 C 
ATOM     40  C   UNL A   1      40.829  26.347  28.062  1.00  0.00     0.029 A 
ATOM     41  C   UNL A   1      41.823  26.528  29.116  1.00  0.00     0.049 A 
ATOM     42  H   UNL A   1      41.749  27.867  30.710  1.00  0.00     0.167 HD
ATOM     43  C   UNL A   1      41.512  30.788  33.960  1.00  0.00     0.031 A 
ATOM     44  C   UNL A   1      42.975  25.837  29.225  1.00  0.00     0.031 A 
ATOM     45  C   UNL A   1      42.720  30.045  34.206  1.00  0.00     0.049 A 
ATOM     46  C   UNL A   1      43.898  26.127  30.377  1.00  0.00     0.074 A 
ATOM     47  C   UNL A   1      43.607  30.170  35.260  1.00  0.00     0.029 A 
ATOM     48  N   UNL A   1      43.214  29.041  33.385  1.00  0.00    -0.354 N 
ATOM     49  N   UNL A   1      43.757  27.000  31.347  1.00  0.00    -0.248 NA
ATOM     50  C   UNL A   1      45.129  25.330  30.457  1.00  0.00     0.031 C 
ATOM     51  C   UNL A   1      44.668  29.283  35.046  1.00  0.00     0.029 A 
ATOM     52  C   UNL A   1      44.408  28.558  33.894  1.00  0.00     0.049 A 
ATOM     53  H   UNL A   1      42.780  28.721  32.561  1.00  0.00     0.167 HD
ATOM     54  C   UNL A   1      44.866  26.836  32.168  1.00  0.00     0.074 A 
ATOM     55  C   UNL A   1      45.662  25.773  31.588  1.00  0.00     0.031 C 
ATOM     56  C   UNL A   1      45.193  27.502  33.303  1.00  0.00     0.031 A 
BRANCH  43  57
ATOM     57  C   UNL A   1      41.150  31.911  34.898  1.00  0.00    -0.014 A 
ATOM     58  C   UNL A   1      41.684  33.202  34.732  1.00  0.00     0.010 A 
ATOM     59  C   UNL A   1      40.251  31.675  35.955  1.00  0.00     0.010 A 
ATOM     60  C   UNL A   1      41.374  34.219  35.639  1.00  0.00     0.020 A 
ATOM     61  C   UNL A   1      39.912  32.699  36.845  1.00  0.00     0.020 A 
ATOM     62  C   UNL A   1      40.495  33.959  36.694  1.00  0.00     0.054 A 
BRANCH  62  63
ATOM     63  S   UNL A   1      40.115  35.297  37.858  1.00  0.00     0.124 S 
ATOM     64  O   UNL A   1      39.937  36.435  36.960  1.00  0.00    -0.237 OA
ATOM     65  O   UNL A   1      38.900  34.817  38.512  1.00  0.00    -0.237 OA
ATOM     66  O   UNL A   1      41.297  35.358  38.714  1.00  0.00    -0.744 OA
ENDBRANCH  62  63
ENDBRANCH  43  57
BRANCH  44  67
ATOM     67  C   UNL A   1      43.302  24.782  28.227  1.00  0.00    -0.014 A 
ATOM     68  C   UNL A   1      42.722  23.506  28.323  1.00  0.00     0.010 A 
ATOM     69  C   UNL A   1      44.171  25.059  27.154  1.00  0.00     0.010 A 
ATOM     70  C   UNL A   1      43.008  22.523  27.371  1.00  0.00     0.020 A 
ATOM     71  C   UNL A   1      44.438  24.088  26.185  1.00  0.00     0.020 A 
ATOM     72  C   UNL A   1      43.860  22.823  26.304  1.00  0.00     0.054 A 
BRANCH  72  73
ATOM     73  S   UNL A   1      44.161  21.553  25.044  1.00  0.00     0.124 S 
ATOM     74  O   UNL A   1      43.215  20.510  25.429  1.00  0.00    -0.237 OA
ATOM     75  O   UNL A   1      43.852  22.261  23.805  1.00  0.00    -0.237 OA
ATOM     76  O   UNL A   1      45.572  21.218  25.226  1.00  0.00    -0.744 OA
ENDBRANCH  72  73
ENDBRANCH  44  67
BRANCH  56  77
ATOM     77  C   UNL A   1      46.449  27.080  34.020  1.00  0.00    -0.014 A 
ATOM     78  C   UNL A   1      46.434  26.063  34.990  1.00  0.00     0.010 A 
ATOM     79  C   UNL A   1      47.676  27.678  33.674  1.00  0.00     0.010 A 
ATOM     80  C   UNL A   1      47.618  25.672  35.623  1.00  0.00     0.020 A 
ATOM     81  C   UNL A   1      48.865  27.269  34.282  1.00  0.00     0.020 A 
ATOM     82  C   UNL A   1      48.826  26.277  35.263  1.00  0.00     0.054 A 
BRANCH  82  83
ATOM     83  S   UNL A   1      50.355  25.721  36.067  1.00  0.00     0.124 S 
ATOM     84  O   UNL A   1      50.056  25.950  37.478  1.00  0.00    -0.237 OA
ATOM     85  O   UNL A   1      50.439  24.321  35.659  1.00  0.00    -0.237 OA
ATOM     86  O   UNL A   1      51.382  26.591  35.499  1.00  0.00    -0.744 OA
ENDBRANCH  82  83
ENDBRANCH  56  77
ENDBRANCH  30  31
ENDBRANCH  22  25
ENDBRANCH  20  21
ENDBRANCH   1  20
TORSDOF 16
ENDMDL
MODEL 3
REMARK VINA RESULT:     -10.2      3.577     10.350
REMARK SMILES C[C@@H](C(=O)NCCCCNC(=O)c1ccc(-c2c3nc(c(-c4ccc(S(=O)(=O)[O-])cc4)c4ccc([nH]4)c(-c4ccc(S(=O)(=O)[O-])cc4)c4nc(c(-c5ccc(S(=O)(=O)[O-])cc5)c5ccc2[nH]5)C=C4)C=C3)cc1)c1ccc(=O)n(C(F)F)c1
REMARK SMILES IDX 8 1 7 2 6 3 5 4 3 5 4 6 2 8 1 9 73 10 74 11 82 12 75 13
REMARK SMILES IDX 78 14 76 15 77 16 79 17 80 18 81 19 9 20 10 21 11 22 12 24
REMARK SMILES IDX 13 25 14 26 72 27 15 28 71 29 16 30 17 31 18 32 65 33 19 34
REMARK SMILES IDX 70 35 64 36 66 37 20 38 69 39 63 40 62 41 21 43 51 44 32 45
REMARK SMILES IDX 50 46 33 47 36 48 49 49 67 50 34 51 35 52 48 54 68 55 37 56
REMARK SMILES IDX 22 57 23 58 31 59 24 60 30 61 25 62 26 63 27 64 28 65 29 66
REMARK SMILES IDX 52 67 53 68 61 69 54 70 60 71 55 72 56 73 57 74 58 75 59 76
REMARK SMILES IDX 38 77 39 78 47 79 40 80 46 81 41 82 42 83 43 84 44 85 45 86
REMARK H PARENT 5 7 10 23 66 42 36 53
REMARK Flexibility Score: inf
ROOT
ATOM      1  C   UNL A   1      33.615  33.597  28.175  1.00  0.00     0.023 C 
ENDROOT
BRANCH   1   2
ATOM      2  C   UNL A   1      34.129  34.958  28.652  1.00  0.00     0.023 C 
BRANCH   2   3
ATOM      3  C   UNL A   1      33.080  36.073  28.679  1.00  0.00     0.116 C 
BRANCH   3   4
ATOM      4  N   UNL A   1      33.338  37.016  29.747  1.00  0.00    -0.356 N 
ATOM      5  C   UNL A   1      33.158  36.923  31.095  1.00  0.00     0.227 C 
ATOM      6  O   UNL A   1      33.444  37.935  31.739  1.00  0.00    -0.274 OA
ATOM      7  H   UNL A   1      33.709  37.878  29.447  1.00  0.00     0.163 HD
BRANCH   5   8
ATOM      8  C   UNL A   1      32.681  35.595  31.743  1.00  0.00     0.107 C 
ATOM      9  C   UNL A   1      31.569  35.820  32.773  1.00  0.00     0.023 C 
BRANCH   8  10
ATOM     10  C   UNL A   1      33.764  34.748  32.423  1.00  0.00    -0.019 A 
ATOM     11  C   UNL A   1      34.248  35.229  33.710  1.00  0.00     0.012 A 
ATOM     12  C   UNL A   1      34.355  33.654  31.907  1.00  0.00     0.099 A 
ATOM     13  C   UNL A   1      35.287  34.650  34.323  1.00  0.00     0.072 A 
ATOM     14  N   UNL A   1      35.392  32.999  32.549  1.00  0.00    -0.258 N 
ATOM     15  C   UNL A   1      35.952  33.461  33.726  1.00  0.00     0.254 A 
ATOM     16  O   UNL A   1      36.923  32.983  34.302  1.00  0.00    -0.269 OA
BRANCH  14  17
ATOM     17  C   UNL A   1      35.987  31.835  31.944  1.00  0.00     0.451 C 
ATOM     18  F   UNL A   1      37.184  32.143  31.387  1.00  0.00    -0.185 F 
ATOM     19  F   UNL A   1      36.195  30.855  32.859  1.00  0.00    -0.185 F 
ENDBRANCH  14  17
ENDBRANCH   8  10
ENDBRANCH   5   8
ENDBRANCH   3   4
ENDBRANCH   2   3
ENDBRANCH   1   2
BRANCH   1  20
ATOM     20  C   UNL A   1      34.613  32.452  28.279  1.00  0.00     0.116 C 
BRANCH  20  21
ATOM     21  N   UNL A   1      34.002  31.154  28.040  1.00  0.00    -0.352 N 
ATOM     22  C   UNL A   1      34.603  29.922  27.954  1.00  0.00     0.251 C 
ATOM     23  H   UNL A   1      33.025  31.160  27.927  1.00  0.00     0.163 HD
ATOM     24  O   UNL A   1      33.946  28.947  27.596  1.00  0.00    -0.269 OA
BRANCH  22  25
ATOM     25  C   UNL A   1      36.041  29.783  28.261  1.00  0.00     0.039 A 
ATOM     26  C   UNL A   1      36.422  29.343  29.532  1.00  0.00     0.014 A 
ATOM     27  C   UNL A   1      37.011  30.069  27.297  1.00  0.00     0.014 A 
ATOM     28  C   UNL A   1      37.773  29.135  29.815  1.00  0.00     0.010 A 
ATOM     29  C   UNL A   1      38.348  29.785  27.555  1.00  0.00     0.010 A 
ATOM     30  C   UNL A   1      38.745  29.322  28.819  1.00  0.00    -0.014 A 
BRANCH  30  31
ATOM     31  C   UNL A   1      40.182  29.048  29.081  1.00  0.00     0.031 A 
ATOM     32  C   UNL A   1      40.773  27.710  28.726  1.00  0.00     0.074 A 
ATOM     33  C   UNL A   1      40.939  29.979  29.695  1.00  0.00     0.049 A 
ATOM     34  N   UNL A   1      41.989  27.268  28.922  1.00  0.00    -0.248 NA
ATOM     35  C   UNL A   1      39.874  26.733  28.093  1.00  0.00     0.031 C 
ATOM     36  C   UNL A   1      40.475  31.301  30.124  1.00  0.00     0.029 A 
ATOM     37  N   UNL A   1      42.259  29.954  30.069  1.00  0.00    -0.354 N 
ATOM     38  C   UNL A   1      41.995  25.959  28.453  1.00  0.00     0.074 A 
ATOM     39  C   UNL A   1      40.649  25.661  28.017  1.00  0.00     0.031 C 
ATOM     40  C   UNL A   1      41.502  31.971  30.671  1.00  0.00     0.029 A 
ATOM     41  C   UNL A   1      42.684  31.114  30.673  1.00  0.00     0.049 A 
ATOM     42  H   UNL A   1      42.847  29.179  29.917  1.00  0.00     0.167 HD
ATOM     43  C   UNL A   1      43.030  25.089  28.374  1.00  0.00     0.031 A 
ATOM     44  C   UNL A   1      43.887  31.451  31.177  1.00  0.00     0.031 A 
ATOM     45  C   UNL A   1      44.369  25.390  28.808  1.00  0.00     0.049 A 
ATOM     46  C   UNL A   1      45.019  30.463  31.096  1.00  0.00     0.074 A 
ATOM     47  C   UNL A   1      45.499  24.598  28.722  1.00  0.00     0.029 A 
ATOM     48  N   UNL A   1      44.757  26.576  29.415  1.00  0.00    -0.354 N 
ATOM     49  N   UNL A   1      45.022  29.253  30.588  1.00  0.00    -0.248 NA
ATOM     50  C   UNL A   1      46.313  30.891  31.644  1.00  0.00     0.031 C 
ATOM     51  C   UNL A   1      46.558  25.280  29.330  1.00  0.00     0.029 A 
ATOM     52  C   UNL A   1      46.104  26.525  29.733  1.00  0.00     0.049 A 
ATOM     53  H   UNL A   1      44.162  27.340  29.593  1.00  0.00     0.167 HD
ATOM     54  C   UNL A   1      46.325  28.787  30.729  1.00  0.00     0.074 A 
ATOM     55  C   UNL A   1      47.083  29.850  31.358  1.00  0.00     0.031 C 
ATOM     56  C   UNL A   1      46.846  27.589  30.365  1.00  0.00     0.031 A 
BRANCH  43  57
ATOM     57  C   UNL A   1      42.743  23.721  27.810  1.00  0.00    -0.014 A 
ATOM     58  C   UNL A   1      42.372  22.650  28.645  1.00  0.00     0.010 A 
ATOM     59  C   UNL A   1      42.832  23.504  26.422  1.00  0.00     0.010 A 
ATOM     60  C   UNL A   1      42.156  21.377  28.110  1.00  0.00     0.020 A 
ATOM     61  C   UNL A   1      42.583  22.240  25.880  1.00  0.00     0.020 A 
ATOM     62  C   UNL A   1      42.269  21.179  26.731  1.00  0.00     0.054 A 
BRANCH  62  63
ATOM     63  S   UNL A   1      41.988  19.515  26.066  1.00  0.00     0.124 S 
ATOM     64  O   UNL A   1      40.542  19.518  25.853  1.00  0.00    -0.237 OA
ATOM     65  O   UNL A   1      42.801  19.513  24.853  1.00  0.00    -0.237 OA
ATOM     66  O   UNL A   1      42.459  18.631  27.130  1.00  0.00    -0.744 OA
ENDBRANCH  62  63
ENDBRANCH  43  57
BRANCH  44  67
ATOM     67  C   UNL A   1      44.086  32.798  31.778  1.00  0.00    -0.014 A 
ATOM     68  C   UNL A   1      44.379  33.905  30.963  1.00  0.00     0.010 A 
ATOM     69  C   UNL A   1      43.951  32.988  33.167  1.00  0.00     0.010 A 
ATOM     70  C   UNL A   1      44.541  35.176  31.524  1.00  0.00     0.020 A 
ATOM     71  C   UNL A   1      44.085  34.261  33.728  1.00  0.00     0.020 A 
ATOM     72  C   UNL A   1      44.386  35.346  32.903  1.00  0.00     0.054 A 
BRANCH  72  73
ATOM     73  S   UNL A   1      44.531  37.016  33.597  1.00  0.00     0.124 S 
ATOM     74  O   UNL A   1      44.132  36.806  34.985  1.00  0.00    -0.237 OA
ATOM     75  O   UNL A   1      45.943  37.323  33.383  1.00  0.00    -0.237 OA
ATOM     76  O   UNL A   1      43.602  37.804  32.790  1.00  0.00    -0.744 OA
ENDBRANCH  72  73
ENDBRANCH  44  67
BRANCH  56  77
ATOM     77  C   UNL A   1      48.317  27.370  30.602  1.00  0.00    -0.014 A 
ATOM     78  C   UNL A   1      49.278  27.748  29.648  1.00  0.00     0.010 A 
ATOM     79  C   UNL A   1      48.746  26.826  31.827  1.00  0.00     0.010 A 
ATOM     80  C   UNL A   1      50.640  27.557  29.902  1.00  0.00     0.020 A 
ATOM     81  C   UNL A   1      50.106  26.662  32.098  1.00  0.00     0.020 A 
ATOM     82  C   UNL A   1      51.045  27.016  31.127  1.00  0.00     0.054 A 
BRANCH  82  83
ATOM     83  S   UNL A   1      52.819  26.820  31.451  1.00  0.00     0.124 S 
ATOM     84  O   UNL A   1      53.404  27.168  30.159  1.00  0.00    -0.237 OA
ATOM     85  O   UNL A   1      53.055  27.780  32.527  1.00  0.00    -0.237 OA
ATOM     86  O   UNL A   1      52.949  25.417  31.836  1.00  0.00    -0.744 OA
ENDBRANCH  82  83
ENDBRANCH  56  77
ENDBRANCH  30  31
ENDBRANCH  22  25
ENDBRANCH  20  21
ENDBRANCH   1  20
TORSDOF 16
ENDMDL
