MODEL 1
REMARK VINA RESULT:     -12.2      0.000      0.000
REMARK SMILES Cc1ccc(S(=O)(=O)N(C)c2cccc(C)c2C)cc1C(=O)NCCCCNC(=O)c1ccc(-c2c3nc(c(-c4ccc(S(=O)(=O)[O-])cc4)c4ccc([nH]4)c(-c4ccc(S(=O)(=O)[O-])cc4)c4nc(c(-c5ccc(S(=O)(=O)[O-])cc5)c5ccc2[nH]5)C=C4)C=C3)cc1
REMARK SMILES IDX 25 1 24 2 23 3 21 4 22 5 20 7 1 8 2 9 3 10 4 11 19 12 5 13
REMARK SMILES IDX 6 14 7 15 8 16 9 17 10 18 11 19 12 20 17 21 13 22 15 23
REMARK SMILES IDX 18 24 14 25 16 26 26 27 27 28 28 29 29 30 30 32 31 33 32 34
REMARK SMILES IDX 90 35 33 36 89 37 34 38 35 39 36 40 83 41 37 42 88 43 82 44
REMARK SMILES IDX 84 45 38 46 87 47 81 48 80 49 39 51 69 52 50 53 68 54 51 55
REMARK SMILES IDX 54 56 67 57 85 58 52 59 53 60 66 62 86 63 55 64 40 65 41 66
REMARK SMILES IDX 49 67 42 68 48 69 43 70 44 71 45 72 46 73 47 74 70 75 71 76
REMARK SMILES IDX 79 77 72 78 78 79 73 80 74 81 75 82 76 83 77 84 56 85 57 86
REMARK SMILES IDX 65 87 58 88 64 89 59 90 60 91 61 92 62 93 63 94
REMARK H PARENT 23 6 28 31 84 50 54 61
REMARK Flexibility Score: inf
ROOT
ATOM      1  C   UNL A   1      36.710  22.050  24.772  1.00  0.00     0.023 C 
ENDROOT
BRANCH   1   2
ATOM      2  C   UNL A   1      36.312  23.289  23.951  1.00  0.00     0.116 C 
BRANCH   2   3
ATOM      3  N   UNL A   1      35.154  22.999  23.127  1.00  0.00    -0.352 N 
ATOM      4  C   UNL A   1      33.802  23.156  23.218  1.00  0.00     0.251 C 
ATOM      5  O   UNL A   1      33.176  22.632  22.285  1.00  0.00    -0.269 OA
ATOM      6  H   UNL A   1      35.413  22.577  22.275  1.00  0.00     0.163 HD
BRANCH   4   7
ATOM      7  C   UNL A   1      33.000  23.946  24.227  1.00  0.00     0.044 A 
ATOM      8  C   UNL A   1      32.959  22.429  26.352  1.00  0.00     0.045 C 
ATOM      9  C   UNL A   1      32.680  23.681  25.578  1.00  0.00    -0.038 A 
ATOM     10  C   UNL A   1      31.938  24.636  26.315  1.00  0.00     0.005 A 
ATOM     11  C   UNL A   1      31.443  25.790  25.728  1.00  0.00     0.022 A 
ATOM     12  C   UNL A   1      32.439  25.126  23.646  1.00  0.00     0.036 A 
ATOM     13  C   UNL A   1      31.676  26.031  24.380  1.00  0.00     0.088 A 
BRANCH  13  14
ATOM     14  S   UNL A   1      30.968  27.530  23.741  1.00  0.00     0.264 S 
ATOM     15  O   UNL A   1      30.602  27.226  22.369  1.00  0.00    -0.201 OA
ATOM     16  O   UNL A   1      29.949  27.907  24.704  1.00  0.00    -0.201 OA
BRANCH  14  17
ATOM     17  N   UNL A   1      32.148  28.785  23.699  1.00  0.00    -0.269 N 
ATOM     18  C   UNL A   1      33.135  28.714  22.586  1.00  0.00     0.164 C 
BRANCH  17  19
ATOM     19  C   UNL A   1      32.798  29.020  24.996  1.00  0.00     0.055 A 
ATOM     20  C   UNL A   1      33.945  28.292  25.355  1.00  0.00     0.027 A 
ATOM     21  C   UNL A   1      32.413  30.127  25.789  1.00  0.00    -0.024 A 
ATOM     22  C   UNL A   1      34.662  28.590  26.509  1.00  0.00     0.002 A 
ATOM     23  C   UNL A   1      33.178  30.457  26.941  1.00  0.00    -0.046 A 
ATOM     24  C   UNL A   1      31.234  30.973  25.382  1.00  0.00     0.047 C 
ATOM     25  C   UNL A   1      34.281  29.666  27.296  1.00  0.00     0.004 A 
ATOM     26  C   UNL A   1      32.857  31.648  27.804  1.00  0.00     0.044 C 
ENDBRANCH  17  19
ENDBRANCH  14  17
ENDBRANCH  13  14
ENDBRANCH   4   7
ENDBRANCH   2   3
ENDBRANCH   1   2
BRANCH   1  27
ATOM     27  C   UNL A   1      38.145  22.061  25.295  1.00  0.00     0.023 C 
BRANCH  27  28
ATOM     28  C   UNL A   1      38.415  23.229  26.225  1.00  0.00     0.116 C 
BRANCH  28  29
ATOM     29  N   UNL A   1      39.465  22.995  27.206  1.00  0.00    -0.352 N 
ATOM     30  C   UNL A   1      40.319  23.944  27.743  1.00  0.00     0.251 C 
ATOM     31  H   UNL A   1      39.578  22.069  27.519  1.00  0.00     0.163 HD
ATOM     32  O   UNL A   1      41.384  23.653  28.273  1.00  0.00    -0.269 OA
BRANCH  30  33
ATOM     33  C   UNL A   1      39.810  25.331  27.794  1.00  0.00     0.039 A 
ATOM     34  C   UNL A   1      40.434  26.262  26.953  1.00  0.00     0.014 A 
ATOM     35  C   UNL A   1      39.046  25.743  28.880  1.00  0.00     0.014 A 
ATOM     36  C   UNL A   1      40.466  27.603  27.323  1.00  0.00     0.010 A 
ATOM     37  C   UNL A   1      39.193  27.044  29.314  1.00  0.00     0.010 A 
ATOM     38  C   UNL A   1      39.940  27.962  28.561  1.00  0.00    -0.014 A 
BRANCH  38  39
ATOM     39  C   UNL A   1      40.153  29.255  29.199  1.00  0.00     0.031 A 
ATOM     40  C   UNL A   1      39.117  30.304  29.059  1.00  0.00     0.074 A 
ATOM     41  C   UNL A   1      41.204  29.438  30.031  1.00  0.00     0.049 A 
ATOM     42  N   UNL A   1      39.294  31.557  29.307  1.00  0.00    -0.248 NA
ATOM     43  C   UNL A   1      37.778  30.011  28.551  1.00  0.00     0.031 C 
ATOM     44  C   UNL A   1      41.363  30.504  31.018  1.00  0.00     0.029 A 
ATOM     45  N   UNL A   1      42.454  28.813  30.014  1.00  0.00    -0.354 N 
ATOM     46  C   UNL A   1      38.051  32.150  29.329  1.00  0.00     0.074 A 
ATOM     47  C   UNL A   1      37.164  31.181  28.735  1.00  0.00     0.031 C 
ATOM     48  C   UNL A   1      42.671  30.661  31.273  1.00  0.00     0.029 A 
ATOM     49  C   UNL A   1      43.392  29.807  30.344  1.00  0.00     0.049 A 
ATOM     50  H   UNL A   1      42.640  27.867  29.812  1.00  0.00     0.167 HD
ATOM     51  C   UNL A   1      37.884  33.326  30.000  1.00  0.00     0.031 A 
ATOM     52  C   UNL A   1      44.383  30.229  29.504  1.00  0.00     0.031 A 
ATOM     53  C   UNL A   1      39.173  33.891  30.403  1.00  0.00     0.049 A 
ATOM     54  C   UNL A   1      44.291  31.707  29.183  1.00  0.00     0.074 A 
ATOM     55  C   UNL A   1      39.848  33.948  31.611  1.00  0.00     0.029 A 
ATOM     56  N   UNL A   1      40.093  34.242  29.421  1.00  0.00    -0.354 N 
ATOM     57  N   UNL A   1      43.236  32.437  29.421  1.00  0.00    -0.248 NA
ATOM     58  C   UNL A   1      45.355  32.474  28.538  1.00  0.00     0.031 C 
ATOM     59  C   UNL A   1      41.215  34.222  31.332  1.00  0.00     0.029 A 
ATOM     60  C   UNL A   1      41.356  34.372  29.962  1.00  0.00     0.049 A 
ATOM     61  H   UNL A   1      39.874  34.378  28.470  1.00  0.00     0.167 HD
ATOM     62  C   UNL A   1      43.447  33.718  28.988  1.00  0.00     0.074 A 
ATOM     63  C   UNL A   1      44.794  33.694  28.447  1.00  0.00     0.031 C 
ATOM     64  C   UNL A   1      42.493  34.689  29.106  1.00  0.00     0.031 A 
BRANCH  51  65
ATOM     65  C   UNL A   1      36.549  33.799  30.551  1.00  0.00    -0.014 A 
ATOM     66  C   UNL A   1      35.529  34.195  29.659  1.00  0.00     0.010 A 
ATOM     67  C   UNL A   1      36.261  33.976  31.919  1.00  0.00     0.010 A 
ATOM     68  C   UNL A   1      34.345  34.815  30.099  1.00  0.00     0.020 A 
ATOM     69  C   UNL A   1      35.093  34.608  32.374  1.00  0.00     0.020 A 
ATOM     70  C   UNL A   1      34.148  35.042  31.458  1.00  0.00     0.054 A 
BRANCH  70  71
ATOM     71  S   UNL A   1      32.661  35.912  32.013  1.00  0.00     0.124 S 
ATOM     72  O   UNL A   1      33.207  36.921  32.918  1.00  0.00    -0.237 OA
ATOM     73  O   UNL A   1      32.106  36.420  30.762  1.00  0.00    -0.237 OA
ATOM     74  O   UNL A   1      31.868  34.868  32.663  1.00  0.00    -0.744 OA
ENDBRANCH  70  71
ENDBRANCH  51  65
BRANCH  52  75
ATOM     75  C   UNL A   1      44.894  29.175  28.583  1.00  0.00    -0.014 A 
ATOM     76  C   UNL A   1      45.725  28.183  29.148  1.00  0.00     0.010 A 
ATOM     77  C   UNL A   1      44.219  28.895  27.382  1.00  0.00     0.010 A 
ATOM     78  C   UNL A   1      45.716  26.881  28.644  1.00  0.00     0.020 A 
ATOM     79  C   UNL A   1      44.215  27.589  26.870  1.00  0.00     0.020 A 
ATOM     80  C   UNL A   1      44.898  26.578  27.556  1.00  0.00     0.054 A 
BRANCH  80  81
ATOM     81  S   UNL A   1      44.572  24.824  27.201  1.00  0.00     0.124 S 
ATOM     82  O   UNL A   1      45.777  24.419  26.484  1.00  0.00    -0.237 OA
ATOM     83  O   UNL A   1      44.424  24.273  28.547  1.00  0.00    -0.237 OA
ATOM     84  O   UNL A   1      43.350  24.867  26.405  1.00  0.00    -0.744 OA
ENDBRANCH  80  81
ENDBRANCH  52  75
BRANCH  64  85
ATOM     85  C   UNL A   1      42.556  36.064  28.489  1.00  0.00    -0.014 A 
ATOM     86  C   UNL A   1      41.926  36.417  27.286  1.00  0.00     0.010 A 
ATOM     87  C   UNL A   1      43.169  37.108  29.224  1.00  0.00     0.010 A 
ATOM     88  C   UNL A   1      41.958  37.736  26.810  1.00  0.00     0.020 A 
ATOM     89  C   UNL A   1      43.168  38.433  28.781  1.00  0.00     0.020 A 
ATOM     90  C   UNL A   1      42.581  38.735  27.558  1.00  0.00     0.054 A 
BRANCH  90  91
ATOM     91  S   UNL A   1      42.564  40.447  26.969  1.00  0.00     0.124 S 
ATOM     92  O   UNL A   1      43.220  41.149  28.069  1.00  0.00    -0.237 OA
ATOM     93  O   UNL A   1      43.331  40.373  25.727  1.00  0.00    -0.237 OA
ATOM     94  O   UNL A   1      41.142  40.735  26.798  1.00  0.00    -0.744 OA
ENDBRANCH  90  91
ENDBRANCH  64  85
ENDBRANCH  38  39
ENDBRANCH  30  33
ENDBRANCH  28  29
ENDBRANCH  27  28
ENDBRANCH   1  27
TORSDOF 17
ENDMDL
MODEL 2
REMARK VINA RESULT:     -11.7      4.140     11.133
REMARK SMILES Cc1ccc(S(=O)(=O)N(C)c2cccc(C)c2C)cc1C(=O)NCCCCNC(=O)c1ccc(-c2c3nc(c(-c4ccc(S(=O)(=O)[O-])cc4)c4ccc([nH]4)c(-c4ccc(S(=O)(=O)[O-])cc4)c4nc(c(-c5ccc(S(=O)(=O)[O-])cc5)c5ccc2[nH]5)C=C4)C=C3)cc1
REMARK SMILES IDX 25 1 24 2 23 3 21 4 22 5 20 7 1 8 2 9 3 10 4 11 19 12 5 13
REMARK SMILES IDX 6 14 7 15 8 16 9 17 10 18 11 19 12 20 17 21 13 22 15 23
REMARK SMILES IDX 18 24 14 25 16 26 26 27 27 28 28 29 29 30 30 32 31 33 32 34
REMARK SMILES IDX 90 35 33 36 89 37 34 38 35 39 36 40 83 41 37 42 88 43 82 44
REMARK SMILES IDX 84 45 38 46 87 47 81 48 80 49 39 51 69 52 50 53 68 54 51 55
REMARK SMILES IDX 54 56 67 57 85 58 52 59 53 60 66 62 86 63 55 64 40 65 41 66
REMARK SMILES IDX 49 67 42 68 48 69 43 70 44 71 45 72 46 73 47 74 70 75 71 76
REMARK SMILES IDX 79 77 72 78 78 79 73 80 74 81 75 82 76 83 77 84 56 85 57 86
REMARK SMILES IDX 65 87 58 88 64 89 59 90 60 91 61 92 62 93 63 94
REMARK H PARENT 23 6 28 31 84 50 54 61
REMARK Flexibility Score: inf
ROOT
ATOM      1  C   UNL A   1      32.554  30.741  26.627  1.00  0.00     0.023 C 
ENDROOT
BRANCH   1   2
ATOM      2  C   UNL A   1      31.994  30.008  25.396  1.00  0.00     0.116 C 
BRANCH   2   3
ATOM      3  N   UNL A   1      33.052  29.745  24.439  1.00  0.00    -0.352 N 
ATOM      4  C   UNL A   1      33.373  28.755  23.556  1.00  0.00     0.251 C 
ATOM      5  O   UNL A   1      34.477  28.911  23.014  1.00  0.00    -0.269 OA
ATOM      6  H   UNL A   1      33.713  30.474  24.421  1.00  0.00     0.163 HD
BRANCH   4   7
ATOM      7  C   UNL A   1      32.541  27.579  23.098  1.00  0.00     0.044 A 
ATOM      8  C   UNL A   1      30.081  28.449  23.199  1.00  0.00     0.045 C 
ATOM      9  C   UNL A   1      31.149  27.448  22.885  1.00  0.00    -0.038 A 
ATOM     10  C   UNL A   1      30.636  26.220  22.400  1.00  0.00     0.005 A 
ATOM     11  C   UNL A   1      31.446  25.113  22.203  1.00  0.00     0.022 A 
ATOM     12  C   UNL A   1      33.338  26.406  22.924  1.00  0.00     0.036 A 
ATOM     13  C   UNL A   1      32.804  25.196  22.485  1.00  0.00     0.088 A 
BRANCH  13  14
ATOM     14  S   UNL A   1      33.730  23.704  22.217  1.00  0.00     0.264 S 
ATOM     15  O   UNL A   1      33.568  23.401  20.806  1.00  0.00    -0.201 OA
ATOM     16  O   UNL A   1      35.048  23.975  22.761  1.00  0.00    -0.201 OA
BRANCH  14  17
ATOM     17  N   UNL A   1      33.044  22.400  23.111  1.00  0.00    -0.269 N 
ATOM     18  C   UNL A   1      32.000  21.606  22.407  1.00  0.00     0.164 C 
BRANCH  17  19
ATOM     19  C   UNL A   1      32.626  22.776  24.468  1.00  0.00     0.055 A 
ATOM     20  C   UNL A   1      31.306  23.193  24.712  1.00  0.00     0.027 A 
ATOM     21  C   UNL A   1      33.476  22.512  25.568  1.00  0.00    -0.024 A 
ATOM     22  C   UNL A   1      30.844  23.420  26.004  1.00  0.00     0.002 A 
ATOM     23  C   UNL A   1      32.983  22.699  26.888  1.00  0.00    -0.046 A 
ATOM     24  C   UNL A   1      34.870  21.989  25.335  1.00  0.00     0.047 C 
ATOM     25  C   UNL A   1      31.677  23.174  27.085  1.00  0.00     0.004 A 
ATOM     26  C   UNL A   1      33.813  22.392  28.107  1.00  0.00     0.044 C 
ENDBRANCH  17  19
ENDBRANCH  14  17
ENDBRANCH  13  14
ENDBRANCH   4   7
ENDBRANCH   2   3
ENDBRANCH   1   2
BRANCH   1  27
ATOM     27  C   UNL A   1      33.161  29.832  27.695  1.00  0.00     0.023 C 
BRANCH  27  28
ATOM     28  C   UNL A   1      34.644  29.592  27.478  1.00  0.00     0.116 C 
BRANCH  28  29
ATOM     29  N   UNL A   1      35.475  30.781  27.593  1.00  0.00    -0.352 N 
ATOM     30  C   UNL A   1      36.729  30.858  28.178  1.00  0.00     0.251 C 
ATOM     31  H   UNL A   1      35.109  31.615  27.218  1.00  0.00     0.163 HD
ATOM     32  O   UNL A   1      37.218  31.914  28.560  1.00  0.00    -0.269 OA
BRANCH  30  33
ATOM     33  C   UNL A   1      37.533  29.617  28.172  1.00  0.00     0.039 A 
ATOM     34  C   UNL A   1      37.619  28.918  29.384  1.00  0.00     0.014 A 
ATOM     35  C   UNL A   1      38.444  29.392  27.147  1.00  0.00     0.014 A 
ATOM     36  C   UNL A   1      38.745  28.146  29.647  1.00  0.00     0.010 A 
ATOM     37  C   UNL A   1      39.617  28.740  27.461  1.00  0.00     0.010 A 
ATOM     38  C   UNL A   1      39.788  28.156  28.725  1.00  0.00    -0.014 A 
BRANCH  38  39
ATOM     39  C   UNL A   1      41.123  27.635  28.990  1.00  0.00     0.031 A 
ATOM     40  C   UNL A   1      41.421  26.223  28.659  1.00  0.00     0.074 A 
ATOM     41  C   UNL A   1      42.112  28.469  29.385  1.00  0.00     0.049 A 
ATOM     42  N   UNL A   1      42.434  25.558  29.099  1.00  0.00    -0.248 NA
ATOM     43  C   UNL A   1      40.530  25.414  27.829  1.00  0.00     0.031 C 
ATOM     44  C   UNL A   1      43.549  28.207  29.336  1.00  0.00     0.029 A 
ATOM     45  N   UNL A   1      42.017  29.657  30.115  1.00  0.00    -0.354 N 
ATOM     46  C   UNL A   1      42.515  24.397  28.361  1.00  0.00     0.074 A 
ATOM     47  C   UNL A   1      41.249  24.300  27.679  1.00  0.00     0.031 C 
ATOM     48  C   UNL A   1      44.160  28.994  30.234  1.00  0.00     0.029 A 
ATOM     49  C   UNL A   1      43.117  29.667  30.990  1.00  0.00     0.049 A 
ATOM     50  H   UNL A   1      41.321  30.349  30.031  1.00  0.00     0.167 HD
ATOM     51  C   UNL A   1      43.707  23.738  28.280  1.00  0.00     0.031 A 
ATOM     52  C   UNL A   1      43.008  29.656  32.352  1.00  0.00     0.031 A 
ATOM     53  C   UNL A   1      44.678  24.288  29.228  1.00  0.00     0.049 A 
ATOM     54  C   UNL A   1      43.676  28.452  32.984  1.00  0.00     0.074 A 
ATOM     55  C   UNL A   1      45.773  25.125  29.087  1.00  0.00     0.029 A 
ATOM     56  N   UNL A   1      44.402  24.227  30.590  1.00  0.00    -0.354 N 
ATOM     57  N   UNL A   1      44.048  27.395  32.316  1.00  0.00    -0.248 NA
ATOM     58  C   UNL A   1      43.945  28.320  34.415  1.00  0.00     0.031 C 
ATOM     59  C   UNL A   1      46.077  25.661  30.368  1.00  0.00     0.029 A 
ATOM     60  C   UNL A   1      45.197  25.116  31.286  1.00  0.00     0.049 A 
ATOM     61  H   UNL A   1      43.731  23.634  31.000  1.00  0.00     0.167 HD
ATOM     62  C   UNL A   1      44.586  26.468  33.169  1.00  0.00     0.074 A 
ATOM     63  C   UNL A   1      44.504  27.098  34.475  1.00  0.00     0.031 C 
ATOM     64  C   UNL A   1      45.045  25.260  32.730  1.00  0.00     0.031 A 
BRANCH  51  65
ATOM     65  C   UNL A   1      44.080  22.810  27.137  1.00  0.00    -0.014 A 
ATOM     66  C   UNL A   1      43.142  21.858  26.680  1.00  0.00     0.010 A 
ATOM     67  C   UNL A   1      45.352  22.743  26.537  1.00  0.00     0.010 A 
ATOM     68  C   UNL A   1      43.482  20.851  25.759  1.00  0.00     0.020 A 
ATOM     69  C   UNL A   1      45.714  21.734  25.630  1.00  0.00     0.020 A 
ATOM     70  C   UNL A   1      44.779  20.781  25.259  1.00  0.00     0.054 A 
BRANCH  70  71
ATOM     71  S   UNL A   1      45.235  19.434  24.138  1.00  0.00     0.124 S 
ATOM     72  O   UNL A   1      44.569  19.821  22.896  1.00  0.00    -0.237 OA
ATOM     73  O   UNL A   1      46.693  19.514  24.124  1.00  0.00    -0.237 OA
ATOM     74  O   UNL A   1      44.686  18.242  24.784  1.00  0.00    -0.744 OA
ENDBRANCH  70  71
ENDBRANCH  51  65
BRANCH  52  75
ATOM     75  C   UNL A   1      41.793  30.343  32.873  1.00  0.00    -0.014 A 
ATOM     76  C   UNL A   1      41.969  31.645  33.389  1.00  0.00     0.010 A 
ATOM     77  C   UNL A   1      40.515  29.949  32.440  1.00  0.00     0.010 A 
ATOM     78  C   UNL A   1      40.952  32.594  33.280  1.00  0.00     0.020 A 
ATOM     79  C   UNL A   1      39.489  30.901  32.336  1.00  0.00     0.020 A 
ATOM     80  C   UNL A   1      39.746  32.232  32.681  1.00  0.00     0.054 A 
BRANCH  80  81
ATOM     81  S   UNL A   1      38.622  33.565  32.160  1.00  0.00     0.124 S 
ATOM     82  O   UNL A   1      39.537  34.533  31.564  1.00  0.00    -0.237 OA
ATOM     83  O   UNL A   1      37.747  32.863  31.222  1.00  0.00    -0.237 OA
ATOM     84  O   UNL A   1      37.994  33.978  33.410  1.00  0.00    -0.744 OA
ENDBRANCH  80  81
ENDBRANCH  52  75
BRANCH  64  85
ATOM     85  C   UNL A   1      45.468  24.107  33.607  1.00  0.00    -0.014 A 
ATOM     86  C   UNL A   1      44.724  22.929  33.773  1.00  0.00     0.010 A 
ATOM     87  C   UNL A   1      46.757  24.143  34.195  1.00  0.00     0.010 A 
ATOM     88  C   UNL A   1      45.216  21.863  34.541  1.00  0.00     0.020 A 
ATOM     89  C   UNL A   1      47.274  23.069  34.923  1.00  0.00     0.020 A 
ATOM     90  C   UNL A   1      46.485  21.941  35.113  1.00  0.00     0.054 A 
BRANCH  90  91
ATOM     91  S   UNL A   1      47.140  20.536  36.050  1.00  0.00     0.124 S 
ATOM     92  O   UNL A   1      46.013  19.607  36.023  1.00  0.00    -0.237 OA
ATOM     93  O   UNL A   1      48.304  20.132  35.263  1.00  0.00    -0.237 OA
ATOM     94  O   UNL A   1      47.450  21.111  37.356  1.00  0.00    -0.744 OA
ENDBRANCH  90  91
ENDBRANCH  64  85
ENDBRANCH  38  39
ENDBRANCH  30  33
ENDBRANCH  28  29
ENDBRANCH  27  28
ENDBRANCH   1  27
TORSDOF 17
ENDMDL
MODEL 3
REMARK VINA RESULT:     -11.1      4.786     12.795
REMARK SMILES Cc1ccc(S(=O)(=O)N(C)c2cccc(C)c2C)cc1C(=O)NCCCCNC(=O)c1ccc(-c2c3nc(c(-c4ccc(S(=O)(=O)[O-])cc4)c4ccc([nH]4)c(-c4ccc(S(=O)(=O)[O-])cc4)c4nc(c(-c5ccc(S(=O)(=O)[O-])cc5)c5ccc2[nH]5)C=C4)C=C3)cc1
REMARK SMILES IDX 25 1 24 2 23 3 21 4 22 5 20 7 1 8 2 9 3 10 4 11 19 12 5 13
REMARK SMILES IDX 6 14 7 15 8 16 9 17 10 18 11 19 12 20 17 21 13 22 15 23
REMARK SMILES IDX 18 24 14 25 16 26 26 27 27 28 28 29 29 30 30 32 31 33 32 34
REMARK SMILES IDX 90 35 33 36 89 37 34 38 35 39 36 40 83 41 37 42 88 43 82 44
REMARK SMILES IDX 84 45 38 46 87 47 81 48 80 49 39 51 69 52 50 53 68 54 51 55
REMARK SMILES IDX 54 56 67 57 85 58 52 59 53 60 66 62 86 63 55 64 40 65 41 66
REMARK SMILES IDX 49 67 42 68 48 69 43 70 44 71 45 72 46 73 47 74 70 75 71 76
REMARK SMILES IDX 79 77 72 78 78 79 73 80 74 81 75 82 76 83 77 84 56 85 57 86
REMARK SMILES IDX 65 87 58 88 64 89 59 90 60 91 61 92 62 93 63 94
REMARK H PARENT 23 6 28 31 84 50 54 61
REMARK Flexibility Score: inf
ROOT
ATOM      1  C   UNL A   1      38.766  34.255  30.684  1.00  0.00     0.023 C 
ENDROOT
BRANCH   1   2
ATOM      2  C   UNL A   1      39.906  34.306  29.653  1.00  0.00     0.116 C 
BRANCH   2   3
ATOM      3  N   UNL A   1      41.188  34.434  30.321  1.00  0.00    -0.352 N 
ATOM      4  C   UNL A   1      42.504  34.410  29.964  1.00  0.00     0.251 C 
ATOM      5  O   UNL A   1      43.282  34.444  30.929  1.00  0.00    -0.269 OA
ATOM      6  H   UNL A   1      41.078  34.577  31.289  1.00  0.00     0.163 HD
BRANCH   4   7
ATOM      7  C   UNL A   1      43.118  34.441  28.583  1.00  0.00     0.044 A 
ATOM      8  C   UNL A   1      41.920  36.429  27.387  1.00  0.00     0.045 C 
ATOM      9  C   UNL A   1      42.926  35.324  27.496  1.00  0.00    -0.038 A 
ATOM     10  C   UNL A   1      43.682  35.142  26.313  1.00  0.00     0.005 A 
ATOM     11  C   UNL A   1      44.550  34.072  26.155  1.00  0.00     0.022 A 
ATOM     12  C   UNL A   1      43.990  33.328  28.369  1.00  0.00     0.036 A 
ATOM     13  C   UNL A   1      44.693  33.146  27.180  1.00  0.00     0.088 A 
BRANCH  13  14
ATOM     14  S   UNL A   1      45.814  31.808  26.847  1.00  0.00     0.264 S 
ATOM     15  O   UNL A   1      45.591  31.460  25.454  1.00  0.00    -0.201 OA
ATOM     16  O   UNL A   1      47.113  32.287  27.282  1.00  0.00    -0.201 OA
BRANCH  14  17
ATOM     17  N   UNL A   1      45.409  30.430  27.799  1.00  0.00    -0.269 N 
ATOM     18  C   UNL A   1      46.342  30.113  28.916  1.00  0.00     0.164 C 
BRANCH  17  19
ATOM     19  C   UNL A   1      45.085  29.241  27.000  1.00  0.00     0.055 A 
ATOM     20  C   UNL A   1      43.752  28.961  26.655  1.00  0.00     0.027 A 
ATOM     21  C   UNL A   1      46.121  28.497  26.387  1.00  0.00    -0.024 A 
ATOM     22  C   UNL A   1      43.429  27.925  25.785  1.00  0.00     0.002 A 
ATOM     23  C   UNL A   1      45.788  27.471  25.462  1.00  0.00    -0.046 A 
ATOM     24  C   UNL A   1      47.562  28.829  26.680  1.00  0.00     0.047 C 
ATOM     25  C   UNL A   1      44.441  27.186  25.192  1.00  0.00     0.004 A 
ATOM     26  C   UNL A   1      46.837  26.672  24.735  1.00  0.00     0.044 C 
ENDBRANCH  17  19
ENDBRANCH  14  17
ENDBRANCH  13  14
ENDBRANCH   4   7
ENDBRANCH   2   3
ENDBRANCH   1   2
BRANCH   1  27
ATOM     27  C   UNL A   1      37.775  33.108  30.488  1.00  0.00     0.023 C 
BRANCH  27  28
ATOM     28  C   UNL A   1      37.208  33.066  29.082  1.00  0.00     0.116 C 
BRANCH  28  29
ATOM     29  N   UNL A   1      35.798  32.709  29.005  1.00  0.00    -0.352 N 
ATOM     30  C   UNL A   1      35.270  31.545  28.472  1.00  0.00     0.251 C 
ATOM     31  H   UNL A   1      35.157  33.362  29.369  1.00  0.00     0.163 HD
ATOM     32  O   UNL A   1      34.102  31.451  28.114  1.00  0.00    -0.269 OA
BRANCH  30  33
ATOM     33  C   UNL A   1      36.143  30.353  28.503  1.00  0.00     0.039 A 
ATOM     34  C   UNL A   1      36.329  29.741  29.750  1.00  0.00     0.014 A 
ATOM     35  C   UNL A   1      37.014  30.110  27.448  1.00  0.00     0.014 A 
ATOM     36  C   UNL A   1      37.510  29.052  30.003  1.00  0.00     0.010 A 
ATOM     37  C   UNL A   1      38.238  29.546  27.740  1.00  0.00     0.010 A 
ATOM     38  C   UNL A   1      38.504  29.057  29.028  1.00  0.00    -0.014 A 
BRANCH  38  39
ATOM     39  C   UNL A   1      39.878  28.630  29.255  1.00  0.00     0.031 A 
ATOM     40  C   UNL A   1      40.258  27.235  28.932  1.00  0.00     0.074 A 
ATOM     41  C   UNL A   1      40.823  29.533  29.606  1.00  0.00     0.049 A 
ATOM     42  N   UNL A   1      41.327  26.645  29.347  1.00  0.00    -0.248 NA
ATOM     43  C   UNL A   1      39.396  26.357  28.143  1.00  0.00     0.031 C 
ATOM     44  C   UNL A   1      42.271  29.366  29.511  1.00  0.00     0.029 A 
ATOM     45  N   UNL A   1      40.673  30.724  30.322  1.00  0.00    -0.354 N 
ATOM     46  C   UNL A   1      41.461  25.481  28.622  1.00  0.00     0.074 A 
ATOM     47  C   UNL A   1      40.182  25.291  27.984  1.00  0.00     0.031 C 
ATOM     48  C   UNL A   1      42.858  30.204  30.378  1.00  0.00     0.029 A 
ATOM     49  C   UNL A   1      41.798  30.819  31.160  1.00  0.00     0.049 A 
ATOM     50  H   UNL A   1      39.930  31.366  30.253  1.00  0.00     0.167 HD
ATOM     51  C   UNL A   1      42.690  24.901  28.510  1.00  0.00     0.031 A 
ATOM     52  C   UNL A   1      41.734  30.821  32.525  1.00  0.00     0.031 A 
ATOM     53  C   UNL A   1      43.654  25.528  29.417  1.00  0.00     0.049 A 
ATOM     54  C   UNL A   1      42.501  29.674  33.150  1.00  0.00     0.074 A 
ATOM     55  C   UNL A   1      44.685  26.432  29.228  1.00  0.00     0.029 A 
ATOM     56  N   UNL A   1      43.426  25.470  30.788  1.00  0.00    -0.354 N 
ATOM     57  N   UNL A   1      42.920  28.633  32.483  1.00  0.00    -0.248 NA
ATOM     58  C   UNL A   1      42.825  29.582  34.572  1.00  0.00     0.031 C 
ATOM     59  C   UNL A   1      44.995  27.007  30.491  1.00  0.00     0.029 A 
ATOM     60  C   UNL A   1      44.183  26.419  31.446  1.00  0.00     0.049 A 
ATOM     61  H   UNL A   1      42.810  24.840  31.228  1.00  0.00     0.167 HD
ATOM     62  C   UNL A   1      43.545  27.757  33.330  1.00  0.00     0.074 A 
ATOM     63  C   UNL A   1      43.465  28.400  34.629  1.00  0.00     0.031 C 
ATOM     64  C   UNL A   1      44.069  26.575  32.892  1.00  0.00     0.031 A 
BRANCH  51  65
ATOM     65  C   UNL A   1      43.086  23.981  27.367  1.00  0.00    -0.014 A 
ATOM     66  C   UNL A   1      42.659  22.636  27.377  1.00  0.00     0.010 A 
ATOM     67  C   UNL A   1      43.950  24.335  26.312  1.00  0.00     0.010 A 
ATOM     68  C   UNL A   1      43.139  21.688  26.456  1.00  0.00     0.020 A 
ATOM     69  C   UNL A   1      44.453  23.399  25.395  1.00  0.00     0.020 A 
ATOM     70  C   UNL A   1      44.058  22.073  25.483  1.00  0.00     0.054 A 
BRANCH  70  71
ATOM     71  S   UNL A   1      44.736  20.834  24.351  1.00  0.00     0.124 S 
ATOM     72  O   UNL A   1      43.892  19.671  24.616  1.00  0.00    -0.237 OA
ATOM     73  O   UNL A   1      44.552  21.464  23.047  1.00  0.00    -0.237 OA
ATOM     74  O   UNL A   1      46.127  20.695  24.780  1.00  0.00    -0.744 OA
ENDBRANCH  70  71
ENDBRANCH  51  65
BRANCH  52  75
ATOM     75  C   UNL A   1      40.494  31.435  33.077  1.00  0.00    -0.014 A 
ATOM     76  C   UNL A   1      39.469  30.551  33.479  1.00  0.00     0.010 A 
ATOM     77  C   UNL A   1      40.526  32.732  33.619  1.00  0.00     0.010 A 
ATOM     78  C   UNL A   1      38.629  30.878  34.544  1.00  0.00     0.020 A 
ATOM     79  C   UNL A   1      39.677  33.065  34.686  1.00  0.00     0.020 A 
ATOM     80  C   UNL A   1      38.794  32.104  35.189  1.00  0.00     0.054 A 
BRANCH  80  81
ATOM     81  S   UNL A   1      38.005  32.321  36.815  1.00  0.00     0.124 S 
ATOM     82  O   UNL A   1      39.023  33.052  37.562  1.00  0.00    -0.237 OA
ATOM     83  O   UNL A   1      36.810  33.087  36.461  1.00  0.00    -0.237 OA
ATOM     84  O   UNL A   1      37.762  30.951  37.253  1.00  0.00    -0.744 OA
ENDBRANCH  80  81
ENDBRANCH  52  75
BRANCH  64  85
ATOM     85  C   UNL A   1      44.596  25.466  33.769  1.00  0.00    -0.014 A 
ATOM     86  C   UNL A   1      44.356  24.102  33.544  1.00  0.00     0.010 A 
ATOM     87  C   UNL A   1      45.504  25.797  34.805  1.00  0.00     0.010 A 
ATOM     88  C   UNL A   1      44.944  23.119  34.353  1.00  0.00     0.020 A 
ATOM     89  C   UNL A   1      46.129  24.824  35.587  1.00  0.00     0.020 A 
ATOM     90  C   UNL A   1      45.824  23.486  35.371  1.00  0.00     0.054 A 
BRANCH  90  91
ATOM     91  S   UNL A   1      46.629  22.209  36.371  1.00  0.00     0.124 S 
ATOM     92  O   UNL A   1      45.999  20.992  35.867  1.00  0.00    -0.237 OA
ATOM     93  O   UNL A   1      48.042  22.370  36.032  1.00  0.00    -0.237 OA
ATOM     94  O   UNL A   1      46.280  22.577  37.741  1.00  0.00    -0.744 OA
ENDBRANCH  90  91
ENDBRANCH  64  85
ENDBRANCH  38  39
ENDBRANCH  30  33
ENDBRANCH  28  29
ENDBRANCH  27  28
ENDBRANCH   1  27
TORSDOF 17
ENDMDL
