MODEL 1
REMARK VINA RESULT:     -11.7      0.000      0.000
REMARK SMILES O=C(NCCCCNC(=O)c1ccc(-c2c3nc(c(-c4ccc(S(=O)(=O)[O-])cc4)c4ccc([nH]4)c(-c4ccc(S(=O)(=O)[O-])cc4)c4nc(c(-c5ccc(S(=O)(=O)[O-])cc5)c5ccc2[nH]5)C=C4)C=C3)cc1)C1=Cc2ccc(Cl)c(Cl)c2O[C@@H]1C(F)(F)F
REMARK SMILES IDX 6 1 5 2 4 3 3 4 1 5 2 6 71 8 72 9 82 10 73 11 81 12 74 13
REMARK SMILES IDX 80 14 75 15 78 16 76 17 79 18 77 19 83 20 84 21 85 22 86 23
REMARK SMILES IDX 7 24 8 25 9 26 10 28 11 29 12 30 70 31 13 32 69 33 14 34
REMARK SMILES IDX 15 35 16 36 63 37 17 38 68 39 62 40 64 41 18 42 67 43 61 44
REMARK SMILES IDX 60 45 19 47 49 48 30 49 48 50 31 51 34 52 47 53 65 54 32 55
REMARK SMILES IDX 33 56 46 58 66 59 35 60 20 61 21 62 29 63 22 64 28 65 23 66
REMARK SMILES IDX 24 67 25 68 26 69 27 70 50 71 51 72 59 73 52 74 58 75 53 76
REMARK SMILES IDX 54 77 55 78 56 79 57 80 36 81 37 82 45 83 38 84 44 85 39 86
REMARK SMILES IDX 40 87 41 88 42 89 43 90
REMARK H PARENT 3 7 8 27 64 46 34 57
REMARK Flexibility Score: inf
ROOT
ATOM      1  C   UNL A   1      33.186  28.567  27.236  1.00  0.00     0.023 C 
ENDROOT
BRANCH   1   2
ATOM      2  C   UNL A   1      31.678  28.348  27.264  1.00  0.00     0.023 C 
BRANCH   2   3
ATOM      3  C   UNL A   1      31.123  27.341  26.262  1.00  0.00     0.116 C 
BRANCH   3   4
ATOM      4  N   UNL A   1      30.839  26.019  26.798  1.00  0.00    -0.352 N 
ATOM      5  O   UNL A   1      31.156  23.822  27.185  1.00  0.00    -0.270 OA
ATOM      6  C   UNL A   1      31.427  24.814  26.512  1.00  0.00     0.251 C 
ATOM      7  H   UNL A   1      30.116  25.984  27.465  1.00  0.00     0.163 HD
BRANCH   6   8
ATOM      8  C   UNL A   1      32.477  24.683  25.458  1.00  0.00     0.067 C 
ATOM      9  C   UNL A   1      33.718  24.280  25.772  1.00  0.00     0.025 C 
ATOM     10  C   UNL A   1      31.919  24.368  24.093  1.00  0.00     0.314 C 
ATOM     11  C   UNL A   1      34.066  22.963  25.212  1.00  0.00     0.019 A 
ATOM     12  O   UNL A   1      32.147  22.987  23.715  1.00  0.00    -0.474 OA
ATOM     13  C   UNL A   1      35.096  22.244  25.829  1.00  0.00     0.013 A 
ATOM     14  C   UNL A   1      33.207  22.330  24.298  1.00  0.00     0.148 A 
ATOM     15  C   UNL A   1      35.222  20.876  25.590  1.00  0.00     0.023 A 
ATOM     16  C   UNL A   1      33.351  20.957  24.041  1.00  0.00     0.102 A 
ATOM     17  C   UNL A   1      34.347  20.231  24.711  1.00  0.00     0.063 A 
ATOM     18  Cl  UNL A   1      32.238  20.174  22.967  1.00  0.00    -0.079 Cl
ATOM     19  Cl  UNL A   1      34.518  18.519  24.542  1.00  0.00    -0.083 Cl
BRANCH  10  20
ATOM     20  C   UNL A   1      32.476  25.334  23.032  1.00  0.00     0.429 C 
ATOM     21  F   UNL A   1      33.621  24.865  22.483  1.00  0.00    -0.167 F 
ATOM     22  F   UNL A   1      31.602  25.526  22.015  1.00  0.00    -0.167 F 
ATOM     23  F   UNL A   1      32.753  26.557  23.548  1.00  0.00    -0.167 F 
ENDBRANCH  10  20
ENDBRANCH   6   8
ENDBRANCH   3   4
ENDBRANCH   2   3
ENDBRANCH   1   2
BRANCH   1  24
ATOM     24  C   UNL A   1      33.676  29.916  26.708  1.00  0.00     0.116 C 
BRANCH  24  25
ATOM     25  N   UNL A   1      33.743  30.978  27.706  1.00  0.00    -0.352 N 
ATOM     26  C   UNL A   1      34.731  31.264  28.631  1.00  0.00     0.251 C 
ATOM     27  H   UNL A   1      32.968  31.584  27.724  1.00  0.00     0.163 HD
ATOM     28  O   UNL A   1      34.586  32.183  29.418  1.00  0.00    -0.269 OA
BRANCH  26  29
ATOM     29  C   UNL A   1      35.932  30.397  28.704  1.00  0.00     0.039 A 
ATOM     30  C   UNL A   1      36.861  30.458  27.662  1.00  0.00     0.014 A 
ATOM     31  C   UNL A   1      36.191  29.620  29.834  1.00  0.00     0.014 A 
ATOM     32  C   UNL A   1      38.116  29.868  27.825  1.00  0.00     0.010 A 
ATOM     33  C   UNL A   1      37.468  29.101  30.028  1.00  0.00     0.010 A 
ATOM     34  C   UNL A   1      38.457  29.263  29.046  1.00  0.00    -0.014 A 
BRANCH  34  35
ATOM     35  C   UNL A   1      39.866  28.913  29.363  1.00  0.00     0.031 A 
ATOM     36  C   UNL A   1      40.799  29.921  29.968  1.00  0.00     0.074 A 
ATOM     37  C   UNL A   1      40.337  27.705  28.989  1.00  0.00     0.049 A 
ATOM     38  N   UNL A   1      42.075  29.806  30.233  1.00  0.00    -0.248 NA
ATOM     39  C   UNL A   1      40.230  31.238  30.291  1.00  0.00     0.031 C 
ATOM     40  C   UNL A   1      39.554  26.660  28.321  1.00  0.00     0.029 A 
ATOM     41  N   UNL A   1      41.591  27.156  29.097  1.00  0.00    -0.354 N 
ATOM     42  C   UNL A   1      42.468  31.037  30.740  1.00  0.00     0.074 A 
ATOM     43  C   UNL A   1      41.303  31.897  30.703  1.00  0.00     0.031 C 
ATOM     44  C   UNL A   1      40.339  25.596  28.094  1.00  0.00     0.029 A 
ATOM     45  C   UNL A   1      41.688  25.892  28.565  1.00  0.00     0.049 A 
ATOM     46  H   UNL A   1      42.349  27.624  29.516  1.00  0.00     0.167 HD
ATOM     47  C   UNL A   1      43.683  31.415  31.207  1.00  0.00     0.031 A 
ATOM     48  C   UNL A   1      42.743  25.062  28.450  1.00  0.00     0.031 A 
ATOM     49  C   UNL A   1      44.841  30.561  31.236  1.00  0.00     0.049 A 
ATOM     50  C   UNL A   1      44.079  25.495  28.978  1.00  0.00     0.074 A 
ATOM     51  C   UNL A   1      46.096  30.829  31.755  1.00  0.00     0.029 A 
ATOM     52  N   UNL A   1      44.891  29.278  30.711  1.00  0.00    -0.354 N 
ATOM     53  N   UNL A   1      44.408  26.632  29.540  1.00  0.00    -0.248 NA
ATOM     54  C   UNL A   1      45.183  24.533  28.862  1.00  0.00     0.031 C 
ATOM     55  C   UNL A   1      46.918  29.723  31.504  1.00  0.00     0.029 A 
ATOM     56  C   UNL A   1      46.163  28.750  30.866  1.00  0.00     0.049 A 
ATOM     57  H   UNL A   1      44.134  28.810  30.291  1.00  0.00     0.167 HD
ATOM     58  C   UNL A   1      45.759  26.525  29.848  1.00  0.00     0.074 A 
ATOM     59  C   UNL A   1      46.179  25.203  29.430  1.00  0.00     0.031 C 
ATOM     60  C   UNL A   1      46.575  27.442  30.423  1.00  0.00     0.031 A 
BRANCH  47  61
ATOM     61  C   UNL A   1      43.809  32.827  31.712  1.00  0.00    -0.014 A 
ATOM     62  C   UNL A   1      43.491  33.148  33.046  1.00  0.00     0.010 A 
ATOM     63  C   UNL A   1      44.232  33.848  30.844  1.00  0.00     0.010 A 
ATOM     64  C   UNL A   1      43.530  34.474  33.482  1.00  0.00     0.020 A 
ATOM     65  C   UNL A   1      44.298  35.173  31.285  1.00  0.00     0.020 A 
ATOM     66  C   UNL A   1      43.919  35.481  32.594  1.00  0.00     0.054 A 
BRANCH  66  67
ATOM     67  S   UNL A   1      43.931  37.199  33.173  1.00  0.00     0.124 S 
ATOM     68  O   UNL A   1      45.176  37.249  33.937  1.00  0.00    -0.237 OA
ATOM     69  O   UNL A   1      43.930  37.962  31.927  1.00  0.00    -0.237 OA
ATOM     70  O   UNL A   1      42.708  37.306  33.965  1.00  0.00    -0.744 OA
ENDBRANCH  66  67
ENDBRANCH  47  61
BRANCH  48  71
ATOM     71  C   UNL A   1      42.557  23.733  27.809  1.00  0.00    -0.014 A 
ATOM     72  C   UNL A   1      42.773  23.573  26.430  1.00  0.00     0.010 A 
ATOM     73  C   UNL A   1      42.236  22.608  28.589  1.00  0.00     0.010 A 
ATOM     74  C   UNL A   1      42.681  22.307  25.843  1.00  0.00     0.020 A 
ATOM     75  C   UNL A   1      42.165  21.338  28.010  1.00  0.00     0.020 A 
ATOM     76  C   UNL A   1      42.387  21.195  26.639  1.00  0.00     0.054 A 
BRANCH  76  77
ATOM     77  S   UNL A   1      42.381  19.547  25.878  1.00  0.00     0.124 S 
ATOM     78  O   UNL A   1      42.694  18.686  27.013  1.00  0.00    -0.237 OA
ATOM     79  O   UNL A   1      41.019  19.442  25.359  1.00  0.00    -0.237 OA
ATOM     80  O   UNL A   1      43.420  19.644  24.855  1.00  0.00    -0.744 OA
ENDBRANCH  76  77
ENDBRANCH  48  71
BRANCH  60  81
ATOM     81  C   UNL A   1      48.013  27.051  30.624  1.00  0.00    -0.014 A 
ATOM     82  C   UNL A   1      48.958  27.241  29.601  1.00  0.00     0.010 A 
ATOM     83  C   UNL A   1      48.434  26.542  31.865  1.00  0.00     0.010 A 
ATOM     84  C   UNL A   1      50.300  26.911  29.811  1.00  0.00     0.020 A 
ATOM     85  C   UNL A   1      49.778  26.231  32.086  1.00  0.00     0.020 A 
ATOM     86  C   UNL A   1      50.701  26.407  31.052  1.00  0.00     0.054 A 
BRANCH  86  87
ATOM     87  S   UNL A   1      52.458  26.038  31.319  1.00  0.00     0.124 S 
ATOM     88  O   UNL A   1      53.000  26.149  29.968  1.00  0.00    -0.237 OA
ATOM     89  O   UNL A   1      52.870  27.085  32.251  1.00  0.00    -0.237 OA
ATOM     90  O   UNL A   1      52.445  24.687  31.877  1.00  0.00    -0.744 OA
ENDBRANCH  86  87
ENDBRANCH  60  81
ENDBRANCH  34  35
ENDBRANCH  26  29
ENDBRANCH  24  25
ENDBRANCH   1  24
TORSDOF 15
ENDMDL
MODEL 2
REMARK VINA RESULT:     -11.6      4.959     10.548
REMARK SMILES O=C(NCCCCNC(=O)c1ccc(-c2c3nc(c(-c4ccc(S(=O)(=O)[O-])cc4)c4ccc([nH]4)c(-c4ccc(S(=O)(=O)[O-])cc4)c4nc(c(-c5ccc(S(=O)(=O)[O-])cc5)c5ccc2[nH]5)C=C4)C=C3)cc1)C1=Cc2ccc(Cl)c(Cl)c2O[C@@H]1C(F)(F)F
REMARK SMILES IDX 6 1 5 2 4 3 3 4 1 5 2 6 71 8 72 9 82 10 73 11 81 12 74 13
REMARK SMILES IDX 80 14 75 15 78 16 76 17 79 18 77 19 83 20 84 21 85 22 86 23
REMARK SMILES IDX 7 24 8 25 9 26 10 28 11 29 12 30 70 31 13 32 69 33 14 34
REMARK SMILES IDX 15 35 16 36 63 37 17 38 68 39 62 40 64 41 18 42 67 43 61 44
REMARK SMILES IDX 60 45 19 47 49 48 30 49 48 50 31 51 34 52 47 53 65 54 32 55
REMARK SMILES IDX 33 56 46 58 66 59 35 60 20 61 21 62 29 63 22 64 28 65 23 66
REMARK SMILES IDX 24 67 25 68 26 69 27 70 50 71 51 72 59 73 52 74 58 75 53 76
REMARK SMILES IDX 54 77 55 78 56 79 57 80 36 81 37 82 45 83 38 84 44 85 39 86
REMARK SMILES IDX 40 87 41 88 42 89 43 90
REMARK H PARENT 3 7 8 27 64 46 34 57
REMARK Flexibility Score: inf
ROOT
ATOM      1  C   UNL A   1      37.301  24.049  26.068  1.00  0.00     0.023 C 
ENDROOT
BRANCH   1   2
ATOM      2  C   UNL A   1      37.305  22.872  25.100  1.00  0.00     0.023 C 
BRANCH   2   3
ATOM      3  C   UNL A   1      35.940  22.356  24.659  1.00  0.00     0.116 C 
BRANCH   3   4
ATOM      4  N   UNL A   1      35.356  23.035  23.513  1.00  0.00    -0.352 N 
ATOM      5  O   UNL A   1      34.181  24.608  22.407  1.00  0.00    -0.270 OA
ATOM      6  C   UNL A   1      34.440  24.054  23.473  1.00  0.00     0.251 C 
ATOM      7  H   UNL A   1      35.664  22.715  22.634  1.00  0.00     0.163 HD
BRANCH   6   8
ATOM      8  C   UNL A   1      33.807  24.590  24.715  1.00  0.00     0.067 C 
ATOM      9  C   UNL A   1      34.122  25.811  25.174  1.00  0.00     0.025 C 
ATOM     10  C   UNL A   1      32.429  24.035  24.973  1.00  0.00     0.314 C 
ATOM     11  C   UNL A   1      33.007  26.771  25.101  1.00  0.00     0.019 A 
ATOM     12  O   UNL A   1      31.388  25.002  24.685  1.00  0.00    -0.474 OA
ATOM     13  C   UNL A   1      33.321  28.134  25.094  1.00  0.00     0.013 A 
ATOM     14  C   UNL A   1      31.719  26.336  24.748  1.00  0.00     0.148 A 
ATOM     15  C   UNL A   1      32.370  29.060  24.665  1.00  0.00     0.023 A 
ATOM     16  C   UNL A   1      30.756  27.273  24.338  1.00  0.00     0.102 A 
ATOM     17  C   UNL A   1      31.097  28.632  24.275  1.00  0.00     0.063 A 
ATOM     18  Cl  UNL A   1      29.193  26.717  23.836  1.00  0.00    -0.079 Cl
ATOM     19  Cl  UNL A   1      30.011  29.834  23.673  1.00  0.00    -0.083 Cl
BRANCH  10  20
ATOM     20  C   UNL A   1      32.308  23.500  26.411  1.00  0.00     0.429 C 
ATOM     21  F   UNL A   1      31.521  22.401  26.469  1.00  0.00    -0.167 F 
ATOM     22  F   UNL A   1      33.512  23.151  26.924  1.00  0.00    -0.167 F 
ATOM     23  F   UNL A   1      31.773  24.418  27.255  1.00  0.00    -0.167 F 
ENDBRANCH  10  20
ENDBRANCH   6   8
ENDBRANCH   3   4
ENDBRANCH   2   3
ENDBRANCH   1   2
BRANCH   1  24
ATOM     24  C   UNL A   1      38.574  24.273  26.884  1.00  0.00     0.116 C 
BRANCH  24  25
ATOM     25  N   UNL A   1      39.705  24.797  26.127  1.00  0.00    -0.352 N 
ATOM     26  C   UNL A   1      40.414  25.974  26.290  1.00  0.00     0.251 C 
ATOM     27  H   UNL A   1      40.012  24.227  25.386  1.00  0.00     0.163 HD
ATOM     28  O   UNL A   1      41.314  26.259  25.521  1.00  0.00    -0.269 OA
BRANCH  26  29
ATOM     29  C   UNL A   1      40.017  26.918  27.364  1.00  0.00     0.039 A 
ATOM     30  C   UNL A   1      39.464  26.397  28.537  1.00  0.00     0.014 A 
ATOM     31  C   UNL A   1      40.289  28.282  27.259  1.00  0.00     0.014 A 
ATOM     32  C   UNL A   1      39.334  27.219  29.659  1.00  0.00     0.010 A 
ATOM     33  C   UNL A   1      40.234  29.080  28.399  1.00  0.00     0.010 A 
ATOM     34  C   UNL A   1      39.802  28.543  29.621  1.00  0.00    -0.014 A 
BRANCH  34  35
ATOM     35  C   UNL A   1      39.970  29.334  30.868  1.00  0.00     0.031 A 
ATOM     36  C   UNL A   1      41.066  29.022  31.843  1.00  0.00     0.074 A 
ATOM     37  C   UNL A   1      39.046  30.269  31.174  1.00  0.00     0.049 A 
ATOM     38  N   UNL A   1      41.304  29.560  33.012  1.00  0.00    -0.248 NA
ATOM     39  C   UNL A   1      41.998  27.948  31.470  1.00  0.00     0.031 C 
ATOM     40  C   UNL A   1      37.886  30.616  30.347  1.00  0.00     0.029 A 
ATOM     41  N   UNL A   1      38.923  31.084  32.271  1.00  0.00    -0.354 N 
ATOM     42  C   UNL A   1      42.403  28.883  33.523  1.00  0.00     0.074 A 
ATOM     43  C   UNL A   1      42.755  27.865  32.554  1.00  0.00     0.031 C 
ATOM     44  C   UNL A   1      37.180  31.581  30.958  1.00  0.00     0.029 A 
ATOM     45  C   UNL A   1      37.813  31.896  32.234  1.00  0.00     0.049 A 
ATOM     46  H   UNL A   1      39.568  31.088  33.015  1.00  0.00     0.167 HD
ATOM     47  C   UNL A   1      43.068  29.096  34.684  1.00  0.00     0.031 A 
ATOM     48  C   UNL A   1      37.341  32.787  33.128  1.00  0.00     0.031 A 
ATOM     49  C   UNL A   1      42.712  30.103  35.649  1.00  0.00     0.049 A 
ATOM     50  C   UNL A   1      38.095  33.014  34.406  1.00  0.00     0.074 A 
ATOM     51  C   UNL A   1      43.366  30.443  36.820  1.00  0.00     0.029 A 
ATOM     52  N   UNL A   1      41.597  30.923  35.561  1.00  0.00    -0.354 N 
ATOM     53  N   UNL A   1      39.187  32.426  34.829  1.00  0.00    -0.248 NA
ATOM     54  C   UNL A   1      37.555  34.025  35.324  1.00  0.00     0.031 C 
ATOM     55  C   UNL A   1      42.620  31.439  37.464  1.00  0.00     0.029 A 
ATOM     56  C   UNL A   1      41.525  31.749  36.672  1.00  0.00     0.049 A 
ATOM     57  H   UNL A   1      40.951  30.919  34.819  1.00  0.00     0.167 HD
ATOM     58  C   UNL A   1      39.471  32.997  36.063  1.00  0.00     0.074 A 
ATOM     59  C   UNL A   1      38.446  33.992  36.308  1.00  0.00     0.031 C 
ATOM     60  C   UNL A   1      40.487  32.718  36.916  1.00  0.00     0.031 A 
BRANCH  47  61
ATOM     61  C   UNL A   1      44.245  28.201  34.968  1.00  0.00    -0.014 A 
ATOM     62  C   UNL A   1      44.065  26.937  35.561  1.00  0.00     0.010 A 
ATOM     63  C   UNL A   1      45.546  28.633  34.656  1.00  0.00     0.010 A 
ATOM     64  C   UNL A   1      45.168  26.150  35.897  1.00  0.00     0.020 A 
ATOM     65  C   UNL A   1      46.652  27.835  34.968  1.00  0.00     0.020 A 
ATOM     66  C   UNL A   1      46.457  26.612  35.612  1.00  0.00     0.054 A 
BRANCH  66  67
ATOM     67  S   UNL A   1      47.876  25.588  36.087  1.00  0.00     0.124 S 
ATOM     68  O   UNL A   1      47.336  24.239  35.933  1.00  0.00    -0.237 OA
ATOM     69  O   UNL A   1      48.893  25.971  35.111  1.00  0.00    -0.237 OA
ATOM     70  O   UNL A   1      48.153  25.997  37.462  1.00  0.00    -0.744 OA
ENDBRANCH  66  67
ENDBRANCH  47  61
BRANCH  48  71
ATOM     71  C   UNL A   1      36.089  33.529  32.824  1.00  0.00    -0.014 A 
ATOM     72  C   UNL A   1      34.846  33.033  33.252  1.00  0.00     0.010 A 
ATOM     73  C   UNL A   1      36.143  34.774  32.171  1.00  0.00     0.010 A 
ATOM     74  C   UNL A   1      33.680  33.773  33.041  1.00  0.00     0.020 A 
ATOM     75  C   UNL A   1      34.982  35.526  31.977  1.00  0.00     0.020 A 
ATOM     76  C   UNL A   1      33.756  35.021  32.413  1.00  0.00     0.054 A 
BRANCH  76  77
ATOM     77  S   UNL A   1      32.245  36.014  32.248  1.00  0.00     0.124 S 
ATOM     78  O   UNL A   1      31.211  35.063  32.641  1.00  0.00    -0.237 OA
ATOM     79  O   UNL A   1      32.484  37.113  33.181  1.00  0.00    -0.237 OA
ATOM     80  O   UNL A   1      32.245  36.397  30.838  1.00  0.00    -0.744 OA
ENDBRANCH  76  77
ENDBRANCH  48  71
BRANCH  60  81
ATOM     81  C   UNL A   1      40.536  33.493  38.203  1.00  0.00    -0.014 A 
ATOM     82  C   UNL A   1      41.271  34.688  38.293  1.00  0.00     0.010 A 
ATOM     83  C   UNL A   1      39.797  33.053  39.314  1.00  0.00     0.010 A 
ATOM     84  C   UNL A   1      41.280  35.422  39.483  1.00  0.00     0.020 A 
ATOM     85  C   UNL A   1      39.787  33.795  40.499  1.00  0.00     0.020 A 
ATOM     86  C   UNL A   1      40.538  34.970  40.579  1.00  0.00     0.054 A 
BRANCH  86  87
ATOM     87  S   UNL A   1      40.520  35.968  42.094  1.00  0.00     0.124 S 
ATOM     88  O   UNL A   1      41.003  35.016  43.090  1.00  0.00    -0.237 OA
ATOM     89  O   UNL A   1      41.436  37.060  41.772  1.00  0.00    -0.237 OA
ATOM     90  O   UNL A   1      39.119  36.359  42.233  1.00  0.00    -0.744 OA
ENDBRANCH  86  87
ENDBRANCH  60  81
ENDBRANCH  34  35
ENDBRANCH  26  29
ENDBRANCH  24  25
ENDBRANCH   1  24
TORSDOF 15
ENDMDL
MODEL 3
REMARK VINA RESULT:     -11.5      1.264      2.013
REMARK SMILES O=C(NCCCCNC(=O)c1ccc(-c2c3nc(c(-c4ccc(S(=O)(=O)[O-])cc4)c4ccc([nH]4)c(-c4ccc(S(=O)(=O)[O-])cc4)c4nc(c(-c5ccc(S(=O)(=O)[O-])cc5)c5ccc2[nH]5)C=C4)C=C3)cc1)C1=Cc2ccc(Cl)c(Cl)c2O[C@@H]1C(F)(F)F
REMARK SMILES IDX 6 1 5 2 4 3 3 4 1 5 2 6 71 8 72 9 82 10 73 11 81 12 74 13
REMARK SMILES IDX 80 14 75 15 78 16 76 17 79 18 77 19 83 20 84 21 85 22 86 23
REMARK SMILES IDX 7 24 8 25 9 26 10 28 11 29 12 30 70 31 13 32 69 33 14 34
REMARK SMILES IDX 15 35 16 36 63 37 17 38 68 39 62 40 64 41 18 42 67 43 61 44
REMARK SMILES IDX 60 45 19 47 49 48 30 49 48 50 31 51 34 52 47 53 65 54 32 55
REMARK SMILES IDX 33 56 46 58 66 59 35 60 20 61 21 62 29 63 22 64 28 65 23 66
REMARK SMILES IDX 24 67 25 68 26 69 27 70 50 71 51 72 59 73 52 74 58 75 53 76
REMARK SMILES IDX 54 77 55 78 56 79 57 80 36 81 37 82 45 83 38 84 44 85 39 86
REMARK SMILES IDX 40 87 41 88 42 89 43 90
REMARK H PARENT 3 7 8 27 64 46 34 57
REMARK Flexibility Score: inf
ROOT
ATOM      1  C   UNL A   1      33.525  28.777  25.876  1.00  0.00     0.023 C 
ENDROOT
BRANCH   1   2
ATOM      2  C   UNL A   1      32.813  29.402  24.681  1.00  0.00     0.023 C 
BRANCH   2   3
ATOM      3  C   UNL A   1      32.200  28.432  23.677  1.00  0.00     0.116 C 
BRANCH   3   4
ATOM      4  N   UNL A   1      33.141  27.541  23.015  1.00  0.00    -0.352 N 
ATOM      5  O   UNL A   1      33.952  25.595  22.220  1.00  0.00    -0.270 OA
ATOM      6  C   UNL A   1      33.161  26.171  22.964  1.00  0.00     0.251 C 
ATOM      7  H   UNL A   1      33.872  27.989  22.532  1.00  0.00     0.163 HD
BRANCH   6   8
ATOM      8  C   UNL A   1      32.174  25.342  23.718  1.00  0.00     0.067 C 
ATOM      9  C   UNL A   1      31.568  24.298  23.135  1.00  0.00     0.025 C 
ATOM     10  C   UNL A   1      32.426  25.318  25.205  1.00  0.00     0.314 C 
ATOM     11  C   UNL A   1      31.955  22.998  23.711  1.00  0.00     0.019 A 
ATOM     12  O   UNL A   1      32.990  24.056  25.643  1.00  0.00    -0.474 OA
ATOM     13  C   UNL A   1      31.778  21.857  22.921  1.00  0.00     0.013 A 
ATOM     14  C   UNL A   1      32.744  22.943  24.872  1.00  0.00     0.148 A 
ATOM     15  C   UNL A   1      32.448  20.679  23.250  1.00  0.00     0.023 A 
ATOM     16  C   UNL A   1      33.398  21.748  25.214  1.00  0.00     0.102 A 
ATOM     17  C   UNL A   1      33.265  20.626  24.384  1.00  0.00     0.063 A 
ATOM     18  Cl  UNL A   1      34.426  21.715  26.610  1.00  0.00    -0.079 Cl
ATOM     19  Cl  UNL A   1      34.127  19.155  24.667  1.00  0.00    -0.083 Cl
BRANCH  10  20
ATOM     20  C   UNL A   1      31.144  25.655  25.989  1.00  0.00     0.429 C 
ATOM     21  F   UNL A   1      31.394  26.509  27.009  1.00  0.00    -0.167 F 
ATOM     22  F   UNL A   1      30.211  26.242  25.202  1.00  0.00    -0.167 F 
ATOM     23  F   UNL A   1      30.567  24.551  26.525  1.00  0.00    -0.167 F 
ENDBRANCH  10  20
ENDBRANCH   6   8
ENDBRANCH   3   4
ENDBRANCH   2   3
ENDBRANCH   1   2
BRANCH   1  24
ATOM     24  C   UNL A   1      33.058  29.220  27.263  1.00  0.00     0.116 C 
BRANCH  24  25
ATOM     25  N   UNL A   1      33.371  30.603  27.604  1.00  0.00    -0.352 N 
ATOM     26  C   UNL A   1      34.555  31.158  28.056  1.00  0.00     0.251 C 
ATOM     27  H   UNL A   1      32.628  31.239  27.496  1.00  0.00     0.163 HD
ATOM     28  O   UNL A   1      34.610  32.344  28.329  1.00  0.00    -0.269 OA
BRANCH  26  29
ATOM     29  C   UNL A   1      35.732  30.282  28.275  1.00  0.00     0.039 A 
ATOM     30  C   UNL A   1      36.683  30.177  27.257  1.00  0.00     0.014 A 
ATOM     31  C   UNL A   1      35.948  29.663  29.507  1.00  0.00     0.014 A 
ATOM     32  C   UNL A   1      37.919  29.587  27.529  1.00  0.00     0.010 A 
ATOM     33  C   UNL A   1      37.207  29.146  29.801  1.00  0.00     0.010 A 
ATOM     34  C   UNL A   1      38.219  29.149  28.830  1.00  0.00    -0.014 A 
BRANCH  34  35
ATOM     35  C   UNL A   1      39.613  28.814  29.225  1.00  0.00     0.031 A 
ATOM     36  C   UNL A   1      40.501  29.835  29.873  1.00  0.00     0.074 A 
ATOM     37  C   UNL A   1      40.114  27.608  28.885  1.00  0.00     0.049 A 
ATOM     38  N   UNL A   1      41.762  29.733  30.206  1.00  0.00    -0.248 NA
ATOM     39  C   UNL A   1      39.905  31.148  30.156  1.00  0.00     0.031 C 
ATOM     40  C   UNL A   1      39.377  26.552  28.183  1.00  0.00     0.029 A 
ATOM     41  N   UNL A   1      41.364  27.072  29.064  1.00  0.00    -0.354 N 
ATOM     42  C   UNL A   1      42.117  30.971  30.726  1.00  0.00     0.074 A 
ATOM     43  C   UNL A   1      40.948  31.820  30.620  1.00  0.00     0.031 C 
ATOM     44  C   UNL A   1      40.183  25.493  28.006  1.00  0.00     0.029 A 
ATOM     45  C   UNL A   1      41.502  25.805  28.547  1.00  0.00     0.049 A 
ATOM     46  H   UNL A   1      42.095  27.549  29.521  1.00  0.00     0.167 HD
ATOM     47  C   UNL A   1      43.301  31.363  31.255  1.00  0.00     0.031 A 
ATOM     48  C   UNL A   1      42.569  24.985  28.494  1.00  0.00     0.031 A 
ATOM     49  C   UNL A   1      44.464  30.520  31.353  1.00  0.00     0.049 A 
ATOM     50  C   UNL A   1      43.871  25.434  29.091  1.00  0.00     0.074 A 
ATOM     51  C   UNL A   1      45.686  30.803  31.937  1.00  0.00     0.029 A 
ATOM     52  N   UNL A   1      44.553  29.235  30.840  1.00  0.00    -0.354 N 
ATOM     53  N   UNL A   1      44.159  26.577  29.662  1.00  0.00    -0.248 NA
ATOM     54  C   UNL A   1      44.988  24.482  29.041  1.00  0.00     0.031 C 
ATOM     55  C   UNL A   1      46.531  29.704  31.738  1.00  0.00     0.029 A 
ATOM     56  C   UNL A   1      45.820  28.720  31.067  1.00  0.00     0.049 A 
ATOM     57  H   UNL A   1      43.825  28.757  30.383  1.00  0.00     0.167 HD
ATOM     58  C   UNL A   1      45.491  26.485  30.044  1.00  0.00     0.074 A 
ATOM     59  C   UNL A   1      45.946  25.164  29.657  1.00  0.00     0.031 C 
ATOM     60  C   UNL A   1      46.267  27.413  30.656  1.00  0.00     0.031 A 
BRANCH  47  61
ATOM     61  C   UNL A   1      43.386  32.780  31.757  1.00  0.00    -0.014 A 
ATOM     62  C   UNL A   1      43.748  33.831  30.893  1.00  0.00     0.010 A 
ATOM     63  C   UNL A   1      43.119  33.063  33.107  1.00  0.00     0.010 A 
ATOM     64  C   UNL A   1      43.906  35.128  31.387  1.00  0.00     0.020 A 
ATOM     65  C   UNL A   1      43.251  34.366  33.599  1.00  0.00     0.020 A 
ATOM     66  C   UNL A   1      43.671  35.384  32.741  1.00  0.00     0.054 A 
BRANCH  66  67
ATOM     67  S   UNL A   1      43.914  37.070  33.365  1.00  0.00     0.124 S 
ATOM     68  O   UNL A   1      44.014  37.836  32.126  1.00  0.00    -0.237 OA
ATOM     69  O   UNL A   1      42.703  37.302  34.150  1.00  0.00    -0.237 OA
ATOM     70  O   UNL A   1      45.147  36.976  34.143  1.00  0.00    -0.744 OA
ENDBRANCH  66  67
ENDBRANCH  47  61
BRANCH  48  71
ATOM     71  C   UNL A   1      42.430  23.650  27.853  1.00  0.00    -0.014 A 
ATOM     72  C   UNL A   1      42.777  23.470  26.504  1.00  0.00     0.010 A 
ATOM     73  C   UNL A   1      42.020  22.538  28.611  1.00  0.00     0.010 A 
ATOM     74  C   UNL A   1      42.728  22.199  25.925  1.00  0.00     0.020 A 
ATOM     75  C   UNL A   1      41.990  21.263  28.042  1.00  0.00     0.020 A 
ATOM     76  C   UNL A   1      42.344  21.100  26.701  1.00  0.00     0.054 A 
BRANCH  76  77
ATOM     77  S   UNL A   1      42.392  19.443  25.961  1.00  0.00     0.124 S 
ATOM     78  O   UNL A   1      43.291  19.641  24.830  1.00  0.00    -0.237 OA
ATOM     79  O   UNL A   1      42.915  18.624  27.052  1.00  0.00    -0.237 OA
ATOM     80  O   UNL A   1      40.995  19.185  25.618  1.00  0.00    -0.744 OA
ENDBRANCH  76  77
ENDBRANCH  48  71
BRANCH  60  81
ATOM     81  C   UNL A   1      47.695  27.037  30.937  1.00  0.00    -0.014 A 
ATOM     82  C   UNL A   1      48.061  26.483  32.176  1.00  0.00     0.010 A 
ATOM     83  C   UNL A   1      48.670  27.187  29.935  1.00  0.00     0.010 A 
ATOM     84  C   UNL A   1      49.384  26.101  32.415  1.00  0.00     0.020 A 
ATOM     85  C   UNL A   1      49.989  26.787  30.163  1.00  0.00     0.020 A 
ATOM     86  C   UNL A   1      50.340  26.256  31.406  1.00  0.00     0.054 A 
BRANCH  86  87
ATOM     87  S   UNL A   1      52.040  25.702  31.720  1.00  0.00     0.124 S 
ATOM     88  O   UNL A   1      52.705  26.040  30.465  1.00  0.00    -0.237 OA
ATOM     89  O   UNL A   1      52.433  26.504  32.876  1.00  0.00    -0.237 OA
ATOM     90  O   UNL A   1      51.893  24.272  31.983  1.00  0.00    -0.744 OA
ENDBRANCH  86  87
ENDBRANCH  60  81
ENDBRANCH  34  35
ENDBRANCH  26  29
ENDBRANCH  24  25
ENDBRANCH   1  24
TORSDOF 15
ENDMDL
