MODEL 1
REMARK VINA RESULT:     -12.2      0.000      0.000
REMARK SMILES COc1ccc(C2=NN(C(=O)CCC(=O)NCCCCNC(=O)c3ccc(-c4c5nc(c(-c6ccc(S(=O)(=O)[O-])cc6)c6ccc([nH]6)c(-c6ccc(S(=O)(=O)[O-])cc6)c6nc(c(-c7ccc(S(=O)(=O)[O-])cc7)c7ccc4[nH]7)C=C6)C=C5)cc3)[C@H](c3ccc(Cl)cc3Cl)C2)cc1
REMARK SMILES IDX 17 1 16 2 14 3 15 4 13 6 12 7 10 8 11 9 9 10 7 11 8 12 93 13
REMARK SMILES IDX 84 14 6 15 3 16 4 17 95 18 5 19 94 20 2 21 1 22 85 23 86 24
REMARK SMILES IDX 91 25 87 26 90 27 92 28 88 29 89 30 18 31 19 32 20 33 21 34
REMARK SMILES IDX 22 35 23 37 24 38 25 39 83 40 26 41 82 42 27 43 28 44 29 45
REMARK SMILES IDX 76 46 30 47 81 48 75 49 77 50 31 51 80 52 74 53 73 54 32 56
REMARK SMILES IDX 62 57 43 58 61 59 44 60 47 61 60 62 78 63 45 64 46 65 59 67
REMARK SMILES IDX 79 68 48 69 33 70 34 71 42 72 35 73 41 74 36 75 37 76 38 77
REMARK SMILES IDX 39 78 40 79 63 80 64 81 72 82 65 83 71 84 66 85 67 86 68 87
REMARK SMILES IDX 69 88 70 89 49 90 50 91 58 92 51 93 57 94 52 95 53 96 54 97
REMARK SMILES IDX 55 98 56 99
REMARK H PARENT 16 5 21 36 77 55 47 66
REMARK Flexibility Score: inf
ROOT
ATOM      1  C   UNL A   1      33.550  27.880  23.261  1.00  0.00     0.116 C 
ENDROOT
BRANCH   1   2
ATOM      2  N   UNL A   1      32.712  27.303  22.065  1.00  0.00    -0.356 N 
ATOM      3  C   UNL A   1      32.444  26.033  21.669  1.00  0.00     0.220 C 
ATOM      4  O   UNL A   1      31.782  25.898  20.638  1.00  0.00    -0.275 OA
ATOM      5  H   UNL A   1      32.305  27.994  21.494  1.00  0.00     0.163 HD
BRANCH   3   6
ATOM      6  C   UNL A   1      32.907  24.847  22.477  1.00  0.00     0.110 C 
BRANCH   6   7
ATOM      7  C   UNL A   1      33.060  23.496  21.783  1.00  0.00     0.112 C 
BRANCH   7   8
ATOM      8  C   UNL A   1      32.896  22.288  22.674  1.00  0.00     0.243 C 
ATOM      9  O   UNL A   1      32.124  21.385  22.348  1.00  0.00    -0.273 OA
BRANCH   8  10
ATOM     10  N   UNL A   1      33.505  22.380  23.937  1.00  0.00    -0.225 N 
ATOM     11  C   UNL A   1      35.565  20.846  25.254  1.00  0.00     0.071 C 
ATOM     12  N   UNL A   1      35.158  21.546  23.892  1.00  0.00    -0.174 NA
ATOM     13  C   UNL A   1      33.946  21.005  26.610  1.00  0.00     0.091 C 
ATOM     14  C   UNL A   1      32.669  22.254  25.650  1.00  0.00     0.149 C 
BRANCH  11  15
ATOM     15  C   UNL A   1      37.219  20.781  25.295  1.00  0.00    -0.002 A 
ATOM     16  C   UNL A   1      40.052  20.809  25.973  1.00  0.00     0.118 A 
ATOM     17  C   UNL A   1      39.252  21.926  26.166  1.00  0.00     0.047 A 
ATOM     18  C   UNL A   1      39.446  19.660  25.532  1.00  0.00     0.047 A 
ATOM     19  C   UNL A   1      37.870  21.915  25.824  1.00  0.00     0.014 A 
ATOM     20  C   UNL A   1      38.079  19.671  25.199  1.00  0.00     0.014 A 
BRANCH  16  21
ATOM     21  O   UNL A   1      41.369  20.839  26.327  1.00  0.00    -0.497 OA
ATOM     22  C   UNL A   1      41.710  19.853  27.309  1.00  0.00     0.278 C 
ENDBRANCH  16  21
ENDBRANCH  11  15
BRANCH  14  23
ATOM     23  C   UNL A   1      32.186  23.726  26.128  1.00  0.00    -0.004 A 
ATOM     24  C   UNL A   1      33.025  24.860  26.170  1.00  0.00     0.009 A 
ATOM     25  C   UNL A   1      30.813  24.010  26.325  1.00  0.00     0.047 A 
ATOM     26  C   UNL A   1      32.529  26.171  26.098  1.00  0.00     0.021 A 
ATOM     27  C   UNL A   1      30.302  25.316  26.220  1.00  0.00     0.041 A 
ATOM     28  Cl  UNL A   1      29.696  22.839  26.945  1.00  0.00    -0.084 Cl
ATOM     29  C   UNL A   1      31.163  26.388  26.054  1.00  0.00     0.042 A 
ATOM     30  Cl  UNL A   1      30.545  27.979  25.860  1.00  0.00    -0.084 Cl
ENDBRANCH  14  23
ENDBRANCH   8  10
ENDBRANCH   7   8
ENDBRANCH   6   7
ENDBRANCH   3   6
ENDBRANCH   1   2
BRANCH   1  31
ATOM     31  C   UNL A   1      33.160  29.599  24.617  1.00  0.00     0.023 C 
BRANCH  31  32
ATOM     32  C   UNL A   1      33.413  29.452  26.495  1.00  0.00     0.023 C 
BRANCH  32  33
ATOM     33  C   UNL A   1      34.185  30.664  27.500  1.00  0.00     0.116 C 
BRANCH  33  34
ATOM     34  N   UNL A   1      33.605  32.068  27.563  1.00  0.00    -0.352 N 
ATOM     35  C   UNL A   1      33.727  33.133  28.425  1.00  0.00     0.251 C 
ATOM     36  H   UNL A   1      33.001  32.260  26.811  1.00  0.00     0.163 HD
ATOM     37  O   UNL A   1      32.930  34.061  28.392  1.00  0.00    -0.269 OA
BRANCH  35  38
ATOM     38  C   UNL A   1      34.849  33.121  29.342  1.00  0.00     0.039 A 
ATOM     39  C   UNL A   1      34.791  32.424  30.552  1.00  0.00     0.014 A 
ATOM     40  C   UNL A   1      36.013  33.702  28.855  1.00  0.00     0.014 A 
ATOM     41  C   UNL A   1      35.983  32.159  31.209  1.00  0.00     0.010 A 
ATOM     42  C   UNL A   1      37.193  33.406  29.481  1.00  0.00     0.010 A 
ATOM     43  C   UNL A   1      37.178  32.616  30.643  1.00  0.00    -0.014 A 
BRANCH  43  44
ATOM     44  C   UNL A   1      38.470  32.464  31.309  1.00  0.00     0.031 A 
ATOM     45  C   UNL A   1      39.377  31.425  30.741  1.00  0.00     0.074 A 
ATOM     46  C   UNL A   1      38.703  33.092  32.472  1.00  0.00     0.049 A 
ATOM     47  N   UNL A   1      40.421  30.867  31.278  1.00  0.00    -0.248 NA
ATOM     48  C   UNL A   1      39.012  30.907  29.407  1.00  0.00     0.031 C 
ATOM     49  C   UNL A   1      37.846  34.108  33.085  1.00  0.00     0.029 A 
ATOM     50  N   UNL A   1      39.725  32.930  33.364  1.00  0.00    -0.354 N 
ATOM     51  C   UNL A   1      40.824  29.908  30.360  1.00  0.00     0.074 A 
ATOM     52  C   UNL A   1      39.887  29.927  29.261  1.00  0.00     0.031 C 
ATOM     53  C   UNL A   1      38.387  34.486  34.257  1.00  0.00     0.029 A 
ATOM     54  C   UNL A   1      39.592  33.698  34.496  1.00  0.00     0.049 A 
ATOM     55  H   UNL A   1      40.484  32.323  33.211  1.00  0.00     0.167 HD
ATOM     56  C   UNL A   1      41.894  29.089  30.434  1.00  0.00     0.031 A 
ATOM     57  C   UNL A   1      40.359  33.725  35.602  1.00  0.00     0.031 A 
ATOM     58  C   UNL A   1      42.791  29.083  31.550  1.00  0.00     0.049 A 
ATOM     59  C   UNL A   1      41.536  32.785  35.670  1.00  0.00     0.074 A 
ATOM     60  C   UNL A   1      43.915  28.306  31.752  1.00  0.00     0.029 A 
ATOM     61  N   UNL A   1      42.658  29.904  32.662  1.00  0.00    -0.354 N 
ATOM     62  N   UNL A   1      41.931  31.894  34.789  1.00  0.00    -0.248 NA
ATOM     63  C   UNL A   1      42.368  32.853  36.877  1.00  0.00     0.031 C 
ATOM     64  C   UNL A   1      44.442  28.636  33.005  1.00  0.00     0.029 A 
ATOM     65  C   UNL A   1      43.677  29.653  33.559  1.00  0.00     0.049 A 
ATOM     66  H   UNL A   1      41.943  30.569  32.791  1.00  0.00     0.167 HD
ATOM     67  C   UNL A   1      43.080  31.317  35.320  1.00  0.00     0.074 A 
ATOM     68  C   UNL A   1      43.317  31.971  36.594  1.00  0.00     0.031 C 
ATOM     69  C   UNL A   1      43.872  30.340  34.811  1.00  0.00     0.031 A 
BRANCH  56  70
ATOM     70  C   UNL A   1      42.096  28.146  29.287  1.00  0.00    -0.014 A 
ATOM     71  C   UNL A   1      41.386  26.933  29.216  1.00  0.00     0.010 A 
ATOM     72  C   UNL A   1      43.054  28.441  28.302  1.00  0.00     0.010 A 
ATOM     73  C   UNL A   1      41.669  26.006  28.213  1.00  0.00     0.020 A 
ATOM     74  C   UNL A   1      43.319  27.528  27.278  1.00  0.00     0.020 A 
ATOM     75  C   UNL A   1      42.640  26.307  27.254  1.00  0.00     0.054 A 
BRANCH  75  76
ATOM     76  S   UNL A   1      42.993  25.084  25.965  1.00  0.00     0.124 S 
ATOM     77  O   UNL A   1      42.271  23.914  26.458  1.00  0.00    -0.237 OA
ATOM     78  O   UNL A   1      42.436  25.709  24.769  1.00  0.00    -0.237 OA
ATOM     79  O   UNL A   1      44.450  24.971  25.986  1.00  0.00    -0.744 OA
ENDBRANCH  75  76
ENDBRANCH  56  70
BRANCH  57  80
ATOM     80  C   UNL A   1      40.053  34.664  36.715  1.00  0.00    -0.014 A 
ATOM     81  C   UNL A   1      40.645  35.940  36.745  1.00  0.00     0.010 A 
ATOM     82  C   UNL A   1      39.181  34.294  37.754  1.00  0.00     0.010 A 
ATOM     83  C   UNL A   1      40.396  36.815  37.807  1.00  0.00     0.020 A 
ATOM     84  C   UNL A   1      38.909  35.177  38.805  1.00  0.00     0.020 A 
ATOM     85  C   UNL A   1      39.531  36.427  38.832  1.00  0.00     0.054 A 
BRANCH  85  86
ATOM     86  S   UNL A   1      39.204  37.589  40.187  1.00  0.00     0.124 S 
ATOM     87  O   UNL A   1      40.502  38.235  40.352  1.00  0.00    -0.237 OA
ATOM     88  O   UNL A   1      38.143  38.427  39.634  1.00  0.00    -0.237 OA
ATOM     89  O   UNL A   1      38.792  36.719  41.288  1.00  0.00    -0.744 OA
ENDBRANCH  85  86
ENDBRANCH  57  80
BRANCH  69  90
ATOM     90  C   UNL A   1      45.088  29.960  35.609  1.00  0.00    -0.014 A 
ATOM     91  C   UNL A   1      45.075  28.853  36.474  1.00  0.00     0.010 A 
ATOM     92  C   UNL A   1      46.279  30.686  35.427  1.00  0.00     0.010 A 
ATOM     93  C   UNL A   1      46.231  28.495  37.168  1.00  0.00     0.020 A 
ATOM     94  C   UNL A   1      47.444  30.312  36.096  1.00  0.00     0.020 A 
ATOM     95  C   UNL A   1      47.409  29.226  36.974  1.00  0.00     0.054 A 
BRANCH  95  96
ATOM     96  S   UNL A   1      48.911  28.709  37.845  1.00  0.00     0.124 S 
ATOM     97  O   UNL A   1      48.605  29.083  39.223  1.00  0.00    -0.237 OA
ATOM     98  O   UNL A   1      48.958  27.273  37.579  1.00  0.00    -0.237 OA
ATOM     99  O   UNL A   1      49.967  29.489  37.206  1.00  0.00    -0.744 OA
ENDBRANCH  95  96
ENDBRANCH  69  90
ENDBRANCH  43  44
ENDBRANCH  35  38
ENDBRANCH  33  34
ENDBRANCH  32  33
ENDBRANCH  31  32
ENDBRANCH   1  31
TORSDOF 20
ENDMDL
MODEL 2
REMARK VINA RESULT:     -11.2      5.921     11.970
REMARK SMILES COc1ccc(C2=NN(C(=O)CCC(=O)NCCCCNC(=O)c3ccc(-c4c5nc(c(-c6ccc(S(=O)(=O)[O-])cc6)c6ccc([nH]6)c(-c6ccc(S(=O)(=O)[O-])cc6)c6nc(c(-c7ccc(S(=O)(=O)[O-])cc7)c7ccc4[nH]7)C=C6)C=C5)cc3)[C@H](c3ccc(Cl)cc3Cl)C2)cc1
REMARK SMILES IDX 17 1 16 2 14 3 15 4 13 6 12 7 10 8 11 9 9 10 7 11 8 12 93 13
REMARK SMILES IDX 84 14 6 15 3 16 4 17 95 18 5 19 94 20 2 21 1 22 85 23 86 24
REMARK SMILES IDX 91 25 87 26 90 27 92 28 88 29 89 30 18 31 19 32 20 33 21 34
REMARK SMILES IDX 22 35 23 37 24 38 25 39 83 40 26 41 82 42 27 43 28 44 29 45
REMARK SMILES IDX 76 46 30 47 81 48 75 49 77 50 31 51 80 52 74 53 73 54 32 56
REMARK SMILES IDX 62 57 43 58 61 59 44 60 47 61 60 62 78 63 45 64 46 65 59 67
REMARK SMILES IDX 79 68 48 69 33 70 34 71 42 72 35 73 41 74 36 75 37 76 38 77
REMARK SMILES IDX 39 78 40 79 63 80 64 81 72 82 65 83 71 84 66 85 67 86 68 87
REMARK SMILES IDX 69 88 70 89 49 90 50 91 58 92 51 93 57 94 52 95 53 96 54 97
REMARK SMILES IDX 55 98 56 99
REMARK H PARENT 16 5 21 36 77 55 47 66
REMARK Flexibility Score: inf
ROOT
ATOM      1  C   UNL A   1      47.817  26.738  27.072  1.00  0.00     0.116 C 
ENDROOT
BRANCH   1   2
ATOM      2  N   UNL A   1      47.582  27.832  25.970  1.00  0.00    -0.356 N 
ATOM      3  C   UNL A   1      46.453  28.414  25.490  1.00  0.00     0.220 C 
ATOM      4  O   UNL A   1      46.590  29.221  24.569  1.00  0.00    -0.275 OA
ATOM      5  H   UNL A   1      48.410  28.156  25.547  1.00  0.00     0.163 HD
BRANCH   3   6
ATOM      6  C   UNL A   1      45.101  28.108  26.084  1.00  0.00     0.110 C 
BRANCH   6   7
ATOM      7  C   UNL A   1      44.690  28.805  27.378  1.00  0.00     0.112 C 
BRANCH   7   8
ATOM      8  C   UNL A   1      44.512  30.301  27.279  1.00  0.00     0.243 C 
ATOM      9  O   UNL A   1      44.167  30.809  26.212  1.00  0.00    -0.273 OA
BRANCH   8  10
ATOM     10  N   UNL A   1      44.957  31.039  28.389  1.00  0.00    -0.225 N 
ATOM     11  C   UNL A   1      44.169  33.575  29.521  1.00  0.00     0.071 C 
ATOM     12  N   UNL A   1      43.626  32.208  28.932  1.00  0.00    -0.174 NA
ATOM     13  C   UNL A   1      46.277  33.612  29.320  1.00  0.00     0.091 C 
ATOM     14  C   UNL A   1      46.710  31.727  28.710  1.00  0.00     0.149 C 
BRANCH  11  15
ATOM     15  C   UNL A   1      43.008  34.161  30.545  1.00  0.00    -0.002 A 
ATOM     16  C   UNL A   1      40.759  34.600  32.343  1.00  0.00     0.118 A 
ATOM     17  C   UNL A   1      40.571  34.102  31.062  1.00  0.00     0.047 A 
ATOM     18  C   UNL A   1      42.047  34.799  32.768  1.00  0.00     0.047 A 
ATOM     19  C   UNL A   1      41.671  33.898  30.179  1.00  0.00     0.014 A 
ATOM     20  C   UNL A   1      43.119  34.592  31.880  1.00  0.00     0.014 A 
BRANCH  16  21
ATOM     21  O   UNL A   1      39.691  34.769  33.176  1.00  0.00    -0.497 OA
ATOM     22  C   UNL A   1      38.432  34.559  32.526  1.00  0.00     0.278 C 
ENDBRANCH  16  21
ENDBRANCH  11  15
BRANCH  14  23
ATOM     23  C   UNL A   1      47.595  30.617  29.494  1.00  0.00    -0.004 A 
ATOM     24  C   UNL A   1      48.599  29.833  28.888  1.00  0.00     0.009 A 
ATOM     25  C   UNL A   1      47.557  30.526  30.906  1.00  0.00     0.047 A 
ATOM     26  C   UNL A   1      49.658  29.267  29.615  1.00  0.00     0.021 A 
ATOM     27  C   UNL A   1      48.628  29.991  31.644  1.00  0.00     0.041 A 
ATOM     28  Cl  UNL A   1      46.119  30.828  31.825  1.00  0.00    -0.084 Cl
ATOM     29  C   UNL A   1      49.701  29.409  30.990  1.00  0.00     0.042 A 
ATOM     30  Cl  UNL A   1      51.043  28.811  31.881  1.00  0.00    -0.084 Cl
ENDBRANCH  14  23
ENDBRANCH   8  10
ENDBRANCH   7   8
ENDBRANCH   6   7
ENDBRANCH   3   6
ENDBRANCH   1   2
BRANCH   1  31
ATOM     31  C   UNL A   1      46.946  24.707  27.317  1.00  0.00     0.023 C 
BRANCH  31  32
ATOM     32  C   UNL A   1      46.290  23.727  25.827  1.00  0.00     0.023 C 
BRANCH  32  33
ATOM     33  C   UNL A   1      45.728  22.068  25.888  1.00  0.00     0.116 C 
BRANCH  33  34
ATOM     34  N   UNL A   1      44.359  21.717  25.327  1.00  0.00    -0.352 N 
ATOM     35  C   UNL A   1      43.059  21.941  25.718  1.00  0.00     0.251 C 
ATOM     36  H   UNL A   1      44.416  21.210  24.486  1.00  0.00     0.163 HD
ATOM     37  O   UNL A   1      42.136  21.308  25.224  1.00  0.00    -0.269 OA
BRANCH  35  38
ATOM     38  C   UNL A   1      42.833  22.974  26.710  1.00  0.00     0.039 A 
ATOM     39  C   UNL A   1      42.658  22.659  28.060  1.00  0.00     0.014 A 
ATOM     40  C   UNL A   1      42.970  24.275  26.245  1.00  0.00     0.014 A 
ATOM     41  C   UNL A   1      42.796  23.678  28.990  1.00  0.00     0.010 A 
ATOM     42  C   UNL A   1      43.147  25.274  27.164  1.00  0.00     0.010 A 
ATOM     43  C   UNL A   1      43.082  24.969  28.534  1.00  0.00    -0.014 A 
BRANCH  43  44
ATOM     44  C   UNL A   1      43.154  26.120  29.433  1.00  0.00     0.031 A 
ATOM     45  C   UNL A   1      44.265  26.102  30.426  1.00  0.00     0.074 A 
ATOM     46  C   UNL A   1      42.150  27.010  29.463  1.00  0.00     0.049 A 
ATOM     47  N   UNL A   1      44.405  26.802  31.513  1.00  0.00    -0.248 NA
ATOM     48  C   UNL A   1      45.333  25.111  30.186  1.00  0.00     0.031 C 
ATOM     49  C   UNL A   1      41.028  27.071  28.525  1.00  0.00     0.029 A 
ATOM     50  N   UNL A   1      41.901  28.018  30.352  1.00  0.00    -0.354 N 
ATOM     51  C   UNL A   1      45.561  26.318  32.104  1.00  0.00     0.074 A 
ATOM     52  C   UNL A   1      46.056  25.235  31.285  1.00  0.00     0.031 C 
ATOM     53  C   UNL A   1      40.209  28.074  28.887  1.00  0.00     0.029 A 
ATOM     54  C   UNL A   1      40.724  28.684  30.110  1.00  0.00     0.049 A 
ATOM     55  H   UNL A   1      42.506  28.245  31.093  1.00  0.00     0.167 HD
ATOM     56  C   UNL A   1      46.159  26.751  33.234  1.00  0.00     0.031 A 
ATOM     57  C   UNL A   1      40.134  29.659  30.826  1.00  0.00     0.031 A 
ATOM     58  C   UNL A   1      45.629  27.815  34.033  1.00  0.00     0.049 A 
ATOM     59  C   UNL A   1      40.809  30.111  32.096  1.00  0.00     0.074 A 
ATOM     60  C   UNL A   1      46.134  28.354  35.199  1.00  0.00     0.029 A 
ATOM     61  N   UNL A   1      44.459  28.503  33.739  1.00  0.00    -0.354 N 
ATOM     62  N   UNL A   1      41.919  29.668  32.643  1.00  0.00    -0.248 NA
ATOM     63  C   UNL A   1      40.157  31.192  32.844  1.00  0.00     0.031 C 
ATOM     64  C   UNL A   1      45.248  29.348  35.628  1.00  0.00     0.029 A 
ATOM     65  C   UNL A   1      44.220  29.461  34.702  1.00  0.00     0.049 A 
ATOM     66  H   UNL A   1      43.885  28.332  32.957  1.00  0.00     0.167 HD
ATOM     67  C   UNL A   1      42.116  30.439  33.783  1.00  0.00     0.074 A 
ATOM     68  C   UNL A   1      41.014  31.382  33.837  1.00  0.00     0.031 C 
ATOM     69  C   UNL A   1      43.111  30.382  34.704  1.00  0.00     0.031 A 
BRANCH  56  70
ATOM     70  C   UNL A   1      47.415  26.042  33.642  1.00  0.00    -0.014 A 
ATOM     71  C   UNL A   1      48.671  26.475  33.179  1.00  0.00     0.010 A 
ATOM     72  C   UNL A   1      47.336  24.889  34.442  1.00  0.00     0.010 A 
ATOM     73  C   UNL A   1      49.821  25.738  33.462  1.00  0.00     0.020 A 
ATOM     74  C   UNL A   1      48.490  24.166  34.753  1.00  0.00     0.020 A 
ATOM     75  C   UNL A   1      49.721  24.583  34.242  1.00  0.00     0.054 A 
BRANCH  75  76
ATOM     76  S   UNL A   1      51.229  23.640  34.591  1.00  0.00     0.124 S 
ATOM     77  O   UNL A   1      51.251  23.641  36.051  1.00  0.00    -0.237 OA
ATOM     78  O   UNL A   1      50.952  22.350  33.966  1.00  0.00    -0.237 OA
ATOM     79  O   UNL A   1      52.283  24.426  33.952  1.00  0.00    -0.744 OA
ENDBRANCH  75  76
ENDBRANCH  56  70
BRANCH  57  80
ATOM     80  C   UNL A   1      38.859  30.274  30.367  1.00  0.00    -0.014 A 
ATOM     81  C   UNL A   1      37.628  29.787  30.844  1.00  0.00     0.010 A 
ATOM     82  C   UNL A   1      38.859  31.338  29.447  1.00  0.00     0.010 A 
ATOM     83  C   UNL A   1      36.423  30.330  30.388  1.00  0.00     0.020 A 
ATOM     84  C   UNL A   1      37.657  31.903  29.010  1.00  0.00     0.020 A 
ATOM     85  C   UNL A   1      36.445  31.384  29.472  1.00  0.00     0.054 A 
BRANCH  85  86
ATOM     86  S   UNL A   1      34.869  32.090  28.914  1.00  0.00     0.124 S 
ATOM     87  O   UNL A   1      34.246  32.477  30.176  1.00  0.00    -0.237 OA
ATOM     88  O   UNL A   1      35.302  33.190  28.057  1.00  0.00    -0.237 OA
ATOM     89  O   UNL A   1      34.228  30.978  28.213  1.00  0.00    -0.744 OA
ENDBRANCH  85  86
ENDBRANCH  57  80
BRANCH  69  90
ATOM     90  C   UNL A   1      43.075  31.396  35.812  1.00  0.00    -0.014 A 
ATOM     91  C   UNL A   1      43.637  32.674  35.650  1.00  0.00     0.010 A 
ATOM     92  C   UNL A   1      42.401  31.081  37.006  1.00  0.00     0.010 A 
ATOM     93  C   UNL A   1      43.550  33.613  36.679  1.00  0.00     0.020 A 
ATOM     94  C   UNL A   1      42.286  32.027  38.025  1.00  0.00     0.020 A 
ATOM     95  C   UNL A   1      42.874  33.282  37.860  1.00  0.00     0.054 A 
BRANCH  95  96
ATOM     96  S   UNL A   1      42.727  34.536  39.160  1.00  0.00     0.124 S 
ATOM     97  O   UNL A   1      44.126  34.801  39.484  1.00  0.00    -0.237 OA
ATOM     98  O   UNL A   1      42.022  35.621  38.482  1.00  0.00    -0.237 OA
ATOM     99  O   UNL A   1      41.961  33.862  40.205  1.00  0.00    -0.744 OA
ENDBRANCH  95  96
ENDBRANCH  69  90
ENDBRANCH  43  44
ENDBRANCH  35  38
ENDBRANCH  33  34
ENDBRANCH  32  33
ENDBRANCH  31  32
ENDBRANCH   1  31
TORSDOF 20
ENDMDL
MODEL 3
REMARK VINA RESULT:     -11.1      5.611     13.048
REMARK SMILES COc1ccc(C2=NN(C(=O)CCC(=O)NCCCCNC(=O)c3ccc(-c4c5nc(c(-c6ccc(S(=O)(=O)[O-])cc6)c6ccc([nH]6)c(-c6ccc(S(=O)(=O)[O-])cc6)c6nc(c(-c7ccc(S(=O)(=O)[O-])cc7)c7ccc4[nH]7)C=C6)C=C5)cc3)[C@H](c3ccc(Cl)cc3Cl)C2)cc1
REMARK SMILES IDX 17 1 16 2 14 3 15 4 13 6 12 7 10 8 11 9 9 10 7 11 8 12 93 13
REMARK SMILES IDX 84 14 6 15 3 16 4 17 95 18 5 19 94 20 2 21 1 22 85 23 86 24
REMARK SMILES IDX 91 25 87 26 90 27 92 28 88 29 89 30 18 31 19 32 20 33 21 34
REMARK SMILES IDX 22 35 23 37 24 38 25 39 83 40 26 41 82 42 27 43 28 44 29 45
REMARK SMILES IDX 76 46 30 47 81 48 75 49 77 50 31 51 80 52 74 53 73 54 32 56
REMARK SMILES IDX 62 57 43 58 61 59 44 60 47 61 60 62 78 63 45 64 46 65 59 67
REMARK SMILES IDX 79 68 48 69 33 70 34 71 42 72 35 73 41 74 36 75 37 76 38 77
REMARK SMILES IDX 39 78 40 79 63 80 64 81 72 82 65 83 71 84 66 85 67 86 68 87
REMARK SMILES IDX 69 88 70 89 49 90 50 91 58 92 51 93 57 94 52 95 53 96 54 97
REMARK SMILES IDX 55 98 56 99
REMARK H PARENT 16 5 21 36 77 55 47 66
REMARK Flexibility Score: inf
ROOT
ATOM      1  C   UNL A   1      45.260  33.839  35.880  1.00  0.00     0.116 C 
ENDROOT
BRANCH   1   2
ATOM      2  N   UNL A   1      44.495  35.207  35.790  1.00  0.00    -0.356 N 
ATOM      3  C   UNL A   1      43.888  35.846  34.756  1.00  0.00     0.220 C 
ATOM      4  O   UNL A   1      43.405  36.955  34.992  1.00  0.00    -0.275 OA
ATOM      5  H   UNL A   1      44.447  35.695  36.644  1.00  0.00     0.163 HD
BRANCH   3   6
ATOM      6  C   UNL A   1      43.782  35.205  33.395  1.00  0.00     0.110 C 
BRANCH   6   7
ATOM      7  C   UNL A   1      43.337  36.060  32.211  1.00  0.00     0.112 C 
BRANCH   7   8
ATOM      8  C   UNL A   1      44.384  36.290  31.149  1.00  0.00     0.243 C 
ATOM      9  O   UNL A   1      45.472  36.780  31.455  1.00  0.00    -0.273 OA
BRANCH   8  10
ATOM     10  N   UNL A   1      43.953  36.104  29.824  1.00  0.00    -0.225 N 
ATOM     11  C   UNL A   1      42.528  37.781  27.956  1.00  0.00     0.071 C 
ATOM     12  N   UNL A   1      43.707  37.752  29.014  1.00  0.00    -0.174 NA
ATOM     13  C   UNL A   1      41.551  35.903  27.976  1.00  0.00     0.091 C 
ATOM     14  C   UNL A   1      42.752  34.776  29.160  1.00  0.00     0.149 C 
BRANCH  11  15
ATOM     15  C   UNL A   1      42.866  38.995  26.881  1.00  0.00    -0.002 A 
ATOM     16  C   UNL A   1      43.204  41.498  25.430  1.00  0.00     0.118 A 
ATOM     17  C   UNL A   1      41.951  41.062  25.834  1.00  0.00     0.047 A 
ATOM     18  C   UNL A   1      44.291  40.754  25.812  1.00  0.00     0.047 A 
ATOM     19  C   UNL A   1      41.785  39.832  26.534  1.00  0.00     0.014 A 
ATOM     20  C   UNL A   1      44.105  39.542  26.502  1.00  0.00     0.014 A 
BRANCH  16  21
ATOM     21  O   UNL A   1      43.338  42.688  24.778  1.00  0.00    -0.497 OA
ATOM     22  C   UNL A   1      44.328  43.542  25.364  1.00  0.00     0.278 C 
ENDBRANCH  16  21
ENDBRANCH  11  15
BRANCH  14  23
ATOM     23  C   UNL A   1      43.585  33.450  28.739  1.00  0.00    -0.004 A 
ATOM     24  C   UNL A   1      43.515  32.220  29.427  1.00  0.00     0.009 A 
ATOM     25  C   UNL A   1      44.275  33.390  27.505  1.00  0.00     0.047 A 
ATOM     26  C   UNL A   1      43.817  30.994  28.814  1.00  0.00     0.021 A 
ATOM     27  C   UNL A   1      44.551  32.167  26.868  1.00  0.00     0.041 A 
ATOM     28  Cl  UNL A   1      45.049  34.770  26.797  1.00  0.00    -0.084 Cl
ATOM     29  C   UNL A   1      44.271  30.971  27.508  1.00  0.00     0.042 A 
ATOM     30  Cl  UNL A   1      44.545  29.473  26.712  1.00  0.00    -0.084 Cl
ENDBRANCH  14  23
ENDBRANCH   8  10
ENDBRANCH   7   8
ENDBRANCH   6   7
ENDBRANCH   3   6
ENDBRANCH   1   2
BRANCH   1  31
ATOM     31  C   UNL A   1      46.075  32.739  37.633  1.00  0.00     0.023 C 
BRANCH  31  32
ATOM     32  C   UNL A   1      47.699  31.760  37.516  1.00  0.00     0.023 C 
BRANCH  32  33
ATOM     33  C   UNL A   1      47.963  30.172  38.210  1.00  0.00     0.116 C 
BRANCH  33  34
ATOM     34  N   UNL A   1      48.653  29.097  37.386  1.00  0.00    -0.352 N 
ATOM     35  C   UNL A   1      48.235  28.127  36.505  1.00  0.00     0.251 C 
ATOM     36  H   UNL A   1      49.629  29.094  37.512  1.00  0.00     0.163 HD
ATOM     37  O   UNL A   1      48.975  27.205  36.187  1.00  0.00    -0.269 OA
BRANCH  35  38
ATOM     38  C   UNL A   1      46.902  28.262  35.950  1.00  0.00     0.039 A 
ATOM     39  C   UNL A   1      45.810  27.598  36.515  1.00  0.00     0.014 A 
ATOM     40  C   UNL A   1      46.778  29.214  34.947  1.00  0.00     0.014 A 
ATOM     41  C   UNL A   1      44.538  28.030  36.173  1.00  0.00     0.010 A 
ATOM     42  C   UNL A   1      45.524  29.668  34.640  1.00  0.00     0.010 A 
ATOM     43  C   UNL A   1      44.408  29.091  35.270  1.00  0.00    -0.014 A 
BRANCH  43  44
ATOM     44  C   UNL A   1      43.110  29.552  34.783  1.00  0.00     0.031 A 
ATOM     45  C   UNL A   1      42.661  28.979  33.482  1.00  0.00     0.074 A 
ATOM     46  C   UNL A   1      42.490  30.574  35.393  1.00  0.00     0.049 A 
ATOM     47  N   UNL A   1      41.735  29.404  32.675  1.00  0.00    -0.248 NA
ATOM     48  C   UNL A   1      43.406  27.797  33.004  1.00  0.00     0.031 C 
ATOM     49  C   UNL A   1      42.889  31.186  36.662  1.00  0.00     0.029 A 
ATOM     50  N   UNL A   1      41.404  31.302  34.995  1.00  0.00    -0.354 N 
ATOM     51  C   UNL A   1      41.804  28.561  31.576  1.00  0.00     0.074 A 
ATOM     52  C   UNL A   1      42.890  27.634  31.798  1.00  0.00     0.031 C 
ATOM     53  C   UNL A   1      42.049  32.198  36.942  1.00  0.00     0.029 A 
ATOM     54  C   UNL A   1      41.094  32.335  35.846  1.00  0.00     0.049 A 
ATOM     55  H   UNL A   1      40.892  31.104  34.178  1.00  0.00     0.167 HD
ATOM     56  C   UNL A   1      41.017  28.562  30.480  1.00  0.00     0.031 A 
ATOM     57  C   UNL A   1      40.154  33.290  35.720  1.00  0.00     0.031 A 
ATOM     58  C   UNL A   1      39.961  29.510  30.283  1.00  0.00     0.049 A 
ATOM     59  C   UNL A   1      39.302  33.283  34.476  1.00  0.00     0.074 A 
ATOM     60  C   UNL A   1      39.087  29.621  29.221  1.00  0.00     0.029 A 
ATOM     61  N   UNL A   1      39.640  30.517  31.184  1.00  0.00    -0.354 N 
ATOM     62  N   UNL A   1      39.351  32.468  33.447  1.00  0.00    -0.248 NA
ATOM     63  C   UNL A   1      38.269  34.321  34.376  1.00  0.00     0.031 C 
ATOM     64  C   UNL A   1      38.258  30.721  29.465  1.00  0.00     0.029 A 
ATOM     65  C   UNL A   1      38.582  31.260  30.702  1.00  0.00     0.049 A 
ATOM     66  H   UNL A   1      40.099  30.676  32.041  1.00  0.00     0.167 HD
ATOM     67  C   UNL A   1      38.333  32.874  32.590  1.00  0.00     0.074 A 
ATOM     68  C   UNL A   1      37.681  34.001  33.231  1.00  0.00     0.031 C 
ATOM     69  C   UNL A   1      37.964  32.369  31.386  1.00  0.00     0.031 A 
BRANCH  56  70
ATOM     70  C   UNL A   1      41.314  27.523  29.441  1.00  0.00    -0.014 A 
ATOM     71  C   UNL A   1      40.474  26.407  29.275  1.00  0.00     0.010 A 
ATOM     72  C   UNL A   1      42.482  27.627  28.666  1.00  0.00     0.010 A 
ATOM     73  C   UNL A   1      40.823  25.384  28.393  1.00  0.00     0.020 A 
ATOM     74  C   UNL A   1      42.820  26.619  27.760  1.00  0.00     0.020 A 
ATOM     75  C   UNL A   1      41.999  25.494  27.646  1.00  0.00     0.054 A 
BRANCH  75  76
ATOM     76  S   UNL A   1      42.433  24.150  26.511  1.00  0.00     0.124 S 
ATOM     77  O   UNL A   1      42.579  24.863  25.245  1.00  0.00    -0.237 OA
ATOM     78  O   UNL A   1      43.670  23.631  27.087  1.00  0.00    -0.237 OA
ATOM     79  O   UNL A   1      41.285  23.248  26.590  1.00  0.00    -0.744 OA
ENDBRANCH  75  76
ENDBRANCH  56  70
BRANCH  57  80
ATOM     80  C   UNL A   1      39.961  34.312  36.784  1.00  0.00    -0.014 A 
ATOM     81  C   UNL A   1      40.669  35.527  36.733  1.00  0.00     0.010 A 
ATOM     82  C   UNL A   1      39.082  34.081  37.858  1.00  0.00     0.010 A 
ATOM     83  C   UNL A   1      40.526  36.477  37.748  1.00  0.00     0.020 A 
ATOM     84  C   UNL A   1      38.916  35.041  38.862  1.00  0.00     0.020 A 
ATOM     85  C   UNL A   1      39.651  36.227  38.808  1.00  0.00     0.054 A 
BRANCH  85  86
ATOM     86  S   UNL A   1      39.464  37.485  40.102  1.00  0.00     0.124 S 
ATOM     87  O   UNL A   1      40.810  38.044  40.180  1.00  0.00    -0.237 OA
ATOM     88  O   UNL A   1      38.443  38.366  39.540  1.00  0.00    -0.237 OA
ATOM     89  O   UNL A   1      39.037  36.713  41.268  1.00  0.00    -0.744 OA
ENDBRANCH  85  86
ENDBRANCH  57  80
BRANCH  69  90
ATOM     90  C   UNL A   1      36.776  33.000  30.716  1.00  0.00    -0.014 A 
ATOM     91  C   UNL A   1      35.470  32.776  31.184  1.00  0.00     0.010 A 
ATOM     92  C   UNL A   1      36.987  33.888  29.645  1.00  0.00     0.010 A 
ATOM     93  C   UNL A   1      34.389  33.411  30.572  1.00  0.00     0.020 A 
ATOM     94  C   UNL A   1      35.911  34.547  29.050  1.00  0.00     0.020 A 
ATOM     95  C   UNL A   1      34.617  34.292  29.509  1.00  0.00     0.054 A 
BRANCH  95  96
ATOM     96  S   UNL A   1      33.202  35.146  28.765  1.00  0.00     0.124 S 
ATOM     97  O   UNL A   1      33.857  36.190  27.982  1.00  0.00    -0.237 OA
ATOM     98  O   UNL A   1      32.560  34.087  27.989  1.00  0.00    -0.237 OA
ATOM     99  O   UNL A   1      32.437  35.616  29.917  1.00  0.00    -0.744 OA
ENDBRANCH  95  96
ENDBRANCH  69  90
ENDBRANCH  43  44
ENDBRANCH  35  38
ENDBRANCH  33  34
ENDBRANCH  32  33
ENDBRANCH  31  32
ENDBRANCH   1  31
TORSDOF 20
ENDMDL
