MODEL 1
REMARK VINA RESULT:     -10.9      0.000      0.000
REMARK SMILES CN(C)Nc1ncnc(Nc2ccc(C(=O)NCCCCNC(=O)c3ccc(-c4c5nc(c(-c6ccc(S(=O)(=O)[O-])cc6)c6ccc([nH]6)c(-c6ccc(S(=O)(=O)[O-])cc6)c6nc(c(-c7ccc(S(=O)(=O)[O-])cc7)c7ccc4[nH]7)C=C6)C=C5)cc3)cc2)c1[N+](=O)[O-]
REMARK SMILES IDX 19 1 18 2 17 3 15 4 16 5 14 7 11 8 12 9 86 10 13 11 85 12
REMARK SMILES IDX 10 13 9 15 5 16 6 17 87 18 7 19 8 20 4 21 2 23 1 24 3 25
REMARK SMILES IDX 88 26 89 27 90 28 20 29 21 30 22 31 23 32 24 34 25 35 26 36
REMARK SMILES IDX 84 37 27 38 83 39 28 40 29 41 30 42 77 43 31 44 82 45 76 46
REMARK SMILES IDX 78 47 32 48 81 49 75 50 74 51 33 53 63 54 44 55 62 56 45 57
REMARK SMILES IDX 48 58 61 59 79 60 46 61 47 62 60 64 80 65 49 66 34 67 35 68
REMARK SMILES IDX 43 69 36 70 42 71 37 72 38 73 39 74 40 75 41 76 64 77 65 78
REMARK SMILES IDX 73 79 66 80 72 81 67 82 68 83 69 84 70 85 71 86 50 87 51 88
REMARK SMILES IDX 59 89 52 90 58 91 53 92 54 93 55 94 56 95 57 96
REMARK H PARENT 17 6 10 14 4 22 22 33 78 52 48 63
REMARK Flexibility Score: inf
ROOT
ATOM      1  C   UNL A   1      32.696  29.695  26.622  1.00  0.00     0.023 C 
ENDROOT
BRANCH   1   2
ATOM      2  C   UNL A   1      32.710  29.545  25.099  1.00  0.00     0.116 C 
BRANCH   2   3
ATOM      3  N   UNL A   1      31.414  29.884  24.545  1.00  0.00    -0.352 N 
ATOM      4  C   UNL A   1      30.482  29.151  23.856  1.00  0.00     0.251 C 
ATOM      5  O   UNL A   1      29.445  29.723  23.514  1.00  0.00    -0.269 OA
ATOM      6  H   UNL A   1      31.152  30.822  24.691  1.00  0.00     0.163 HD
BRANCH   4   7
ATOM      7  C   UNL A   1      30.629  27.699  23.559  1.00  0.00     0.039 A 
ATOM      8  C   UNL A   1      30.961  24.909  23.249  1.00  0.00     0.040 A 
ATOM      9  C   UNL A   1      30.316  25.419  24.373  1.00  0.00     0.027 A 
ATOM     10  C   UNL A   1      31.332  25.795  22.231  1.00  0.00     0.027 A 
ATOM     11  C   UNL A   1      30.172  26.801  24.538  1.00  0.00     0.016 A 
ATOM     12  C   UNL A   1      31.151  27.176  22.376  1.00  0.00     0.016 A 
BRANCH   8  13
ATOM     13  N   UNL A   1      31.126  23.518  23.104  1.00  0.00    -0.334 N 
ATOM     14  H   UNL A   1      30.545  23.055  22.456  1.00  0.00     0.168 HD
BRANCH  13  15
ATOM     15  C   UNL A   1      32.060  22.736  23.815  1.00  0.00     0.215 A 
ATOM     16  C   UNL A   1      34.254  22.007  24.364  1.00  0.00     0.225 A 
ATOM     17  N   UNL A   1      33.752  21.147  25.276  1.00  0.00    -0.212 NA
ATOM     18  C   UNL A   1      33.420  22.748  23.550  1.00  0.00     0.354 A 
ATOM     19  C   UNL A   1      32.426  21.126  25.422  1.00  0.00     0.227 A 
ATOM     20  N   UNL A   1      31.568  21.905  24.762  1.00  0.00    -0.212 NA
BRANCH  16  21
ATOM     21  N   UNL A   1      35.644  22.117  24.462  1.00  0.00    -0.298 N 
ATOM     22  H   UNL A   1      36.099  22.699  23.810  1.00  0.00     0.184 HD
BRANCH  21  23
ATOM     23  N   UNL A   1      36.453  21.457  25.424  1.00  0.00    -0.228 NA
ATOM     24  C   UNL A   1      36.958  20.166  24.921  1.00  0.00     0.130 C 
ATOM     25  C   UNL A   1      37.619  22.329  25.669  1.00  0.00     0.130 C 
ENDBRANCH  21  23
ENDBRANCH  16  21
BRANCH  18  26
ATOM     26  N   UNL A   1      33.933  23.481  22.433  1.00  0.00     0.070 N 
ATOM     27  O   UNL A   1      34.697  24.429  22.683  1.00  0.00    -0.258 OA
ATOM     28  O   UNL A   1      33.501  23.198  21.307  1.00  0.00    -0.258 OA
ENDBRANCH  18  26
ENDBRANCH  13  15
ENDBRANCH   8  13
ENDBRANCH   4   7
ENDBRANCH   2   3
ENDBRANCH   1   2
BRANCH   1  29
ATOM     29  C   UNL A   1      32.282  31.088  27.112  1.00  0.00     0.023 C 
BRANCH  29  30
ATOM     30  C   UNL A   1      33.435  32.057  27.357  1.00  0.00     0.116 C 
BRANCH  30  31
ATOM     31  N   UNL A   1      32.989  33.404  27.677  1.00  0.00    -0.352 N 
ATOM     32  C   UNL A   1      33.457  34.257  28.651  1.00  0.00     0.251 C 
ATOM     33  H   UNL A   1      32.254  33.752  27.122  1.00  0.00     0.163 HD
ATOM     34  O   UNL A   1      32.891  35.318  28.859  1.00  0.00    -0.269 OA
BRANCH  32  35
ATOM     35  C   UNL A   1      34.623  33.853  29.467  1.00  0.00     0.039 A 
ATOM     36  C   UNL A   1      34.409  33.043  30.584  1.00  0.00     0.014 A 
ATOM     37  C   UNL A   1      35.917  34.247  29.117  1.00  0.00     0.014 A 
ATOM     38  C   UNL A   1      35.502  32.571  31.312  1.00  0.00     0.010 A 
ATOM     39  C   UNL A   1      37.008  33.724  29.805  1.00  0.00     0.010 A 
ATOM     40  C   UNL A   1      36.812  32.876  30.906  1.00  0.00    -0.014 A 
BRANCH  40  41
ATOM     41  C   UNL A   1      37.984  32.295  31.606  1.00  0.00     0.031 A 
ATOM     42  C   UNL A   1      38.428  32.843  32.935  1.00  0.00     0.074 A 
ATOM     43  C   UNL A   1      38.686  31.310  31.011  1.00  0.00     0.049 A 
ATOM     44  N   UNL A   1      39.442  32.479  33.677  1.00  0.00    -0.248 NA
ATOM     45  C   UNL A   1      37.645  33.958  33.490  1.00  0.00     0.031 C 
ATOM     46  C   UNL A   1      38.387  30.728  29.700  1.00  0.00     0.029 A 
ATOM     47  N   UNL A   1      39.800  30.626  31.430  1.00  0.00    -0.354 N 
ATOM     48  C   UNL A   1      39.428  33.326  34.778  1.00  0.00     0.074 A 
ATOM     49  C   UNL A   1      38.333  34.252  34.584  1.00  0.00     0.031 C 
ATOM     50  C   UNL A   1      39.276  29.757  29.437  1.00  0.00     0.029 A 
ATOM     51  C   UNL A   1      40.228  29.670  30.540  1.00  0.00     0.049 A 
ATOM     52  H   UNL A   1      40.250  30.803  32.288  1.00  0.00     0.167 HD
ATOM     53  C   UNL A   1      40.239  33.321  35.863  1.00  0.00     0.031 A 
ATOM     54  C   UNL A   1      41.268  28.818  30.601  1.00  0.00     0.031 A 
ATOM     55  C   UNL A   1      41.322  32.394  36.057  1.00  0.00     0.049 A 
ATOM     56  C   UNL A   1      42.155  28.830  31.815  1.00  0.00     0.074 A 
ATOM     57  C   UNL A   1      42.164  32.269  37.147  1.00  0.00     0.029 A 
ATOM     58  N   UNL A   1      41.717  31.435  35.135  1.00  0.00    -0.354 N 
ATOM     59  N   UNL A   1      42.079  29.590  32.881  1.00  0.00    -0.248 NA
ATOM     60  C   UNL A   1      43.259  27.861  31.840  1.00  0.00     0.031 C 
ATOM     61  C   UNL A   1      43.099  31.267  36.867  1.00  0.00     0.029 A 
ATOM     62  C   UNL A   1      42.805  30.729  35.623  1.00  0.00     0.049 A 
ATOM     63  H   UNL A   1      41.287  31.277  34.264  1.00  0.00     0.167 HD
ATOM     64  C   UNL A   1      43.112  29.177  33.714  1.00  0.00     0.074 A 
ATOM     65  C   UNL A   1      43.787  28.088  33.035  1.00  0.00     0.031 C 
ATOM     66  C   UNL A   1      43.470  29.654  34.933  1.00  0.00     0.031 A 
BRANCH  53  67
ATOM     67  C   UNL A   1      39.984  34.359  36.925  1.00  0.00    -0.014 A 
ATOM     68  C   UNL A   1      39.140  34.086  38.018  1.00  0.00     0.010 A 
ATOM     69  C   UNL A   1      40.619  35.612  36.847  1.00  0.00     0.010 A 
ATOM     70  C   UNL A   1      38.900  35.064  38.987  1.00  0.00     0.020 A 
ATOM     71  C   UNL A   1      40.403  36.582  37.830  1.00  0.00     0.020 A 
ATOM     72  C   UNL A   1      39.528  36.308  38.884  1.00  0.00     0.054 A 
BRANCH  72  73
ATOM     73  S   UNL A   1      39.208  37.552  40.165  1.00  0.00     0.124 S 
ATOM     74  O   UNL A   1      40.518  38.186  40.299  1.00  0.00    -0.237 OA
ATOM     75  O   UNL A   1      38.170  38.380  39.556  1.00  0.00    -0.237 OA
ATOM     76  O   UNL A   1      38.777  36.763  41.315  1.00  0.00    -0.744 OA
ENDBRANCH  72  73
ENDBRANCH  53  67
BRANCH  54  77
ATOM     77  C   UNL A   1      41.512  27.863  29.485  1.00  0.00    -0.014 A 
ATOM     78  C   UNL A   1      42.591  28.057  28.606  1.00  0.00     0.010 A 
ATOM     79  C   UNL A   1      40.679  26.743  29.310  1.00  0.00     0.010 A 
ATOM     80  C   UNL A   1      42.827  27.156  27.564  1.00  0.00     0.020 A 
ATOM     81  C   UNL A   1      40.927  25.826  28.285  1.00  0.00     0.020 A 
ATOM     82  C   UNL A   1      41.993  26.044  27.412  1.00  0.00     0.054 A 
BRANCH  82  83
ATOM     83  S   UNL A   1      42.354  24.855  26.088  1.00  0.00     0.124 S 
ATOM     84  O   UNL A   1      41.380  23.800  26.354  1.00  0.00    -0.237 OA
ATOM     85  O   UNL A   1      42.120  25.644  24.882  1.00  0.00    -0.237 OA
ATOM     86  O   UNL A   1      43.749  24.494  26.327  1.00  0.00    -0.744 OA
ENDBRANCH  82  83
ENDBRANCH  54  77
BRANCH  66  87
ATOM     87  C   UNL A   1      44.630  28.987  35.621  1.00  0.00    -0.014 A 
ATOM     88  C   UNL A   1      44.440  27.862  36.442  1.00  0.00     0.010 A 
ATOM     89  C   UNL A   1      45.934  29.468  35.405  1.00  0.00     0.010 A 
ATOM     90  C   UNL A   1      45.533  27.249  37.061  1.00  0.00     0.020 A 
ATOM     91  C   UNL A   1      47.032  28.842  36.001  1.00  0.00     0.020 A 
ATOM     92  C   UNL A   1      46.821  27.744  36.839  1.00  0.00     0.054 A 
BRANCH  92  93
ATOM     93  S   UNL A   1      48.227  26.907  37.623  1.00  0.00     0.124 S 
ATOM     94  O   UNL A   1      47.730  26.687  38.978  1.00  0.00    -0.237 OA
ATOM     95  O   UNL A   1      48.382  25.706  36.807  1.00  0.00    -0.237 OA
ATOM     96  O   UNL A   1      49.315  27.876  37.508  1.00  0.00    -0.744 OA
ENDBRANCH  92  93
ENDBRANCH  66  87
ENDBRANCH  40  41
ENDBRANCH  32  35
ENDBRANCH  30  31
ENDBRANCH  29  30
ENDBRANCH   1  29
TORSDOF 19
ENDMDL
MODEL 2
REMARK VINA RESULT:     -10.8      4.947     11.645
REMARK SMILES CN(C)Nc1ncnc(Nc2ccc(C(=O)NCCCCNC(=O)c3ccc(-c4c5nc(c(-c6ccc(S(=O)(=O)[O-])cc6)c6ccc([nH]6)c(-c6ccc(S(=O)(=O)[O-])cc6)c6nc(c(-c7ccc(S(=O)(=O)[O-])cc7)c7ccc4[nH]7)C=C6)C=C5)cc3)cc2)c1[N+](=O)[O-]
REMARK SMILES IDX 19 1 18 2 17 3 15 4 16 5 14 7 11 8 12 9 86 10 13 11 85 12
REMARK SMILES IDX 10 13 9 15 5 16 6 17 87 18 7 19 8 20 4 21 2 23 1 24 3 25
REMARK SMILES IDX 88 26 89 27 90 28 20 29 21 30 22 31 23 32 24 34 25 35 26 36
REMARK SMILES IDX 84 37 27 38 83 39 28 40 29 41 30 42 77 43 31 44 82 45 76 46
REMARK SMILES IDX 78 47 32 48 81 49 75 50 74 51 33 53 63 54 44 55 62 56 45 57
REMARK SMILES IDX 48 58 61 59 79 60 46 61 47 62 60 64 80 65 49 66 34 67 35 68
REMARK SMILES IDX 43 69 36 70 42 71 37 72 38 73 39 74 40 75 41 76 64 77 65 78
REMARK SMILES IDX 73 79 66 80 72 81 67 82 68 83 69 84 70 85 71 86 50 87 51 88
REMARK SMILES IDX 59 89 52 90 58 91 53 92 54 93 55 94 56 95 57 96
REMARK H PARENT 17 6 10 14 4 22 22 33 78 52 48 63
REMARK Flexibility Score: inf
ROOT
ATOM      1  C   UNL A   1      42.403  19.952  27.233  1.00  0.00     0.023 C 
ENDROOT
BRANCH   1   2
ATOM      2  C   UNL A   1      42.724  19.783  25.746  1.00  0.00     0.116 C 
BRANCH   2   3
ATOM      3  N   UNL A   1      44.149  19.603  25.552  1.00  0.00    -0.352 N 
ATOM      4  C   UNL A   1      45.186  20.491  25.430  1.00  0.00     0.251 C 
ATOM      5  O   UNL A   1      46.319  20.029  25.280  1.00  0.00    -0.269 OA
ATOM      6  H   UNL A   1      44.426  18.659  25.499  1.00  0.00     0.163 HD
BRANCH   4   7
ATOM      7  C   UNL A   1      45.023  21.968  25.531  1.00  0.00     0.039 A 
ATOM      8  C   UNL A   1      44.642  24.735  25.969  1.00  0.00     0.040 A 
ATOM      9  C   UNL A   1      45.214  23.938  26.959  1.00  0.00     0.027 A 
ATOM     10  C   UNL A   1      44.374  24.161  24.721  1.00  0.00     0.027 A 
ATOM     11  C   UNL A   1      45.381  22.565  26.751  1.00  0.00     0.016 A 
ATOM     12  C   UNL A   1      44.580  22.794  24.497  1.00  0.00     0.016 A 
BRANCH   8  13
ATOM     13  N   UNL A   1      44.452  26.112  26.197  1.00  0.00    -0.334 N 
ATOM     14  H   UNL A   1      43.719  26.378  26.800  1.00  0.00     0.168 HD
BRANCH  13  15
ATOM     15  C   UNL A   1      45.232  27.139  25.628  1.00  0.00     0.215 A 
ATOM     16  C   UNL A   1      46.011  29.377  25.448  1.00  0.00     0.225 A 
ATOM     17  N   UNL A   1      46.805  29.030  24.414  1.00  0.00    -0.212 NA
ATOM     18  C   UNL A   1      45.140  28.467  26.014  1.00  0.00     0.354 A 
ATOM     19  C   UNL A   1      46.783  27.750  24.037  1.00  0.00     0.227 A 
ATOM     20  N   UNL A   1      46.064  26.790  24.620  1.00  0.00    -0.212 NA
BRANCH  16  21
ATOM     21  N   UNL A   1      46.287  30.669  25.907  1.00  0.00    -0.298 N 
ATOM     22  H   UNL A   1      45.613  31.365  25.732  1.00  0.00     0.184 HD
BRANCH  21  23
ATOM     23  N   UNL A   1      47.461  31.057  26.603  1.00  0.00    -0.228 NA
ATOM     24  C   UNL A   1      47.171  32.052  27.652  1.00  0.00     0.130 C 
ATOM     25  C   UNL A   1      47.982  29.845  27.268  1.00  0.00     0.130 C 
ENDBRANCH  21  23
ENDBRANCH  16  21
BRANCH  18  26
ATOM     26  N   UNL A   1      44.137  28.881  26.947  1.00  0.00     0.070 N 
ATOM     27  O   UNL A   1      42.953  28.672  26.631  1.00  0.00    -0.258 OA
ATOM     28  O   UNL A   1      44.502  29.513  27.947  1.00  0.00    -0.258 OA
ENDBRANCH  18  26
ENDBRANCH  13  15
ENDBRANCH   8  13
ENDBRANCH   4   7
ENDBRANCH   2   3
ENDBRANCH   1   2
BRANCH   1  29
ATOM     29  C   UNL A   1      41.713  21.277  27.579  1.00  0.00     0.023 C 
BRANCH  29  30
ATOM     30  C   UNL A   1      41.437  22.193  26.391  1.00  0.00     0.116 C 
BRANCH  30  31
ATOM     31  N   UNL A   1      40.061  22.124  25.925  1.00  0.00    -0.352 N 
ATOM     32  C   UNL A   1      39.040  23.026  26.118  1.00  0.00     0.251 C 
ATOM     33  H   UNL A   1      39.829  21.324  25.400  1.00  0.00     0.163 HD
ATOM     34  O   UNL A   1      37.908  22.758  25.750  1.00  0.00    -0.269 OA
BRANCH  32  35
ATOM     35  C   UNL A   1      39.324  24.302  26.811  1.00  0.00     0.039 A 
ATOM     36  C   UNL A   1      38.878  24.463  28.124  1.00  0.00     0.014 A 
ATOM     37  C   UNL A   1      40.048  25.318  26.181  1.00  0.00     0.014 A 
ATOM     38  C   UNL A   1      39.217  25.618  28.831  1.00  0.00     0.010 A 
ATOM     39  C   UNL A   1      40.438  26.440  26.906  1.00  0.00     0.010 A 
ATOM     40  C   UNL A   1      40.032  26.598  28.240  1.00  0.00    -0.014 A 
BRANCH  40  41
ATOM     41  C   UNL A   1      40.488  27.780  29.014  1.00  0.00     0.031 A 
ATOM     42  C   UNL A   1      41.835  27.780  29.683  1.00  0.00     0.074 A 
ATOM     43  C   UNL A   1      39.658  28.832  29.163  1.00  0.00     0.049 A 
ATOM     44  N   UNL A   1      42.388  28.709  30.420  1.00  0.00    -0.248 NA
ATOM     45  C   UNL A   1      42.659  26.570  29.523  1.00  0.00     0.031 C 
ATOM     46  C   UNL A   1      38.307  28.930  28.606  1.00  0.00     0.029 A 
ATOM     47  N   UNL A   1      39.827  30.018  29.832  1.00  0.00    -0.354 N 
ATOM     48  C   UNL A   1      43.614  28.195  30.821  1.00  0.00     0.074 A 
ATOM     49  C   UNL A   1      43.705  26.854  30.285  1.00  0.00     0.031 C 
ATOM     50  C   UNL A   1      37.783  30.123  28.932  1.00  0.00     0.029 A 
ATOM     51  C   UNL A   1      38.743  30.858  29.748  1.00  0.00     0.049 A 
ATOM     52  H   UNL A   1      40.648  30.245  30.326  1.00  0.00     0.167 HD
ATOM     53  C   UNL A   1      44.586  28.791  31.552  1.00  0.00     0.031 A 
ATOM     54  C   UNL A   1      38.541  32.084  30.269  1.00  0.00     0.031 A 
ATOM     55  C   UNL A   1      44.497  30.128  32.077  1.00  0.00     0.049 A 
ATOM     56  C   UNL A   1      39.635  32.726  31.076  1.00  0.00     0.074 A 
ATOM     57  C   UNL A   1      45.450  30.843  32.779  1.00  0.00     0.029 A 
ATOM     58  N   UNL A   1      43.385  30.950  31.962  1.00  0.00    -0.354 N 
ATOM     59  N   UNL A   1      40.819  32.251  31.382  1.00  0.00    -0.248 NA
ATOM     60  C   UNL A   1      39.370  34.074  31.598  1.00  0.00     0.031 C 
ATOM     61  C   UNL A   1      44.899  32.080  33.131  1.00  0.00     0.029 A 
ATOM     62  C   UNL A   1      43.621  32.157  32.599  1.00  0.00     0.049 A 
ATOM     63  H   UNL A   1      42.552  30.712  31.495  1.00  0.00     0.167 HD
ATOM     64  C   UNL A   1      41.449  33.251  32.114  1.00  0.00     0.074 A 
ATOM     65  C   UNL A   1      40.521  34.362  32.189  1.00  0.00     0.031 C 
ATOM     66  C   UNL A   1      42.685  33.250  32.672  1.00  0.00     0.031 A 
BRANCH  53  67
ATOM     67  C   UNL A   1      45.834  27.993  31.829  1.00  0.00    -0.014 A 
ATOM     68  C   UNL A   1      46.003  27.314  33.051  1.00  0.00     0.010 A 
ATOM     69  C   UNL A   1      46.836  27.893  30.847  1.00  0.00     0.010 A 
ATOM     70  C   UNL A   1      47.171  26.590  33.302  1.00  0.00     0.020 A 
ATOM     71  C   UNL A   1      47.994  27.147  31.084  1.00  0.00     0.020 A 
ATOM     72  C   UNL A   1      48.162  26.516  32.319  1.00  0.00     0.054 A 
BRANCH  72  73
ATOM     73  S   UNL A   1      49.662  25.558  32.668  1.00  0.00     0.124 S 
ATOM     74  O   UNL A   1      50.200  25.345  31.326  1.00  0.00    -0.237 OA
ATOM     75  O   UNL A   1      50.432  26.464  33.517  1.00  0.00    -0.237 OA
ATOM     76  O   UNL A   1      49.161  24.359  33.335  1.00  0.00    -0.744 OA
ENDBRANCH  72  73
ENDBRANCH  53  67
BRANCH  54  77
ATOM     77  C   UNL A   1      37.256  32.792  30.020  1.00  0.00    -0.014 A 
ATOM     78  C   UNL A   1      36.200  32.694  30.940  1.00  0.00     0.010 A 
ATOM     79  C   UNL A   1      37.092  33.589  28.871  1.00  0.00     0.010 A 
ATOM     80  C   UNL A   1      34.996  33.368  30.712  1.00  0.00     0.020 A 
ATOM     81  C   UNL A   1      35.900  34.284  28.652  1.00  0.00     0.020 A 
ATOM     82  C   UNL A   1      34.855  34.161  29.569  1.00  0.00     0.054 A 
BRANCH  82  83
ATOM     83  S   UNL A   1      33.306  35.074  29.323  1.00  0.00     0.124 S 
ATOM     84  O   UNL A   1      33.788  36.365  28.840  1.00  0.00    -0.237 OA
ATOM     85  O   UNL A   1      32.606  34.251  28.342  1.00  0.00    -0.237 OA
ATOM     86  O   UNL A   1      32.705  35.089  30.655  1.00  0.00    -0.744 OA
ENDBRANCH  82  83
ENDBRANCH  54  77
BRANCH  66  87
ATOM     87  C   UNL A   1      43.116  34.497  33.395  1.00  0.00    -0.014 A 
ATOM     88  C   UNL A   1      43.601  35.615  32.693  1.00  0.00     0.010 A 
ATOM     89  C   UNL A   1      42.990  34.567  34.794  1.00  0.00     0.010 A 
ATOM     90  C   UNL A   1      43.983  36.769  33.382  1.00  0.00     0.020 A 
ATOM     91  C   UNL A   1      43.346  35.729  35.484  1.00  0.00     0.020 A 
ATOM     92  C   UNL A   1      43.856  36.818  34.773  1.00  0.00     0.054 A 
BRANCH  92  93
ATOM     93  S   UNL A   1      44.322  38.341  35.641  1.00  0.00     0.124 S 
ATOM     94  O   UNL A   1      45.777  38.237  35.674  1.00  0.00    -0.237 OA
ATOM     95  O   UNL A   1      43.786  39.385  34.770  1.00  0.00    -0.237 OA
ATOM     96  O   UNL A   1      43.658  38.218  36.937  1.00  0.00    -0.744 OA
ENDBRANCH  92  93
ENDBRANCH  66  87
ENDBRANCH  40  41
ENDBRANCH  32  35
ENDBRANCH  30  31
ENDBRANCH  29  30
ENDBRANCH   1  29
TORSDOF 19
ENDMDL
MODEL 3
REMARK VINA RESULT:     -10.7      1.029      8.097
REMARK SMILES CN(C)Nc1ncnc(Nc2ccc(C(=O)NCCCCNC(=O)c3ccc(-c4c5nc(c(-c6ccc(S(=O)(=O)[O-])cc6)c6ccc([nH]6)c(-c6ccc(S(=O)(=O)[O-])cc6)c6nc(c(-c7ccc(S(=O)(=O)[O-])cc7)c7ccc4[nH]7)C=C6)C=C5)cc3)cc2)c1[N+](=O)[O-]
REMARK SMILES IDX 19 1 18 2 17 3 15 4 16 5 14 7 11 8 12 9 86 10 13 11 85 12
REMARK SMILES IDX 10 13 9 15 5 16 6 17 87 18 7 19 8 20 4 21 2 23 1 24 3 25
REMARK SMILES IDX 88 26 89 27 90 28 20 29 21 30 22 31 23 32 24 34 25 35 26 36
REMARK SMILES IDX 84 37 27 38 83 39 28 40 29 41 30 42 77 43 31 44 82 45 76 46
REMARK SMILES IDX 78 47 32 48 81 49 75 50 74 51 33 53 63 54 44 55 62 56 45 57
REMARK SMILES IDX 48 58 61 59 79 60 46 61 47 62 60 64 80 65 49 66 34 67 35 68
REMARK SMILES IDX 43 69 36 70 42 71 37 72 38 73 39 74 40 75 41 76 64 77 65 78
REMARK SMILES IDX 73 79 66 80 72 81 67 82 68 83 69 84 70 85 71 86 50 87 51 88
REMARK SMILES IDX 59 89 52 90 58 91 53 92 54 93 55 94 56 95 57 96
REMARK H PARENT 17 6 10 14 4 22 22 33 78 52 48 63
REMARK Flexibility Score: inf
ROOT
ATOM      1  C   UNL A   1      32.954  29.499  26.346  1.00  0.00     0.023 C 
ENDROOT
BRANCH   1   2
ATOM      2  C   UNL A   1      33.033  29.376  24.822  1.00  0.00     0.116 C 
BRANCH   2   3
ATOM      3  N   UNL A   1      31.724  29.573  24.231  1.00  0.00    -0.352 N 
ATOM      4  C   UNL A   1      30.712  28.705  23.912  1.00  0.00     0.251 C 
ATOM      5  O   UNL A   1      29.688  29.179  23.416  1.00  0.00    -0.269 OA
ATOM      6  H   UNL A   1      31.523  30.513  24.015  1.00  0.00     0.163 HD
BRANCH   4   7
ATOM      7  C   UNL A   1      30.761  27.243  24.191  1.00  0.00     0.039 A 
ATOM      8  C   UNL A   1      30.940  24.528  24.958  1.00  0.00     0.040 A 
ATOM      9  C   UNL A   1      30.470  25.483  25.857  1.00  0.00     0.027 A 
ATOM     10  C   UNL A   1      31.205  24.922  23.642  1.00  0.00     0.027 A 
ATOM     11  C   UNL A   1      30.404  26.830  25.485  1.00  0.00     0.016 A 
ATOM     12  C   UNL A   1      31.099  26.264  23.256  1.00  0.00     0.016 A 
BRANCH   8  13
ATOM     13  N   UNL A   1      31.029  23.177  25.350  1.00  0.00    -0.334 N 
ATOM     14  H   UNL A   1      30.278  22.584  25.115  1.00  0.00     0.168 HD
BRANCH  13  15
ATOM     15  C   UNL A   1      32.112  22.611  26.052  1.00  0.00     0.215 A 
ATOM     16  C   UNL A   1      34.137  21.377  26.219  1.00  0.00     0.225 A 
ATOM     17  N   UNL A   1      34.154  21.565  27.556  1.00  0.00    -0.212 NA
ATOM     18  C   UNL A   1      33.073  21.812  25.453  1.00  0.00     0.354 A 
ATOM     19  C   UNL A   1      33.153  22.274  28.080  1.00  0.00     0.227 A 
ATOM     20  N   UNL A   1      32.160  22.832  27.386  1.00  0.00    -0.212 NA
BRANCH  16  21
ATOM     21  N   UNL A   1      35.338  20.835  25.754  1.00  0.00    -0.298 N 
ATOM     22  H   UNL A   1      35.540  19.903  26.002  1.00  0.00     0.184 HD
BRANCH  21  23
ATOM     23  N   UNL A   1      36.290  21.519  24.954  1.00  0.00    -0.228 NA
ATOM     24  C   UNL A   1      36.676  22.812  25.549  1.00  0.00     0.130 C 
ATOM     25  C   UNL A   1      37.497  20.669  24.909  1.00  0.00     0.130 C 
ENDBRANCH  21  23
ENDBRANCH  16  21
BRANCH  18  26
ATOM     26  N   UNL A   1      32.934  21.418  24.085  1.00  0.00     0.070 N 
ATOM     27  O   UNL A   1      33.510  22.118  23.235  1.00  0.00    -0.258 OA
ATOM     28  O   UNL A   1      32.168  20.479  23.827  1.00  0.00    -0.258 OA
ENDBRANCH  18  26
ENDBRANCH  13  15
ENDBRANCH   8  13
ENDBRANCH   4   7
ENDBRANCH   2   3
ENDBRANCH   1   2
BRANCH   1  29
ATOM     29  C   UNL A   1      32.414  30.846  26.840  1.00  0.00     0.023 C 
BRANCH  29  30
ATOM     30  C   UNL A   1      33.442  31.745  27.521  1.00  0.00     0.116 C 
BRANCH  30  31
ATOM     31  N   UNL A   1      32.971  33.109  27.708  1.00  0.00    -0.352 N 
ATOM     32  C   UNL A   1      33.432  34.066  28.583  1.00  0.00     0.251 C 
ATOM     33  H   UNL A   1      32.223  33.383  27.131  1.00  0.00     0.163 HD
ATOM     34  O   UNL A   1      32.847  35.131  28.689  1.00  0.00    -0.269 OA
BRANCH  32  35
ATOM     35  C   UNL A   1      34.616  33.771  29.419  1.00  0.00     0.039 A 
ATOM     36  C   UNL A   1      34.467  32.914  30.511  1.00  0.00     0.014 A 
ATOM     37  C   UNL A   1      35.867  34.314  29.112  1.00  0.00     0.014 A 
ATOM     38  C   UNL A   1      35.589  32.545  31.256  1.00  0.00     0.010 A 
ATOM     39  C   UNL A   1      36.993  33.896  29.817  1.00  0.00     0.010 A 
ATOM     40  C   UNL A   1      36.866  33.003  30.892  1.00  0.00    -0.014 A 
BRANCH  40  41
ATOM     41  C   UNL A   1      38.078  32.536  31.609  1.00  0.00     0.031 A 
ATOM     42  C   UNL A   1      38.939  31.451  31.023  1.00  0.00     0.074 A 
ATOM     43  C   UNL A   1      38.368  33.051  32.820  1.00  0.00     0.049 A 
ATOM     44  N   UNL A   1      40.017  30.899  31.519  1.00  0.00    -0.248 NA
ATOM     45  C   UNL A   1      38.523  30.898  29.724  1.00  0.00     0.031 C 
ATOM     46  C   UNL A   1      37.581  34.071  33.517  1.00  0.00     0.029 A 
ATOM     47  N   UNL A   1      39.401  32.783  33.683  1.00  0.00    -0.354 N 
ATOM     48  C   UNL A   1      40.401  29.928  30.602  1.00  0.00     0.074 A 
ATOM     49  C   UNL A   1      39.414  29.933  29.544  1.00  0.00     0.031 C 
ATOM     50  C   UNL A   1      38.176  34.363  34.685  1.00  0.00     0.029 A 
ATOM     51  C   UNL A   1      39.363  33.528  34.837  1.00  0.00     0.049 A 
ATOM     52  H   UNL A   1      40.103  32.119  33.494  1.00  0.00     0.167 HD
ATOM     53  C   UNL A   1      41.487  29.119  30.628  1.00  0.00     0.031 A 
ATOM     54  C   UNL A   1      40.189  33.540  35.900  1.00  0.00     0.031 A 
ATOM     55  C   UNL A   1      42.471  29.121  31.678  1.00  0.00     0.049 A 
ATOM     56  C   UNL A   1      41.389  32.634  35.906  1.00  0.00     0.074 A 
ATOM     57  C   UNL A   1      43.636  28.381  31.768  1.00  0.00     0.029 A 
ATOM     58  N   UNL A   1      42.401  29.898  32.826  1.00  0.00    -0.354 N 
ATOM     59  N   UNL A   1      41.775  31.775  34.994  1.00  0.00    -0.248 NA
ATOM     60  C   UNL A   1      42.270  32.708  37.080  1.00  0.00     0.031 C 
ATOM     61  C   UNL A   1      44.248  28.675  32.991  1.00  0.00     0.029 A 
ATOM     62  C   UNL A   1      43.492  29.639  33.639  1.00  0.00     0.049 A 
ATOM     63  H   UNL A   1      41.684  30.540  33.032  1.00  0.00     0.167 HD
ATOM     64  C   UNL A   1      42.957  31.221  35.473  1.00  0.00     0.074 A 
ATOM     65  C   UNL A   1      43.230  31.856  36.747  1.00  0.00     0.031 C 
ATOM     66  C   UNL A   1      43.746  30.273  34.908  1.00  0.00     0.031 A 
BRANCH  53  67
ATOM     67  C   UNL A   1      41.663  28.157  29.482  1.00  0.00    -0.014 A 
ATOM     68  C   UNL A   1      40.981  26.926  29.457  1.00  0.00     0.010 A 
ATOM     69  C   UNL A   1      42.495  28.500  28.401  1.00  0.00     0.010 A 
ATOM     70  C   UNL A   1      41.165  26.036  28.396  1.00  0.00     0.020 A 
ATOM     71  C   UNL A   1      42.660  27.624  27.324  1.00  0.00     0.020 A 
ATOM     72  C   UNL A   1      42.008  26.388  27.338  1.00  0.00     0.054 A 
BRANCH  72  73
ATOM     73  S   UNL A   1      42.217  25.220  25.967  1.00  0.00     0.124 S 
ATOM     74  O   UNL A   1      41.183  24.229  26.257  1.00  0.00    -0.237 OA
ATOM     75  O   UNL A   1      41.974  26.055  24.793  1.00  0.00    -0.237 OA
ATOM     76  O   UNL A   1      43.591  24.748  26.119  1.00  0.00    -0.744 OA
ENDBRANCH  72  73
ENDBRANCH  53  67
BRANCH  54  77
ATOM     77  C   UNL A   1      39.921  34.463  37.037  1.00  0.00    -0.014 A 
ATOM     78  C   UNL A   1      39.258  34.001  38.187  1.00  0.00     0.010 A 
ATOM     79  C   UNL A   1      40.349  35.802  36.985  1.00  0.00     0.010 A 
ATOM     80  C   UNL A   1      39.014  34.864  39.259  1.00  0.00     0.020 A 
ATOM     81  C   UNL A   1      40.130  36.661  38.066  1.00  0.00     0.020 A 
ATOM     82  C   UNL A   1      39.455  36.189  39.192  1.00  0.00     0.054 A 
BRANCH  82  83
ATOM     83  S   UNL A   1      39.181  37.275  40.620  1.00  0.00     0.124 S 
ATOM     84  O   UNL A   1      38.637  36.348  41.607  1.00  0.00    -0.237 OA
ATOM     85  O   UNL A   1      40.523  37.780  40.896  1.00  0.00    -0.237 OA
ATOM     86  O   UNL A   1      38.241  38.273  40.113  1.00  0.00    -0.744 OA
ENDBRANCH  82  83
ENDBRANCH  54  77
BRANCH  66  87
ATOM     87  C   UNL A   1      44.993  29.881  35.653  1.00  0.00    -0.014 A 
ATOM     88  C   UNL A   1      46.211  30.549  35.438  1.00  0.00     0.010 A 
ATOM     89  C   UNL A   1      44.932  28.858  36.617  1.00  0.00     0.010 A 
ATOM     90  C   UNL A   1      47.354  30.178  36.150  1.00  0.00     0.020 A 
ATOM     91  C   UNL A   1      46.067  28.502  37.350  1.00  0.00     0.020 A 
ATOM     92  C   UNL A   1      47.276  29.155  37.100  1.00  0.00     0.054 A 
BRANCH  92  93
ATOM     93  S   UNL A   1      48.765  28.718  38.039  1.00  0.00     0.124 S 
ATOM     94  O   UNL A   1      48.823  29.788  39.030  1.00  0.00    -0.237 OA
ATOM     95  O   UNL A   1      48.438  27.394  38.563  1.00  0.00    -0.237 OA
ATOM     96  O   UNL A   1      49.826  28.740  37.035  1.00  0.00    -0.744 OA
ENDBRANCH  92  93
ENDBRANCH  66  87
ENDBRANCH  40  41
ENDBRANCH  32  35
ENDBRANCH  30  31
ENDBRANCH  29  30
ENDBRANCH   1  29
TORSDOF 19
ENDMDL
