MODEL 1
REMARK VINA RESULT:     -11.5      0.000      0.000
REMARK SMILES Cc1ccc(Cl)c(Nc2ccccc2C(=O)NCCCCNC(=O)c2ccc(-c3c4nc(c(-c5ccc(S(=O)(=O)[O-])cc5)c5ccc([nH]5)c(-c5ccc(S(=O)(=O)[O-])cc5)c5nc(c(-c6ccc(S(=O)(=O)[O-])cc6)c6ccc3[nH]6)C=C5)C=C4)cc2)c1Cl
REMARK SMILES IDX 20 1 19 2 18 3 17 4 15 5 16 6 14 8 9 9 10 10 11 11 13 12
REMARK SMILES IDX 12 13 8 14 7 16 1 17 2 18 3 19 85 20 4 21 86 22 5 23 6 24
REMARK SMILES IDX 21 25 22 26 23 27 24 29 25 30 26 31 84 32 27 33 83 34 28 35
REMARK SMILES IDX 29 36 30 37 77 38 31 39 82 40 76 41 78 42 32 43 81 44 75 45
REMARK SMILES IDX 74 46 33 48 63 49 44 50 62 51 45 52 48 53 61 54 79 55 46 56
REMARK SMILES IDX 47 57 60 59 80 60 49 61 34 62 35 63 43 64 36 65 42 66 37 67
REMARK SMILES IDX 38 68 39 69 40 70 41 71 64 72 65 73 73 74 66 75 72 76 67 77
REMARK SMILES IDX 68 78 69 79 70 80 71 81 50 82 51 83 59 84 52 85 58 86 53 87
REMARK SMILES IDX 54 88 55 89 56 90 57 91
REMARK H PARENT 17 7 8 15 22 28 78 47 48 58
REMARK Flexibility Score: inf
ROOT
ATOM      1  C   UNL A   1      33.260  28.171  27.245  1.00  0.00     0.023 C 
ENDROOT
BRANCH   1   2
ATOM      2  C   UNL A   1      31.973  27.521  26.726  1.00  0.00     0.023 C 
BRANCH   2   3
ATOM      3  C   UNL A   1      32.044  26.045  26.362  1.00  0.00     0.116 C 
BRANCH   3   4
ATOM      4  N   UNL A   1      30.958  25.228  26.845  1.00  0.00    -0.352 N 
ATOM      5  C   UNL A   1      30.613  23.936  26.515  1.00  0.00     0.253 C 
ATOM      6  O   UNL A   1      29.700  23.413  27.157  1.00  0.00    -0.269 OA
ATOM      7  H   UNL A   1      30.375  25.659  27.510  1.00  0.00     0.163 HD
BRANCH   5   8
ATOM      8  C   UNL A   1      31.182  23.194  25.346  1.00  0.00     0.063 A 
ATOM      9  C   UNL A   1      30.983  23.448  23.972  1.00  0.00     0.051 A 
ATOM     10  C   UNL A   1      31.562  22.549  23.043  1.00  0.00     0.027 A 
ATOM     11  C   UNL A   1      32.372  21.486  23.439  1.00  0.00     0.002 A 
ATOM     12  C   UNL A   1      32.033  22.129  25.726  1.00  0.00     0.016 A 
ATOM     13  C   UNL A   1      32.630  21.289  24.785  1.00  0.00     0.001 A 
BRANCH   9  14
ATOM     14  N   UNL A   1      30.357  24.568  23.389  1.00  0.00    -0.352 N 
ATOM     15  H   UNL A   1      29.457  24.368  23.044  1.00  0.00     0.167 HD
BRANCH  14  16
ATOM     16  C   UNL A   1      30.736  25.919  23.190  1.00  0.00     0.077 A 
ATOM     17  C   UNL A   1      33.751  28.173  22.426  1.00  0.00     0.046 C 
ATOM     18  C   UNL A   1      32.372  27.710  22.811  1.00  0.00    -0.030 A 
ATOM     19  C   UNL A   1      31.430  28.661  23.232  1.00  0.00     0.006 A 
ATOM     20  C   UNL A   1      32.007  26.345  22.755  1.00  0.00     0.069 A 
ATOM     21  C   UNL A   1      30.139  28.272  23.572  1.00  0.00     0.023 A 
ATOM     22  Cl  UNL A   1      33.101  25.234  21.981  1.00  0.00    -0.082 Cl
ATOM     23  C   UNL A   1      29.799  26.921  23.545  1.00  0.00     0.066 A 
ATOM     24  Cl  UNL A   1      28.190  26.487  24.035  1.00  0.00    -0.082 Cl
ENDBRANCH  14  16
ENDBRANCH   9  14
ENDBRANCH   5   8
ENDBRANCH   3   4
ENDBRANCH   2   3
ENDBRANCH   1   2
BRANCH   1  25
ATOM     25  C   UNL A   1      33.706  29.492  26.618  1.00  0.00     0.116 C 
BRANCH  25  26
ATOM     26  N   UNL A   1      33.607  30.656  27.483  1.00  0.00    -0.352 N 
ATOM     27  C   UNL A   1      34.544  31.178  28.355  1.00  0.00     0.251 C 
ATOM     28  H   UNL A   1      32.752  31.143  27.441  1.00  0.00     0.163 HD
ATOM     29  O   UNL A   1      34.295  32.193  28.988  1.00  0.00    -0.269 OA
BRANCH  27  30
ATOM     30  C   UNL A   1      35.835  30.480  28.558  1.00  0.00     0.039 A 
ATOM     31  C   UNL A   1      36.790  30.533  27.538  1.00  0.00     0.014 A 
ATOM     32  C   UNL A   1      36.124  29.815  29.752  1.00  0.00     0.014 A 
ATOM     33  C   UNL A   1      38.071  30.014  27.756  1.00  0.00     0.010 A 
ATOM     34  C   UNL A   1      37.419  29.352  29.990  1.00  0.00     0.010 A 
ATOM     35  C   UNL A   1      38.413  29.470  29.004  1.00  0.00    -0.014 A 
BRANCH  35  36
ATOM     36  C   UNL A   1      39.816  29.083  29.315  1.00  0.00     0.031 A 
ATOM     37  C   UNL A   1      40.774  30.078  29.916  1.00  0.00     0.074 A 
ATOM     38  C   UNL A   1      40.253  27.853  28.972  1.00  0.00     0.049 A 
ATOM     39  N   UNL A   1      42.043  29.931  30.194  1.00  0.00    -0.248 NA
ATOM     40  C   UNL A   1      40.244  31.417  30.217  1.00  0.00     0.031 C 
ATOM     41  C   UNL A   1      39.446  26.815  28.322  1.00  0.00     0.029 A 
ATOM     42  N   UNL A   1      41.489  27.268  29.108  1.00  0.00    -0.354 N 
ATOM     43  C   UNL A   1      42.471  31.161  30.680  1.00  0.00     0.074 A 
ATOM     44  C   UNL A   1      41.333  32.053  30.628  1.00  0.00     0.031 C 
ATOM     45  C   UNL A   1      40.203  25.723  28.128  1.00  0.00     0.029 A 
ATOM     46  C   UNL A   1      41.554  25.987  28.609  1.00  0.00     0.049 A 
ATOM     47  H   UNL A   1      42.257  27.723  29.523  1.00  0.00     0.167 HD
ATOM     48  C   UNL A   1      43.697  31.513  31.137  1.00  0.00     0.031 A 
ATOM     49  C   UNL A   1      42.586  25.121  28.539  1.00  0.00     0.031 A 
ATOM     50  C   UNL A   1      44.820  30.618  31.216  1.00  0.00     0.049 A 
ATOM     51  C   UNL A   1      43.923  25.524  29.100  1.00  0.00     0.074 A 
ATOM     52  C   UNL A   1      46.078  30.862  31.743  1.00  0.00     0.029 A 
ATOM     53  N   UNL A   1      44.827  29.310  30.760  1.00  0.00    -0.354 N 
ATOM     54  N   UNL A   1      44.278  26.665  29.641  1.00  0.00    -0.248 NA
ATOM     55  C   UNL A   1      44.992  24.515  29.061  1.00  0.00     0.031 C 
ATOM     56  C   UNL A   1      46.858  29.716  31.565  1.00  0.00     0.029 A 
ATOM     57  C   UNL A   1      46.070  28.740  30.978  1.00  0.00     0.049 A 
ATOM     58  H   UNL A   1      44.061  28.852  30.342  1.00  0.00     0.167 HD
ATOM     59  C   UNL A   1      45.600  26.497  30.037  1.00  0.00     0.074 A 
ATOM     60  C   UNL A   1      45.977  25.145  29.686  1.00  0.00     0.031 C 
ATOM     61  C   UNL A   1      46.428  27.386  30.639  1.00  0.00     0.031 A 
BRANCH  48  62
ATOM     62  C   UNL A   1      43.897  32.932  31.600  1.00  0.00    -0.014 A 
ATOM     63  C   UNL A   1      44.277  33.942  30.700  1.00  0.00     0.010 A 
ATOM     64  C   UNL A   1      43.616  33.274  32.936  1.00  0.00     0.010 A 
ATOM     65  C   UNL A   1      44.397  35.265  31.132  1.00  0.00     0.020 A 
ATOM     66  C   UNL A   1      43.711  34.601  33.366  1.00  0.00     0.020 A 
ATOM     67  C   UNL A   1      44.111  35.586  32.462  1.00  0.00     0.054 A 
BRANCH  67  68
ATOM     68  S   UNL A   1      44.220  37.321  32.981  1.00  0.00     0.124 S 
ATOM     69  O   UNL A   1      44.127  38.023  31.704  1.00  0.00    -0.237 OA
ATOM     70  O   UNL A   1      43.065  37.466  33.863  1.00  0.00    -0.237 OA
ATOM     71  O   UNL A   1      45.520  37.405  33.644  1.00  0.00    -0.744 OA
ENDBRANCH  67  68
ENDBRANCH  48  62
BRANCH  49  72
ATOM     72  C   UNL A   1      42.398  23.779  27.922  1.00  0.00    -0.014 A 
ATOM     73  C   UNL A   1      41.942  22.693  28.690  1.00  0.00     0.010 A 
ATOM     74  C   UNL A   1      42.698  23.575  26.563  1.00  0.00     0.010 A 
ATOM     75  C   UNL A   1      41.825  21.421  28.122  1.00  0.00     0.020 A 
ATOM     76  C   UNL A   1      42.555  22.311  25.983  1.00  0.00     0.020 A 
ATOM     77  C   UNL A   1      42.137  21.238  26.772  1.00  0.00     0.054 A 
BRANCH  77  78
ATOM     78  S   UNL A   1      41.960  19.584  26.045  1.00  0.00     0.124 S 
ATOM     79  O   UNL A   1      40.527  19.523  25.779  1.00  0.00    -0.237 OA
ATOM     80  O   UNL A   1      42.820  19.660  24.866  1.00  0.00    -0.237 OA
ATOM     81  O   UNL A   1      42.442  18.696  27.101  1.00  0.00    -0.744 OA
ENDBRANCH  77  78
ENDBRANCH  49  72
BRANCH  61  82
ATOM     82  C   UNL A   1      47.806  26.911  31.011  1.00  0.00    -0.014 A 
ATOM     83  C   UNL A   1      48.024  26.113  32.148  1.00  0.00     0.010 A 
ATOM     84  C   UNL A   1      48.895  27.233  30.179  1.00  0.00     0.010 A 
ATOM     85  C   UNL A   1      49.313  25.676  32.465  1.00  0.00     0.020 A 
ATOM     86  C   UNL A   1      50.179  26.775  30.478  1.00  0.00     0.020 A 
ATOM     87  C   UNL A   1      50.384  26.012  31.630  1.00  0.00     0.054 A 
BRANCH  87  88
ATOM     88  S   UNL A   1      52.042  25.405  32.042  1.00  0.00     0.124 S 
ATOM     89  O   UNL A   1      52.354  26.168  33.247  1.00  0.00    -0.237 OA
ATOM     90  O   UNL A   1      51.821  23.975  32.243  1.00  0.00    -0.237 OA
ATOM     91  O   UNL A   1      52.837  25.746  30.865  1.00  0.00    -0.744 OA
ENDBRANCH  87  88
ENDBRANCH  61  82
ENDBRANCH  35  36
ENDBRANCH  27  30
ENDBRANCH  25  26
ENDBRANCH   1  25
TORSDOF 16
ENDMDL
MODEL 2
REMARK VINA RESULT:     -11.2      2.482      3.071
REMARK SMILES Cc1ccc(Cl)c(Nc2ccccc2C(=O)NCCCCNC(=O)c2ccc(-c3c4nc(c(-c5ccc(S(=O)(=O)[O-])cc5)c5ccc([nH]5)c(-c5ccc(S(=O)(=O)[O-])cc5)c5nc(c(-c6ccc(S(=O)(=O)[O-])cc6)c6ccc3[nH]6)C=C5)C=C4)cc2)c1Cl
REMARK SMILES IDX 20 1 19 2 18 3 17 4 15 5 16 6 14 8 9 9 10 10 11 11 13 12
REMARK SMILES IDX 12 13 8 14 7 16 1 17 2 18 3 19 85 20 4 21 86 22 5 23 6 24
REMARK SMILES IDX 21 25 22 26 23 27 24 29 25 30 26 31 84 32 27 33 83 34 28 35
REMARK SMILES IDX 29 36 30 37 77 38 31 39 82 40 76 41 78 42 32 43 81 44 75 45
REMARK SMILES IDX 74 46 33 48 63 49 44 50 62 51 45 52 48 53 61 54 79 55 46 56
REMARK SMILES IDX 47 57 60 59 80 60 49 61 34 62 35 63 43 64 36 65 42 66 37 67
REMARK SMILES IDX 38 68 39 69 40 70 41 71 64 72 65 73 73 74 66 75 72 76 67 77
REMARK SMILES IDX 68 78 69 79 70 80 71 81 50 82 51 83 59 84 52 85 58 86 53 87
REMARK SMILES IDX 54 88 55 89 56 90 57 91
REMARK H PARENT 17 7 8 15 22 28 78 47 48 58
REMARK Flexibility Score: inf
ROOT
ATOM      1  C   UNL A   1      32.963  28.298  27.233  1.00  0.00     0.023 C 
ENDROOT
BRANCH   1   2
ATOM      2  C   UNL A   1      31.817  27.513  26.585  1.00  0.00     0.023 C 
BRANCH   2   3
ATOM      3  C   UNL A   1      32.030  26.018  26.390  1.00  0.00     0.116 C 
BRANCH   3   4
ATOM      4  N   UNL A   1      30.969  25.167  26.872  1.00  0.00    -0.352 N 
ATOM      5  C   UNL A   1      30.653  23.872  26.525  1.00  0.00     0.253 C 
ATOM      6  O   UNL A   1      29.760  23.317  27.169  1.00  0.00    -0.269 OA
ATOM      7  H   UNL A   1      30.383  25.573  27.550  1.00  0.00     0.163 HD
BRANCH   5   8
ATOM      8  C   UNL A   1      31.227  23.163  25.338  1.00  0.00     0.063 A 
ATOM      9  C   UNL A   1      31.010  23.437  23.971  1.00  0.00     0.051 A 
ATOM     10  C   UNL A   1      31.600  22.567  23.021  1.00  0.00     0.027 A 
ATOM     11  C   UNL A   1      32.436  21.514  23.392  1.00  0.00     0.002 A 
ATOM     12  C   UNL A   1      32.103  22.110  25.692  1.00  0.00     0.016 A 
ATOM     13  C   UNL A   1      32.710  21.300  24.732  1.00  0.00     0.001 A 
BRANCH   9  14
ATOM     14  N   UNL A   1      30.356  24.553  23.413  1.00  0.00    -0.352 N 
ATOM     15  H   UNL A   1      29.439  24.352  23.117  1.00  0.00     0.167 HD
BRANCH  14  16
ATOM     16  C   UNL A   1      30.725  25.902  23.185  1.00  0.00     0.077 A 
ATOM     17  C   UNL A   1      33.721  28.160  22.361  1.00  0.00     0.046 C 
ATOM     18  C   UNL A   1      32.347  27.696  22.762  1.00  0.00    -0.030 A 
ATOM     19  C   UNL A   1      31.401  28.649  23.169  1.00  0.00     0.006 A 
ATOM     20  C   UNL A   1      31.991  26.328  22.736  1.00  0.00     0.069 A 
ATOM     21  C   UNL A   1      30.114  28.259  23.523  1.00  0.00     0.023 A 
ATOM     22  Cl  UNL A   1      33.089  25.209  21.979  1.00  0.00    -0.082 Cl
ATOM     23  C   UNL A   1      29.783  26.905  23.525  1.00  0.00     0.066 A 
ATOM     24  Cl  UNL A   1      28.179  26.470  24.031  1.00  0.00    -0.082 Cl
ENDBRANCH  14  16
ENDBRANCH   9  14
ENDBRANCH   5   8
ENDBRANCH   3   4
ENDBRANCH   2   3
ENDBRANCH   1   2
BRANCH   1  25
ATOM     25  C   UNL A   1      33.707  29.324  26.378  1.00  0.00     0.116 C 
BRANCH  25  26
ATOM     26  N   UNL A   1      33.642  30.697  26.856  1.00  0.00    -0.352 N 
ATOM     27  C   UNL A   1      34.540  31.390  27.645  1.00  0.00     0.251 C 
ATOM     28  H   UNL A   1      32.846  31.204  26.576  1.00  0.00     0.163 HD
ATOM     29  O   UNL A   1      34.334  32.560  27.927  1.00  0.00    -0.269 OA
BRANCH  27  30
ATOM     30  C   UNL A   1      35.734  30.699  28.188  1.00  0.00     0.039 A 
ATOM     31  C   UNL A   1      36.979  30.960  27.606  1.00  0.00     0.014 A 
ATOM     32  C   UNL A   1      35.641  29.838  29.284  1.00  0.00     0.014 A 
ATOM     33  C   UNL A   1      38.140  30.443  28.189  1.00  0.00     0.010 A 
ATOM     34  C   UNL A   1      36.805  29.373  29.899  1.00  0.00     0.010 A 
ATOM     35  C   UNL A   1      38.068  29.691  29.373  1.00  0.00    -0.014 A 
BRANCH  35  36
ATOM     36  C   UNL A   1      39.299  29.290  30.105  1.00  0.00     0.031 A 
ATOM     37  C   UNL A   1      39.752  30.052  31.323  1.00  0.00     0.074 A 
ATOM     38  C   UNL A   1      40.061  28.289  29.619  1.00  0.00     0.049 A 
ATOM     39  N   UNL A   1      40.828  29.879  32.046  1.00  0.00    -0.248 NA
ATOM     40  C   UNL A   1      38.901  31.165  31.770  1.00  0.00     0.031 C 
ATOM     41  C   UNL A   1      39.771  27.513  28.408  1.00  0.00     0.029 A 
ATOM     42  N   UNL A   1      41.244  27.758  30.071  1.00  0.00    -0.354 N 
ATOM     43  C   UNL A   1      40.798  30.874  33.017  1.00  0.00     0.074 A 
ATOM     44  C   UNL A   1      39.613  31.667  32.770  1.00  0.00     0.031 C 
ATOM     45  C   UNL A   1      40.741  26.602  28.223  1.00  0.00     0.029 A 
ATOM     46  C   UNL A   1      41.737  26.744  29.279  1.00  0.00     0.049 A 
ATOM     47  H   UNL A   1      41.698  28.071  30.886  1.00  0.00     0.167 HD
ATOM     48  C   UNL A   1      41.672  31.101  34.027  1.00  0.00     0.031 A 
ATOM     49  C   UNL A   1      42.865  26.015  29.385  1.00  0.00     0.031 A 
ATOM     50  C   UNL A   1      42.835  30.295  34.289  1.00  0.00     0.049 A 
ATOM     51  C   UNL A   1      43.792  26.257  30.546  1.00  0.00     0.074 A 
ATOM     52  C   UNL A   1      43.732  30.398  35.339  1.00  0.00     0.029 A 
ATOM     53  N   UNL A   1      43.263  29.239  33.501  1.00  0.00    -0.354 N 
ATOM     54  N   UNL A   1      43.692  27.145  31.506  1.00  0.00    -0.248 NA
ATOM     55  C   UNL A   1      44.970  25.385  30.650  1.00  0.00     0.031 C 
ATOM     56  C   UNL A   1      44.727  29.432  35.162  1.00  0.00     0.029 A 
ATOM     57  C   UNL A   1      44.420  28.693  34.032  1.00  0.00     0.049 A 
ATOM     58  H   UNL A   1      42.812  28.923  32.684  1.00  0.00     0.167 HD
ATOM     59  C   UNL A   1      44.777  26.915  32.345  1.00  0.00     0.074 A 
ATOM     60  C   UNL A   1      45.510  25.798  31.788  1.00  0.00     0.031 C 
ATOM     61  C   UNL A   1      45.132  27.570  33.477  1.00  0.00     0.031 A 
BRANCH  48  62
ATOM     62  C   UNL A   1      41.407  32.268  34.940  1.00  0.00    -0.014 A 
ATOM     63  C   UNL A   1      40.669  32.110  36.125  1.00  0.00     0.010 A 
ATOM     64  C   UNL A   1      41.978  33.521  34.650  1.00  0.00     0.010 A 
ATOM     65  C   UNL A   1      40.486  33.190  36.994  1.00  0.00     0.020 A 
ATOM     66  C   UNL A   1      41.818  34.598  35.528  1.00  0.00     0.020 A 
ATOM     67  C   UNL A   1      41.064  34.426  36.690  1.00  0.00     0.054 A 
BRANCH  67  68
ATOM     68  S   UNL A   1      40.857  35.795  37.863  1.00  0.00     0.124 S 
ATOM     69  O   UNL A   1      40.363  35.101  39.050  1.00  0.00    -0.237 OA
ATOM     70  O   UNL A   1      42.209  36.335  37.968  1.00  0.00    -0.237 OA
ATOM     71  O   UNL A   1      39.889  36.671  37.207  1.00  0.00    -0.744 OA
ENDBRANCH  67  68
ENDBRANCH  48  62
BRANCH  49  72
ATOM     72  C   UNL A   1      43.184  24.975  28.368  1.00  0.00    -0.014 A 
ATOM     73  C   UNL A   1      43.933  25.297  27.222  1.00  0.00     0.010 A 
ATOM     74  C   UNL A   1      42.719  23.657  28.530  1.00  0.00     0.010 A 
ATOM     75  C   UNL A   1      44.179  24.332  26.240  1.00  0.00     0.020 A 
ATOM     76  C   UNL A   1      42.987  22.683  27.565  1.00  0.00     0.020 A 
ATOM     77  C   UNL A   1      43.699  23.032  26.417  1.00  0.00     0.054 A 
BRANCH  77  78
ATOM     78  S   UNL A   1      44.045  21.787  25.142  1.00  0.00     0.124 S 
ATOM     79  O   UNL A   1      43.052  20.762  25.443  1.00  0.00    -0.237 OA
ATOM     80  O   UNL A   1      43.831  22.532  23.903  1.00  0.00    -0.237 OA
ATOM     81  O   UNL A   1      45.433  21.412  25.401  1.00  0.00    -0.744 OA
ENDBRANCH  77  78
ENDBRANCH  49  72
BRANCH  61  82
ATOM     82  C   UNL A   1      46.335  27.064  34.226  1.00  0.00    -0.014 A 
ATOM     83  C   UNL A   1      47.623  27.565  33.968  1.00  0.00     0.010 A 
ATOM     84  C   UNL A   1      46.163  26.101  35.237  1.00  0.00     0.010 A 
ATOM     85  C   UNL A   1      48.723  27.086  34.685  1.00  0.00     0.020 A 
ATOM     86  C   UNL A   1      47.255  25.640  35.974  1.00  0.00     0.020 A 
ATOM     87  C   UNL A   1      48.532  26.123  35.682  1.00  0.00     0.054 A 
BRANCH  87  88
ATOM     88  S   UNL A   1      49.969  25.539  36.623  1.00  0.00     0.124 S 
ATOM     89  O   UNL A   1      49.663  26.014  37.969  1.00  0.00    -0.237 OA
ATOM     90  O   UNL A   1      49.908  24.091  36.438  1.00  0.00    -0.237 OA
ATOM     91  O   UNL A   1      51.099  26.197  35.971  1.00  0.00    -0.744 OA
ENDBRANCH  87  88
ENDBRANCH  61  82
ENDBRANCH  35  36
ENDBRANCH  27  30
ENDBRANCH  25  26
ENDBRANCH   1  25
TORSDOF 16
ENDMDL
MODEL 3
REMARK VINA RESULT:     -11.1      1.212      2.898
REMARK SMILES Cc1ccc(Cl)c(Nc2ccccc2C(=O)NCCCCNC(=O)c2ccc(-c3c4nc(c(-c5ccc(S(=O)(=O)[O-])cc5)c5ccc([nH]5)c(-c5ccc(S(=O)(=O)[O-])cc5)c5nc(c(-c6ccc(S(=O)(=O)[O-])cc6)c6ccc3[nH]6)C=C5)C=C4)cc2)c1Cl
REMARK SMILES IDX 20 1 19 2 18 3 17 4 15 5 16 6 14 8 9 9 10 10 11 11 13 12
REMARK SMILES IDX 12 13 8 14 7 16 1 17 2 18 3 19 85 20 4 21 86 22 5 23 6 24
REMARK SMILES IDX 21 25 22 26 23 27 24 29 25 30 26 31 84 32 27 33 83 34 28 35
REMARK SMILES IDX 29 36 30 37 77 38 31 39 82 40 76 41 78 42 32 43 81 44 75 45
REMARK SMILES IDX 74 46 33 48 63 49 44 50 62 51 45 52 48 53 61 54 79 55 46 56
REMARK SMILES IDX 47 57 60 59 80 60 49 61 34 62 35 63 43 64 36 65 42 66 37 67
REMARK SMILES IDX 38 68 39 69 40 70 41 71 64 72 65 73 73 74 66 75 72 76 67 77
REMARK SMILES IDX 68 78 69 79 70 80 71 81 50 82 51 83 59 84 52 85 58 86 53 87
REMARK SMILES IDX 54 88 55 89 56 90 57 91
REMARK H PARENT 17 7 8 15 22 28 78 47 48 58
REMARK Flexibility Score: inf
ROOT
ATOM      1  C   UNL A   1      33.556  27.933  26.502  1.00  0.00     0.023 C 
ENDROOT
BRANCH   1   2
ATOM      2  C   UNL A   1      32.246  27.844  27.292  1.00  0.00     0.023 C 
BRANCH   2   3
ATOM      3  C   UNL A   1      31.017  27.360  26.536  1.00  0.00     0.116 C 
BRANCH   3   4
ATOM      4  N   UNL A   1      30.831  25.930  26.493  1.00  0.00    -0.352 N 
ATOM      5  C   UNL A   1      31.300  25.008  25.584  1.00  0.00     0.253 C 
ATOM      6  O   UNL A   1      31.099  23.817  25.831  1.00  0.00    -0.269 OA
ATOM      7  H   UNL A   1      30.288  25.557  27.223  1.00  0.00     0.163 HD
BRANCH   5   8
ATOM      8  C   UNL A   1      31.906  25.373  24.264  1.00  0.00     0.063 A 
ATOM      9  C   UNL A   1      33.210  25.101  23.799  1.00  0.00     0.051 A 
ATOM     10  C   UNL A   1      33.585  25.626  22.538  1.00  0.00     0.027 A 
ATOM     11  C   UNL A   1      32.693  26.325  21.726  1.00  0.00     0.002 A 
ATOM     12  C   UNL A   1      31.007  26.057  23.412  1.00  0.00     0.016 A 
ATOM     13  C   UNL A   1      31.391  26.520  22.153  1.00  0.00     0.001 A 
BRANCH   9  14
ATOM     14  N   UNL A   1      34.175  24.263  24.394  1.00  0.00    -0.352 N 
ATOM     15  H   UNL A   1      34.869  24.763  24.881  1.00  0.00     0.167 HD
BRANCH  14  16
ATOM     16  C   UNL A   1      34.366  22.860  24.446  1.00  0.00     0.077 A 
ATOM     17  C   UNL A   1      32.590  19.502  23.878  1.00  0.00     0.046 C 
ATOM     18  C   UNL A   1      33.608  20.530  24.292  1.00  0.00    -0.030 A 
ATOM     19  C   UNL A   1      34.748  20.111  24.995  1.00  0.00     0.006 A 
ATOM     20  C   UNL A   1      33.442  21.900  23.987  1.00  0.00     0.069 A 
ATOM     21  C   UNL A   1      35.721  21.030  25.372  1.00  0.00     0.023 A 
ATOM     22  Cl  UNL A   1      32.165  22.349  22.893  1.00  0.00    -0.082 Cl
ATOM     23  C   UNL A   1      35.533  22.383  25.096  1.00  0.00     0.066 A 
ATOM     24  Cl  UNL A   1      36.753  23.492  25.640  1.00  0.00    -0.082 Cl
ENDBRANCH  14  16
ENDBRANCH   9  14
ENDBRANCH   5   8
ENDBRANCH   3   4
ENDBRANCH   2   3
ENDBRANCH   1   2
BRANCH   1  25
ATOM     25  C   UNL A   1      34.032  29.312  26.046  1.00  0.00     0.116 C 
BRANCH  25  26
ATOM     26  N   UNL A   1      33.830  30.388  27.004  1.00  0.00    -0.352 N 
ATOM     27  C   UNL A   1      34.676  30.841  27.999  1.00  0.00     0.251 C 
ATOM     28  H   UNL A   1      32.970  30.861  26.933  1.00  0.00     0.163 HD
ATOM     29  O   UNL A   1      34.349  31.787  28.699  1.00  0.00    -0.269 OA
BRANCH  27  30
ATOM     30  C   UNL A   1      35.964  30.150  28.247  1.00  0.00     0.039 A 
ATOM     31  C   UNL A   1      36.927  30.150  27.234  1.00  0.00     0.014 A 
ATOM     32  C   UNL A   1      36.240  29.543  29.474  1.00  0.00     0.014 A 
ATOM     33  C   UNL A   1      38.204  29.639  27.489  1.00  0.00     0.010 A 
ATOM     34  C   UNL A   1      37.531  29.089  29.746  1.00  0.00     0.010 A 
ATOM     35  C   UNL A   1      38.534  29.155  28.765  1.00  0.00    -0.014 A 
BRANCH  35  36
ATOM     36  C   UNL A   1      39.932  28.779  29.107  1.00  0.00     0.031 A 
ATOM     37  C   UNL A   1      40.870  29.783  29.724  1.00  0.00     0.074 A 
ATOM     38  C   UNL A   1      40.387  27.552  28.777  1.00  0.00     0.049 A 
ATOM     39  N   UNL A   1      42.134  29.646  30.031  1.00  0.00    -0.248 NA
ATOM     40  C   UNL A   1      40.324  31.119  30.011  1.00  0.00     0.031 C 
ATOM     41  C   UNL A   1      39.601  26.506  28.112  1.00  0.00     0.029 A 
ATOM     42  N   UNL A   1      41.623  26.977  28.941  1.00  0.00    -0.354 N 
ATOM     43  C   UNL A   1      42.542  30.882  30.522  1.00  0.00     0.074 A 
ATOM     44  C   UNL A   1      41.399  31.765  30.443  1.00  0.00     0.031 C 
ATOM     45  C   UNL A   1      40.370  25.419  27.938  1.00  0.00     0.029 A 
ATOM     46  C   UNL A   1      41.709  25.694  28.447  1.00  0.00     0.049 A 
ATOM     47  H   UNL A   1      42.379  27.438  29.371  1.00  0.00     0.167 HD
ATOM     48  C   UNL A   1      43.755  31.244  31.004  1.00  0.00     0.031 A 
ATOM     49  C   UNL A   1      42.748  24.837  28.401  1.00  0.00     0.031 A 
ATOM     50  C   UNL A   1      44.884  30.357  31.109  1.00  0.00     0.049 A 
ATOM     51  C   UNL A   1      44.070  25.251  28.989  1.00  0.00     0.074 A 
ATOM     52  C   UNL A   1      46.128  30.613  31.662  1.00  0.00     0.029 A 
ATOM     53  N   UNL A   1      44.910  29.048  30.657  1.00  0.00    -0.354 N 
ATOM     54  N   UNL A   1      44.405  26.396  29.534  1.00  0.00    -0.248 NA
ATOM     55  C   UNL A   1      45.146  24.250  28.977  1.00  0.00     0.031 C 
ATOM     56  C   UNL A   1      46.920  29.472  31.505  1.00  0.00     0.029 A 
ATOM     57  C   UNL A   1      46.152  28.488  30.903  1.00  0.00     0.049 A 
ATOM     58  H   UNL A   1      44.156  28.584  30.224  1.00  0.00     0.167 HD
ATOM     59  C   UNL A   1      45.720  26.240  29.959  1.00  0.00     0.074 A 
ATOM     60  C   UNL A   1      46.114  24.889  29.620  1.00  0.00     0.031 C 
ATOM     61  C   UNL A   1      46.527  27.137  30.576  1.00  0.00     0.031 A 
BRANCH  48  62
ATOM     62  C   UNL A   1      43.935  32.665  31.466  1.00  0.00    -0.014 A 
ATOM     63  C   UNL A   1      43.743  33.021  32.812  1.00  0.00     0.010 A 
ATOM     64  C   UNL A   1      44.384  33.641  30.557  1.00  0.00     0.010 A 
ATOM     65  C   UNL A   1      43.975  34.332  33.238  1.00  0.00     0.020 A 
ATOM     66  C   UNL A   1      44.641  34.947  30.983  1.00  0.00     0.020 A 
ATOM     67  C   UNL A   1      44.425  35.286  32.320  1.00  0.00     0.054 A 
BRANCH  67  68
ATOM     68  S   UNL A   1      44.771  36.966  32.912  1.00  0.00     0.124 S 
ATOM     69  O   UNL A   1      43.813  37.102  34.006  1.00  0.00    -0.237 OA
ATOM     70  O   UNL A   1      46.173  36.882  33.312  1.00  0.00    -0.237 OA
ATOM     71  O   UNL A   1      44.508  37.806  31.746  1.00  0.00    -0.744 OA
ENDBRANCH  67  68
ENDBRANCH  48  62
BRANCH  49  72
ATOM     72  C   UNL A   1      42.584  23.491  27.784  1.00  0.00    -0.014 A 
ATOM     73  C   UNL A   1      41.878  22.475  28.454  1.00  0.00     0.010 A 
ATOM     74  C   UNL A   1      43.153  23.212  26.529  1.00  0.00     0.010 A 
ATOM     75  C   UNL A   1      41.779  21.196  27.899  1.00  0.00     0.020 A 
ATOM     76  C   UNL A   1      43.031  21.943  25.957  1.00  0.00     0.020 A 
ATOM     77  C   UNL A   1      42.360  20.938  26.655  1.00  0.00     0.054 A 
BRANCH  77  78
ATOM     78  S   UNL A   1      42.202  19.277  25.939  1.00  0.00     0.124 S 
ATOM     79  O   UNL A   1      40.766  19.184  25.704  1.00  0.00    -0.237 OA
ATOM     80  O   UNL A   1      43.035  19.366  24.742  1.00  0.00    -0.237 OA
ATOM     81  O   UNL A   1      42.726  18.404  26.988  1.00  0.00    -0.744 OA
ENDBRANCH  77  78
ENDBRANCH  49  72
BRANCH  61  82
ATOM     82  C   UNL A   1      47.901  26.673  30.979  1.00  0.00    -0.014 A 
ATOM     83  C   UNL A   1      49.006  26.826  30.124  1.00  0.00     0.010 A 
ATOM     84  C   UNL A   1      48.094  26.116  32.256  1.00  0.00     0.010 A 
ATOM     85  C   UNL A   1      50.274  26.397  30.526  1.00  0.00     0.020 A 
ATOM     86  C   UNL A   1      49.363  25.711  32.672  1.00  0.00     0.020 A 
ATOM     87  C   UNL A   1      50.444  25.839  31.798  1.00  0.00     0.054 A 
BRANCH  87  88
ATOM     88  S   UNL A   1      52.104  25.319  32.313  1.00  0.00     0.124 S 
ATOM     89  O   UNL A   1      52.262  26.025  33.582  1.00  0.00    -0.237 OA
ATOM     90  O   UNL A   1      51.970  23.868  32.414  1.00  0.00    -0.237 OA
ATOM     91  O   UNL A   1      52.964  25.785  31.228  1.00  0.00    -0.744 OA
ENDBRANCH  87  88
ENDBRANCH  61  82
ENDBRANCH  35  36
ENDBRANCH  27  30
ENDBRANCH  25  26
ENDBRANCH   1  25
TORSDOF 16
ENDMDL
