MODEL 1
REMARK VINA RESULT:     -11.5      0.000      0.000
REMARK SMILES CCCc1cc(OC(F)(F)F)cc2c1O[C@H](C(F)(F)F)C(C(=O)NCCCCNC(=O)c1ccc(-c3c4nc(c(-c5ccc(S(=O)(=O)[O-])cc5)c5ccc([nH]5)c(-c5ccc(S(=O)(=O)[O-])cc5)c5nc(c(-c6ccc(S(=O)(=O)[O-])cc6)c6ccc3[nH]6)C=C5)C=C4)cc1)=C2
REMARK SMILES IDX 27 1 26 2 25 3 24 4 22 5 23 6 21 8 4 9 5 10 14 11 6 12 13 13
REMARK SMILES IDX 15 14 12 15 92 16 16 17 3 18 2 19 1 20 7 21 8 22 9 23 10 24
REMARK SMILES IDX 11 25 17 26 18 27 19 28 20 29 28 30 29 31 30 32 31 34 32 35
REMARK SMILES IDX 33 36 91 37 34 38 90 39 35 40 36 41 37 42 84 43 38 44 89 45
REMARK SMILES IDX 83 46 85 47 39 48 88 49 82 50 81 51 40 53 70 54 51 55 69 56
REMARK SMILES IDX 52 57 55 58 68 59 86 60 53 61 54 62 67 64 87 65 56 66 41 67
REMARK SMILES IDX 42 68 50 69 43 70 49 71 44 72 45 73 46 74 47 75 48 76 71 77
REMARK SMILES IDX 72 78 80 79 73 80 79 81 74 82 75 83 76 84 77 85 78 86 57 87
REMARK SMILES IDX 58 88 66 89 59 90 65 91 60 92 61 93 62 94 63 95 64 96
REMARK H PARENT 24 7 29 33 85 52 55 63
REMARK Flexibility Score: inf
ROOT
ATOM      1  C   UNL A   1      32.307  27.848  26.951  1.00  0.00     0.023 C 
ENDROOT
BRANCH   1   2
ATOM      2  C   UNL A   1      31.736  28.166  25.567  1.00  0.00     0.023 C 
BRANCH   2   3
ATOM      3  C   UNL A   1      31.157  26.956  24.830  1.00  0.00     0.116 C 
BRANCH   3   4
ATOM      4  N   UNL A   1      30.281  26.189  25.695  1.00  0.00    -0.352 N 
ATOM      5  C   UNL A   1      30.340  24.918  26.168  1.00  0.00     0.251 C 
ATOM      6  O   UNL A   1      29.471  24.573  26.969  1.00  0.00    -0.270 OA
ATOM      7  H   UNL A   1      29.489  26.689  25.999  1.00  0.00     0.163 HD
BRANCH   5   8
ATOM      8  C   UNL A   1      31.437  23.959  25.840  1.00  0.00     0.067 C 
ATOM      9  C   UNL A   1      33.959  20.681  25.023  1.00  0.00    -0.002 A 
ATOM     10  C   UNL A   1      35.320  20.799  25.359  1.00  0.00     0.054 A 
ATOM     11  C   UNL A   1      33.109  21.763  25.318  1.00  0.00     0.131 A 
ATOM     12  C   UNL A   1      35.818  21.931  26.008  1.00  0.00     0.130 A 
ATOM     13  C   UNL A   1      33.608  22.921  25.922  1.00  0.00     0.021 A 
ATOM     14  O   UNL A   1      31.771  21.623  25.043  1.00  0.00    -0.475 OA
ATOM     15  C   UNL A   1      34.958  22.996  26.271  1.00  0.00     0.058 A 
ATOM     16  C   UNL A   1      32.705  24.010  26.268  1.00  0.00     0.025 C 
ATOM     17  C   UNL A   1      31.016  22.860  24.877  1.00  0.00     0.314 C 
BRANCH   9  18
ATOM     18  C   UNL A   1      33.376  19.439  24.372  1.00  0.00     0.039 C 
BRANCH  18  19
ATOM     19  C   UNL A   1      34.242  18.173  24.310  1.00  0.00     0.001 C 
ATOM     20  C   UNL A   1      33.834  17.202  23.208  1.00  0.00     0.004 C 
ENDBRANCH  18  19
ENDBRANCH   9  18
BRANCH  12  21
ATOM     21  O   UNL A   1      37.101  22.121  26.435  1.00  0.00    -0.406 OA
BRANCH  21  22
ATOM     22  C   UNL A   1      38.009  22.736  25.537  1.00  0.00     0.573 C 
ATOM     23  F   UNL A   1      37.702  22.458  24.252  1.00  0.00    -0.132 F 
ATOM     24  F   UNL A   1      38.029  24.075  25.716  1.00  0.00    -0.132 F 
ATOM     25  F   UNL A   1      39.252  22.262  25.781  1.00  0.00    -0.132 F 
ENDBRANCH  21  22
ENDBRANCH  12  21
BRANCH  17  26
ATOM     26  C   UNL A   1      31.064  23.307  23.400  1.00  0.00     0.429 C 
ATOM     27  F   UNL A   1      32.077  24.180  23.169  1.00  0.00    -0.167 F 
ATOM     28  F   UNL A   1      31.273  22.242  22.584  1.00  0.00    -0.167 F 
ATOM     29  F   UNL A   1      29.934  23.909  22.976  1.00  0.00    -0.167 F 
ENDBRANCH  17  26
ENDBRANCH   5   8
ENDBRANCH   3   4
ENDBRANCH   2   3
ENDBRANCH   1   2
BRANCH   1  30
ATOM     30  C   UNL A   1      33.664  28.480  27.245  1.00  0.00     0.116 C 
BRANCH  30  31
ATOM     31  N   UNL A   1      33.579  29.881  27.622  1.00  0.00    -0.352 N 
ATOM     32  C   UNL A   1      34.550  30.672  28.194  1.00  0.00     0.251 C 
ATOM     33  H   UNL A   1      32.716  30.322  27.447  1.00  0.00     0.163 HD
ATOM     34  O   UNL A   1      34.287  31.812  28.546  1.00  0.00    -0.269 OA
BRANCH  32  35
ATOM     35  C   UNL A   1      35.897  30.104  28.420  1.00  0.00     0.039 A 
ATOM     36  C   UNL A   1      36.832  30.174  27.386  1.00  0.00     0.014 A 
ATOM     37  C   UNL A   1      36.246  29.546  29.652  1.00  0.00     0.014 A 
ATOM     38  C   UNL A   1      38.140  29.743  27.612  1.00  0.00     0.010 A 
ATOM     39  C   UNL A   1      37.567  29.185  29.898  1.00  0.00     0.010 A 
ATOM     40  C   UNL A   1      38.527  29.280  28.880  1.00  0.00    -0.014 A 
BRANCH  40  41
ATOM     41  C   UNL A   1      39.938  28.910  29.155  1.00  0.00     0.031 A 
ATOM     42  C   UNL A   1      40.872  29.895  29.804  1.00  0.00     0.074 A 
ATOM     43  C   UNL A   1      40.389  27.698  28.775  1.00  0.00     0.049 A 
ATOM     44  N   UNL A   1      42.129  29.743  30.131  1.00  0.00    -0.248 NA
ATOM     45  C   UNL A   1      40.333  31.232  30.101  1.00  0.00     0.031 C 
ATOM     46  C   UNL A   1      39.598  26.680  28.079  1.00  0.00     0.029 A 
ATOM     47  N   UNL A   1      41.623  27.116  28.921  1.00  0.00    -0.354 N 
ATOM     48  C   UNL A   1      42.534  30.962  30.662  1.00  0.00     0.074 A 
ATOM     49  C   UNL A   1      41.405  31.860  30.562  1.00  0.00     0.031 C 
ATOM     50  C   UNL A   1      40.354  25.586  27.895  1.00  0.00     0.029 A 
ATOM     51  C   UNL A   1      41.688  25.833  28.430  1.00  0.00     0.049 A 
ATOM     52  H   UNL A   1      42.388  27.572  29.339  1.00  0.00     0.167 HD
ATOM     53  C   UNL A   1      43.729  31.297  31.204  1.00  0.00     0.031 A 
ATOM     54  C   UNL A   1      42.705  24.949  28.421  1.00  0.00     0.031 A 
ATOM     55  C   UNL A   1      44.846  30.397  31.311  1.00  0.00     0.049 A 
ATOM     56  C   UNL A   1      44.014  25.335  29.052  1.00  0.00     0.074 A 
ATOM     57  C   UNL A   1      46.081  30.621  31.894  1.00  0.00     0.029 A 
ATOM     58  N   UNL A   1      44.865  29.098  30.824  1.00  0.00    -0.354 N 
ATOM     59  N   UNL A   1      44.352  26.469  29.619  1.00  0.00    -0.248 NA
ATOM     60  C   UNL A   1      45.070  24.314  29.064  1.00  0.00     0.031 C 
ATOM     61  C   UNL A   1      46.862  29.473  31.721  1.00  0.00     0.029 A 
ATOM     62  C   UNL A   1      46.094  28.514  31.080  1.00  0.00     0.049 A 
ATOM     63  H   UNL A   1      44.114  28.656  30.363  1.00  0.00     0.167 HD
ATOM     64  C   UNL A   1      45.651  26.287  30.080  1.00  0.00     0.074 A 
ATOM     65  C   UNL A   1      46.030  24.931  29.740  1.00  0.00     0.031 C 
ATOM     66  C   UNL A   1      46.455  27.163  30.733  1.00  0.00     0.031 A 
BRANCH  53  67
ATOM     67  C   UNL A   1      43.886  32.702  31.724  1.00  0.00    -0.014 A 
ATOM     68  C   UNL A   1      44.373  33.731  30.897  1.00  0.00     0.010 A 
ATOM     69  C   UNL A   1      43.511  33.007  33.045  1.00  0.00     0.010 A 
ATOM     70  C   UNL A   1      44.525  35.028  31.395  1.00  0.00     0.020 A 
ATOM     71  C   UNL A   1      43.635  34.310  33.538  1.00  0.00     0.020 A 
ATOM     72  C   UNL A   1      44.160  35.308  32.714  1.00  0.00     0.054 A 
BRANCH  72  73
ATOM     73  S   UNL A   1      44.352  37.003  33.328  1.00  0.00     0.124 S 
ATOM     74  O   UNL A   1      43.613  36.952  34.587  1.00  0.00    -0.237 OA
ATOM     75  O   UNL A   1      45.801  37.137  33.456  1.00  0.00    -0.237 OA
ATOM     76  O   UNL A   1      43.743  37.822  32.282  1.00  0.00    -0.744 OA
ENDBRANCH  72  73
ENDBRANCH  53  67
BRANCH  54  77
ATOM     77  C   UNL A   1      42.508  23.598  27.829  1.00  0.00    -0.014 A 
ATOM     78  C   UNL A   1      42.933  23.327  26.516  1.00  0.00     0.010 A 
ATOM     79  C   UNL A   1      41.912  22.570  28.580  1.00  0.00     0.010 A 
ATOM     80  C   UNL A   1      42.751  22.057  25.960  1.00  0.00     0.020 A 
ATOM     81  C   UNL A   1      41.752  21.292  28.038  1.00  0.00     0.020 A 
ATOM     82  C   UNL A   1      42.162  21.047  26.726  1.00  0.00     0.054 A 
BRANCH  82  83
ATOM     83  S   UNL A   1      41.985  19.392  26.004  1.00  0.00     0.124 S 
ATOM     84  O   UNL A   1      40.546  19.314  25.775  1.00  0.00    -0.237 OA
ATOM     85  O   UNL A   1      42.813  19.479  24.805  1.00  0.00    -0.237 OA
ATOM     86  O   UNL A   1      42.505  18.508  27.046  1.00  0.00    -0.744 OA
ENDBRANCH  82  83
ENDBRANCH  54  77
BRANCH  66  87
ATOM     87  C   UNL A   1      47.812  26.667  31.158  1.00  0.00    -0.014 A 
ATOM     88  C   UNL A   1      48.013  26.072  32.416  1.00  0.00     0.010 A 
ATOM     89  C   UNL A   1      48.894  26.767  30.265  1.00  0.00     0.010 A 
ATOM     90  C   UNL A   1      49.283  25.625  32.790  1.00  0.00     0.020 A 
ATOM     91  C   UNL A   1      50.158  26.294  30.624  1.00  0.00     0.020 A 
ATOM     92  C   UNL A   1      50.348  25.743  31.892  1.00  0.00     0.054 A 
BRANCH  92  93
ATOM     93  S   UNL A   1      51.983  25.133  32.388  1.00  0.00     0.124 S 
ATOM     94  O   UNL A   1      52.844  25.695  31.351  1.00  0.00    -0.237 OA
ATOM     95  O   UNL A   1      52.149  25.707  33.721  1.00  0.00    -0.237 OA
ATOM     96  O   UNL A   1      51.835  23.679  32.357  1.00  0.00    -0.744 OA
ENDBRANCH  92  93
ENDBRANCH  66  87
ENDBRANCH  40  41
ENDBRANCH  32  35
ENDBRANCH  30  31
ENDBRANCH   1  30
TORSDOF 19
ENDMDL
MODEL 2
REMARK VINA RESULT:     -11.2      1.610      2.669
REMARK SMILES CCCc1cc(OC(F)(F)F)cc2c1O[C@H](C(F)(F)F)C(C(=O)NCCCCNC(=O)c1ccc(-c3c4nc(c(-c5ccc(S(=O)(=O)[O-])cc5)c5ccc([nH]5)c(-c5ccc(S(=O)(=O)[O-])cc5)c5nc(c(-c6ccc(S(=O)(=O)[O-])cc6)c6ccc3[nH]6)C=C5)C=C4)cc1)=C2
REMARK SMILES IDX 27 1 26 2 25 3 24 4 22 5 23 6 21 8 4 9 5 10 14 11 6 12 13 13
REMARK SMILES IDX 15 14 12 15 92 16 16 17 3 18 2 19 1 20 7 21 8 22 9 23 10 24
REMARK SMILES IDX 11 25 17 26 18 27 19 28 20 29 28 30 29 31 30 32 31 34 32 35
REMARK SMILES IDX 33 36 91 37 34 38 90 39 35 40 36 41 37 42 84 43 38 44 89 45
REMARK SMILES IDX 83 46 85 47 39 48 88 49 82 50 81 51 40 53 70 54 51 55 69 56
REMARK SMILES IDX 52 57 55 58 68 59 86 60 53 61 54 62 67 64 87 65 56 66 41 67
REMARK SMILES IDX 42 68 50 69 43 70 49 71 44 72 45 73 46 74 47 75 48 76 71 77
REMARK SMILES IDX 72 78 80 79 73 80 79 81 74 82 75 83 76 84 77 85 78 86 57 87
REMARK SMILES IDX 58 88 66 89 59 90 65 91 60 92 61 93 62 94 63 95 64 96
REMARK H PARENT 24 7 29 33 85 52 55 63
REMARK Flexibility Score: inf
ROOT
ATOM      1  C   UNL A   1      31.949  27.796  27.239  1.00  0.00     0.023 C 
ENDROOT
BRANCH   1   2
ATOM      2  C   UNL A   1      31.344  27.913  25.838  1.00  0.00     0.023 C 
BRANCH   2   3
ATOM      3  C   UNL A   1      30.739  26.613  25.301  1.00  0.00     0.116 C 
BRANCH   3   4
ATOM      4  N   UNL A   1      30.891  26.522  23.862  1.00  0.00    -0.352 N 
ATOM      5  C   UNL A   1      31.581  25.669  23.063  1.00  0.00     0.251 C 
ATOM      6  O   UNL A   1      31.444  25.799  21.847  1.00  0.00    -0.270 OA
ATOM      7  H   UNL A   1      30.396  27.214  23.368  1.00  0.00     0.163 HD
BRANCH   5   8
ATOM      8  C   UNL A   1      32.418  24.543  23.576  1.00  0.00     0.067 C 
ATOM      9  C   UNL A   1      35.270  21.550  24.400  1.00  0.00    -0.002 A 
ATOM     10  C   UNL A   1      34.819  20.354  24.989  1.00  0.00     0.054 A 
ATOM     11  C   UNL A   1      34.318  22.541  24.100  1.00  0.00     0.131 A 
ATOM     12  C   UNL A   1      33.462  20.126  25.231  1.00  0.00     0.130 A 
ATOM     13  C   UNL A   1      32.964  22.341  24.385  1.00  0.00     0.021 A 
ATOM     14  O   UNL A   1      34.753  23.682  23.472  1.00  0.00    -0.475 OA
ATOM     15  C   UNL A   1      32.542  21.132  24.941  1.00  0.00     0.058 A 
ATOM     16  C   UNL A   1      31.984  23.355  24.020  1.00  0.00     0.025 C 
ATOM     17  C   UNL A   1      33.905  24.860  23.620  1.00  0.00     0.314 C 
BRANCH   9  18
ATOM     18  C   UNL A   1      36.731  21.804  24.070  1.00  0.00     0.039 C 
BRANCH  18  19
ATOM     19  C   UNL A   1      37.738  21.881  25.226  1.00  0.00     0.001 C 
ATOM     20  C   UNL A   1      37.659  23.177  26.024  1.00  0.00     0.004 C 
ENDBRANCH  18  19
ENDBRANCH   9  18
BRANCH  12  21
ATOM     21  O   UNL A   1      32.911  18.982  25.735  1.00  0.00    -0.406 OA
BRANCH  21  22
ATOM     22  C   UNL A   1      32.906  17.834  24.904  1.00  0.00     0.573 C 
ATOM     23  F   UNL A   1      34.145  17.315  24.766  1.00  0.00    -0.132 F 
ATOM     24  F   UNL A   1      32.074  16.890  25.395  1.00  0.00    -0.132 F 
ATOM     25  F   UNL A   1      32.462  18.187  23.677  1.00  0.00    -0.132 F 
ENDBRANCH  21  22
ENDBRANCH  12  21
BRANCH  17  26
ATOM     26  C   UNL A   1      34.314  25.644  24.884  1.00  0.00     0.429 C 
ATOM     27  F   UNL A   1      33.525  25.339  25.946  1.00  0.00    -0.167 F 
ATOM     28  F   UNL A   1      35.587  25.339  25.245  1.00  0.00    -0.167 F 
ATOM     29  F   UNL A   1      34.259  26.983  24.736  1.00  0.00    -0.167 F 
ENDBRANCH  17  26
ENDBRANCH   5   8
ENDBRANCH   3   4
ENDBRANCH   2   3
ENDBRANCH   1   2
BRANCH   1  30
ATOM     30  C   UNL A   1      33.317  28.451  27.401  1.00  0.00     0.116 C 
BRANCH  30  31
ATOM     31  N   UNL A   1      33.247  29.883  27.639  1.00  0.00    -0.352 N 
ATOM     32  C   UNL A   1      34.240  30.724  28.090  1.00  0.00     0.251 C 
ATOM     33  H   UNL A   1      32.378  30.308  27.456  1.00  0.00     0.163 HD
ATOM     34  O   UNL A   1      33.990  31.893  28.337  1.00  0.00    -0.269 OA
BRANCH  32  35
ATOM     35  C   UNL A   1      35.595  30.176  28.318  1.00  0.00     0.039 A 
ATOM     36  C   UNL A   1      36.513  30.211  27.267  1.00  0.00     0.014 A 
ATOM     37  C   UNL A   1      35.968  29.672  29.567  1.00  0.00     0.014 A 
ATOM     38  C   UNL A   1      37.828  29.800  27.490  1.00  0.00     0.010 A 
ATOM     39  C   UNL A   1      37.296  29.332  29.806  1.00  0.00     0.010 A 
ATOM     40  C   UNL A   1      38.239  29.392  28.770  1.00  0.00    -0.014 A 
BRANCH  40  41
ATOM     41  C   UNL A   1      39.658  29.045  29.037  1.00  0.00     0.031 A 
ATOM     42  C   UNL A   1      40.587  30.056  29.653  1.00  0.00     0.074 A 
ATOM     43  C   UNL A   1      40.119  27.831  28.680  1.00  0.00     0.049 A 
ATOM     44  N   UNL A   1      41.849  29.925  29.969  1.00  0.00    -0.248 NA
ATOM     45  C   UNL A   1      40.035  31.393  29.925  1.00  0.00     0.031 C 
ATOM     46  C   UNL A   1      39.331  26.787  28.016  1.00  0.00     0.029 A 
ATOM     47  N   UNL A   1      41.360  27.266  28.825  1.00  0.00    -0.354 N 
ATOM     48  C   UNL A   1      42.245  31.161  30.467  1.00  0.00     0.074 A 
ATOM     49  C   UNL A   1      41.104  32.044  30.359  1.00  0.00     0.031 C 
ATOM     50  C   UNL A   1      40.098  25.698  27.849  1.00  0.00     0.029 A 
ATOM     51  C   UNL A   1      41.435  25.973  28.363  1.00  0.00     0.049 A 
ATOM     52  H   UNL A   1      42.125  27.741  29.224  1.00  0.00     0.167 HD
ATOM     53  C   UNL A   1      43.442  31.522  30.988  1.00  0.00     0.031 A 
ATOM     54  C   UNL A   1      42.462  25.101  28.363  1.00  0.00     0.031 A 
ATOM     55  C   UNL A   1      44.571  30.638  31.102  1.00  0.00     0.049 A 
ATOM     56  C   UNL A   1      43.774  25.517  28.970  1.00  0.00     0.074 A 
ATOM     57  C   UNL A   1      45.809  30.890  31.666  1.00  0.00     0.029 A 
ATOM     58  N   UNL A   1      44.600  29.329  30.646  1.00  0.00    -0.354 N 
ATOM     59  N   UNL A   1      44.105  26.667  29.506  1.00  0.00    -0.248 NA
ATOM     60  C   UNL A   1      44.842  24.508  28.993  1.00  0.00     0.031 C 
ATOM     61  C   UNL A   1      46.602  29.748  31.511  1.00  0.00     0.029 A 
ATOM     62  C   UNL A   1      45.839  28.765  30.901  1.00  0.00     0.049 A 
ATOM     63  H   UNL A   1      43.849  28.868  30.203  1.00  0.00     0.167 HD
ATOM     64  C   UNL A   1      45.411  26.511  29.957  1.00  0.00     0.074 A 
ATOM     65  C   UNL A   1      45.802  25.151  29.644  1.00  0.00     0.031 C 
ATOM     66  C   UNL A   1      46.212  27.410  30.581  1.00  0.00     0.031 A 
BRANCH  53  67
ATOM     67  C   UNL A   1      43.588  32.941  31.474  1.00  0.00    -0.014 A 
ATOM     68  C   UNL A   1      43.937  33.978  30.589  1.00  0.00     0.010 A 
ATOM     69  C   UNL A   1      43.341  33.249  32.823  1.00  0.00     0.010 A 
ATOM     70  C   UNL A   1      44.081  35.288  31.054  1.00  0.00     0.020 A 
ATOM     71  C   UNL A   1      43.457  34.563  33.287  1.00  0.00     0.020 A 
ATOM     72  C   UNL A   1      43.845  35.571  32.402  1.00  0.00     0.054 A 
BRANCH  72  73
ATOM     73  S   UNL A   1      44.022  37.282  32.975  1.00  0.00     0.124 S 
ATOM     74  O   UNL A   1      45.303  37.234  33.674  1.00  0.00    -0.237 OA
ATOM     75  O   UNL A   1      44.017  38.041  31.726  1.00  0.00    -0.237 OA
ATOM     76  O   UNL A   1      42.853  37.486  33.828  1.00  0.00    -0.744 OA
ENDBRANCH  72  73
ENDBRANCH  53  67
BRANCH  54  77
ATOM     77  C   UNL A   1      42.275  23.735  27.803  1.00  0.00    -0.014 A 
ATOM     78  C   UNL A   1      42.522  23.481  26.442  1.00  0.00     0.010 A 
ATOM     79  C   UNL A   1      41.868  22.675  28.633  1.00  0.00     0.010 A 
ATOM     80  C   UNL A   1      42.348  22.198  25.917  1.00  0.00     0.020 A 
ATOM     81  C   UNL A   1      41.719  21.384  28.118  1.00  0.00     0.020 A 
ATOM     82  C   UNL A   1      41.949  21.156  26.759  1.00  0.00     0.054 A 
BRANCH  82  83
ATOM     83  S   UNL A   1      41.784  19.486  26.069  1.00  0.00     0.124 S 
ATOM     84  O   UNL A   1      42.304  18.658  27.153  1.00  0.00    -0.237 OA
ATOM     85  O   UNL A   1      40.347  19.385  25.828  1.00  0.00    -0.237 OA
ATOM     86  O   UNL A   1      42.608  19.533  24.863  1.00  0.00    -0.744 OA
ENDBRANCH  82  83
ENDBRANCH  54  77
BRANCH  66  87
ATOM     87  C   UNL A   1      47.578  26.940  31.002  1.00  0.00    -0.014 A 
ATOM     88  C   UNL A   1      48.721  27.233  30.237  1.00  0.00     0.010 A 
ATOM     89  C   UNL A   1      47.722  26.224  32.204  1.00  0.00     0.010 A 
ATOM     90  C   UNL A   1      49.979  26.781  30.647  1.00  0.00     0.020 A 
ATOM     91  C   UNL A   1      48.980  25.795  32.631  1.00  0.00     0.020 A 
ATOM     92  C   UNL A   1      50.099  26.061  31.839  1.00  0.00     0.054 A 
BRANCH  92  93
ATOM     93  S   UNL A   1      51.743  25.505  32.364  1.00  0.00     0.124 S 
ATOM     94  O   UNL A   1      52.547  25.766  31.173  1.00  0.00    -0.237 OA
ATOM     95  O   UNL A   1      52.023  26.364  33.512  1.00  0.00    -0.237 OA
ATOM     96  O   UNL A   1      51.545  24.092  32.685  1.00  0.00    -0.744 OA
ENDBRANCH  92  93
ENDBRANCH  66  87
ENDBRANCH  40  41
ENDBRANCH  32  35
ENDBRANCH  30  31
ENDBRANCH   1  30
TORSDOF 19
ENDMDL
MODEL 3
REMARK VINA RESULT:     -10.7      2.495      3.139
REMARK SMILES CCCc1cc(OC(F)(F)F)cc2c1O[C@H](C(F)(F)F)C(C(=O)NCCCCNC(=O)c1ccc(-c3c4nc(c(-c5ccc(S(=O)(=O)[O-])cc5)c5ccc([nH]5)c(-c5ccc(S(=O)(=O)[O-])cc5)c5nc(c(-c6ccc(S(=O)(=O)[O-])cc6)c6ccc3[nH]6)C=C5)C=C4)cc1)=C2
REMARK SMILES IDX 27 1 26 2 25 3 24 4 22 5 23 6 21 8 4 9 5 10 14 11 6 12 13 13
REMARK SMILES IDX 15 14 12 15 92 16 16 17 3 18 2 19 1 20 7 21 8 22 9 23 10 24
REMARK SMILES IDX 11 25 17 26 18 27 19 28 20 29 28 30 29 31 30 32 31 34 32 35
REMARK SMILES IDX 33 36 91 37 34 38 90 39 35 40 36 41 37 42 84 43 38 44 89 45
REMARK SMILES IDX 83 46 85 47 39 48 88 49 82 50 81 51 40 53 70 54 51 55 69 56
REMARK SMILES IDX 52 57 55 58 68 59 86 60 53 61 54 62 67 64 87 65 56 66 41 67
REMARK SMILES IDX 42 68 50 69 43 70 49 71 44 72 45 73 46 74 47 75 48 76 71 77
REMARK SMILES IDX 72 78 80 79 73 80 79 81 74 82 75 83 76 84 77 85 78 86 57 87
REMARK SMILES IDX 58 88 66 89 59 90 65 91 60 92 61 93 62 94 63 95 64 96
REMARK H PARENT 24 7 29 33 85 52 55 63
REMARK Flexibility Score: inf
ROOT
ATOM      1  C   UNL A   1      33.286  28.151  27.020  1.00  0.00     0.023 C 
ENDROOT
BRANCH   1   2
ATOM      2  C   UNL A   1      31.764  28.312  26.990  1.00  0.00     0.023 C 
BRANCH   2   3
ATOM      3  C   UNL A   1      31.024  27.179  26.273  1.00  0.00     0.116 C 
BRANCH   3   4
ATOM      4  N   UNL A   1      31.215  27.257  24.838  1.00  0.00    -0.352 N 
ATOM      5  C   UNL A   1      31.938  26.511  23.965  1.00  0.00     0.251 C 
ATOM      6  O   UNL A   1      31.830  26.780  22.768  1.00  0.00    -0.270 OA
ATOM      7  H   UNL A   1      30.722  27.996  24.414  1.00  0.00     0.163 HD
BRANCH   5   8
ATOM      8  C   UNL A   1      32.778  25.343  24.367  1.00  0.00     0.067 C 
ATOM      9  C   UNL A   1      34.570  21.925  26.063  1.00  0.00    -0.002 A 
ATOM     10  C   UNL A   1      35.974  21.840  26.045  1.00  0.00     0.054 A 
ATOM     11  C   UNL A   1      33.969  23.076  25.521  1.00  0.00     0.131 A 
ATOM     12  C   UNL A   1      36.762  22.881  25.548  1.00  0.00     0.130 A 
ATOM     13  C   UNL A   1      34.749  24.101  24.977  1.00  0.00     0.021 A 
ATOM     14  O   UNL A   1      32.601  23.182  25.594  1.00  0.00    -0.475 OA
ATOM     15  C   UNL A   1      36.141  24.002  25.000  1.00  0.00     0.058 A 
ATOM     16  C   UNL A   1      34.113  25.308  24.468  1.00  0.00     0.025 C 
ATOM     17  C   UNL A   1      31.975  24.078  24.627  1.00  0.00     0.314 C 
BRANCH   9  18
ATOM     18  C   UNL A   1      33.688  20.837  26.650  1.00  0.00     0.039 C 
BRANCH  18  19
ATOM     19  C   UNL A   1      33.037  19.828  25.693  1.00  0.00     0.001 C 
ATOM     20  C   UNL A   1      33.960  19.359  24.575  1.00  0.00     0.004 C 
ENDBRANCH  18  19
ENDBRANCH   9  18
BRANCH  12  21
ATOM     21  O   UNL A   1      38.127  22.931  25.542  1.00  0.00    -0.406 OA
BRANCH  21  22
ATOM     22  C   UNL A   1      38.761  23.720  26.534  1.00  0.00     0.573 C 
ATOM     23  F   UNL A   1      39.629  22.992  27.269  1.00  0.00    -0.132 F 
ATOM     24  F   UNL A   1      39.409  24.765  25.976  1.00  0.00    -0.132 F 
ATOM     25  F   UNL A   1      37.816  24.210  27.369  1.00  0.00    -0.132 F 
ENDBRANCH  21  22
ENDBRANCH  12  21
BRANCH  17  26
ATOM     26  C   UNL A   1      31.643  23.302  23.335  1.00  0.00     0.429 C 
ATOM     27  F   UNL A   1      31.726  21.960  23.515  1.00  0.00    -0.167 F 
ATOM     28  F   UNL A   1      30.372  23.564  22.933  1.00  0.00    -0.167 F 
ATOM     29  F   UNL A   1      32.451  23.601  22.297  1.00  0.00    -0.167 F 
ENDBRANCH  17  26
ENDBRANCH   5   8
ENDBRANCH   3   4
ENDBRANCH   2   3
ENDBRANCH   1   2
BRANCH   1  30
ATOM     30  C   UNL A   1      34.064  29.294  26.376  1.00  0.00     0.116 C 
BRANCH  30  31
ATOM     31  N   UNL A   1      33.752  30.596  26.942  1.00  0.00    -0.352 N 
ATOM     32  C   UNL A   1      34.448  31.301  27.898  1.00  0.00     0.251 C 
ATOM     33  H   UNL A   1      32.937  31.030  26.599  1.00  0.00     0.163 HD
ATOM     34  O   UNL A   1      33.996  32.343  28.344  1.00  0.00    -0.269 OA
BRANCH  32  35
ATOM     35  C   UNL A   1      35.722  30.750  28.409  1.00  0.00     0.039 A 
ATOM     36  C   UNL A   1      36.917  31.351  28.010  1.00  0.00     0.014 A 
ATOM     37  C   UNL A   1      35.736  29.678  29.305  1.00  0.00     0.014 A 
ATOM     38  C   UNL A   1      38.123  30.919  28.562  1.00  0.00     0.010 A 
ATOM     39  C   UNL A   1      36.930  29.297  29.909  1.00  0.00     0.010 A 
ATOM     40  C   UNL A   1      38.135  29.913  29.544  1.00  0.00    -0.014 A 
BRANCH  40  41
ATOM     41  C   UNL A   1      39.403  29.515  30.206  1.00  0.00     0.031 A 
ATOM     42  C   UNL A   1      39.880  30.236  31.437  1.00  0.00     0.074 A 
ATOM     43  C   UNL A   1      40.147  28.529  29.667  1.00  0.00     0.049 A 
ATOM     44  N   UNL A   1      40.952  30.017  32.154  1.00  0.00    -0.248 NA
ATOM     45  C   UNL A   1      39.063  31.365  31.910  1.00  0.00     0.031 C 
ATOM     46  C   UNL A   1      39.823  27.798  28.438  1.00  0.00     0.029 A 
ATOM     47  N   UNL A   1      41.330  27.971  30.082  1.00  0.00    -0.354 N 
ATOM     48  C   UNL A   1      40.943  30.983  33.153  1.00  0.00     0.074 A 
ATOM     49  C   UNL A   1      39.790  31.823  32.917  1.00  0.00     0.031 C 
ATOM     50  C   UNL A   1      40.763  26.862  28.223  1.00  0.00     0.029 A 
ATOM     51  C   UNL A   1      41.768  26.946  29.276  1.00  0.00     0.049 A 
ATOM     52  H   UNL A   1      41.818  28.275  30.881  1.00  0.00     0.167 HD
ATOM     53  C   UNL A   1      41.805  31.142  34.186  1.00  0.00     0.031 A 
ATOM     54  C   UNL A   1      42.854  26.155  29.379  1.00  0.00     0.031 A 
ATOM     55  C   UNL A   1      42.945  30.298  34.423  1.00  0.00     0.049 A 
ATOM     56  C   UNL A   1      43.781  26.334  30.550  1.00  0.00     0.074 A 
ATOM     57  C   UNL A   1      43.846  30.340  35.473  1.00  0.00     0.029 A 
ATOM     58  N   UNL A   1      43.341  29.255  33.599  1.00  0.00    -0.354 N 
ATOM     59  N   UNL A   1      43.713  27.206  31.528  1.00  0.00    -0.248 NA
ATOM     60  C   UNL A   1      44.917  25.408  30.642  1.00  0.00     0.031 C 
ATOM     61  C   UNL A   1      44.813  29.352  35.259  1.00  0.00     0.029 A 
ATOM     62  C   UNL A   1      44.482  28.657  34.107  1.00  0.00     0.049 A 
ATOM     63  H   UNL A   1      42.880  28.981  32.772  1.00  0.00     0.167 HD
ATOM     64  C   UNL A   1      44.781  26.913  32.368  1.00  0.00     0.074 A 
ATOM     65  C   UNL A   1      45.469  25.776  31.791  1.00  0.00     0.031 C 
ATOM     66  C   UNL A   1      45.155  27.527  33.519  1.00  0.00     0.031 A 
BRANCH  53  67
ATOM     67  C   UNL A   1      41.541  32.278  35.140  1.00  0.00    -0.014 A 
ATOM     68  C   UNL A   1      40.701  32.106  36.257  1.00  0.00     0.010 A 
ATOM     69  C   UNL A   1      42.164  33.522  34.940  1.00  0.00     0.010 A 
ATOM     70  C   UNL A   1      40.454  33.170  37.129  1.00  0.00     0.020 A 
ATOM     71  C   UNL A   1      41.942  34.582  35.826  1.00  0.00     0.020 A 
ATOM     72  C   UNL A   1      41.073  34.404  36.904  1.00  0.00     0.054 A 
BRANCH  72  73
ATOM     73  S   UNL A   1      40.749  35.762  38.061  1.00  0.00     0.124 S 
ATOM     74  O   UNL A   1      39.853  36.613  37.281  1.00  0.00    -0.237 OA
ATOM     75  O   UNL A   1      40.134  35.078  39.196  1.00  0.00    -0.237 OA
ATOM     76  O   UNL A   1      42.073  36.322  38.318  1.00  0.00    -0.744 OA
ENDBRANCH  72  73
ENDBRANCH  53  67
BRANCH  54  77
ATOM     77  C   UNL A   1      43.096  25.094  28.364  1.00  0.00    -0.014 A 
ATOM     78  C   UNL A   1      43.864  25.367  27.218  1.00  0.00     0.010 A 
ATOM     79  C   UNL A   1      42.579  23.800  28.548  1.00  0.00     0.010 A 
ATOM     80  C   UNL A   1      44.095  24.370  26.265  1.00  0.00     0.020 A 
ATOM     81  C   UNL A   1      42.829  22.793  27.611  1.00  0.00     0.020 A 
ATOM     82  C   UNL A   1      43.576  23.089  26.469  1.00  0.00     0.054 A 
BRANCH  82  83
ATOM     83  S   UNL A   1      43.934  21.795  25.248  1.00  0.00     0.124 S 
ATOM     84  O   UNL A   1      43.732  22.504  23.988  1.00  0.00    -0.237 OA
ATOM     85  O   UNL A   1      45.315  21.438  25.560  1.00  0.00    -0.237 OA
ATOM     86  O   UNL A   1      42.948  20.759  25.550  1.00  0.00    -0.744 OA
ENDBRANCH  82  83
ENDBRANCH  54  77
BRANCH  66  87
ATOM     87  C   UNL A   1      46.340  26.955  34.250  1.00  0.00    -0.014 A 
ATOM     88  C   UNL A   1      46.188  25.938  35.209  1.00  0.00     0.010 A 
ATOM     89  C   UNL A   1      47.631  27.422  33.943  1.00  0.00     0.010 A 
ATOM     90  C   UNL A   1      47.304  25.428  35.879  1.00  0.00     0.020 A 
ATOM     91  C   UNL A   1      48.750  26.894  34.590  1.00  0.00     0.020 A 
ATOM     92  C   UNL A   1      48.577  25.913  35.568  1.00  0.00     0.054 A 
BRANCH  92  93
ATOM     93  S   UNL A   1      50.013  25.219  36.432  1.00  0.00     0.124 S 
ATOM     94  O   UNL A   1      49.821  23.785  36.236  1.00  0.00    -0.237 OA
ATOM     95  O   UNL A   1      51.138  25.807  35.709  1.00  0.00    -0.237 OA
ATOM     96  O   UNL A   1      49.850  25.688  37.806  1.00  0.00    -0.744 OA
ENDBRANCH  92  93
ENDBRANCH  66  87
ENDBRANCH  40  41
ENDBRANCH  32  35
ENDBRANCH  30  31
ENDBRANCH   1  30
TORSDOF 19
ENDMDL
