MODEL 1
REMARK VINA RESULT:     -12.7      0.000      0.000
REMARK SMILES Cc1ccc(-c2cc(Cl)cc3c2O[C@H](C(F)(F)F)C(C(=O)NCCCCNC(=O)c2ccc(-c4c5nc(c(-c6ccc(S(=O)(=O)[O-])cc6)c6ccc([nH]6)c(-c6ccc(S(=O)(=O)[O-])cc6)c6nc(c(-c7ccc(S(=O)(=O)[O-])cc7)c7ccc4[nH]7)C=C6)C=C5)cc2)=C3)cc1F
REMARK SMILES IDX 25 1 24 2 23 3 22 4 20 5 21 6 19 8 6 9 7 10 12 11 8 12 11 13
REMARK SMILES IDX 13 14 9 15 10 16 90 17 14 18 5 19 1 20 2 21 3 22 92 23 4 24
REMARK SMILES IDX 91 25 93 26 15 27 16 28 17 29 18 30 26 31 27 32 28 33 29 35
REMARK SMILES IDX 30 36 31 37 89 38 32 39 88 40 33 41 34 42 35 43 82 44 36 45
REMARK SMILES IDX 87 46 81 47 83 48 37 49 86 50 80 51 79 52 38 54 68 55 49 56
REMARK SMILES IDX 67 57 50 58 53 59 66 60 84 61 51 62 52 63 65 65 85 66 54 67
REMARK SMILES IDX 39 68 40 69 48 70 41 71 47 72 42 73 43 74 44 75 45 76 46 77
REMARK SMILES IDX 69 78 70 79 78 80 71 81 77 82 72 83 73 84 74 85 75 86 76 87
REMARK SMILES IDX 55 88 56 89 64 90 57 91 63 92 58 93 59 94 60 95 61 96 62 97
REMARK H PARENT 22 7 27 34 83 53 53 64
REMARK Flexibility Score: inf
ROOT
ATOM      1  C   UNL A   1      32.632  28.584  26.626  1.00  0.00     0.023 C 
ENDROOT
BRANCH   1   2
ATOM      2  C   UNL A   1      32.667  28.436  25.102  1.00  0.00     0.023 C 
BRANCH   2   3
ATOM      3  C   UNL A   1      34.013  27.983  24.541  1.00  0.00     0.116 C 
BRANCH   3   4
ATOM      4  N   UNL A   1      33.922  27.574  23.149  1.00  0.00    -0.352 N 
ATOM      5  C   UNL A   1      33.621  26.441  22.468  1.00  0.00     0.251 C 
ATOM      6  O   UNL A   1      33.653  26.538  21.237  1.00  0.00    -0.270 OA
ATOM      7  H   UNL A   1      34.135  28.316  22.539  1.00  0.00     0.163 HD
BRANCH   5   8
ATOM      8  C   UNL A   1      33.268  25.130  23.088  1.00  0.00     0.067 C 
ATOM      9  C   UNL A   1      32.046  21.449  24.734  1.00  0.00     0.026 A 
ATOM     10  C   UNL A   1      31.079  21.451  25.750  1.00  0.00     0.033 A 
ATOM     11  C   UNL A   1      32.388  22.681  24.142  1.00  0.00     0.135 A 
ATOM     12  C   UNL A   1      30.483  22.649  26.154  1.00  0.00     0.042 A 
ATOM     13  C   UNL A   1      31.797  23.883  24.551  1.00  0.00     0.019 A 
ATOM     14  O   UNL A   1      33.281  22.656  23.101  1.00  0.00    -0.475 OA
ATOM     15  Cl  UNL A   1      29.295  22.624  27.400  1.00  0.00    -0.084 Cl
ATOM     16  C   UNL A   1      30.836  23.862  25.561  1.00  0.00     0.032 A 
ATOM     17  C   UNL A   1      32.182  25.126  23.886  1.00  0.00     0.025 C 
ATOM     18  C   UNL A   1      34.054  23.867  22.897  1.00  0.00     0.314 C 
BRANCH   9  19
ATOM     19  C   UNL A   1      32.698  20.201  24.309  1.00  0.00    -0.012 A 
ATOM     20  C   UNL A   1      34.345  16.334  23.290  1.00  0.00     0.047 C 
ATOM     21  C   UNL A   1      33.815  17.694  23.626  1.00  0.00    -0.015 A 
ATOM     22  C   UNL A   1      34.397  18.480  24.627  1.00  0.00     0.007 A 
ATOM     23  C   UNL A   1      32.693  18.187  22.957  1.00  0.00     0.126 A 
ATOM     24  C   UNL A   1      33.844  19.721  24.962  1.00  0.00     0.009 A 
ATOM     25  C   UNL A   1      32.141  19.421  23.284  1.00  0.00     0.048 A 
ATOM     26  F   UNL A   1      32.117  17.453  21.995  1.00  0.00    -0.207 F 
ENDBRANCH   9  19
BRANCH  18  27
ATOM     27  C   UNL A   1      35.329  23.814  23.759  1.00  0.00     0.429 C 
ATOM     28  F   UNL A   1      35.358  22.672  24.492  1.00  0.00    -0.167 F 
ATOM     29  F   UNL A   1      36.460  23.827  23.018  1.00  0.00    -0.167 F 
ATOM     30  F   UNL A   1      35.414  24.848  24.628  1.00  0.00    -0.167 F 
ENDBRANCH  18  27
ENDBRANCH   5   8
ENDBRANCH   3   4
ENDBRANCH   2   3
ENDBRANCH   1   2
BRANCH   1  31
ATOM     31  C   UNL A   1      33.970  28.917  27.285  1.00  0.00     0.116 C 
BRANCH  31  32
ATOM     32  N   UNL A   1      33.994  30.187  28.000  1.00  0.00    -0.352 N 
ATOM     33  C   UNL A   1      35.057  30.747  28.680  1.00  0.00     0.251 C 
ATOM     34  H   UNL A   1      33.156  30.705  27.999  1.00  0.00     0.163 HD
ATOM     35  O   UNL A   1      34.920  31.792  29.308  1.00  0.00    -0.269 OA
BRANCH  33  36
ATOM     36  C   UNL A   1      36.346  30.024  28.688  1.00  0.00     0.039 A 
ATOM     37  C   UNL A   1      36.790  29.402  29.854  1.00  0.00     0.014 A 
ATOM     38  C   UNL A   1      37.166  30.081  27.557  1.00  0.00     0.014 A 
ATOM     39  C   UNL A   1      38.120  29.018  29.955  1.00  0.00     0.010 A 
ATOM     40  C   UNL A   1      38.481  29.615  27.635  1.00  0.00     0.010 A 
ATOM     41  C   UNL A   1      38.991  29.148  28.857  1.00  0.00    -0.014 A 
BRANCH  41  42
ATOM     42  C   UNL A   1      40.433  28.840  29.046  1.00  0.00     0.031 A 
ATOM     43  C   UNL A   1      40.995  27.505  28.627  1.00  0.00     0.074 A 
ATOM     44  C   UNL A   1      41.261  29.812  29.475  1.00  0.00     0.049 A 
ATOM     45  N   UNL A   1      42.244  27.114  28.597  1.00  0.00    -0.248 NA
ATOM     46  C   UNL A   1      40.038  26.477  28.182  1.00  0.00     0.031 C 
ATOM     47  C   UNL A   1      40.836  31.155  29.876  1.00  0.00     0.029 A 
ATOM     48  N   UNL A   1      42.629  29.847  29.582  1.00  0.00    -0.354 N 
ATOM     49  C   UNL A   1      42.223  25.801  28.138  1.00  0.00     0.074 A 
ATOM     50  C   UNL A   1      40.836  25.447  27.935  1.00  0.00     0.031 C 
ATOM     51  C   UNL A   1      41.923  31.910  30.088  1.00  0.00     0.029 A 
ATOM     52  C   UNL A   1      43.119  31.093  29.899  1.00  0.00     0.049 A 
ATOM     53  H   UNL A   1      43.203  29.059  29.445  1.00  0.00     0.167 HD
ATOM     54  C   UNL A   1      43.265  24.970  27.894  1.00  0.00     0.031 A 
ATOM     55  C   UNL A   1      44.385  31.541  30.004  1.00  0.00     0.031 A 
ATOM     56  C   UNL A   1      44.645  25.323  28.095  1.00  0.00     0.049 A 
ATOM     57  C   UNL A   1      45.524  30.598  29.747  1.00  0.00     0.074 A 
ATOM     58  C   UNL A   1      45.768  24.532  27.922  1.00  0.00     0.029 A 
ATOM     59  N   UNL A   1      45.094  26.574  28.493  1.00  0.00    -0.354 N 
ATOM     60  N   UNL A   1      45.479  29.344  29.367  1.00  0.00    -0.248 NA
ATOM     61  C   UNL A   1      46.882  31.126  29.934  1.00  0.00     0.031 C 
ATOM     62  C   UNL A   1      46.894  25.295  28.247  1.00  0.00     0.029 A 
ATOM     63  C   UNL A   1      46.476  26.576  28.569  1.00  0.00     0.049 A 
ATOM     64  H   UNL A   1      44.516  27.345  28.692  1.00  0.00     0.167 HD
ATOM     65  C   UNL A   1      46.803  28.935  29.257  1.00  0.00     0.074 A 
ATOM     66  C   UNL A   1      47.624  30.079  29.595  1.00  0.00     0.031 C 
ATOM     67  C   UNL A   1      47.287  27.718  28.909  1.00  0.00     0.031 A 
BRANCH  54  68
ATOM     68  C   UNL A   1      42.958  23.587  27.385  1.00  0.00    -0.014 A 
ATOM     69  C   UNL A   1      42.396  22.628  28.249  1.00  0.00     0.010 A 
ATOM     70  C   UNL A   1      43.296  23.209  26.074  1.00  0.00     0.010 A 
ATOM     71  C   UNL A   1      42.189  21.316  27.817  1.00  0.00     0.020 A 
ATOM     72  C   UNL A   1      43.068  21.902  25.630  1.00  0.00     0.020 A 
ATOM     73  C   UNL A   1      42.531  20.960  26.510  1.00  0.00     0.054 A 
BRANCH  73  74
ATOM     74  S   UNL A   1      42.237  19.258  25.952  1.00  0.00     0.124 S 
ATOM     75  O   UNL A   1      43.034  19.191  24.732  1.00  0.00    -0.237 OA
ATOM     76  O   UNL A   1      42.731  18.461  27.073  1.00  0.00    -0.237 OA
ATOM     77  O   UNL A   1      40.790  19.211  25.761  1.00  0.00    -0.744 OA
ENDBRANCH  73  74
ENDBRANCH  54  68
BRANCH  55  78
ATOM     78  C   UNL A   1      44.614  32.978  30.313  1.00  0.00    -0.014 A 
ATOM     79  C   UNL A   1      44.865  33.393  31.633  1.00  0.00     0.010 A 
ATOM     80  C   UNL A   1      44.468  33.947  29.305  1.00  0.00     0.010 A 
ATOM     81  C   UNL A   1      44.899  34.752  31.954  1.00  0.00     0.020 A 
ATOM     82  C   UNL A   1      44.529  35.309  29.617  1.00  0.00     0.020 A 
ATOM     83  C   UNL A   1      44.710  35.700  30.946  1.00  0.00     0.054 A 
BRANCH  83  84
ATOM     84  S   UNL A   1      44.686  37.458  31.393  1.00  0.00     0.124 S 
ATOM     85  O   UNL A   1      44.580  38.096  30.083  1.00  0.00    -0.237 OA
ATOM     86  O   UNL A   1      43.499  37.560  32.239  1.00  0.00    -0.237 OA
ATOM     87  O   UNL A   1      45.958  37.651  32.084  1.00  0.00    -0.744 OA
ENDBRANCH  83  84
ENDBRANCH  55  78
BRANCH  67  88
ATOM     88  C   UNL A   1      48.780  27.540  28.861  1.00  0.00    -0.014 A 
ATOM     89  C   UNL A   1      49.433  27.483  27.617  1.00  0.00     0.010 A 
ATOM     90  C   UNL A   1      49.518  27.315  30.037  1.00  0.00     0.010 A 
ATOM     91  C   UNL A   1      50.795  27.183  27.544  1.00  0.00     0.020 A 
ATOM     92  C   UNL A   1      50.886  27.036  29.969  1.00  0.00     0.020 A 
ATOM     93  C   UNL A   1      51.510  26.951  28.721  1.00  0.00     0.054 A 
BRANCH  93  94
ATOM     94  S   UNL A   1      53.276  26.548  28.613  1.00  0.00     0.124 S 
ATOM     95  O   UNL A   1      53.311  25.626  27.482  1.00  0.00    -0.237 OA
ATOM     96  O   UNL A   1      53.894  27.852  28.382  1.00  0.00    -0.237 OA
ATOM     97  O   UNL A   1      53.569  25.953  29.915  1.00  0.00    -0.744 OA
ENDBRANCH  93  94
ENDBRANCH  67  88
ENDBRANCH  41  42
ENDBRANCH  33  36
ENDBRANCH  31  32
ENDBRANCH   1  31
TORSDOF 16
ENDMDL
MODEL 2
REMARK VINA RESULT:     -12.1      1.765      2.253
REMARK SMILES Cc1ccc(-c2cc(Cl)cc3c2O[C@H](C(F)(F)F)C(C(=O)NCCCCNC(=O)c2ccc(-c4c5nc(c(-c6ccc(S(=O)(=O)[O-])cc6)c6ccc([nH]6)c(-c6ccc(S(=O)(=O)[O-])cc6)c6nc(c(-c7ccc(S(=O)(=O)[O-])cc7)c7ccc4[nH]7)C=C6)C=C5)cc2)=C3)cc1F
REMARK SMILES IDX 25 1 24 2 23 3 22 4 20 5 21 6 19 8 6 9 7 10 12 11 8 12 11 13
REMARK SMILES IDX 13 14 9 15 10 16 90 17 14 18 5 19 1 20 2 21 3 22 92 23 4 24
REMARK SMILES IDX 91 25 93 26 15 27 16 28 17 29 18 30 26 31 27 32 28 33 29 35
REMARK SMILES IDX 30 36 31 37 89 38 32 39 88 40 33 41 34 42 35 43 82 44 36 45
REMARK SMILES IDX 87 46 81 47 83 48 37 49 86 50 80 51 79 52 38 54 68 55 49 56
REMARK SMILES IDX 67 57 50 58 53 59 66 60 84 61 51 62 52 63 65 65 85 66 54 67
REMARK SMILES IDX 39 68 40 69 48 70 41 71 47 72 42 73 43 74 44 75 45 76 46 77
REMARK SMILES IDX 69 78 70 79 78 80 71 81 77 82 72 83 73 84 74 85 75 86 76 87
REMARK SMILES IDX 55 88 56 89 64 90 57 91 63 92 58 93 59 94 60 95 61 96 62 97
REMARK H PARENT 22 7 27 34 83 53 53 64
REMARK Flexibility Score: inf
ROOT
ATOM      1  C   UNL A   1      33.619  28.798  27.314  1.00  0.00     0.023 C 
ENDROOT
BRANCH   1   2
ATOM      2  C   UNL A   1      32.098  28.791  27.133  1.00  0.00     0.023 C 
BRANCH   2   3
ATOM      3  C   UNL A   1      31.452  27.413  27.256  1.00  0.00     0.116 C 
BRANCH   3   4
ATOM      4  N   UNL A   1      30.753  27.020  26.043  1.00  0.00    -0.352 N 
ATOM      5  C   UNL A   1      30.829  26.013  25.139  1.00  0.00     0.251 C 
ATOM      6  O   UNL A   1      30.000  26.056  24.226  1.00  0.00    -0.270 OA
ATOM      7  H   UNL A   1      30.035  27.653  25.819  1.00  0.00     0.163 HD
BRANCH   5   8
ATOM      8  C   UNL A   1      31.818  24.895  25.176  1.00  0.00     0.067 C 
ATOM      9  C   UNL A   1      34.653  21.797  25.517  1.00  0.00     0.026 A 
ATOM     10  C   UNL A   1      36.009  22.133  25.643  1.00  0.00     0.033 A 
ATOM     11  C   UNL A   1      33.712  22.844  25.481  1.00  0.00     0.135 A 
ATOM     12  C   UNL A   1      36.399  23.472  25.726  1.00  0.00     0.042 A 
ATOM     13  C   UNL A   1      34.101  24.187  25.556  1.00  0.00     0.019 A 
ATOM     14  O   UNL A   1      32.385  22.499  25.431  1.00  0.00    -0.475 OA
ATOM     15  Cl  UNL A   1      38.069  23.858  25.884  1.00  0.00    -0.084 Cl
ATOM     16  C   UNL A   1      35.455  24.499  25.684  1.00  0.00     0.032 A 
ATOM     17  C   UNL A   1      33.075  25.226  25.530  1.00  0.00     0.025 C 
ATOM     18  C   UNL A   1      31.498  23.473  24.821  1.00  0.00     0.314 C 
BRANCH   9  19
ATOM     19  C   UNL A   1      34.226  20.393  25.410  1.00  0.00    -0.012 A 
ATOM     20  C   UNL A   1      32.799  16.366  24.742  1.00  0.00     0.047 C 
ATOM     21  C   UNL A   1      33.301  17.749  25.020  1.00  0.00    -0.015 A 
ATOM     22  C   UNL A   1      32.590  18.636  25.836  1.00  0.00     0.007 A 
ATOM     23  C   UNL A   1      34.486  18.190  24.428  1.00  0.00     0.126 A 
ATOM     24  C   UNL A   1      33.051  19.943  26.031  1.00  0.00     0.009 A 
ATOM     25  C   UNL A   1      34.950  19.487  24.619  1.00  0.00     0.048 A 
ATOM     26  F   UNL A   1      35.185  17.361  23.641  1.00  0.00    -0.207 F 
ENDBRANCH   9  19
BRANCH  18  27
ATOM     27  C   UNL A   1      31.435  23.230  23.302  1.00  0.00     0.429 C 
ATOM     28  F   UNL A   1      30.165  23.380  22.850  1.00  0.00    -0.167 F 
ATOM     29  F   UNL A   1      32.200  24.100  22.603  1.00  0.00    -0.167 F 
ATOM     30  F   UNL A   1      31.837  21.985  22.956  1.00  0.00    -0.167 F 
ENDBRANCH  18  27
ENDBRANCH   5   8
ENDBRANCH   3   4
ENDBRANCH   2   3
ENDBRANCH   1   2
BRANCH   1  31
ATOM     31  C   UNL A   1      34.297  30.155  27.138  1.00  0.00     0.116 C 
BRANCH  31  32
ATOM     32  N   UNL A   1      34.205  31.035  28.296  1.00  0.00    -0.352 N 
ATOM     33  C   UNL A   1      35.141  31.208  29.295  1.00  0.00     0.251 C 
ATOM     34  H   UNL A   1      33.379  31.567  28.375  1.00  0.00     0.163 HD
ATOM     35  O   UNL A   1      34.903  31.927  30.261  1.00  0.00    -0.269 OA
BRANCH  33  36
ATOM     36  C   UNL A   1      36.409  30.455  29.209  1.00  0.00     0.039 A 
ATOM     37  C   UNL A   1      36.922  29.820  30.339  1.00  0.00     0.014 A 
ATOM     38  C   UNL A   1      37.145  30.494  28.020  1.00  0.00     0.014 A 
ATOM     39  C   UNL A   1      38.247  29.404  30.342  1.00  0.00     0.010 A 
ATOM     40  C   UNL A   1      38.451  29.997  28.002  1.00  0.00     0.010 A 
ATOM     41  C   UNL A   1      39.038  29.515  29.183  1.00  0.00    -0.014 A 
BRANCH  41  42
ATOM     42  C   UNL A   1      40.482  29.173  29.266  1.00  0.00     0.031 A 
ATOM     43  C   UNL A   1      40.976  27.817  28.829  1.00  0.00     0.074 A 
ATOM     44  C   UNL A   1      41.365  30.130  29.611  1.00  0.00     0.049 A 
ATOM     45  N   UNL A   1      42.209  27.393  28.710  1.00  0.00    -0.248 NA
ATOM     46  C   UNL A   1      39.963  26.807  28.479  1.00  0.00     0.031 C 
ATOM     47  C   UNL A   1      41.006  31.490  30.019  1.00  0.00     0.029 A 
ATOM     48  N   UNL A   1      42.738  30.131  29.612  1.00  0.00    -0.354 N 
ATOM     49  C   UNL A   1      42.120  26.074  28.279  1.00  0.00     0.074 A 
ATOM     50  C   UNL A   1      40.713  25.753  28.190  1.00  0.00     0.031 C 
ATOM     51  C   UNL A   1      42.125  32.220  30.133  1.00  0.00     0.029 A 
ATOM     52  C   UNL A   1      43.282  31.368  29.866  1.00  0.00     0.049 A 
ATOM     53  H   UNL A   1      43.279  29.326  29.445  1.00  0.00     0.167 HD
ATOM     54  C   UNL A   1      43.118  25.211  27.970  1.00  0.00     0.031 A 
ATOM     55  C   UNL A   1      44.563  31.784  29.865  1.00  0.00     0.031 A 
ATOM     56  C   UNL A   1      44.519  25.532  28.058  1.00  0.00     0.049 A 
ATOM     57  C   UNL A   1      45.654  30.808  29.538  1.00  0.00     0.074 A 
ATOM     58  C   UNL A   1      45.605  24.709  27.813  1.00  0.00     0.029 A 
ATOM     59  N   UNL A   1      45.028  26.776  28.396  1.00  0.00    -0.354 N 
ATOM     60  N   UNL A   1      45.549  29.549  29.186  1.00  0.00    -0.248 NA
ATOM     61  C   UNL A   1      47.035  31.303  29.610  1.00  0.00     0.031 C 
ATOM     62  C   UNL A   1      46.771  25.447  28.035  1.00  0.00     0.029 A 
ATOM     63  C   UNL A   1      46.412  26.743  28.364  1.00  0.00     0.049 A 
ATOM     64  H   UNL A   1      44.486  27.566  28.624  1.00  0.00     0.167 HD
ATOM     65  C   UNL A   1      46.849  29.104  28.981  1.00  0.00     0.074 A 
ATOM     66  C   UNL A   1      47.723  30.232  29.234  1.00  0.00     0.031 C 
ATOM     67  C   UNL A   1      47.274  27.870  28.620  1.00  0.00     0.031 A 
BRANCH  54  68
ATOM     68  C   UNL A   1      42.738  23.828  27.513  1.00  0.00    -0.014 A 
ATOM     69  C   UNL A   1      42.524  22.809  28.459  1.00  0.00     0.010 A 
ATOM     70  C   UNL A   1      42.668  23.515  26.143  1.00  0.00     0.010 A 
ATOM     71  C   UNL A   1      42.259  21.500  28.046  1.00  0.00     0.020 A 
ATOM     72  C   UNL A   1      42.379  22.212  25.726  1.00  0.00     0.020 A 
ATOM     73  C   UNL A   1      42.194  21.209  26.681  1.00  0.00     0.054 A 
BRANCH  73  74
ATOM     74  S   UNL A   1      41.827  19.511  26.157  1.00  0.00     0.124 S 
ATOM     75  O   UNL A   1      42.676  19.361  24.979  1.00  0.00    -0.237 OA
ATOM     76  O   UNL A   1      42.218  18.721  27.322  1.00  0.00    -0.237 OA
ATOM     77  O   UNL A   1      40.390  19.541  25.895  1.00  0.00    -0.744 OA
ENDBRANCH  73  74
ENDBRANCH  54  68
BRANCH  55  78
ATOM     78  C   UNL A   1      44.851  33.220  30.128  1.00  0.00    -0.014 A 
ATOM     79  C   UNL A   1      45.012  33.686  31.446  1.00  0.00     0.010 A 
ATOM     80  C   UNL A   1      44.850  34.145  29.069  1.00  0.00     0.010 A 
ATOM     81  C   UNL A   1      45.101  35.054  31.707  1.00  0.00     0.020 A 
ATOM     82  C   UNL A   1      44.966  35.514  29.325  1.00  0.00     0.020 A 
ATOM     83  C   UNL A   1      45.056  35.961  30.645  1.00  0.00     0.054 A 
BRANCH  83  84
ATOM     84  S   UNL A   1      45.099  37.738  31.010  1.00  0.00     0.124 S 
ATOM     85  O   UNL A   1      44.161  37.834  32.125  1.00  0.00    -0.237 OA
ATOM     86  O   UNL A   1      46.503  37.964  31.346  1.00  0.00    -0.237 OA
ATOM     87  O   UNL A   1      44.654  38.351  29.761  1.00  0.00    -0.744 OA
ENDBRANCH  83  84
ENDBRANCH  55  78
BRANCH  67  88
ATOM     88  C   UNL A   1      48.754  27.651  28.460  1.00  0.00    -0.014 A 
ATOM     89  C   UNL A   1      49.336  27.739  27.182  1.00  0.00     0.010 A 
ATOM     90  C   UNL A   1      49.546  27.248  29.550  1.00  0.00     0.010 A 
ATOM     91  C   UNL A   1      50.678  27.408  26.990  1.00  0.00     0.020 A 
ATOM     92  C   UNL A   1      50.896  26.937  29.364  1.00  0.00     0.020 A 
ATOM     93  C   UNL A   1      51.447  26.998  28.081  1.00  0.00     0.054 A 
BRANCH  93  94
ATOM     94  S   UNL A   1      53.187  26.557  27.816  1.00  0.00     0.124 S 
ATOM     95  O   UNL A   1      53.734  27.791  27.259  1.00  0.00    -0.237 OA
ATOM     96  O   UNL A   1      53.646  26.215  29.161  1.00  0.00    -0.237 OA
ATOM     97  O   UNL A   1      53.114  25.430  26.888  1.00  0.00    -0.744 OA
ENDBRANCH  93  94
ENDBRANCH  67  88
ENDBRANCH  41  42
ENDBRANCH  33  36
ENDBRANCH  31  32
ENDBRANCH   1  31
TORSDOF 16
ENDMDL
MODEL 3
REMARK VINA RESULT:     -12.1      2.565      8.334
REMARK SMILES Cc1ccc(-c2cc(Cl)cc3c2O[C@H](C(F)(F)F)C(C(=O)NCCCCNC(=O)c2ccc(-c4c5nc(c(-c6ccc(S(=O)(=O)[O-])cc6)c6ccc([nH]6)c(-c6ccc(S(=O)(=O)[O-])cc6)c6nc(c(-c7ccc(S(=O)(=O)[O-])cc7)c7ccc4[nH]7)C=C6)C=C5)cc2)=C3)cc1F
REMARK SMILES IDX 25 1 24 2 23 3 22 4 20 5 21 6 19 8 6 9 7 10 12 11 8 12 11 13
REMARK SMILES IDX 13 14 9 15 10 16 90 17 14 18 5 19 1 20 2 21 3 22 92 23 4 24
REMARK SMILES IDX 91 25 93 26 15 27 16 28 17 29 18 30 26 31 27 32 28 33 29 35
REMARK SMILES IDX 30 36 31 37 89 38 32 39 88 40 33 41 34 42 35 43 82 44 36 45
REMARK SMILES IDX 87 46 81 47 83 48 37 49 86 50 80 51 79 52 38 54 68 55 49 56
REMARK SMILES IDX 67 57 50 58 53 59 66 60 84 61 51 62 52 63 65 65 85 66 54 67
REMARK SMILES IDX 39 68 40 69 48 70 41 71 47 72 42 73 43 74 44 75 45 76 46 77
REMARK SMILES IDX 69 78 70 79 78 80 71 81 77 82 72 83 73 84 74 85 75 86 76 87
REMARK SMILES IDX 55 88 56 89 64 90 57 91 63 92 58 93 59 94 60 95 61 96 62 97
REMARK H PARENT 22 7 27 34 83 53 53 64
REMARK Flexibility Score: inf
ROOT
ATOM      1  C   UNL A   1      33.597  29.034  27.115  1.00  0.00     0.023 C 
ENDROOT
BRANCH   1   2
ATOM      2  C   UNL A   1      32.146  28.741  26.722  1.00  0.00     0.023 C 
BRANCH   2   3
ATOM      3  C   UNL A   1      31.574  27.459  27.323  1.00  0.00     0.116 C 
BRANCH   3   4
ATOM      4  N   UNL A   1      30.556  26.858  26.477  1.00  0.00    -0.352 N 
ATOM      5  C   UNL A   1      30.437  25.749  25.708  1.00  0.00     0.251 C 
ATOM      6  O   UNL A   1      29.348  25.609  25.143  1.00  0.00    -0.270 OA
ATOM      7  H   UNL A   1      29.736  27.401  26.457  1.00  0.00     0.163 HD
BRANCH   5   8
ATOM      8  C   UNL A   1      31.501  24.722  25.505  1.00  0.00     0.067 C 
ATOM      9  C   UNL A   1      34.555  21.837  25.178  1.00  0.00     0.026 A 
ATOM     10  C   UNL A   1      35.887  22.242  25.342  1.00  0.00     0.033 A 
ATOM     11  C   UNL A   1      33.542  22.798  25.366  1.00  0.00     0.135 A 
ATOM     12  C   UNL A   1      36.186  23.565  25.679  1.00  0.00     0.042 A 
ATOM     13  C   UNL A   1      33.839  24.126  25.696  1.00  0.00     0.019 A 
ATOM     14  O   UNL A   1      32.241  22.372  25.274  1.00  0.00    -0.475 OA
ATOM     15  Cl  UNL A   1      37.830  24.036  25.879  1.00  0.00    -0.084 Cl
ATOM     16  C   UNL A   1      35.171  24.507  25.857  1.00  0.00     0.032 A 
ATOM     17  C   UNL A   1      32.743  25.071  25.894  1.00  0.00     0.025 C 
ATOM     18  C   UNL A   1      31.269  23.376  24.884  1.00  0.00     0.314 C 
BRANCH   9  19
ATOM     19  C   UNL A   1      34.223  20.453  24.805  1.00  0.00    -0.012 A 
ATOM     20  C   UNL A   1      33.455  16.447  23.368  1.00  0.00     0.047 C 
ATOM     21  C   UNL A   1      33.685  17.829  23.898  1.00  0.00    -0.015 A 
ATOM     22  C   UNL A   1      32.736  18.844  23.732  1.00  0.00     0.007 A 
ATOM     23  C   UNL A   1      34.884  18.135  24.543  1.00  0.00     0.126 A 
ATOM     24  C   UNL A   1      33.003  20.142  24.185  1.00  0.00     0.009 A 
ATOM     25  C   UNL A   1      35.154  19.422  24.997  1.00  0.00     0.048 A 
ATOM     26  F   UNL A   1      35.810  17.180  24.713  1.00  0.00    -0.207 F 
ENDBRANCH   9  19
BRANCH  18  27
ATOM     27  C   UNL A   1      31.174  23.430  23.348  1.00  0.00     0.429 C 
ATOM     28  F   UNL A   1      32.033  24.356  22.852  1.00  0.00    -0.167 F 
ATOM     29  F   UNL A   1      31.494  22.252  22.764  1.00  0.00    -0.167 F 
ATOM     30  F   UNL A   1      29.936  23.761  22.914  1.00  0.00    -0.167 F 
ENDBRANCH  18  27
ENDBRANCH   5   8
ENDBRANCH   3   4
ENDBRANCH   2   3
ENDBRANCH   1   2
BRANCH   1  31
ATOM     31  C   UNL A   1      34.064  30.471  26.885  1.00  0.00     0.116 C 
BRANCH  31  32
ATOM     32  N   UNL A   1      33.945  31.341  28.049  1.00  0.00    -0.352 N 
ATOM     33  C   UNL A   1      34.837  31.473  29.093  1.00  0.00     0.251 C 
ATOM     34  H   UNL A   1      33.133  31.898  28.095  1.00  0.00     0.163 HD
ATOM     35  O   UNL A   1      34.577  32.189  30.055  1.00  0.00    -0.269 OA
BRANCH  33  36
ATOM     36  C   UNL A   1      36.084  30.680  29.057  1.00  0.00     0.039 A 
ATOM     37  C   UNL A   1      36.423  29.865  30.136  1.00  0.00     0.014 A 
ATOM     38  C   UNL A   1      36.972  30.855  27.992  1.00  0.00     0.014 A 
ATOM     39  C   UNL A   1      37.723  29.390  30.246  1.00  0.00     0.010 A 
ATOM     40  C   UNL A   1      38.254  30.303  28.067  1.00  0.00     0.010 A 
ATOM     41  C   UNL A   1      38.664  29.629  29.227  1.00  0.00    -0.014 A 
BRANCH  41  42
ATOM     42  C   UNL A   1      40.074  29.209  29.442  1.00  0.00     0.031 A 
ATOM     43  C   UNL A   1      40.985  30.007  30.340  1.00  0.00     0.074 A 
ATOM     44  C   UNL A   1      40.494  28.035  28.932  1.00  0.00     0.049 A 
ATOM     45  N   UNL A   1      42.196  29.719  30.744  1.00  0.00    -0.248 NA
ATOM     46  C   UNL A   1      40.475  31.289  30.855  1.00  0.00     0.031 C 
ATOM     47  C   UNL A   1      39.689  27.159  28.077  1.00  0.00     0.029 A 
ATOM     48  N   UNL A   1      41.668  27.345  29.108  1.00  0.00    -0.354 N 
ATOM     49  C   UNL A   1      42.594  30.780  31.550  1.00  0.00     0.074 A 
ATOM     50  C   UNL A   1      41.510  31.737  31.553  1.00  0.00     0.031 C 
ATOM     51  C   UNL A   1      40.351  26.009  27.886  1.00  0.00     0.029 A 
ATOM     52  C   UNL A   1      41.649  26.087  28.552  1.00  0.00     0.049 A 
ATOM     53  H   UNL A   1      42.445  27.714  29.586  1.00  0.00     0.167 HD
ATOM     54  C   UNL A   1      43.750  30.937  32.239  1.00  0.00     0.031 A 
ATOM     55  C   UNL A   1      42.559  25.095  28.588  1.00  0.00     0.031 A 
ATOM     56  C   UNL A   1      44.828  29.984  32.237  1.00  0.00     0.049 A 
ATOM     57  C   UNL A   1      43.841  25.297  29.341  1.00  0.00     0.074 A 
ATOM     58  C   UNL A   1      46.058  30.078  32.864  1.00  0.00     0.029 A 
ATOM     59  N   UNL A   1      44.799  28.755  31.595  1.00  0.00    -0.354 N 
ATOM     60  N   UNL A   1      44.218  26.332  30.053  1.00  0.00    -0.248 NA
ATOM     61  C   UNL A   1      44.820  24.204  29.298  1.00  0.00     0.031 C 
ATOM     62  C   UNL A   1      46.786  28.919  32.575  1.00  0.00     0.029 A 
ATOM     63  C   UNL A   1      45.988  28.081  31.814  1.00  0.00     0.049 A 
ATOM     64  H   UNL A   1      44.044  28.412  31.064  1.00  0.00     0.167 HD
ATOM     65  C   UNL A   1      45.474  26.011  30.552  1.00  0.00     0.074 A 
ATOM     66  C   UNL A   1      45.786  24.679  30.074  1.00  0.00     0.031 C 
ATOM     67  C   UNL A   1      46.292  26.757  31.332  1.00  0.00     0.031 A 
BRANCH  54  68
ATOM     68  C   UNL A   1      43.920  32.193  33.053  1.00  0.00    -0.014 A 
ATOM     69  C   UNL A   1      43.530  32.212  34.405  1.00  0.00     0.010 A 
ATOM     70  C   UNL A   1      44.393  33.377  32.461  1.00  0.00     0.010 A 
ATOM     71  C   UNL A   1      43.599  33.394  35.147  1.00  0.00     0.020 A 
ATOM     72  C   UNL A   1      44.486  34.556  33.207  1.00  0.00     0.020 A 
ATOM     73  C   UNL A   1      44.072  34.561  34.541  1.00  0.00     0.054 A 
BRANCH  73  74
ATOM     74  S   UNL A   1      44.177  36.085  35.522  1.00  0.00     0.124 S 
ATOM     75  O   UNL A   1      42.992  35.989  36.368  1.00  0.00    -0.237 OA
ATOM     76  O   UNL A   1      45.459  35.939  36.209  1.00  0.00    -0.237 OA
ATOM     77  O   UNL A   1      44.143  37.139  34.511  1.00  0.00    -0.744 OA
ENDBRANCH  73  74
ENDBRANCH  54  68
BRANCH  55  78
ATOM     78  C   UNL A   1      42.235  23.801  27.929  1.00  0.00    -0.014 A 
ATOM     79  C   UNL A   1      41.617  22.766  28.655  1.00  0.00     0.010 A 
ATOM     80  C   UNL A   1      42.649  23.560  26.607  1.00  0.00     0.010 A 
ATOM     81  C   UNL A   1      41.478  21.495  28.095  1.00  0.00     0.020 A 
ATOM     82  C   UNL A   1      42.486  22.295  26.033  1.00  0.00     0.020 A 
ATOM     83  C   UNL A   1      41.932  21.263  26.794  1.00  0.00     0.054 A 
BRANCH  83  84
ATOM     84  S   UNL A   1      41.809  19.587  26.110  1.00  0.00     0.124 S 
ATOM     85  O   UNL A   1      42.270  18.774  27.232  1.00  0.00    -0.237 OA
ATOM     86  O   UNL A   1      40.388  19.472  25.791  1.00  0.00    -0.237 OA
ATOM     87  O   UNL A   1      42.702  19.625  24.955  1.00  0.00    -0.744 OA
ENDBRANCH  83  84
ENDBRANCH  55  78
BRANCH  67  88
ATOM     88  C   UNL A   1      47.612  26.163  31.742  1.00  0.00    -0.014 A 
ATOM     89  C   UNL A   1      48.713  26.249  30.870  1.00  0.00     0.010 A 
ATOM     90  C   UNL A   1      47.733  25.425  32.932  1.00  0.00     0.010 A 
ATOM     91  C   UNL A   1      49.908  25.590  31.169  1.00  0.00     0.020 A 
ATOM     92  C   UNL A   1      48.934  24.781  33.244  1.00  0.00     0.020 A 
ATOM     93  C   UNL A   1      50.006  24.851  32.350  1.00  0.00     0.054 A 
BRANCH  93  94
ATOM     94  S   UNL A   1      51.558  23.987  32.721  1.00  0.00     0.124 S 
ATOM     95  O   UNL A   1      51.672  24.168  34.165  1.00  0.00    -0.237 OA
ATOM     96  O   UNL A   1      51.285  22.622  32.276  1.00  0.00    -0.237 OA
ATOM     97  O   UNL A   1      52.547  24.707  31.920  1.00  0.00    -0.744 OA
ENDBRANCH  93  94
ENDBRANCH  67  88
ENDBRANCH  41  42
ENDBRANCH  33  36
ENDBRANCH  31  32
ENDBRANCH   1  31
TORSDOF 16
ENDMDL
