MODEL 1
REMARK VINA RESULT:     -10.4      0.000      0.000
REMARK SMILES CC(=O)N[C@H](CC(=O)NCC(=O)NCCCCNC(=O)c1ccc(-c2c3nc(c(-c4ccc(S(=O)(=O)[O-])cc4)c4ccc([nH]4)c(-c4ccc(S(=O)(=O)[O-])cc4)c4nc(c(-c5ccc(S(=O)(=O)[O-])cc5)c5ccc2[nH]5)C=C4)C=C3)cc1)c1cccs1
REMARK SMILES IDX 15 1 14 2 13 3 11 4 12 5 10 7 9 8 7 9 8 10 6 12 5 13 4 14
REMARK SMILES IDX 1 15 2 16 3 17 81 19 82 20 85 21 83 22 84 23 16 24 17 25
REMARK SMILES IDX 18 26 19 27 20 29 21 30 22 31 80 32 23 33 79 34 24 35 25 36
REMARK SMILES IDX 26 37 73 38 27 39 78 40 72 41 74 42 28 43 77 44 71 45 70 46
REMARK SMILES IDX 29 48 59 49 40 50 58 51 41 52 44 53 57 54 75 55 42 56 43 57
REMARK SMILES IDX 56 59 76 60 45 61 30 62 31 63 39 64 32 65 38 66 33 67 34 68
REMARK SMILES IDX 35 69 36 70 37 71 60 72 61 73 69 74 62 75 68 76 63 77 64 78
REMARK SMILES IDX 65 79 66 80 67 81 46 82 47 83 55 84 48 85 54 86 49 87 50 88
REMARK SMILES IDX 51 89 52 90 53 91
REMARK H PARENT 13 6 9 11 4 18 18 28 74 47 44 58
REMARK Flexibility Score: inf
ROOT
ATOM      1  C   UNL A   1      39.442  22.926  26.493  1.00  0.00     0.023 C 
ENDROOT
BRANCH   1   2
ATOM      2  C   UNL A   1      38.145  23.652  26.178  1.00  0.00     0.116 C 
BRANCH   2   3
ATOM      3  N   UNL A   1      37.555  23.352  24.868  1.00  0.00    -0.355 N 
ATOM      4  C   UNL A   1      36.801  22.297  24.212  1.00  0.00     0.239 C 
ATOM      5  O   UNL A   1      36.662  22.957  23.113  1.00  0.00    -0.273 OA
ATOM      6  H   UNL A   1      37.722  24.094  24.241  1.00  0.00     0.163 HD
BRANCH   4   7
ATOM      7  C   UNL A   1      35.980  20.325  24.840  1.00  0.00     0.216 C 
BRANCH   7   8
ATOM      8  N   UNL A   1      34.471  19.657  24.887  1.00  0.00    -0.347 N 
ATOM      9  C   UNL A   1      33.230  20.171  24.681  1.00  0.00     0.222 C 
ATOM     10  O   UNL A   1      32.256  19.550  25.111  1.00  0.00    -0.275 OA
ATOM     11  H   UNL A   1      34.470  18.697  25.108  1.00  0.00     0.164 HD
BRANCH   9  12
ATOM     12  C   UNL A   1      33.045  21.429  23.891  1.00  0.00     0.130 C 
BRANCH  12  13
ATOM     13  C   UNL A   1      32.759  22.700  24.660  1.00  0.00     0.131 C 
BRANCH  13  14
ATOM     14  N   UNL A   1      32.920  22.576  26.092  1.00  0.00    -0.348 N 
ATOM     15  C   UNL A   1      30.549  22.997  26.689  1.00  0.00     0.114 C 
ATOM     16  C   UNL A   1      31.990  22.789  27.071  1.00  0.00     0.217 C 
ATOM     17  O   UNL A   1      32.366  22.816  28.241  1.00  0.00    -0.275 OA
ATOM     18  H   UNL A   1      33.813  22.305  26.402  1.00  0.00     0.164 HD
ENDBRANCH  13  14
BRANCH  13  19
ATOM     19  C   UNL A   1      33.372  23.964  24.079  1.00  0.00     0.027 A 
ATOM     20  C   UNL A   1      34.030  25.267  25.071  1.00  0.00     0.017 A 
ATOM     21  S   UNL A   1      32.776  24.760  21.941  1.00  0.00    -0.147 S 
ATOM     22  C   UNL A   1      33.864  26.977  24.237  1.00  0.00     0.012 A 
ATOM     23  C   UNL A   1      33.353  26.892  22.572  1.00  0.00     0.065 A 
ENDBRANCH  13  19
ENDBRANCH  12  13
ENDBRANCH   9  12
ENDBRANCH   7   8
ENDBRANCH   4   7
ENDBRANCH   2   3
ENDBRANCH   1   2
BRANCH   1  24
ATOM     24  C   UNL A   1      39.454  21.462  26.106  1.00  0.00     0.023 C 
BRANCH  24  25
ATOM     25  C   UNL A   1      40.517  20.633  26.811  1.00  0.00     0.116 C 
BRANCH  25  26
ATOM     26  N   UNL A   1      41.652  20.263  25.963  1.00  0.00    -0.352 N 
ATOM     27  C   UNL A   1      42.843  20.930  25.804  1.00  0.00     0.251 C 
ATOM     28  H   UNL A   1      41.549  19.434  25.442  1.00  0.00     0.163 HD
ATOM     29  O   UNL A   1      43.674  20.597  24.968  1.00  0.00    -0.269 OA
BRANCH  27  30
ATOM     30  C   UNL A   1      43.071  22.102  26.659  1.00  0.00     0.039 A 
ATOM     31  C   UNL A   1      43.351  23.326  26.057  1.00  0.00     0.014 A 
ATOM     32  C   UNL A   1      42.814  22.000  28.028  1.00  0.00     0.014 A 
ATOM     33  C   UNL A   1      43.289  24.481  26.830  1.00  0.00     0.010 A 
ATOM     34  C   UNL A   1      42.629  23.160  28.760  1.00  0.00     0.010 A 
ATOM     35  C   UNL A   1      42.874  24.409  28.171  1.00  0.00    -0.014 A 
BRANCH  35  36
ATOM     36  C   UNL A   1      42.710  25.636  28.985  1.00  0.00     0.031 A 
ATOM     37  C   UNL A   1      43.796  26.030  29.947  1.00  0.00     0.074 A 
ATOM     38  C   UNL A   1      41.575  26.357  28.890  1.00  0.00     0.049 A 
ATOM     39  N   UNL A   1      43.837  27.044  30.768  1.00  0.00    -0.248 NA
ATOM     40  C   UNL A   1      44.977  25.150  30.021  1.00  0.00     0.031 C 
ATOM     41  C   UNL A   1      40.432  26.037  28.029  1.00  0.00     0.029 A 
ATOM     42  N   UNL A   1      41.196  27.513  29.523  1.00  0.00    -0.354 N 
ATOM     43  C   UNL A   1      45.035  26.916  31.460  1.00  0.00     0.074 A 
ATOM     44  C   UNL A   1      45.656  25.689  31.020  1.00  0.00     0.031 C 
ATOM     45  C   UNL A   1      39.503  26.999  28.154  1.00  0.00     0.029 A 
ATOM     46  C   UNL A   1      39.960  27.975  29.137  1.00  0.00     0.049 A 
ATOM     47  H   UNL A   1      41.757  27.970  30.190  1.00  0.00     0.167 HD
ATOM     48  C   UNL A   1      45.586  27.764  32.358  1.00  0.00     0.031 A 
ATOM     49  C   UNL A   1      39.272  29.063  29.535  1.00  0.00     0.031 A 
ATOM     50  C   UNL A   1      44.965  28.989  32.778  1.00  0.00     0.049 A 
ATOM     51  C   UNL A   1      39.899  29.982  30.549  1.00  0.00     0.074 A 
ATOM     52  C   UNL A   1      45.457  29.947  33.644  1.00  0.00     0.029 A 
ATOM     53  N   UNL A   1      43.713  29.422  32.365  1.00  0.00    -0.354 N 
ATOM     54  N   UNL A   1      41.068  29.884  31.138  1.00  0.00    -0.248 NA
ATOM     55  C   UNL A   1      39.121  31.163  30.944  1.00  0.00     0.031 C 
ATOM     56  C   UNL A   1      44.476  30.930  33.805  1.00  0.00     0.029 A 
ATOM     57  C   UNL A   1      43.404  30.622  32.981  1.00  0.00     0.049 A 
ATOM     58  H   UNL A   1      43.132  28.947  31.727  1.00  0.00     0.167 HD
ATOM     59  C   UNL A   1      41.178  31.009  31.949  1.00  0.00     0.074 A 
ATOM     60  C   UNL A   1      39.965  31.778  31.760  1.00  0.00     0.031 C 
ATOM     61  C   UNL A   1      42.190  31.372  32.776  1.00  0.00     0.031 A 
BRANCH  48  62
ATOM     62  C   UNL A   1      46.922  27.387  32.942  1.00  0.00    -0.014 A 
ATOM     63  C   UNL A   1      48.124  27.816  32.348  1.00  0.00     0.010 A 
ATOM     64  C   UNL A   1      46.977  26.622  34.120  1.00  0.00     0.010 A 
ATOM     65  C   UNL A   1      49.355  27.456  32.900  1.00  0.00     0.020 A 
ATOM     66  C   UNL A   1      48.207  26.289  34.695  1.00  0.00     0.020 A 
ATOM     67  C   UNL A   1      49.388  26.696  34.074  1.00  0.00     0.054 A 
BRANCH  67  68
ATOM     68  S   UNL A   1      51.000  26.278  34.789  1.00  0.00     0.124 S 
ATOM     69  O   UNL A   1      51.541  25.353  33.797  1.00  0.00    -0.237 OA
ATOM     70  O   UNL A   1      51.662  27.579  34.862  1.00  0.00    -0.237 OA
ATOM     71  O   UNL A   1      50.663  25.680  36.079  1.00  0.00    -0.744 OA
ENDBRANCH  67  68
ENDBRANCH  48  62
BRANCH  49  72
ATOM     72  C   UNL A   1      37.922  29.347  28.969  1.00  0.00    -0.014 A 
ATOM     73  C   UNL A   1      37.770  29.710  27.619  1.00  0.00     0.010 A 
ATOM     74  C   UNL A   1      36.777  29.254  29.781  1.00  0.00     0.010 A 
ATOM     75  C   UNL A   1      36.505  30.003  27.100  1.00  0.00     0.020 A 
ATOM     76  C   UNL A   1      35.507  29.512  29.258  1.00  0.00     0.020 A 
ATOM     77  C   UNL A   1      35.379  29.899  27.923  1.00  0.00     0.054 A 
BRANCH  77  78
ATOM     78  S   UNL A   1      33.744  30.247  27.219  1.00  0.00     0.124 S 
ATOM     79  O   UNL A   1      32.914  29.234  27.863  1.00  0.00    -0.237 OA
ATOM     80  O   UNL A   1      33.505  31.624  27.641  1.00  0.00    -0.237 OA
ATOM     81  O   UNL A   1      33.946  30.070  25.782  1.00  0.00    -0.744 OA
ENDBRANCH  77  78
ENDBRANCH  49  72
BRANCH  61  82
ATOM     82  C   UNL A   1      42.051  32.679  33.510  1.00  0.00    -0.014 A 
ATOM     83  C   UNL A   1      42.648  33.857  33.029  1.00  0.00     0.010 A 
ATOM     84  C   UNL A   1      41.255  32.737  34.669  1.00  0.00     0.010 A 
ATOM     85  C   UNL A   1      42.479  35.063  33.714  1.00  0.00     0.020 A 
ATOM     86  C   UNL A   1      41.053  33.947  35.335  1.00  0.00     0.020 A 
ATOM     87  C   UNL A   1      41.680  35.101  34.860  1.00  0.00     0.054 A 
BRANCH  87  88
ATOM     88  S   UNL A   1      41.439  36.688  35.701  1.00  0.00     0.124 S 
ATOM     89  O   UNL A   1      42.183  36.491  36.942  1.00  0.00    -0.237 OA
ATOM     90  O   UNL A   1      42.025  37.639  34.761  1.00  0.00    -0.237 OA
ATOM     91  O   UNL A   1      39.988  36.784  35.854  1.00  0.00    -0.744 OA
ENDBRANCH  87  88
ENDBRANCH  61  82
ENDBRANCH  35  36
ENDBRANCH  27  30
ENDBRANCH  25  26
ENDBRANCH  24  25
ENDBRANCH   1  24
TORSDOF 19
ENDMDL
MODEL 2
REMARK VINA RESULT:     -10.4      3.476      4.966
REMARK SMILES CC(=O)N[C@H](CC(=O)NCC(=O)NCCCCNC(=O)c1ccc(-c2c3nc(c(-c4ccc(S(=O)(=O)[O-])cc4)c4ccc([nH]4)c(-c4ccc(S(=O)(=O)[O-])cc4)c4nc(c(-c5ccc(S(=O)(=O)[O-])cc5)c5ccc2[nH]5)C=C4)C=C3)cc1)c1cccs1
REMARK SMILES IDX 15 1 14 2 13 3 11 4 12 5 10 7 9 8 7 9 8 10 6 12 5 13 4 14
REMARK SMILES IDX 1 15 2 16 3 17 81 19 82 20 85 21 83 22 84 23 16 24 17 25
REMARK SMILES IDX 18 26 19 27 20 29 21 30 22 31 80 32 23 33 79 34 24 35 25 36
REMARK SMILES IDX 26 37 73 38 27 39 78 40 72 41 74 42 28 43 77 44 71 45 70 46
REMARK SMILES IDX 29 48 59 49 40 50 58 51 41 52 44 53 57 54 75 55 42 56 43 57
REMARK SMILES IDX 56 59 76 60 45 61 30 62 31 63 39 64 32 65 38 66 33 67 34 68
REMARK SMILES IDX 35 69 36 70 37 71 60 72 61 73 69 74 62 75 68 76 63 77 64 78
REMARK SMILES IDX 65 79 66 80 67 81 46 82 47 83 55 84 48 85 54 86 49 87 50 88
REMARK SMILES IDX 51 89 52 90 53 91
REMARK H PARENT 13 6 9 11 4 18 18 28 74 47 44 58
REMARK Flexibility Score: inf
ROOT
ATOM      1  C   UNL A   1      36.914  23.817  25.355  1.00  0.00     0.023 C 
ENDROOT
BRANCH   1   2
ATOM      2  C   UNL A   1      36.695  22.917  24.150  1.00  0.00     0.116 C 
BRANCH   2   3
ATOM      3  N   UNL A   1      36.363  21.521  24.457  1.00  0.00    -0.355 N 
ATOM      4  C   UNL A   1      35.515  20.761  25.360  1.00  0.00     0.239 C 
ATOM      5  O   UNL A   1      35.823  19.623  24.836  1.00  0.00    -0.273 OA
ATOM      6  H   UNL A   1      36.870  20.912  23.872  1.00  0.00     0.163 HD
BRANCH   4   7
ATOM      7  C   UNL A   1      34.051  21.279  26.956  1.00  0.00     0.216 C 
BRANCH   7   8
ATOM      8  N   UNL A   1      32.631  22.120  27.001  1.00  0.00    -0.347 N 
ATOM      9  C   UNL A   1      32.347  23.448  26.979  1.00  0.00     0.222 C 
ATOM     10  O   UNL A   1      31.239  23.822  27.368  1.00  0.00    -0.275 OA
ATOM     11  H   UNL A   1      31.833  21.546  27.056  1.00  0.00     0.164 HD
BRANCH   9  12
ATOM     12  C   UNL A   1      33.333  24.432  26.429  1.00  0.00     0.130 C 
BRANCH  12  13
ATOM     13  C   UNL A   1      32.853  25.367  25.341  1.00  0.00     0.131 C 
BRANCH  13  14
ATOM     14  N   UNL A   1      31.606  24.971  24.724  1.00  0.00    -0.348 N 
ATOM     15  C   UNL A   1      32.599  23.580  22.925  1.00  0.00     0.114 C 
ATOM     16  C   UNL A   1      31.418  24.246  23.581  1.00  0.00     0.217 C 
ATOM     17  O   UNL A   1      30.283  24.170  23.116  1.00  0.00    -0.275 OA
ATOM     18  H   UNL A   1      30.788  25.261  25.187  1.00  0.00     0.164 HD
ENDBRANCH  13  14
BRANCH  13  19
ATOM     19  C   UNL A   1      32.932  26.848  25.674  1.00  0.00     0.027 A 
ATOM     20  C   UNL A   1      32.317  27.537  27.178  1.00  0.00     0.017 A 
ATOM     21  S   UNL A   1      33.050  28.492  23.988  1.00  0.00    -0.147 S 
ATOM     22  C   UNL A   1      31.708  29.335  26.965  1.00  0.00     0.012 A 
ATOM     23  C   UNL A   1      32.121  30.030  25.419  1.00  0.00     0.065 A 
ENDBRANCH  13  19
ENDBRANCH  12  13
ENDBRANCH   9  12
ENDBRANCH   7   8
ENDBRANCH   4   7
ENDBRANCH   2   3
ENDBRANCH   1   2
BRANCH   1  24
ATOM     24  C   UNL A   1      38.052  23.393  26.259  1.00  0.00     0.023 C 
BRANCH  24  25
ATOM     25  C   UNL A   1      38.816  24.546  26.893  1.00  0.00     0.116 C 
BRANCH  25  26
ATOM     26  N   UNL A   1      39.938  25.038  26.092  1.00  0.00    -0.352 N 
ATOM     27  C   UNL A   1      40.627  26.218  26.236  1.00  0.00     0.251 C 
ATOM     28  H   UNL A   1      40.236  24.451  25.360  1.00  0.00     0.163 HD
ATOM     29  O   UNL A   1      41.469  26.587  25.427  1.00  0.00    -0.269 OA
BRANCH  27  30
ATOM     30  C   UNL A   1      40.284  27.056  27.392  1.00  0.00     0.039 A 
ATOM     31  C   UNL A   1      39.734  26.450  28.518  1.00  0.00     0.014 A 
ATOM     32  C   UNL A   1      40.692  28.392  27.404  1.00  0.00     0.014 A 
ATOM     33  C   UNL A   1      39.670  27.176  29.703  1.00  0.00     0.010 A 
ATOM     34  C   UNL A   1      40.744  29.063  28.613  1.00  0.00     0.010 A 
ATOM     35  C   UNL A   1      40.224  28.466  29.770  1.00  0.00    -0.014 A 
BRANCH  35  36
ATOM     36  C   UNL A   1      40.251  29.218  31.046  1.00  0.00     0.031 A 
ATOM     37  C   UNL A   1      41.339  28.934  32.042  1.00  0.00     0.074 A 
ATOM     38  C   UNL A   1      39.278  30.110  31.319  1.00  0.00     0.049 A 
ATOM     39  N   UNL A   1      41.527  29.458  33.224  1.00  0.00    -0.248 NA
ATOM     40  C   UNL A   1      42.328  27.903  31.679  1.00  0.00     0.031 C 
ATOM     41  C   UNL A   1      38.142  30.425  30.448  1.00  0.00     0.029 A 
ATOM     42  N   UNL A   1      39.090  30.922  32.410  1.00  0.00    -0.354 N 
ATOM     43  C   UNL A   1      42.642  28.813  33.745  1.00  0.00     0.074 A 
ATOM     44  C   UNL A   1      43.044  27.809  32.788  1.00  0.00     0.031 C 
ATOM     45  C   UNL A   1      37.404  31.394  31.016  1.00  0.00     0.029 A 
ATOM     46  C   UNL A   1      37.985  31.733  32.311  1.00  0.00     0.049 A 
ATOM     47  H   UNL A   1      39.692  30.923  33.189  1.00  0.00     0.167 HD
ATOM     48  C   UNL A   1      43.295  29.058  34.903  1.00  0.00     0.031 A 
ATOM     49  C   UNL A   1      37.494  32.646  33.172  1.00  0.00     0.031 A 
ATOM     50  C   UNL A   1      42.894  30.069  35.842  1.00  0.00     0.049 A 
ATOM     51  C   UNL A   1      38.229  32.888  34.463  1.00  0.00     0.074 A 
ATOM     52  C   UNL A   1      43.512  30.437  37.023  1.00  0.00     0.029 A 
ATOM     53  N   UNL A   1      41.770  30.871  35.708  1.00  0.00    -0.354 N 
ATOM     54  N   UNL A   1      39.326  32.321  34.906  1.00  0.00    -0.248 NA
ATOM     55  C   UNL A   1      37.667  33.902  35.365  1.00  0.00     0.031 C 
ATOM     56  C   UNL A   1      42.726  31.418  37.635  1.00  0.00     0.029 A 
ATOM     57  C   UNL A   1      41.660  31.714  36.799  1.00  0.00     0.049 A 
ATOM     58  H   UNL A   1      41.144  30.844  34.947  1.00  0.00     0.167 HD
ATOM     59  C   UNL A   1      39.603  32.932  36.124  1.00  0.00     0.074 A 
ATOM     60  C   UNL A   1      38.568  33.923  36.337  1.00  0.00     0.031 C 
ATOM     61  C   UNL A   1      40.621  32.695  36.989  1.00  0.00     0.031 A 
BRANCH  48  62
ATOM     62  C   UNL A   1      44.504  28.216  35.213  1.00  0.00    -0.014 A 
ATOM     63  C   UNL A   1      45.787  28.593  34.774  1.00  0.00     0.010 A 
ATOM     64  C   UNL A   1      44.361  27.048  35.983  1.00  0.00     0.010 A 
ATOM     65  C   UNL A   1      46.898  27.799  35.067  1.00  0.00     0.020 A 
ATOM     66  C   UNL A   1      45.476  26.269  36.308  1.00  0.00     0.020 A 
ATOM     67  C   UNL A   1      46.735  26.642  35.836  1.00  0.00     0.054 A 
BRANCH  67  68
ATOM     68  S   UNL A   1      48.201  25.654  36.235  1.00  0.00     0.124 S 
ATOM     69  O   UNL A   1      49.273  26.640  36.112  1.00  0.00    -0.237 OA
ATOM     70  O   UNL A   1      47.919  25.200  37.594  1.00  0.00    -0.237 OA
ATOM     71  O   UNL A   1      48.201  24.606  35.217  1.00  0.00    -0.744 OA
ENDBRANCH  67  68
ENDBRANCH  48  62
BRANCH  49  72
ATOM     72  C   UNL A   1      36.253  33.402  32.838  1.00  0.00    -0.014 A 
ATOM     73  C   UNL A   1      34.988  32.909  33.204  1.00  0.00     0.010 A 
ATOM     74  C   UNL A   1      36.331  34.626  32.147  1.00  0.00     0.010 A 
ATOM     75  C   UNL A   1      33.826  33.608  32.863  1.00  0.00     0.020 A 
ATOM     76  C   UNL A   1      35.174  35.345  31.834  1.00  0.00     0.020 A 
ATOM     77  C   UNL A   1      33.927  34.825  32.181  1.00  0.00     0.054 A 
BRANCH  77  78
ATOM     78  S   UNL A   1      32.409  35.733  31.782  1.00  0.00     0.124 S 
ATOM     79  O   UNL A   1      32.250  35.450  30.359  1.00  0.00    -0.237 OA
ATOM     80  O   UNL A   1      31.427  35.109  32.666  1.00  0.00    -0.237 OA
ATOM     81  O   UNL A   1      32.741  37.118  32.111  1.00  0.00    -0.744 OA
ENDBRANCH  77  78
ENDBRANCH  49  72
BRANCH  61  82
ATOM     82  C   UNL A   1      40.692  33.549  38.227  1.00  0.00    -0.014 A 
ATOM     83  C   UNL A   1      41.372  34.778  38.232  1.00  0.00     0.010 A 
ATOM     84  C   UNL A   1      40.011  33.136  39.388  1.00  0.00     0.010 A 
ATOM     85  C   UNL A   1      41.398  35.564  39.387  1.00  0.00     0.020 A 
ATOM     86  C   UNL A   1      40.003  33.936  40.532  1.00  0.00     0.020 A 
ATOM     87  C   UNL A   1      40.711  35.140  40.528  1.00  0.00     0.054 A 
BRANCH  87  88
ATOM     88  S   UNL A   1      40.721  36.203  41.996  1.00  0.00     0.124 S 
ATOM     89  O   UNL A   1      41.486  37.357  41.530  1.00  0.00    -0.237 OA
ATOM     90  O   UNL A   1      39.299  36.442  42.226  1.00  0.00    -0.237 OA
ATOM     91  O   UNL A   1      41.383  35.387  43.012  1.00  0.00    -0.744 OA
ENDBRANCH  87  88
ENDBRANCH  61  82
ENDBRANCH  35  36
ENDBRANCH  27  30
ENDBRANCH  25  26
ENDBRANCH  24  25
ENDBRANCH   1  24
TORSDOF 19
ENDMDL
MODEL 3
REMARK VINA RESULT:     -10.3      4.678      5.710
REMARK SMILES CC(=O)N[C@H](CC(=O)NCC(=O)NCCCCNC(=O)c1ccc(-c2c3nc(c(-c4ccc(S(=O)(=O)[O-])cc4)c4ccc([nH]4)c(-c4ccc(S(=O)(=O)[O-])cc4)c4nc(c(-c5ccc(S(=O)(=O)[O-])cc5)c5ccc2[nH]5)C=C4)C=C3)cc1)c1cccs1
REMARK SMILES IDX 15 1 14 2 13 3 11 4 12 5 10 7 9 8 7 9 8 10 6 12 5 13 4 14
REMARK SMILES IDX 1 15 2 16 3 17 81 19 82 20 85 21 83 22 84 23 16 24 17 25
REMARK SMILES IDX 18 26 19 27 20 29 21 30 22 31 80 32 23 33 79 34 24 35 25 36
REMARK SMILES IDX 26 37 73 38 27 39 78 40 72 41 74 42 28 43 77 44 71 45 70 46
REMARK SMILES IDX 29 48 59 49 40 50 58 51 41 52 44 53 57 54 75 55 42 56 43 57
REMARK SMILES IDX 56 59 76 60 45 61 30 62 31 63 39 64 32 65 38 66 33 67 34 68
REMARK SMILES IDX 35 69 36 70 37 71 60 72 61 73 69 74 62 75 68 76 63 77 64 78
REMARK SMILES IDX 65 79 66 80 67 81 46 82 47 83 55 84 48 85 54 86 49 87 50 88
REMARK SMILES IDX 51 89 52 90 53 91
REMARK H PARENT 13 6 9 11 4 18 18 28 74 47 44 58
REMARK Flexibility Score: inf
ROOT
ATOM      1  C   UNL A   1      38.750  23.580  26.706  1.00  0.00     0.023 C 
ENDROOT
BRANCH   1   2
ATOM      2  C   UNL A   1      37.627  23.453  25.690  1.00  0.00     0.116 C 
BRANCH   2   3
ATOM      3  N   UNL A   1      36.396  22.825  26.184  1.00  0.00    -0.355 N 
ATOM      4  C   UNL A   1      34.958  22.915  25.994  1.00  0.00     0.239 C 
ATOM      5  O   UNL A   1      34.703  21.922  26.776  1.00  0.00    -0.273 OA
ATOM      6  H   UNL A   1      36.611  22.130  26.848  1.00  0.00     0.163 HD
BRANCH   4   7
ATOM      7  C   UNL A   1      33.613  24.142  24.713  1.00  0.00     0.216 C 
BRANCH   7   8
ATOM      8  N   UNL A   1      33.789  24.953  23.285  1.00  0.00    -0.347 N 
ATOM      9  C   UNL A   1      32.894  25.422  22.378  1.00  0.00     0.222 C 
ATOM     10  O   UNL A   1      33.289  25.682  21.240  1.00  0.00    -0.275 OA
ATOM     11  H   UNL A   1      34.727  25.130  23.044  1.00  0.00     0.164 HD
BRANCH   9  12
ATOM     12  C   UNL A   1      31.472  25.683  22.769  1.00  0.00     0.130 C 
BRANCH  12  13
ATOM     13  C   UNL A   1      31.135  27.059  23.298  1.00  0.00     0.131 C 
BRANCH  13  14
ATOM     14  N   UNL A   1      29.739  27.416  23.181  1.00  0.00    -0.348 N 
ATOM     15  C   UNL A   1      30.092  29.637  22.134  1.00  0.00     0.114 C 
ATOM     16  C   UNL A   1      29.198  28.596  22.753  1.00  0.00     0.217 C 
ATOM     17  O   UNL A   1      27.991  28.775  22.901  1.00  0.00    -0.275 OA
ATOM     18  H   UNL A   1      29.094  26.719  23.442  1.00  0.00     0.164 HD
ENDBRANCH  13  14
BRANCH  13  19
ATOM     19  C   UNL A   1      31.747  27.405  24.647  1.00  0.00     0.027 A 
ATOM     20  C   UNL A   1      31.069  26.867  26.185  1.00  0.00     0.017 A 
ATOM     21  S   UNL A   1      33.079  29.328  24.946  1.00  0.00    -0.147 S 
ATOM     22  C   UNL A   1      31.404  28.102  27.604  1.00  0.00     0.012 A 
ATOM     23  C   UNL A   1      32.528  29.365  27.176  1.00  0.00     0.065 A 
ENDBRANCH  13  19
ENDBRANCH  12  13
ENDBRANCH   9  12
ENDBRANCH   7   8
ENDBRANCH   4   7
ENDBRANCH   2   3
ENDBRANCH   1   2
BRANCH   1  24
ATOM     24  C   UNL A   1      39.538  22.308  26.937  1.00  0.00     0.023 C 
BRANCH  24  25
ATOM     25  C   UNL A   1      39.562  21.357  25.750  1.00  0.00     0.116 C 
BRANCH  25  26
ATOM     26  N   UNL A   1      40.261  20.096  26.003  1.00  0.00    -0.352 N 
ATOM     27  C   UNL A   1      41.588  19.910  26.307  1.00  0.00     0.251 C 
ATOM     28  H   UNL A   1      39.713  19.280  25.947  1.00  0.00     0.163 HD
ATOM     29  O   UNL A   1      42.095  18.798  26.373  1.00  0.00    -0.269 OA
BRANCH  27  30
ATOM     30  C   UNL A   1      42.401  21.116  26.515  1.00  0.00     0.039 A 
ATOM     31  C   UNL A   1      42.685  21.928  25.421  1.00  0.00     0.014 A 
ATOM     32  C   UNL A   1      42.701  21.512  27.821  1.00  0.00     0.014 A 
ATOM     33  C   UNL A   1      43.204  23.199  25.649  1.00  0.00     0.010 A 
ATOM     34  C   UNL A   1      43.095  22.820  28.047  1.00  0.00     0.010 A 
ATOM     35  C   UNL A   1      43.359  23.671  26.964  1.00  0.00    -0.014 A 
BRANCH  35  36
ATOM     36  C   UNL A   1      43.820  25.053  27.228  1.00  0.00     0.031 A 
ATOM     37  C   UNL A   1      45.267  25.399  27.011  1.00  0.00     0.074 A 
ATOM     38  C   UNL A   1      42.953  25.970  27.702  1.00  0.00     0.049 A 
ATOM     39  N   UNL A   1      45.878  26.536  27.209  1.00  0.00    -0.248 NA
ATOM     40  C   UNL A   1      46.151  24.317  26.542  1.00  0.00     0.031 C 
ATOM     41  C   UNL A   1      41.538  25.729  28.002  1.00  0.00     0.029 A 
ATOM     42  N   UNL A   1      43.134  27.294  28.013  1.00  0.00    -0.354 N 
ATOM     43  C   UNL A   1      47.212  26.302  26.901  1.00  0.00     0.074 A 
ATOM     44  C   UNL A   1      47.338  24.900  26.578  1.00  0.00     0.031 C 
ATOM     45  C   UNL A   1      40.971  26.878  28.407  1.00  0.00     0.029 A 
ATOM     46  C   UNL A   1      41.990  27.922  28.444  1.00  0.00     0.049 A 
ATOM     47  H   UNL A   1      44.003  27.751  27.934  1.00  0.00     0.167 HD
ATOM     48  C   UNL A   1      48.236  27.183  26.859  1.00  0.00     0.031 A 
ATOM     49  C   UNL A   1      41.787  29.198  28.829  1.00  0.00     0.031 A 
ATOM     50  C   UNL A   1      48.096  28.579  27.170  1.00  0.00     0.049 A 
ATOM     51  C   UNL A   1      42.947  30.156  28.790  1.00  0.00     0.074 A 
ATOM     52  C   UNL A   1      49.056  29.572  27.111  1.00  0.00     0.029 A 
ATOM     53  N   UNL A   1      46.922  29.178  27.602  1.00  0.00    -0.354 N 
ATOM     54  N   UNL A   1      44.188  29.933  28.424  1.00  0.00    -0.248 NA
ATOM     55  C   UNL A   1      42.679  31.539  29.205  1.00  0.00     0.031 C 
ATOM     56  C   UNL A   1      48.478  30.760  27.569  1.00  0.00     0.029 A 
ATOM     57  C   UNL A   1      47.140  30.523  27.841  1.00  0.00     0.049 A 
ATOM     58  H   UNL A   1      46.060  28.715  27.720  1.00  0.00     0.167 HD
ATOM     59  C   UNL A   1      44.840  31.157  28.534  1.00  0.00     0.074 A 
ATOM     60  C   UNL A   1      43.851  32.116  28.982  1.00  0.00     0.031 C 
ATOM     61  C   UNL A   1      46.138  31.460  28.286  1.00  0.00     0.031 A 
BRANCH  48  62
ATOM     62  C   UNL A   1      49.592  26.658  26.466  1.00  0.00    -0.014 A 
ATOM     63  C   UNL A   1      50.448  26.067  27.413  1.00  0.00     0.010 A 
ATOM     64  C   UNL A   1      50.002  26.725  25.122  1.00  0.00     0.010 A 
ATOM     65  C   UNL A   1      51.703  25.587  27.033  1.00  0.00     0.020 A 
ATOM     66  C   UNL A   1      51.243  26.215  24.731  1.00  0.00     0.020 A 
ATOM     67  C   UNL A   1      52.091  25.662  25.692  1.00  0.00     0.054 A 
BRANCH  67  68
ATOM     68  S   UNL A   1      53.709  24.994  25.221  1.00  0.00     0.124 S 
ATOM     69  O   UNL A   1      53.888  25.551  23.881  1.00  0.00    -0.237 OA
ATOM     70  O   UNL A   1      54.591  25.540  26.250  1.00  0.00    -0.237 OA
ATOM     71  O   UNL A   1      53.516  23.547  25.272  1.00  0.00    -0.744 OA
ENDBRANCH  67  68
ENDBRANCH  48  62
BRANCH  49  72
ATOM     72  C   UNL A   1      40.435  29.642  29.273  1.00  0.00    -0.014 A 
ATOM     73  C   UNL A   1      39.473  30.062  28.337  1.00  0.00     0.010 A 
ATOM     74  C   UNL A   1      40.102  29.646  30.640  1.00  0.00     0.010 A 
ATOM     75  C   UNL A   1      38.215  30.505  28.761  1.00  0.00     0.020 A 
ATOM     76  C   UNL A   1      38.835  30.056  31.065  1.00  0.00     0.020 A 
ATOM     77  C   UNL A   1      37.904  30.496  30.124  1.00  0.00     0.054 A 
BRANCH  77  78
ATOM     78  S   UNL A   1      36.254  31.039  30.648  1.00  0.00     0.124 S 
ATOM     79  O   UNL A   1      35.486  30.914  29.413  1.00  0.00    -0.237 OA
ATOM     80  O   UNL A   1      35.925  30.079  31.698  1.00  0.00    -0.237 OA
ATOM     81  O   UNL A   1      36.474  32.407  31.112  1.00  0.00    -0.744 OA
ENDBRANCH  77  78
ENDBRANCH  49  72
BRANCH  61  82
ATOM     82  C   UNL A   1      46.560  32.896  28.454  1.00  0.00    -0.014 A 
ATOM     83  C   UNL A   1      46.448  33.821  27.402  1.00  0.00     0.010 A 
ATOM     84  C   UNL A   1      47.019  33.337  29.710  1.00  0.00     0.010 A 
ATOM     85  C   UNL A   1      46.819  35.154  27.595  1.00  0.00     0.020 A 
ATOM     86  C   UNL A   1      47.355  34.675  29.917  1.00  0.00     0.020 A 
ATOM     87  C   UNL A   1      47.267  35.573  28.851  1.00  0.00     0.054 A 
BRANCH  87  88
ATOM     88  S   UNL A   1      47.696  37.319  29.084  1.00  0.00     0.124 S 
ATOM     89  O   UNL A   1      47.561  37.474  30.530  1.00  0.00    -0.237 OA
ATOM     90  O   UNL A   1      49.060  37.384  28.569  1.00  0.00    -0.237 OA
ATOM     91  O   UNL A   1      46.699  38.032  28.287  1.00  0.00    -0.744 OA
ENDBRANCH  87  88
ENDBRANCH  61  82
ENDBRANCH  35  36
ENDBRANCH  27  30
ENDBRANCH  25  26
ENDBRANCH  24  25
ENDBRANCH   1  24
TORSDOF 19
ENDMDL
