MODEL 1
REMARK VINA RESULT:     -11.1      0.000      0.000
REMARK SMILES CC1=NN(c2ccc(Cl)cc2)C(=O)/C1=C/c1ccccc1OCC(=O)NCCCCNC(=O)c1ccc(-c2c3nc(c(-c4ccc(S(=O)(=O)[O-])cc4)c4ccc([nH]4)c(-c4ccc(S(=O)(=O)[O-])cc4)c4nc(c(-c5ccc(S(=O)(=O)[O-])cc5)c5ccc2[nH]5)C=C4)C=C3)cc1
REMARK SMILES IDX 28 1 27 2 26 3 24 4 25 5 23 7 22 8 21 9 16 10 17 11 18 12
REMARK SMILES IDX 20 13 19 14 15 15 1 16 2 17 3 18 14 19 4 20 12 21 13 22 5 23
REMARK SMILES IDX 6 24 11 25 7 26 10 27 8 28 9 29 29 30 30 31 31 32 32 33
REMARK SMILES IDX 33 35 34 36 35 37 93 38 36 39 92 40 37 41 38 42 39 43 86 44
REMARK SMILES IDX 40 45 91 46 85 47 87 48 41 49 90 50 84 51 83 52 42 54 72 55
REMARK SMILES IDX 53 56 71 57 54 58 57 59 70 60 88 61 55 62 56 63 69 65 89 66
REMARK SMILES IDX 58 67 43 68 44 69 52 70 45 71 51 72 46 73 47 74 48 75 49 76
REMARK SMILES IDX 50 77 73 78 74 79 82 80 75 81 81 82 76 83 77 84 78 85 79 86
REMARK SMILES IDX 80 87 59 88 60 89 68 90 61 91 67 92 62 93 63 94 64 95 65 96
REMARK SMILES IDX 66 97
REMARK H PARENT 26 6 31 34 87 53 57 64
REMARK Flexibility Score: inf
ROOT
ATOM      1  C   UNL A   1      34.079  33.640  28.546  1.00  0.00     0.023 C 
ENDROOT
BRANCH   1   2
ATOM      2  C   UNL A   1      34.139  34.501  29.804  1.00  0.00     0.116 C 
BRANCH   2   3
ATOM      3  N   UNL A   1      33.916  33.799  31.051  1.00  0.00    -0.353 N 
ATOM      4  C   UNL A   1      34.184  34.267  32.307  1.00  0.00     0.257 C 
ATOM      5  O   UNL A   1      33.484  33.873  33.240  1.00  0.00    -0.271 OA
ATOM      6  H   UNL A   1      33.532  32.895  30.988  1.00  0.00     0.163 HD
BRANCH   4   7
ATOM      7  C   UNL A   1      35.301  35.288  32.547  1.00  0.00     0.329 C 
BRANCH   7   8
ATOM      8  O   UNL A   1      36.280  34.958  33.507  1.00  0.00    -0.483 OA
BRANCH   8   9
ATOM      9  C   UNL A   1      37.528  34.501  33.196  1.00  0.00     0.127 A 
ATOM     10  C   UNL A   1      38.603  34.116  34.017  1.00  0.00     0.017 A 
ATOM     11  C   UNL A   1      39.785  33.638  33.416  1.00  0.00     0.012 A 
ATOM     12  C   UNL A   1      39.907  33.542  32.029  1.00  0.00     0.001 A 
ATOM     13  C   UNL A   1      37.676  34.400  31.801  1.00  0.00     0.047 A 
ATOM     14  C   UNL A   1      38.850  33.929  31.219  1.00  0.00     0.004 A 
BRANCH  10  15
ATOM     15  C   UNL A   1      38.626  34.186  35.478  1.00  0.00     0.027 C 
ATOM     16  C   UNL A   1      38.201  31.005  34.897  1.00  0.00     0.069 C 
ATOM     17  C   UNL A   1      38.094  31.754  36.180  1.00  0.00     0.071 C 
ATOM     18  N   UNL A   1      37.698  31.209  37.301  1.00  0.00    -0.169 NA
ATOM     19  C   UNL A   1      38.405  33.182  36.335  1.00  0.00     0.066 C 
ATOM     20  N   UNL A   1      37.709  32.233  38.252  1.00  0.00    -0.196 N 
ATOM     21  C   UNL A   1      38.226  33.451  37.783  1.00  0.00     0.280 C 
ATOM     22  O   UNL A   1      38.467  34.506  38.336  1.00  0.00    -0.267 OA
BRANCH  20  23
ATOM     23  C   UNL A   1      37.054  32.019  39.488  1.00  0.00     0.069 A 
ATOM     24  C   UNL A   1      37.732  31.445  40.573  1.00  0.00     0.030 A 
ATOM     25  C   UNL A   1      35.731  32.443  39.678  1.00  0.00     0.030 A 
ATOM     26  C   UNL A   1      37.109  31.296  41.816  1.00  0.00     0.023 A 
ATOM     27  C   UNL A   1      35.095  32.273  40.915  1.00  0.00     0.023 A 
ATOM     28  C   UNL A   1      35.789  31.703  41.978  1.00  0.00     0.041 A 
ATOM     29  Cl  UNL A   1      35.020  31.506  43.505  1.00  0.00    -0.084 Cl
ENDBRANCH  20  23
ENDBRANCH  10  15
ENDBRANCH   8   9
ENDBRANCH   7   8
ENDBRANCH   4   7
ENDBRANCH   2   3
ENDBRANCH   1   2
BRANCH   1  30
ATOM     30  C   UNL A   1      35.349  32.895  28.130  1.00  0.00     0.023 C 
BRANCH  30  31
ATOM     31  C   UNL A   1      35.507  31.456  28.603  1.00  0.00     0.116 C 
BRANCH  31  32
ATOM     32  N   UNL A   1      35.541  31.339  30.048  1.00  0.00    -0.352 N 
ATOM     33  C   UNL A   1      36.519  30.835  30.871  1.00  0.00     0.251 C 
ATOM     34  H   UNL A   1      34.739  31.673  30.512  1.00  0.00     0.163 HD
ATOM     35  O   UNL A   1      36.271  30.696  32.067  1.00  0.00    -0.269 OA
BRANCH  33  36
ATOM     36  C   UNL A   1      37.848  30.436  30.343  1.00  0.00     0.039 A 
ATOM     37  C   UNL A   1      38.835  30.049  31.255  1.00  0.00     0.014 A 
ATOM     38  C   UNL A   1      38.153  30.487  28.979  1.00  0.00     0.014 A 
ATOM     39  C   UNL A   1      40.105  29.679  30.801  1.00  0.00     0.010 A 
ATOM     40  C   UNL A   1      39.398  30.048  28.521  1.00  0.00     0.010 A 
ATOM     41  C   UNL A   1      40.394  29.652  29.427  1.00  0.00    -0.014 A 
BRANCH  41  42
ATOM     42  C   UNL A   1      41.735  29.226  28.938  1.00  0.00     0.031 A 
ATOM     43  C   UNL A   1      42.867  30.219  28.844  1.00  0.00     0.074 A 
ATOM     44  C   UNL A   1      41.928  27.951  28.543  1.00  0.00     0.049 A 
ATOM     45  N   UNL A   1      44.097  30.030  28.436  1.00  0.00    -0.248 NA
ATOM     46  C   UNL A   1      42.577  31.608  29.236  1.00  0.00     0.031 C 
ATOM     47  C   UNL A   1      40.906  26.900  28.536  1.00  0.00     0.029 A 
ATOM     48  N   UNL A   1      43.051  27.318  28.067  1.00  0.00    -0.354 N 
ATOM     49  C   UNL A   1      44.716  31.274  28.497  1.00  0.00     0.074 A 
ATOM     50  C   UNL A   1      43.718  32.219  28.948  1.00  0.00     0.031 C 
ATOM     51  C   UNL A   1      41.453  25.752  28.104  1.00  0.00     0.029 A 
ATOM     52  C   UNL A   1      42.854  25.988  27.769  1.00  0.00     0.049 A 
ATOM     53  H   UNL A   1      43.916  27.772  27.950  1.00  0.00     0.167 HD
ATOM     54  C   UNL A   1      46.001  31.599  28.218  1.00  0.00     0.031 A 
ATOM     55  C   UNL A   1      43.702  25.064  27.277  1.00  0.00     0.031 A 
ATOM     56  C   UNL A   1      47.003  30.652  27.799  1.00  0.00     0.049 A 
ATOM     57  C   UNL A   1      45.132  25.449  27.002  1.00  0.00     0.074 A 
ATOM     58  C   UNL A   1      48.351  30.873  27.575  1.00  0.00     0.029 A 
ATOM     59  N   UNL A   1      46.770  29.312  27.540  1.00  0.00    -0.354 N 
ATOM     60  N   UNL A   1      45.717  26.613  27.157  1.00  0.00    -0.248 NA
ATOM     61  C   UNL A   1      46.021  24.388  26.507  1.00  0.00     0.031 C 
ATOM     62  C   UNL A   1      48.922  29.679  27.125  1.00  0.00     0.029 A 
ATOM     63  C   UNL A   1      47.944  28.700  27.133  1.00  0.00     0.049 A 
ATOM     64  H   UNL A   1      45.899  28.861  27.632  1.00  0.00     0.167 HD
ATOM     65  C   UNL A   1      47.050  26.412  26.815  1.00  0.00     0.074 A 
ATOM     66  C   UNL A   1      47.188  25.015  26.464  1.00  0.00     0.031 C 
ATOM     67  C   UNL A   1      48.071  27.306  26.795  1.00  0.00     0.031 A 
BRANCH  54  68
ATOM     68  C   UNL A   1      46.414  33.043  28.346  1.00  0.00    -0.014 A 
ATOM     69  C   UNL A   1      46.184  33.965  27.309  1.00  0.00     0.010 A 
ATOM     70  C   UNL A   1      46.956  33.503  29.560  1.00  0.00     0.010 A 
ATOM     71  C   UNL A   1      46.505  35.315  27.478  1.00  0.00     0.020 A 
ATOM     72  C   UNL A   1      47.253  34.857  29.744  1.00  0.00     0.020 A 
ATOM     73  C   UNL A   1      47.032  35.753  28.697  1.00  0.00     0.054 A 
BRANCH  73  74
ATOM     74  S   UNL A   1      47.375  37.522  28.911  1.00  0.00     0.124 S 
ATOM     75  O   UNL A   1      48.821  37.575  28.715  1.00  0.00    -0.237 OA
ATOM     76  O   UNL A   1      46.574  38.132  27.852  1.00  0.00    -0.237 OA
ATOM     77  O   UNL A   1      46.920  37.803  30.271  1.00  0.00    -0.744 OA
ENDBRANCH  73  74
ENDBRANCH  54  68
BRANCH  55  78
ATOM     78  C   UNL A   1      43.231  23.674  27.011  1.00  0.00    -0.014 A 
ATOM     79  C   UNL A   1      43.055  22.758  28.064  1.00  0.00     0.010 A 
ATOM     80  C   UNL A   1      42.992  23.249  25.691  1.00  0.00     0.010 A 
ATOM     81  C   UNL A   1      42.695  21.433  27.799  1.00  0.00     0.020 A 
ATOM     82  C   UNL A   1      42.599  21.934  25.425  1.00  0.00     0.020 A 
ATOM     83  C   UNL A   1      42.475  21.028  26.481  1.00  0.00     0.054 A 
BRANCH  83  84
ATOM     84  S   UNL A   1      42.001  19.307  26.158  1.00  0.00     0.124 S 
ATOM     85  O   UNL A   1      42.407  18.645  27.393  1.00  0.00    -0.237 OA
ATOM     86  O   UNL A   1      40.562  19.410  25.938  1.00  0.00    -0.237 OA
ATOM     87  O   UNL A   1      42.781  18.956  24.972  1.00  0.00    -0.744 OA
ENDBRANCH  83  84
ENDBRANCH  55  78
BRANCH  67  88
ATOM     88  C   UNL A   1      49.439  26.785  26.436  1.00  0.00    -0.014 A 
ATOM     89  C   UNL A   1      49.930  26.845  25.120  1.00  0.00     0.010 A 
ATOM     90  C   UNL A   1      50.255  26.245  27.448  1.00  0.00     0.010 A 
ATOM     91  C   UNL A   1      51.189  26.322  24.812  1.00  0.00     0.020 A 
ATOM     92  C   UNL A   1      51.527  25.752  27.150  1.00  0.00     0.020 A 
ATOM     93  C   UNL A   1      51.976  25.772  25.829  1.00  0.00     0.054 A 
BRANCH  93  94
ATOM     94  S   UNL A   1      53.608  25.103  25.407  1.00  0.00     0.124 S 
ATOM     95  O   UNL A   1      53.340  23.669  25.339  1.00  0.00    -0.237 OA
ATOM     96  O   UNL A   1      53.901  25.749  24.130  1.00  0.00    -0.237 OA
ATOM     97  O   UNL A   1      54.455  25.526  26.520  1.00  0.00    -0.744 OA
ENDBRANCH  93  94
ENDBRANCH  67  88
ENDBRANCH  41  42
ENDBRANCH  33  36
ENDBRANCH  31  32
ENDBRANCH  30  31
ENDBRANCH   1  30
TORSDOF 18
ENDMDL
MODEL 2
REMARK VINA RESULT:     -11.0      6.713     14.442
REMARK SMILES CC1=NN(c2ccc(Cl)cc2)C(=O)/C1=C/c1ccccc1OCC(=O)NCCCCNC(=O)c1ccc(-c2c3nc(c(-c4ccc(S(=O)(=O)[O-])cc4)c4ccc([nH]4)c(-c4ccc(S(=O)(=O)[O-])cc4)c4nc(c(-c5ccc(S(=O)(=O)[O-])cc5)c5ccc2[nH]5)C=C4)C=C3)cc1
REMARK SMILES IDX 28 1 27 2 26 3 24 4 25 5 23 7 22 8 21 9 16 10 17 11 18 12
REMARK SMILES IDX 20 13 19 14 15 15 1 16 2 17 3 18 14 19 4 20 12 21 13 22 5 23
REMARK SMILES IDX 6 24 11 25 7 26 10 27 8 28 9 29 29 30 30 31 31 32 32 33
REMARK SMILES IDX 33 35 34 36 35 37 93 38 36 39 92 40 37 41 38 42 39 43 86 44
REMARK SMILES IDX 40 45 91 46 85 47 87 48 41 49 90 50 84 51 83 52 42 54 72 55
REMARK SMILES IDX 53 56 71 57 54 58 57 59 70 60 88 61 55 62 56 63 69 65 89 66
REMARK SMILES IDX 58 67 43 68 44 69 52 70 45 71 51 72 46 73 47 74 48 75 49 76
REMARK SMILES IDX 50 77 73 78 74 79 82 80 75 81 81 82 76 83 77 84 78 85 79 86
REMARK SMILES IDX 80 87 59 88 60 89 68 90 61 91 67 92 62 93 63 94 64 95 65 96
REMARK SMILES IDX 66 97
REMARK H PARENT 26 6 31 34 87 53 57 64
REMARK Flexibility Score: inf
ROOT
ATOM      1  C   UNL A   1      39.682  21.486  25.909  1.00  0.00     0.023 C 
ENDROOT
BRANCH   1   2
ATOM      2  C   UNL A   1      38.174  21.696  25.798  1.00  0.00     0.116 C 
BRANCH   2   3
ATOM      3  N   UNL A   1      37.746  23.073  25.656  1.00  0.00    -0.353 N 
ATOM      4  C   UNL A   1      36.825  23.550  24.766  1.00  0.00     0.257 C 
ATOM      5  O   UNL A   1      36.159  24.537  25.085  1.00  0.00    -0.271 OA
ATOM      6  H   UNL A   1      38.160  23.730  26.261  1.00  0.00     0.163 HD
BRANCH   4   7
ATOM      7  C   UNL A   1      36.593  22.856  23.421  1.00  0.00     0.329 C 
BRANCH   7   8
ATOM      8  O   UNL A   1      35.285  22.890  22.895  1.00  0.00    -0.483 OA
BRANCH   8   9
ATOM      9  C   UNL A   1      34.181  22.456  23.570  1.00  0.00     0.127 A 
ATOM     10  C   UNL A   1      32.862  22.942  23.594  1.00  0.00     0.017 A 
ATOM     11  C   UNL A   1      31.897  22.262  24.365  1.00  0.00     0.012 A 
ATOM     12  C   UNL A   1      32.227  21.124  25.102  1.00  0.00     0.001 A 
ATOM     13  C   UNL A   1      34.491  21.311  24.325  1.00  0.00     0.047 A 
ATOM     14  C   UNL A   1      33.530  20.649  25.086  1.00  0.00     0.004 A 
BRANCH  10  15
ATOM     15  C   UNL A   1      32.379  24.132  22.894  1.00  0.00     0.027 C 
ATOM     16  C   UNL A   1      33.220  25.288  25.825  1.00  0.00     0.069 C 
ATOM     17  C   UNL A   1      32.461  25.953  24.730  1.00  0.00     0.071 C 
ATOM     18  N   UNL A   1      31.917  27.137  24.845  1.00  0.00    -0.169 NA
ATOM     19  C   UNL A   1      32.225  25.359  23.406  1.00  0.00     0.066 C 
ATOM     20  N   UNL A   1      31.283  27.390  23.626  1.00  0.00    -0.196 N 
ATOM     21  C   UNL A   1      31.503  26.409  22.646  1.00  0.00     0.280 C 
ATOM     22  O   UNL A   1      31.195  26.339  21.473  1.00  0.00    -0.267 OA
BRANCH  20  23
ATOM     23  C   UNL A   1      30.364  28.463  23.548  1.00  0.00     0.069 A 
ATOM     24  C   UNL A   1      30.620  29.679  24.199  1.00  0.00     0.030 A 
ATOM     25  C   UNL A   1      29.209  28.359  22.759  1.00  0.00     0.030 A 
ATOM     26  C   UNL A   1      29.748  30.764  24.067  1.00  0.00     0.023 A 
ATOM     27  C   UNL A   1      28.321  29.436  22.645  1.00  0.00     0.023 A 
ATOM     28  C   UNL A   1      28.597  30.635  23.297  1.00  0.00     0.041 A 
ATOM     29  Cl  UNL A   1      27.519  31.967  23.147  1.00  0.00    -0.084 Cl
ENDBRANCH  20  23
ENDBRANCH  10  15
ENDBRANCH   8   9
ENDBRANCH   7   8
ENDBRANCH   4   7
ENDBRANCH   2   3
ENDBRANCH   1   2
BRANCH   1  30
ATOM     30  C   UNL A   1      40.370  21.930  27.202  1.00  0.00     0.023 C 
BRANCH  30  31
ATOM     31  C   UNL A   1      40.478  23.426  27.463  1.00  0.00     0.116 C 
BRANCH  31  32
ATOM     32  N   UNL A   1      41.020  24.157  26.334  1.00  0.00    -0.352 N 
ATOM     33  C   UNL A   1      41.262  25.502  26.185  1.00  0.00     0.251 C 
ATOM     34  H   UNL A   1      41.251  23.605  25.552  1.00  0.00     0.163 HD
ATOM     35  O   UNL A   1      41.588  25.925  25.079  1.00  0.00    -0.269 OA
BRANCH  33  36
ATOM     36  C   UNL A   1      41.114  26.446  27.321  1.00  0.00     0.039 A 
ATOM     37  C   UNL A   1      40.126  26.184  28.276  1.00  0.00     0.014 A 
ATOM     38  C   UNL A   1      41.888  27.605  27.432  1.00  0.00     0.014 A 
ATOM     39  C   UNL A   1      39.943  27.055  29.355  1.00  0.00     0.010 A 
ATOM     40  C   UNL A   1      41.754  28.435  28.548  1.00  0.00     0.010 A 
ATOM     41  C   UNL A   1      40.771  28.179  29.516  1.00  0.00    -0.014 A 
BRANCH  41  42
ATOM     42  C   UNL A   1      40.602  29.090  30.682  1.00  0.00     0.031 A 
ATOM     43  C   UNL A   1      41.447  28.916  31.919  1.00  0.00     0.074 A 
ATOM     44  C   UNL A   1      39.662  30.057  30.644  1.00  0.00     0.049 A 
ATOM     45  N   UNL A   1      41.435  29.609  33.030  1.00  0.00    -0.248 NA
ATOM     46  C   UNL A   1      42.416  27.807  31.920  1.00  0.00     0.031 C 
ATOM     47  C   UNL A   1      38.743  30.305  29.529  1.00  0.00     0.029 A 
ATOM     48  N   UNL A   1      39.318  31.013  31.569  1.00  0.00    -0.354 N 
ATOM     49  C   UNL A   1      42.368  29.007  33.867  1.00  0.00     0.074 A 
ATOM     50  C   UNL A   1      42.906  27.872  33.151  1.00  0.00     0.031 C 
ATOM     51  C   UNL A   1      37.961  31.356  29.824  1.00  0.00     0.029 A 
ATOM     52  C   UNL A   1      38.294  31.837  31.161  1.00  0.00     0.049 A 
ATOM     53  H   UNL A   1      39.763  31.100  32.443  1.00  0.00     0.167 HD
ATOM     54  C   UNL A   1      42.755  29.374  35.112  1.00  0.00     0.031 A 
ATOM     55  C   UNL A   1      37.688  32.862  31.791  1.00  0.00     0.031 A 
ATOM     56  C   UNL A   1      42.244  30.524  35.813  1.00  0.00     0.049 A 
ATOM     57  C   UNL A   1      38.158  33.264  33.164  1.00  0.00     0.074 A 
ATOM     58  C   UNL A   1      42.637  31.024  37.043  1.00  0.00     0.029 A 
ATOM     59  N   UNL A   1      41.232  31.350  35.352  1.00  0.00    -0.354 N 
ATOM     60  N   UNL A   1      39.109  32.735  33.897  1.00  0.00    -0.248 NA
ATOM     61  C   UNL A   1      37.488  34.416  33.784  1.00  0.00     0.031 C 
ATOM     62  C   UNL A   1      41.823  32.118  37.352  1.00  0.00     0.029 A 
ATOM     63  C   UNL A   1      40.970  32.339  36.284  1.00  0.00     0.049 A 
ATOM     64  H   UNL A   1      40.769  31.248  34.489  1.00  0.00     0.167 HD
ATOM     65  C   UNL A   1      39.175  33.515  35.048  1.00  0.00     0.074 A 
ATOM     66  C   UNL A   1      38.183  34.559  34.904  1.00  0.00     0.031 C 
ATOM     67  C   UNL A   1      39.986  33.379  36.127  1.00  0.00     0.031 A 
BRANCH  54  68
ATOM     68  C   UNL A   1      43.783  28.526  35.818  1.00  0.00    -0.014 A 
ATOM     69  C   UNL A   1      43.405  27.433  36.617  1.00  0.00     0.010 A 
ATOM     70  C   UNL A   1      45.151  28.772  35.600  1.00  0.00     0.010 A 
ATOM     71  C   UNL A   1      44.376  26.612  37.200  1.00  0.00     0.020 A 
ATOM     72  C   UNL A   1      46.125  27.939  36.158  1.00  0.00     0.020 A 
ATOM     73  C   UNL A   1      45.730  26.868  36.962  1.00  0.00     0.054 A 
BRANCH  73  74
ATOM     74  S   UNL A   1      46.965  25.747  37.675  1.00  0.00     0.124 S 
ATOM     75  O   UNL A   1      47.416  26.499  38.844  1.00  0.00    -0.237 OA
ATOM     76  O   UNL A   1      46.180  24.549  37.964  1.00  0.00    -0.237 OA
ATOM     77  O   UNL A   1      47.955  25.597  36.612  1.00  0.00    -0.744 OA
ENDBRANCH  73  74
ENDBRANCH  54  68
BRANCH  55  78
ATOM     78  C   UNL A   1      36.565  33.593  31.136  1.00  0.00    -0.014 A 
ATOM     79  C   UNL A   1      35.373  33.861  31.834  1.00  0.00     0.010 A 
ATOM     80  C   UNL A   1      36.671  33.994  29.792  1.00  0.00     0.010 A 
ATOM     81  C   UNL A   1      34.294  34.472  31.187  1.00  0.00     0.020 A 
ATOM     82  C   UNL A   1      35.607  34.635  29.152  1.00  0.00     0.020 A 
ATOM     83  C   UNL A   1      34.417  34.850  29.849  1.00  0.00     0.054 A 
BRANCH  83  84
ATOM     84  S   UNL A   1      33.008  35.649  29.029  1.00  0.00     0.124 S 
ATOM     85  O   UNL A   1      32.240  36.147  30.166  1.00  0.00    -0.237 OA
ATOM     86  O   UNL A   1      33.656  36.667  28.207  1.00  0.00    -0.237 OA
ATOM     87  O   UNL A   1      32.386  34.558  28.281  1.00  0.00    -0.744 OA
ENDBRANCH  83  84
ENDBRANCH  55  78
BRANCH  67  88
ATOM     88  C   UNL A   1      39.875  34.420  37.210  1.00  0.00    -0.014 A 
ATOM     89  C   UNL A   1      38.976  34.277  38.283  1.00  0.00     0.010 A 
ATOM     90  C   UNL A   1      40.707  35.554  37.161  1.00  0.00     0.010 A 
ATOM     91  C   UNL A   1      38.871  35.277  39.254  1.00  0.00     0.020 A 
ATOM     92  C   UNL A   1      40.628  36.539  38.148  1.00  0.00     0.020 A 
ATOM     93  C   UNL A   1      39.693  36.405  39.176  1.00  0.00     0.054 A 
BRANCH  93  94
ATOM     94  S   UNL A   1      39.543  37.687  40.450  1.00  0.00     0.124 S 
ATOM     95  O   UNL A   1      39.392  36.891  41.665  1.00  0.00    -0.237 OA
ATOM     96  O   UNL A   1      40.803  38.414  40.326  1.00  0.00    -0.237 OA
ATOM     97  O   UNL A   1      38.355  38.438  40.047  1.00  0.00    -0.744 OA
ENDBRANCH  93  94
ENDBRANCH  67  88
ENDBRANCH  41  42
ENDBRANCH  33  36
ENDBRANCH  31  32
ENDBRANCH  30  31
ENDBRANCH   1  30
TORSDOF 18
ENDMDL
MODEL 3
REMARK VINA RESULT:     -10.6      0.556      7.899
REMARK SMILES CC1=NN(c2ccc(Cl)cc2)C(=O)/C1=C/c1ccccc1OCC(=O)NCCCCNC(=O)c1ccc(-c2c3nc(c(-c4ccc(S(=O)(=O)[O-])cc4)c4ccc([nH]4)c(-c4ccc(S(=O)(=O)[O-])cc4)c4nc(c(-c5ccc(S(=O)(=O)[O-])cc5)c5ccc2[nH]5)C=C4)C=C3)cc1
REMARK SMILES IDX 28 1 27 2 26 3 24 4 25 5 23 7 22 8 21 9 16 10 17 11 18 12
REMARK SMILES IDX 20 13 19 14 15 15 1 16 2 17 3 18 14 19 4 20 12 21 13 22 5 23
REMARK SMILES IDX 6 24 11 25 7 26 10 27 8 28 9 29 29 30 30 31 31 32 32 33
REMARK SMILES IDX 33 35 34 36 35 37 93 38 36 39 92 40 37 41 38 42 39 43 86 44
REMARK SMILES IDX 40 45 91 46 85 47 87 48 41 49 90 50 84 51 83 52 42 54 72 55
REMARK SMILES IDX 53 56 71 57 54 58 57 59 70 60 88 61 55 62 56 63 69 65 89 66
REMARK SMILES IDX 58 67 43 68 44 69 52 70 45 71 51 72 46 73 47 74 48 75 49 76
REMARK SMILES IDX 50 77 73 78 74 79 82 80 75 81 81 82 76 83 77 84 78 85 79 86
REMARK SMILES IDX 80 87 59 88 60 89 68 90 61 91 67 92 62 93 63 94 64 95 65 96
REMARK SMILES IDX 66 97
REMARK H PARENT 26 6 31 34 87 53 57 64
REMARK Flexibility Score: inf
ROOT
ATOM      1  C   UNL A   1      34.072  33.861  28.565  1.00  0.00     0.023 C 
ENDROOT
BRANCH   1   2
ATOM      2  C   UNL A   1      34.041  34.701  29.839  1.00  0.00     0.116 C 
BRANCH   2   3
ATOM      3  N   UNL A   1      33.750  33.975  31.058  1.00  0.00    -0.353 N 
ATOM      4  C   UNL A   1      34.033  34.380  32.332  1.00  0.00     0.257 C 
ATOM      5  O   UNL A   1      33.293  34.005  33.243  1.00  0.00    -0.271 OA
ATOM      6  H   UNL A   1      33.304  33.103  30.958  1.00  0.00     0.163 HD
BRANCH   4   7
ATOM      7  C   UNL A   1      35.216  35.309  32.621  1.00  0.00     0.329 C 
BRANCH   7   8
ATOM      8  O   UNL A   1      36.185  34.852  33.538  1.00  0.00    -0.483 OA
BRANCH   8   9
ATOM      9  C   UNL A   1      37.457  34.501  33.191  1.00  0.00     0.127 A 
ATOM     10  C   UNL A   1      38.583  34.207  33.980  1.00  0.00     0.017 A 
ATOM     11  C   UNL A   1      39.783  33.828  33.344  1.00  0.00     0.012 A 
ATOM     12  C   UNL A   1      39.872  33.739  31.954  1.00  0.00     0.001 A 
ATOM     13  C   UNL A   1      37.572  34.410  31.793  1.00  0.00     0.047 A 
ATOM     14  C   UNL A   1      38.764  34.037  31.175  1.00  0.00     0.004 A 
BRANCH  10  15
ATOM     15  C   UNL A   1      38.643  34.281  35.440  1.00  0.00     0.027 C 
ATOM     16  C   UNL A   1      38.081  31.118  34.883  1.00  0.00     0.069 C 
ATOM     17  C   UNL A   1      38.033  31.874  36.165  1.00  0.00     0.071 C 
ATOM     18  N   UNL A   1      37.643  31.349  37.297  1.00  0.00    -0.169 NA
ATOM     19  C   UNL A   1      38.403  33.289  36.306  1.00  0.00     0.066 C 
ATOM     20  N   UNL A   1      37.716  32.375  38.242  1.00  0.00    -0.196 N 
ATOM     21  C   UNL A   1      38.269  33.570  37.756  1.00  0.00     0.280 C 
ATOM     22  O   UNL A   1      38.563  34.617  38.299  1.00  0.00    -0.267 OA
BRANCH  20  23
ATOM     23  C   UNL A   1      37.082  32.191  39.494  1.00  0.00     0.069 A 
ATOM     24  C   UNL A   1      35.765  32.626  39.706  1.00  0.00     0.030 A 
ATOM     25  C   UNL A   1      37.731  31.504  40.530  1.00  0.00     0.030 A 
ATOM     26  C   UNL A   1      35.112  32.384  40.919  1.00  0.00     0.023 A 
ATOM     27  C   UNL A   1      37.089  31.282  41.755  1.00  0.00     0.023 A 
ATOM     28  C   UNL A   1      35.781  31.721  41.941  1.00  0.00     0.041 A 
ATOM     29  Cl  UNL A   1      34.980  31.436  43.438  1.00  0.00    -0.084 Cl
ENDBRANCH  20  23
ENDBRANCH  10  15
ENDBRANCH   8   9
ENDBRANCH   7   8
ENDBRANCH   4   7
ENDBRANCH   2   3
ENDBRANCH   1   2
BRANCH   1  30
ATOM     30  C   UNL A   1      35.437  33.402  28.048  1.00  0.00     0.023 C 
BRANCH  30  31
ATOM     31  C   UNL A   1      35.859  31.971  28.348  1.00  0.00     0.116 C 
BRANCH  31  32
ATOM     32  N   UNL A   1      35.702  31.619  29.746  1.00  0.00    -0.352 N 
ATOM     33  C   UNL A   1      36.537  30.914  30.579  1.00  0.00     0.251 C 
ATOM     34  H   UNL A   1      34.868  31.934  30.164  1.00  0.00     0.163 HD
ATOM     35  O   UNL A   1      36.132  30.603  31.697  1.00  0.00    -0.269 OA
BRANCH  33  36
ATOM     36  C   UNL A   1      37.897  30.504  30.148  1.00  0.00     0.039 A 
ATOM     37  C   UNL A   1      38.112  30.248  28.789  1.00  0.00     0.014 A 
ATOM     38  C   UNL A   1      38.943  30.318  31.057  1.00  0.00     0.014 A 
ATOM     39  C   UNL A   1      39.375  29.846  28.342  1.00  0.00     0.010 A 
ATOM     40  C   UNL A   1      40.221  29.988  30.600  1.00  0.00     0.010 A 
ATOM     41  C   UNL A   1      40.450  29.734  29.239  1.00  0.00    -0.014 A 
BRANCH  41  42
ATOM     42  C   UNL A   1      41.805  29.340  28.761  1.00  0.00     0.031 A 
ATOM     43  C   UNL A   1      42.071  27.932  28.289  1.00  0.00     0.074 A 
ATOM     44  C   UNL A   1      42.809  30.240  28.783  1.00  0.00     0.049 A 
ATOM     45  N   UNL A   1      43.186  27.407  27.846  1.00  0.00    -0.248 NA
ATOM     46  C   UNL A   1      40.947  26.981  28.343  1.00  0.00     0.031 C 
ATOM     47  C   UNL A   1      42.701  31.621  29.260  1.00  0.00     0.029 A 
ATOM     48  N   UNL A   1      44.123  30.128  28.397  1.00  0.00    -0.354 N 
ATOM     49  C   UNL A   1      42.907  26.068  27.595  1.00  0.00     0.074 A 
ATOM     50  C   UNL A   1      41.526  25.849  27.967  1.00  0.00     0.031 C 
ATOM     51  C   UNL A   1      43.888  32.234  29.116  1.00  0.00     0.029 A 
ATOM     52  C   UNL A   1      44.852  31.284  28.570  1.00  0.00     0.049 A 
ATOM     53  H   UNL A   1      44.509  29.300  28.031  1.00  0.00     0.167 HD
ATOM     54  C   UNL A   1      43.719  25.111  27.087  1.00  0.00     0.031 A 
ATOM     55  C   UNL A   1      46.149  31.549  28.323  1.00  0.00     0.031 A 
ATOM     56  C   UNL A   1      45.084  25.337  26.686  1.00  0.00     0.049 A 
ATOM     57  C   UNL A   1      47.021  30.472  27.732  1.00  0.00     0.074 A 
ATOM     58  C   UNL A   1      45.959  24.449  26.082  1.00  0.00     0.029 A 
ATOM     59  N   UNL A   1      45.773  26.528  26.849  1.00  0.00    -0.354 N 
ATOM     60  N   UNL A   1      46.707  29.238  27.416  1.00  0.00    -0.248 NA
ATOM     61  C   UNL A   1      48.417  30.832  27.444  1.00  0.00     0.031 C 
ATOM     62  C   UNL A   1      47.195  25.086  25.932  1.00  0.00     0.029 A 
ATOM     63  C   UNL A   1      47.069  26.390  26.381  1.00  0.00     0.049 A 
ATOM     64  H   UNL A   1      45.397  27.350  27.238  1.00  0.00     0.167 HD
ATOM     65  C   UNL A   1      47.857  28.688  26.857  1.00  0.00     0.074 A 
ATOM     66  C   UNL A   1      48.864  29.728  26.862  1.00  0.00     0.031 C 
ATOM     67  C   UNL A   1      48.060  27.434  26.381  1.00  0.00     0.031 A 
BRANCH  54  68
ATOM     68  C   UNL A   1      43.167  23.716  26.933  1.00  0.00    -0.014 A 
ATOM     69  C   UNL A   1      42.784  23.217  25.676  1.00  0.00     0.010 A 
ATOM     70  C   UNL A   1      43.121  22.863  28.051  1.00  0.00     0.010 A 
ATOM     71  C   UNL A   1      42.348  21.895  25.543  1.00  0.00     0.020 A 
ATOM     72  C   UNL A   1      42.711  21.533  27.918  1.00  0.00     0.020 A 
ATOM     73  C   UNL A   1      42.319  21.060  26.664  1.00  0.00     0.054 A 
BRANCH  73  74
ATOM     74  S   UNL A   1      41.814  19.331  26.449  1.00  0.00     0.124 S 
ATOM     75  O   UNL A   1      42.119  18.761  27.759  1.00  0.00    -0.237 OA
ATOM     76  O   UNL A   1      40.392  19.452  26.133  1.00  0.00    -0.237 OA
ATOM     77  O   UNL A   1      42.653  18.856  25.353  1.00  0.00    -0.744 OA
ENDBRANCH  73  74
ENDBRANCH  54  68
BRANCH  55  78
ATOM     78  C   UNL A   1      46.716  32.894  28.626  1.00  0.00    -0.014 A 
ATOM     79  C   UNL A   1      47.098  33.238  29.936  1.00  0.00     0.010 A 
ATOM     80  C   UNL A   1      46.842  33.855  27.606  1.00  0.00     0.010 A 
ATOM     81  C   UNL A   1      47.549  34.529  30.228  1.00  0.00     0.020 A 
ATOM     82  C   UNL A   1      47.325  35.136  27.888  1.00  0.00     0.020 A 
ATOM     83  C   UNL A   1      47.655  35.471  29.203  1.00  0.00     0.054 A 
BRANCH  83  84
ATOM     84  S   UNL A   1      48.250  37.139  29.600  1.00  0.00     0.124 S 
ATOM     85  O   UNL A   1      47.270  37.582  30.587  1.00  0.00    -0.237 OA
ATOM     86  O   UNL A   1      49.593  36.883  30.111  1.00  0.00    -0.237 OA
ATOM     87  O   UNL A   1      48.202  37.832  28.314  1.00  0.00    -0.744 OA
ENDBRANCH  83  84
ENDBRANCH  55  78
BRANCH  67  88
ATOM     88  C   UNL A   1      49.405  27.136  25.771  1.00  0.00    -0.014 A 
ATOM     89  C   UNL A   1      49.683  27.418  24.422  1.00  0.00     0.010 A 
ATOM     90  C   UNL A   1      50.417  26.583  26.577  1.00  0.00     0.010 A 
ATOM     91  C   UNL A   1      50.929  27.098  23.876  1.00  0.00     0.020 A 
ATOM     92  C   UNL A   1      51.675  26.293  26.043  1.00  0.00     0.020 A 
ATOM     93  C   UNL A   1      51.915  26.531  24.689  1.00  0.00     0.054 A 
BRANCH  93  94
ATOM     94  S   UNL A   1      53.526  26.128  23.960  1.00  0.00     0.124 S 
ATOM     95  O   UNL A   1      54.326  27.292  24.333  1.00  0.00    -0.237 OA
ATOM     96  O   UNL A   1      53.880  24.880  24.631  1.00  0.00    -0.237 OA
ATOM     97  O   UNL A   1      53.239  26.001  22.533  1.00  0.00    -0.744 OA
ENDBRANCH  93  94
ENDBRANCH  67  88
ENDBRANCH  41  42
ENDBRANCH  33  36
ENDBRANCH  31  32
ENDBRANCH  30  31
ENDBRANCH   1  30
TORSDOF 18
ENDMDL
