MODEL 1
REMARK VINA RESULT:     -10.3      0.000      0.000
REMARK SMILES C[C@@H](C(=O)NCCCCNC(=O)c1ccc(-c2c3nc(c(-c4ccc(S(=O)(=O)[O-])cc4)c4ccc([nH]4)c(-c4ccc(S(=O)(=O)[O-])cc4)c4nc(c(-c5ccc(S(=O)(=O)[O-])cc5)c5ccc2[nH]5)C=C4)C=C3)cc1)c1ccc(-c2cccc(OC(=O)NCCCc3ccccc3)c2)c(F)c1
REMARK SMILES IDX 3 1 4 2 5 3 2 5 1 6 73 7 74 8 98 9 75 10 96 11 76 12 97 13
REMARK SMILES IDX 77 14 78 15 95 16 79 17 81 18 80 19 82 20 83 21 84 22 85 23
REMARK SMILES IDX 86 25 87 26 88 27 89 28 90 29 94 30 91 31 93 32 92 33 6 34
REMARK SMILES IDX 7 35 8 36 9 37 10 38 11 39 12 41 13 42 14 43 72 44 15 45
REMARK SMILES IDX 71 46 16 47 17 48 18 49 65 50 19 51 70 52 64 53 66 54 20 55
REMARK SMILES IDX 69 56 63 57 62 58 21 60 51 61 32 62 50 63 33 64 36 65 49 66
REMARK SMILES IDX 67 67 34 68 35 69 48 71 68 72 37 73 22 74 23 75 31 76 24 77
REMARK SMILES IDX 30 78 25 79 26 80 27 81 28 82 29 83 52 84 53 85 61 86 54 87
REMARK SMILES IDX 60 88 55 89 56 90 57 91 58 92 59 93 38 94 39 95 47 96 40 97
REMARK SMILES IDX 46 98 41 99 42 100 43 101 44 102 45 103
REMARK H PARENT 5 4 85 24 10 40 66 59 36 70
REMARK Flexibility Score: inf
ROOT
ATOM      1  C   UNL A   1      31.833  27.930  27.077  1.00  0.00     0.227 C 
ATOM      2  O   UNL A   1      30.842  27.729  27.781  1.00  0.00    -0.274 OA
ATOM      3  N   UNL A   1      32.881  28.561  27.676  1.00  0.00    -0.356 N 
ATOM      4  H   UNL A   1      32.755  28.755  28.632  1.00  0.00     0.163 HD
ENDROOT
BRANCH   1   5
ATOM      5  C   UNL A   1      31.945  27.464  25.613  1.00  0.00     0.105 C 
ATOM      6  C   UNL A   1      30.583  27.250  24.944  1.00  0.00     0.023 C 
BRANCH   5   7
ATOM      7  C   UNL A   1      32.752  26.179  25.467  1.00  0.00    -0.033 A 
ATOM      8  C   UNL A   1      32.711  25.190  26.460  1.00  0.00     0.005 A 
ATOM      9  C   UNL A   1      33.602  25.995  24.369  1.00  0.00     0.044 A 
ATOM     10  C   UNL A   1      33.531  24.060  26.372  1.00  0.00     0.012 A 
ATOM     11  C   UNL A   1      34.406  24.868  24.285  1.00  0.00     0.131 A 
ATOM     12  C   UNL A   1      34.413  23.894  25.292  1.00  0.00     0.018 A 
ATOM     13  F   UNL A   1      35.218  24.751  23.222  1.00  0.00    -0.206 F 
BRANCH  12  14
ATOM     14  C   UNL A   1      35.394  22.803  25.268  1.00  0.00    -0.012 A 
ATOM     15  C   UNL A   1      35.057  21.490  24.910  1.00  0.00     0.009 A 
ATOM     16  C   UNL A   1      36.723  23.080  25.628  1.00  0.00     0.056 A 
ATOM     17  C   UNL A   1      36.028  20.484  24.905  1.00  0.00     0.004 A 
ATOM     18  C   UNL A   1      37.684  22.078  25.637  1.00  0.00     0.133 A 
ATOM     19  C   UNL A   1      37.343  20.777  25.268  1.00  0.00     0.047 A 
BRANCH  18  20
ATOM     20  O   UNL A   1      39.043  22.296  25.961  1.00  0.00    -0.410 OA
BRANCH  20  21
ATOM     21  C   UNL A   1      39.559  23.454  26.540  1.00  0.00     0.412 C 
ATOM     22  O   UNL A   1      38.926  24.370  27.047  1.00  0.00    -0.224 OA
ATOM     23  N   UNL A   1      40.925  23.491  26.530  1.00  0.00    -0.321 N 
ATOM     24  H   UNL A   1      41.355  24.334  26.804  1.00  0.00     0.167 HD
BRANCH  23  25
ATOM     25  C   UNL A   1      41.790  22.402  26.151  1.00  0.00     0.120 C 
BRANCH  25  26
ATOM     26  C   UNL A   1      42.423  21.656  27.324  1.00  0.00     0.026 C 
BRANCH  26  27
ATOM     27  C   UNL A   1      42.644  22.413  28.640  1.00  0.00     0.037 C 
BRANCH  27  28
ATOM     28  C   UNL A   1      43.811  23.361  28.799  1.00  0.00    -0.048 A 
ATOM     29  C   UNL A   1      44.917  23.415  27.946  1.00  0.00     0.004 A 
ATOM     30  C   UNL A   1      43.809  24.205  29.926  1.00  0.00     0.004 A 
ATOM     31  C   UNL A   1      45.988  24.277  28.209  1.00  0.00     0.000 A 
ATOM     32  C   UNL A   1      44.871  25.073  30.184  1.00  0.00     0.000 A 
ATOM     33  C   UNL A   1      45.965  25.106  29.327  1.00  0.00     0.000 A 
ENDBRANCH  27  28
ENDBRANCH  26  27
ENDBRANCH  25  26
ENDBRANCH  23  25
ENDBRANCH  20  21
ENDBRANCH  18  20
ENDBRANCH  12  14
ENDBRANCH   5   7
ENDBRANCH   1   5
BRANCH   3  34
ATOM     34  C   UNL A   1      34.150  28.991  27.130  1.00  0.00     0.116 C 
BRANCH  34  35
ATOM     35  C   UNL A   1      34.089  30.451  26.678  1.00  0.00     0.023 C 
BRANCH  35  36
ATOM     36  C   UNL A   1      33.535  31.421  27.725  1.00  0.00     0.023 C 
BRANCH  36  37
ATOM     37  C   UNL A   1      34.218  32.783  27.773  1.00  0.00     0.116 C 
BRANCH  37  38
ATOM     38  N   UNL A   1      33.402  33.798  28.424  1.00  0.00    -0.352 N 
ATOM     39  C   UNL A   1      33.493  34.286  29.707  1.00  0.00     0.251 C 
ATOM     40  H   UNL A   1      32.688  34.189  27.871  1.00  0.00     0.163 HD
ATOM     41  O   UNL A   1      32.635  35.048  30.140  1.00  0.00    -0.269 OA
BRANCH  39  42
ATOM     42  C   UNL A   1      34.612  33.850  30.567  1.00  0.00     0.039 A 
ATOM     43  C   UNL A   1      34.426  32.749  31.407  1.00  0.00     0.014 A 
ATOM     44  C   UNL A   1      35.854  34.487  30.495  1.00  0.00     0.014 A 
ATOM     45  C   UNL A   1      35.517  32.226  32.104  1.00  0.00     0.010 A 
ATOM     46  C   UNL A   1      36.951  33.927  31.143  1.00  0.00     0.010 A 
ATOM     47  C   UNL A   1      36.798  32.778  31.934  1.00  0.00    -0.014 A 
BRANCH  47  48
ATOM     48  C   UNL A   1      38.003  32.126  32.509  1.00  0.00     0.031 A 
ATOM     49  C   UNL A   1      38.478  32.487  33.890  1.00  0.00     0.074 A 
ATOM     50  C   UNL A   1      38.726  31.286  31.740  1.00  0.00     0.049 A 
ATOM     51  N   UNL A   1      39.566  32.107  34.508  1.00  0.00    -0.248 NA
ATOM     52  C   UNL A   1      37.635  33.410  34.668  1.00  0.00     0.031 C 
ATOM     53  C   UNL A   1      38.393  30.893  30.368  1.00  0.00     0.029 A 
ATOM     54  N   UNL A   1      39.905  30.628  31.992  1.00  0.00    -0.354 N 
ATOM     55  C   UNL A   1      39.553  32.759  35.735  1.00  0.00     0.074 A 
ATOM     56  C   UNL A   1      38.362  33.579  35.766  1.00  0.00     0.031 C 
ATOM     57  C   UNL A   1      39.341  30.064  29.902  1.00  0.00     0.029 A 
ATOM     58  C   UNL A   1      40.373  29.901  30.920  1.00  0.00     0.049 A 
ATOM     59  H   UNL A   1      40.371  30.670  32.858  1.00  0.00     0.167 HD
ATOM     60  C   UNL A   1      40.450  32.673  36.744  1.00  0.00     0.031 A 
ATOM     61  C   UNL A   1      41.517  29.207  30.760  1.00  0.00     0.031 A 
ATOM     62  C   UNL A   1      41.623  31.839  36.716  1.00  0.00     0.049 A 
ATOM     63  C   UNL A   1      42.503  29.148  31.895  1.00  0.00     0.074 A 
ATOM     64  C   UNL A   1      42.539  31.617  37.729  1.00  0.00     0.029 A 
ATOM     65  N   UNL A   1      42.050  31.106  35.622  1.00  0.00    -0.354 N 
ATOM     66  N   UNL A   1      42.419  29.688  33.087  1.00  0.00    -0.248 NA
ATOM     67  C   UNL A   1      43.739  28.387  31.665  1.00  0.00     0.031 C 
ATOM     68  C   UNL A   1      43.557  30.803  37.227  1.00  0.00     0.029 A 
ATOM     69  C   UNL A   1      43.243  30.468  35.920  1.00  0.00     0.049 A 
ATOM     70  H   UNL A   1      41.578  31.046  34.760  1.00  0.00     0.167 HD
ATOM     71  C   UNL A   1      43.582  29.317  33.752  1.00  0.00     0.074 A 
ATOM     72  C   UNL A   1      44.341  28.487  32.842  1.00  0.00     0.031 C 
ATOM     73  C   UNL A   1      43.987  29.642  35.004  1.00  0.00     0.031 A 
BRANCH  60  74
ATOM     74  C   UNL A   1      40.218  33.506  37.976  1.00  0.00    -0.014 A 
ATOM     75  C   UNL A   1      40.786  34.786  38.106  1.00  0.00     0.010 A 
ATOM     76  C   UNL A   1      39.327  33.046  38.965  1.00  0.00     0.010 A 
ATOM     77  C   UNL A   1      40.475  35.586  39.209  1.00  0.00     0.020 A 
ATOM     78  C   UNL A   1      38.997  33.853  40.056  1.00  0.00     0.020 A 
ATOM     79  C   UNL A   1      39.577  35.118  40.174  1.00  0.00     0.054 A 
BRANCH  79  80
ATOM     80  S   UNL A   1      39.136  36.211  41.553  1.00  0.00     0.124 S 
ATOM     81  O   UNL A   1      37.914  35.587  42.053  1.00  0.00    -0.237 OA
ATOM     82  O   UNL A   1      40.300  36.104  42.429  1.00  0.00    -0.237 OA
ATOM     83  O   UNL A   1      38.954  37.515  40.919  1.00  0.00    -0.744 OA
ENDBRANCH  79  80
ENDBRANCH  60  74
BRANCH  61  84
ATOM     84  C   UNL A   1      41.819  28.543  29.462  1.00  0.00    -0.014 A 
ATOM     85  C   UNL A   1      42.465  29.244  28.428  1.00  0.00     0.010 A 
ATOM     86  C   UNL A   1      41.431  27.208  29.242  1.00  0.00     0.010 A 
ATOM     87  C   UNL A   1      42.682  28.636  27.188  1.00  0.00     0.020 A 
ATOM     88  C   UNL A   1      41.675  26.586  28.015  1.00  0.00     0.020 A 
ATOM     89  C   UNL A   1      42.281  27.312  26.987  1.00  0.00     0.054 A 
BRANCH  89  90
ATOM     90  S   UNL A   1      42.582  26.538  25.375  1.00  0.00     0.124 S 
ATOM     91  O   UNL A   1      43.087  27.661  24.591  1.00  0.00    -0.237 OA
ATOM     92  O   UNL A   1      43.559  25.502  25.699  1.00  0.00    -0.237 OA
ATOM     93  O   UNL A   1      41.265  26.041  24.983  1.00  0.00    -0.744 OA
ENDBRANCH  89  90
ENDBRANCH  61  84
BRANCH  73  94
ATOM     94  C   UNL A   1      45.306  29.090  35.474  1.00  0.00    -0.014 A 
ATOM     95  C   UNL A   1      46.462  29.889  35.488  1.00  0.00     0.010 A 
ATOM     96  C   UNL A   1      45.373  27.777  35.974  1.00  0.00     0.010 A 
ATOM     97  C   UNL A   1      47.667  29.379  35.977  1.00  0.00     0.020 A 
ATOM     98  C   UNL A   1      46.570  27.272  36.490  1.00  0.00     0.020 A 
ATOM     99  C   UNL A   1      47.713  28.075  36.479  1.00  0.00     0.054 A 
BRANCH  99 100
ATOM    100  S   UNL A   1      49.274  27.460  37.165  1.00  0.00     0.124 S 
ATOM    101  O   UNL A   1      49.842  26.736  36.031  1.00  0.00    -0.237 OA
ATOM    102  O   UNL A   1      49.968  28.691  37.537  1.00  0.00    -0.237 OA
ATOM    103  O   UNL A   1      48.855  26.625  38.288  1.00  0.00    -0.744 OA
ENDBRANCH  99 100
ENDBRANCH  73  94
ENDBRANCH  47  48
ENDBRANCH  39  42
ENDBRANCH  37  38
ENDBRANCH  36  37
ENDBRANCH  35  36
ENDBRANCH  34  35
ENDBRANCH   3  34
TORSDOF 22
ENDMDL
MODEL 2
REMARK VINA RESULT:     -10.1      4.430      6.628
REMARK SMILES C[C@@H](C(=O)NCCCCNC(=O)c1ccc(-c2c3nc(c(-c4ccc(S(=O)(=O)[O-])cc4)c4ccc([nH]4)c(-c4ccc(S(=O)(=O)[O-])cc4)c4nc(c(-c5ccc(S(=O)(=O)[O-])cc5)c5ccc2[nH]5)C=C4)C=C3)cc1)c1ccc(-c2cccc(OC(=O)NCCCc3ccccc3)c2)c(F)c1
REMARK SMILES IDX 3 1 4 2 5 3 2 5 1 6 73 7 74 8 98 9 75 10 96 11 76 12 97 13
REMARK SMILES IDX 77 14 78 15 95 16 79 17 81 18 80 19 82 20 83 21 84 22 85 23
REMARK SMILES IDX 86 25 87 26 88 27 89 28 90 29 94 30 91 31 93 32 92 33 6 34
REMARK SMILES IDX 7 35 8 36 9 37 10 38 11 39 12 41 13 42 14 43 72 44 15 45
REMARK SMILES IDX 71 46 16 47 17 48 18 49 65 50 19 51 70 52 64 53 66 54 20 55
REMARK SMILES IDX 69 56 63 57 62 58 21 60 51 61 32 62 50 63 33 64 36 65 49 66
REMARK SMILES IDX 67 67 34 68 35 69 48 71 68 72 37 73 22 74 23 75 31 76 24 77
REMARK SMILES IDX 30 78 25 79 26 80 27 81 28 82 29 83 52 84 53 85 61 86 54 87
REMARK SMILES IDX 60 88 55 89 56 90 57 91 58 92 59 93 38 94 39 95 47 96 40 97
REMARK SMILES IDX 46 98 41 99 42 100 43 101 44 102 45 103
REMARK H PARENT 5 4 85 24 10 40 66 59 36 70
REMARK Flexibility Score: inf
ROOT
ATOM      1  C   UNL A   1      30.638  26.832  24.384  1.00  0.00     0.227 C 
ATOM      2  O   UNL A   1      29.549  27.257  23.995  1.00  0.00    -0.274 OA
ATOM      3  N   UNL A   1      31.741  27.462  23.892  1.00  0.00    -0.356 N 
ATOM      4  H   UNL A   1      31.552  28.229  23.304  1.00  0.00     0.163 HD
ENDROOT
BRANCH   1   5
ATOM      5  C   UNL A   1      30.791  25.691  25.406  1.00  0.00     0.105 C 
ATOM      6  C   UNL A   1      31.759  26.029  26.545  1.00  0.00     0.023 C 
BRANCH   5   7
ATOM      7  C   UNL A   1      31.250  24.386  24.765  1.00  0.00    -0.033 A 
ATOM      8  C   UNL A   1      31.526  24.321  23.392  1.00  0.00     0.005 A 
ATOM      9  C   UNL A   1      31.338  23.213  25.525  1.00  0.00     0.044 A 
ATOM     10  C   UNL A   1      31.847  23.100  22.788  1.00  0.00     0.012 A 
ATOM     11  C   UNL A   1      31.666  22.008  24.921  1.00  0.00     0.131 A 
ATOM     12  C   UNL A   1      31.897  21.917  23.542  1.00  0.00     0.018 A 
ATOM     13  F   UNL A   1      31.716  20.910  25.692  1.00  0.00    -0.206 F 
BRANCH  12  14
ATOM     14  C   UNL A   1      32.068  20.609  22.900  1.00  0.00    -0.012 A 
ATOM     15  C   UNL A   1      31.898  20.414  21.523  1.00  0.00     0.009 A 
ATOM     16  C   UNL A   1      32.404  19.502  23.698  1.00  0.00     0.056 A 
ATOM     17  C   UNL A   1      32.069  19.146  20.958  1.00  0.00     0.004 A 
ATOM     18  C   UNL A   1      32.560  18.240  23.140  1.00  0.00     0.133 A 
ATOM     19  C   UNL A   1      32.401  18.057  21.766  1.00  0.00     0.047 A 
BRANCH  18  20
ATOM     20  O   UNL A   1      32.926  17.093  23.880  1.00  0.00    -0.410 OA
BRANCH  20  21
ATOM     21  C   UNL A   1      33.171  17.062  25.252  1.00  0.00     0.412 C 
ATOM     22  O   UNL A   1      32.433  16.619  26.123  1.00  0.00    -0.224 OA
ATOM     23  N   UNL A   1      34.394  17.572  25.587  1.00  0.00    -0.321 N 
ATOM     24  H   UNL A   1      34.582  17.701  26.545  1.00  0.00     0.167 HD
BRANCH  23  25
ATOM     25  C   UNL A   1      35.431  17.937  24.656  1.00  0.00     0.120 C 
BRANCH  25  26
ATOM     26  C   UNL A   1      36.214  19.192  25.037  1.00  0.00     0.026 C 
BRANCH  26  27
ATOM     27  C   UNL A   1      36.059  20.445  24.166  1.00  0.00     0.037 C 
BRANCH  27  28
ATOM     28  C   UNL A   1      35.552  21.740  24.758  1.00  0.00    -0.048 A 
ATOM     29  C   UNL A   1      35.425  22.942  24.055  1.00  0.00     0.004 A 
ATOM     30  C   UNL A   1      35.246  21.748  26.132  1.00  0.00     0.004 A 
ATOM     31  C   UNL A   1      35.013  24.113  24.701  1.00  0.00     0.000 A 
ATOM     32  C   UNL A   1      34.825  22.912  26.776  1.00  0.00     0.000 A 
ATOM     33  C   UNL A   1      34.712  24.098  26.060  1.00  0.00     0.000 A 
ENDBRANCH  27  28
ENDBRANCH  26  27
ENDBRANCH  25  26
ENDBRANCH  23  25
ENDBRANCH  20  21
ENDBRANCH  18  20
ENDBRANCH  12  14
ENDBRANCH   5   7
ENDBRANCH   1   5
BRANCH   3  34
ATOM     34  C   UNL A   1      33.146  27.184  24.095  1.00  0.00     0.116 C 
BRANCH  34  35
ATOM     35  C   UNL A   1      33.946  28.476  24.262  1.00  0.00     0.023 C 
BRANCH  35  36
ATOM     36  C   UNL A   1      33.356  29.467  25.269  1.00  0.00     0.023 C 
BRANCH  36  37
ATOM     37  C   UNL A   1      33.792  29.261  26.714  1.00  0.00     0.116 C 
BRANCH  37  38
ATOM     38  N   UNL A   1      33.711  30.481  27.506  1.00  0.00    -0.352 N 
ATOM     39  C   UNL A   1      34.606  30.975  28.425  1.00  0.00     0.251 C 
ATOM     40  H   UNL A   1      32.904  31.026  27.364  1.00  0.00     0.163 HD
ATOM     41  O   UNL A   1      34.317  31.953  29.105  1.00  0.00    -0.269 OA
BRANCH  39  42
ATOM     42  C   UNL A   1      35.902  30.290  28.609  1.00  0.00     0.039 A 
ATOM     43  C   UNL A   1      36.827  30.305  27.563  1.00  0.00     0.014 A 
ATOM     44  C   UNL A   1      36.222  29.692  29.831  1.00  0.00     0.014 A 
ATOM     45  C   UNL A   1      38.113  29.804  27.775  1.00  0.00     0.010 A 
ATOM     46  C   UNL A   1      37.521  29.249  30.059  1.00  0.00     0.010 A 
ATOM     47  C   UNL A   1      38.486  29.322  29.042  1.00  0.00    -0.014 A 
BRANCH  47  48
ATOM     48  C   UNL A   1      39.895  28.965  29.349  1.00  0.00     0.031 A 
ATOM     49  C   UNL A   1      40.840  29.998  29.895  1.00  0.00     0.074 A 
ATOM     50  C   UNL A   1      40.343  27.732  29.033  1.00  0.00     0.049 A 
ATOM     51  N   UNL A   1      42.126  29.898  30.116  1.00  0.00    -0.248 NA
ATOM     52  C   UNL A   1      40.277  31.319  30.215  1.00  0.00     0.031 C 
ATOM     53  C   UNL A   1      39.533  26.656  28.455  1.00  0.00     0.029 A 
ATOM     54  N   UNL A   1      41.597  27.180  29.132  1.00  0.00    -0.354 N 
ATOM     55  C   UNL A   1      42.530  31.145  30.576  1.00  0.00     0.074 A 
ATOM     56  C   UNL A   1      41.360  31.994  30.581  1.00  0.00     0.031 C 
ATOM     57  C   UNL A   1      40.307  25.578  28.252  1.00  0.00     0.029 A 
ATOM     58  C   UNL A   1      41.677  25.896  28.640  1.00  0.00     0.049 A 
ATOM     59  H   UNL A   1      42.367  27.658  29.517  1.00  0.00     0.167 HD
ATOM     60  C   UNL A   1      43.765  31.540  30.966  1.00  0.00     0.031 A 
ATOM     61  C   UNL A   1      42.736  25.077  28.490  1.00  0.00     0.031 A 
ATOM     62  C   UNL A   1      44.921  30.683  30.978  1.00  0.00     0.049 A 
ATOM     63  C   UNL A   1      44.098  25.554  28.914  1.00  0.00     0.074 A 
ATOM     64  C   UNL A   1      46.193  30.970  31.445  1.00  0.00     0.029 A 
ATOM     65  N   UNL A   1      44.956  29.387  30.493  1.00  0.00    -0.354 N 
ATOM     66  N   UNL A   1      44.439  26.702  29.447  1.00  0.00    -0.248 NA
ATOM     67  C   UNL A   1      45.220  24.625  28.718  1.00  0.00     0.031 C 
ATOM     68  C   UNL A   1      47.013  29.871  31.180  1.00  0.00     0.029 A 
ATOM     69  C   UNL A   1      46.239  28.877  30.605  1.00  0.00     0.049 A 
ATOM     70  H   UNL A   1      44.185  28.900  30.123  1.00  0.00     0.167 HD
ATOM     71  C   UNL A   1      45.809  26.626  29.664  1.00  0.00     0.074 A 
ATOM     72  C   UNL A   1      46.232  25.312  29.230  1.00  0.00     0.031 C 
ATOM     73  C   UNL A   1      46.645  27.565  30.170  1.00  0.00     0.031 A 
BRANCH  60  74
ATOM     74  C   UNL A   1      43.949  32.966  31.409  1.00  0.00    -0.014 A 
ATOM     75  C   UNL A   1      44.210  33.988  30.479  1.00  0.00     0.010 A 
ATOM     76  C   UNL A   1      43.746  33.303  32.760  1.00  0.00     0.010 A 
ATOM     77  C   UNL A   1      44.275  35.320  30.895  1.00  0.00     0.020 A 
ATOM     78  C   UNL A   1      43.787  34.636  33.176  1.00  0.00     0.020 A 
ATOM     79  C   UNL A   1      44.057  35.637  32.240  1.00  0.00     0.054 A 
BRANCH  79  80
ATOM     80  S   UNL A   1      44.072  37.383  32.735  1.00  0.00     0.124 S 
ATOM     81  O   UNL A   1      42.969  37.434  33.691  1.00  0.00    -0.237 OA
ATOM     82  O   UNL A   1      45.407  37.540  33.307  1.00  0.00    -0.237 OA
ATOM     83  O   UNL A   1      43.844  38.101  31.484  1.00  0.00    -0.744 OA
ENDBRANCH  79  80
ENDBRANCH  60  74
BRANCH  61  84
ATOM     84  C   UNL A   1      42.565  23.733  27.871  1.00  0.00    -0.014 A 
ATOM     85  C   UNL A   1      42.088  22.648  28.627  1.00  0.00     0.010 A 
ATOM     86  C   UNL A   1      42.910  23.524  26.522  1.00  0.00     0.010 A 
ATOM     87  C   UNL A   1      41.996  21.373  28.060  1.00  0.00     0.020 A 
ATOM     88  C   UNL A   1      42.789  22.259  25.942  1.00  0.00     0.020 A 
ATOM     89  C   UNL A   1      42.353  21.186  26.721  1.00  0.00     0.054 A 
BRANCH  89  90
ATOM     90  S   UNL A   1      42.216  19.527  26.000  1.00  0.00     0.124 S 
ATOM     91  O   UNL A   1      40.788  19.438  25.716  1.00  0.00    -0.237 OA
ATOM     92  O   UNL A   1      43.090  19.616  24.833  1.00  0.00    -0.237 OA
ATOM     93  O   UNL A   1      42.700  18.651  27.065  1.00  0.00    -0.744 OA
ENDBRANCH  89  90
ENDBRANCH  61  84
BRANCH  73  94
ATOM     94  C   UNL A   1      48.100  27.205  30.300  1.00  0.00    -0.014 A 
ATOM     95  C   UNL A   1      49.017  27.519  29.281  1.00  0.00     0.010 A 
ATOM     96  C   UNL A   1      48.569  26.609  31.485  1.00  0.00     0.010 A 
ATOM     97  C   UNL A   1      50.374  27.226  29.438  1.00  0.00     0.020 A 
ATOM     98  C   UNL A   1      49.930  26.341  31.657  1.00  0.00     0.020 A 
ATOM     99  C   UNL A   1      50.823  26.643  30.627  1.00  0.00     0.054 A 
BRANCH  99 100
ATOM    100  S   UNL A   1      52.598  26.332  30.828  1.00  0.00     0.124 S 
ATOM    101  O   UNL A   1      53.055  26.271  29.443  1.00  0.00    -0.237 OA
ATOM    102  O   UNL A   1      53.043  27.498  31.587  1.00  0.00    -0.237 OA
ATOM    103  O   UNL A   1      52.648  25.066  31.557  1.00  0.00    -0.744 OA
ENDBRANCH  99 100
ENDBRANCH  73  94
ENDBRANCH  47  48
ENDBRANCH  39  42
ENDBRANCH  37  38
ENDBRANCH  36  37
ENDBRANCH  35  36
ENDBRANCH  34  35
ENDBRANCH   3  34
TORSDOF 22
ENDMDL
MODEL 3
REMARK VINA RESULT:     -10.0      2.094      3.413
REMARK SMILES C[C@@H](C(=O)NCCCCNC(=O)c1ccc(-c2c3nc(c(-c4ccc(S(=O)(=O)[O-])cc4)c4ccc([nH]4)c(-c4ccc(S(=O)(=O)[O-])cc4)c4nc(c(-c5ccc(S(=O)(=O)[O-])cc5)c5ccc2[nH]5)C=C4)C=C3)cc1)c1ccc(-c2cccc(OC(=O)NCCCc3ccccc3)c2)c(F)c1
REMARK SMILES IDX 3 1 4 2 5 3 2 5 1 6 73 7 74 8 98 9 75 10 96 11 76 12 97 13
REMARK SMILES IDX 77 14 78 15 95 16 79 17 81 18 80 19 82 20 83 21 84 22 85 23
REMARK SMILES IDX 86 25 87 26 88 27 89 28 90 29 94 30 91 31 93 32 92 33 6 34
REMARK SMILES IDX 7 35 8 36 9 37 10 38 11 39 12 41 13 42 14 43 72 44 15 45
REMARK SMILES IDX 71 46 16 47 17 48 18 49 65 50 19 51 70 52 64 53 66 54 20 55
REMARK SMILES IDX 69 56 63 57 62 58 21 60 51 61 32 62 50 63 33 64 36 65 49 66
REMARK SMILES IDX 67 67 34 68 35 69 48 71 68 72 37 73 22 74 23 75 31 76 24 77
REMARK SMILES IDX 30 78 25 79 26 80 27 81 28 82 29 83 52 84 53 85 61 86 54 87
REMARK SMILES IDX 60 88 55 89 56 90 57 91 58 92 59 93 38 94 39 95 47 96 40 97
REMARK SMILES IDX 46 98 41 99 42 100 43 101 44 102 45 103
REMARK H PARENT 5 4 85 24 10 40 66 59 36 70
REMARK Flexibility Score: inf
ROOT
ATOM      1  C   UNL A   1      31.449  27.250  24.956  1.00  0.00     0.227 C 
ATOM      2  O   UNL A   1      30.587  26.370  24.967  1.00  0.00    -0.274 OA
ATOM      3  N   UNL A   1      31.211  28.338  25.741  1.00  0.00    -0.356 N 
ATOM      4  H   UNL A   1      30.386  28.289  26.275  1.00  0.00     0.163 HD
ENDROOT
BRANCH   1   5
ATOM      5  C   UNL A   1      32.762  27.145  24.158  1.00  0.00     0.105 C 
ATOM      6  C   UNL A   1      32.568  27.353  22.652  1.00  0.00     0.023 C 
BRANCH   5   7
ATOM      7  C   UNL A   1      33.469  25.811  24.366  1.00  0.00    -0.033 A 
ATOM      8  C   UNL A   1      33.909  25.424  25.639  1.00  0.00     0.005 A 
ATOM      9  C   UNL A   1      33.753  24.980  23.274  1.00  0.00     0.044 A 
ATOM     10  C   UNL A   1      34.649  24.248  25.809  1.00  0.00     0.012 A 
ATOM     11  C   UNL A   1      34.479  23.811  23.452  1.00  0.00     0.131 A 
ATOM     12  C   UNL A   1      34.967  23.435  24.710  1.00  0.00     0.018 A 
ATOM     13  F   UNL A   1      34.741  23.061  22.370  1.00  0.00    -0.206 F 
BRANCH  12  14
ATOM     14  C   UNL A   1      35.878  22.292  24.845  1.00  0.00    -0.012 A 
ATOM     15  C   UNL A   1      35.451  20.964  24.700  1.00  0.00     0.009 A 
ATOM     16  C   UNL A   1      37.229  22.533  25.141  1.00  0.00     0.056 A 
ATOM     17  C   UNL A   1      36.357  19.908  24.841  1.00  0.00     0.004 A 
ATOM     18  C   UNL A   1      38.126  21.485  25.295  1.00  0.00     0.133 A 
ATOM     19  C   UNL A   1      37.696  20.167  25.138  1.00  0.00     0.047 A 
BRANCH  18  20
ATOM     20  O   UNL A   1      39.502  21.661  25.565  1.00  0.00    -0.410 OA
BRANCH  20  21
ATOM     21  C   UNL A   1      40.151  21.274  26.737  1.00  0.00     0.412 C 
ATOM     22  O   UNL A   1      40.646  20.181  26.979  1.00  0.00    -0.224 OA
ATOM     23  N   UNL A   1      40.231  22.281  27.658  1.00  0.00    -0.321 N 
ATOM     24  H   UNL A   1      40.559  22.045  28.556  1.00  0.00     0.167 HD
BRANCH  23  25
ATOM     25  C   UNL A   1      39.874  23.657  27.427  1.00  0.00     0.120 C 
BRANCH  25  26
ATOM     26  C   UNL A   1      41.060  24.589  27.183  1.00  0.00     0.026 C 
BRANCH  26  27
ATOM     27  C   UNL A   1      41.222  25.818  28.086  1.00  0.00     0.037 C 
BRANCH  27  28
ATOM     28  C   UNL A   1      40.388  27.059  27.861  1.00  0.00    -0.048 A 
ATOM     29  C   UNL A   1      40.735  28.109  27.006  1.00  0.00     0.004 A 
ATOM     30  C   UNL A   1      39.208  27.190  28.616  1.00  0.00     0.004 A 
ATOM     31  C   UNL A   1      39.936  29.254  26.912  1.00  0.00     0.000 A 
ATOM     32  C   UNL A   1      38.404  28.327  28.516  1.00  0.00     0.000 A 
ATOM     33  C   UNL A   1      38.771  29.363  27.665  1.00  0.00     0.000 A 
ENDBRANCH  27  28
ENDBRANCH  26  27
ENDBRANCH  25  26
ENDBRANCH  23  25
ENDBRANCH  20  21
ENDBRANCH  18  20
ENDBRANCH  12  14
ENDBRANCH   5   7
ENDBRANCH   1   5
BRANCH   3  34
ATOM     34  C   UNL A   1      31.976  29.553  25.913  1.00  0.00     0.116 C 
BRANCH  34  35
ATOM     35  C   UNL A   1      32.691  29.569  27.264  1.00  0.00     0.023 C 
BRANCH  35  36
ATOM     36  C   UNL A   1      34.148  29.103  27.222  1.00  0.00     0.023 C 
BRANCH  36  37
ATOM     37  C   UNL A   1      35.171  30.126  27.701  1.00  0.00     0.116 C 
BRANCH  37  38
ATOM     38  N   UNL A   1      34.560  31.249  28.399  1.00  0.00    -0.352 N 
ATOM     39  C   UNL A   1      34.990  31.899  29.532  1.00  0.00     0.251 C 
ATOM     40  H   UNL A   1      33.724  31.589  28.006  1.00  0.00     0.163 HD
ATOM     41  O   UNL A   1      34.279  32.743  30.067  1.00  0.00    -0.269 OA
BRANCH  39  42
ATOM     42  C   UNL A   1      36.298  31.539  30.116  1.00  0.00     0.039 A 
ATOM     43  C   UNL A   1      37.422  32.289  29.762  1.00  0.00     0.014 A 
ATOM     44  C   UNL A   1      36.397  30.509  31.056  1.00  0.00     0.014 A 
ATOM     45  C   UNL A   1      38.632  32.067  30.425  1.00  0.00     0.010 A 
ATOM     46  C   UNL A   1      37.587  30.332  31.756  1.00  0.00     0.010 A 
ATOM     47  C   UNL A   1      38.708  31.125  31.465  1.00  0.00    -0.014 A 
BRANCH  47  48
ATOM     48  C   UNL A   1      39.923  31.005  32.312  1.00  0.00     0.031 A 
ATOM     49  C   UNL A   1      40.065  31.832  33.559  1.00  0.00     0.074 A 
ATOM     50  C   UNL A   1      40.941  30.225  31.894  1.00  0.00     0.049 A 
ATOM     51  N   UNL A   1      41.096  31.943  34.356  1.00  0.00    -0.248 NA
ATOM     52  C   UNL A   1      38.911  32.658  33.950  1.00  0.00     0.031 C 
ATOM     53  C   UNL A   1      40.941  29.409  30.676  1.00  0.00     0.029 A 
ATOM     54  N   UNL A   1      42.185  30.007  32.433  1.00  0.00    -0.354 N 
ATOM     55  C   UNL A   1      40.727  32.865  35.328  1.00  0.00     0.074 A 
ATOM     56  C   UNL A   1      39.386  33.303  35.009  1.00  0.00     0.031 C 
ATOM     57  C   UNL A   1      42.122  28.781  30.563  1.00  0.00     0.029 A 
ATOM     58  C   UNL A   1      42.982  29.183  31.671  1.00  0.00     0.049 A 
ATOM     59  H   UNL A   1      42.480  30.403  33.285  1.00  0.00     0.167 HD
ATOM     60  C   UNL A   1      41.441  33.298  36.393  1.00  0.00     0.031 A 
ATOM     61  C   UNL A   1      44.269  28.814  31.827  1.00  0.00     0.031 A 
ATOM     62  C   UNL A   1      42.767  32.843  36.717  1.00  0.00     0.049 A 
ATOM     63  C   UNL A   1      45.041  29.329  33.011  1.00  0.00     0.074 A 
ATOM     64  C   UNL A   1      43.531  33.156  37.828  1.00  0.00     0.029 A 
ATOM     65  N   UNL A   1      43.530  31.995  35.933  1.00  0.00    -0.354 N 
ATOM     66  N   UNL A   1      44.636  30.119  33.977  1.00  0.00    -0.248 NA
ATOM     67  C   UNL A   1      46.444  28.906  33.127  1.00  0.00     0.031 C 
ATOM     68  C   UNL A   1      44.782  32.552  37.683  1.00  0.00     0.029 A 
ATOM     69  C   UNL A   1      44.775  31.811  36.512  1.00  0.00     0.049 A 
ATOM     70  H   UNL A   1      43.233  31.583  35.090  1.00  0.00     0.167 HD
ATOM     71  C   UNL A   1      45.729  30.271  34.822  1.00  0.00     0.074 A 
ATOM     72  C   UNL A   1      46.803  29.473  34.271  1.00  0.00     0.031 C 
ATOM     73  C   UNL A   1      45.835  31.013  35.952  1.00  0.00     0.031 A 
BRANCH  60  74
ATOM     74  C   UNL A   1      40.818  34.329  37.296  1.00  0.00    -0.014 A 
ATOM     75  C   UNL A   1      40.009  33.950  38.382  1.00  0.00     0.010 A 
ATOM     76  C   UNL A   1      41.139  35.688  37.120  1.00  0.00     0.010 A 
ATOM     77  C   UNL A   1      39.525  34.914  39.270  1.00  0.00     0.020 A 
ATOM     78  C   UNL A   1      40.676  36.651  38.020  1.00  0.00     0.020 A 
ATOM     79  C   UNL A   1      39.867  36.258  39.087  1.00  0.00     0.054 A 
BRANCH  79  80
ATOM     80  S   UNL A   1      39.285  37.475  40.301  1.00  0.00     0.124 S 
ATOM     81  O   UNL A   1      38.377  38.290  39.499  1.00  0.00    -0.237 OA
ATOM     82  O   UNL A   1      38.648  36.636  41.314  1.00  0.00    -0.237 OA
ATOM     83  O   UNL A   1      40.508  38.148  40.733  1.00  0.00    -0.744 OA
ENDBRANCH  79  80
ENDBRANCH  60  74
BRANCH  61  84
ATOM     84  C   UNL A   1      44.929  27.941  30.816  1.00  0.00    -0.014 A 
ATOM     85  C   UNL A   1      44.898  26.542  30.944  1.00  0.00     0.010 A 
ATOM     86  C   UNL A   1      45.622  28.512  29.732  1.00  0.00     0.010 A 
ATOM     87  C   UNL A   1      45.579  25.731  30.031  1.00  0.00     0.020 A 
ATOM     88  C   UNL A   1      46.277  27.705  28.798  1.00  0.00     0.020 A 
ATOM     89  C   UNL A   1      46.269  26.319  28.966  1.00  0.00     0.054 A 
BRANCH  89  90
ATOM     90  S   UNL A   1      47.137  25.250  27.786  1.00  0.00     0.124 S 
ATOM     91  O   UNL A   1      46.344  24.027  27.846  1.00  0.00    -0.237 OA
ATOM     92  O   UNL A   1      47.039  26.007  26.540  1.00  0.00    -0.237 OA
ATOM     93  O   UNL A   1      48.485  25.152  28.341  1.00  0.00    -0.744 OA
ENDBRANCH  89  90
ENDBRANCH  61  84
BRANCH  73  94
ATOM     94  C   UNL A   1      47.151  30.988  36.680  1.00  0.00    -0.014 A 
ATOM     95  C   UNL A   1      48.109  31.997  36.477  1.00  0.00     0.010 A 
ATOM     96  C   UNL A   1      47.405  29.982  37.630  1.00  0.00     0.010 A 
ATOM     97  C   UNL A   1      49.305  31.991  37.200  1.00  0.00     0.020 A 
ATOM     98  C   UNL A   1      48.588  29.988  38.375  1.00  0.00     0.020 A 
ATOM     99  C   UNL A   1      49.535  30.988  38.147  1.00  0.00     0.054 A 
BRANCH  99 100
ATOM    100  S   UNL A   1      51.068  31.040  39.114  1.00  0.00     0.124 S 
ATOM    101  O   UNL A   1      50.581  31.429  40.435  1.00  0.00    -0.237 OA
ATOM    102  O   UNL A   1      51.562  29.670  39.005  1.00  0.00    -0.237 OA
ATOM    103  O   UNL A   1      51.877  32.045  38.429  1.00  0.00    -0.744 OA
ENDBRANCH  99 100
ENDBRANCH  73  94
ENDBRANCH  47  48
ENDBRANCH  39  42
ENDBRANCH  37  38
ENDBRANCH  36  37
ENDBRANCH  35  36
ENDBRANCH  34  35
ENDBRANCH   3  34
TORSDOF 22
ENDMDL
