MODEL 1
REMARK VINA RESULT:     -10.2      0.000      0.000
REMARK SMILES CC[C@H](C)CN(CC)C(=O)Nc1ccc(C(=O)NCCCCNC(=O)c2ccc(-c3c4nc(c(-c5ccc(S(=O)(=O)[O-])cc5)c5ccc([nH]5)c(-c5ccc(S(=O)(=O)[O-])cc5)c5nc(c(-c6ccc(S(=O)(=O)[O-])cc6)c6ccc3[nH]6)C=C5)C=C4)cc2)cc1Cl
REMARK SMILES IDX 19 1 18 2 16 3 17 4 15 6 12 7 13 8 87 9 14 10 86 11 88 12
REMARK SMILES IDX 11 13 9 14 10 15 6 17 5 18 3 19 4 20 2 21 1 22 7 23 8 24
REMARK SMILES IDX 20 25 21 26 22 27 23 28 24 29 25 31 26 32 27 33 85 34 28 35
REMARK SMILES IDX 84 36 29 37 30 38 31 39 78 40 32 41 83 42 77 43 79 44 33 45
REMARK SMILES IDX 82 46 76 47 75 48 34 50 64 51 45 52 63 53 46 54 49 55 62 56
REMARK SMILES IDX 80 57 47 58 48 59 61 61 81 62 50 63 35 64 36 65 44 66 37 67
REMARK SMILES IDX 43 68 38 69 39 70 40 71 41 72 42 73 65 74 66 75 74 76 67 77
REMARK SMILES IDX 73 78 68 79 69 80 70 81 71 82 72 83 51 84 52 85 60 86 53 87
REMARK SMILES IDX 59 88 54 89 55 90 56 91 57 92 58 93
REMARK H PARENT 18 5 11 16 23 30 79 49 49 60
REMARK Flexibility Score: inf
ROOT
ATOM      1  C   UNL A   1      37.831  22.480  25.583  1.00  0.00     0.116 C 
ENDROOT
BRANCH   1   2
ATOM      2  N   UNL A   1      36.680  22.084  26.381  1.00  0.00    -0.352 N 
ATOM      3  C   UNL A   1      35.341  22.318  26.197  1.00  0.00     0.251 C 
ATOM      4  O   UNL A   1      34.521  21.780  26.936  1.00  0.00    -0.269 OA
ATOM      5  H   UNL A   1      36.900  21.561  27.186  1.00  0.00     0.163 HD
BRANCH   3   6
ATOM      6  C   UNL A   1      34.857  23.143  25.066  1.00  0.00     0.041 A 
ATOM      7  C   UNL A   1      33.707  24.821  23.163  1.00  0.00     0.061 A 
ATOM      8  C   UNL A   1      34.527  25.362  24.158  1.00  0.00     0.028 A 
ATOM      9  C   UNL A   1      33.614  23.430  23.016  1.00  0.00     0.065 A 
ATOM     10  C   UNL A   1      35.081  24.524  25.124  1.00  0.00     0.016 A 
ATOM     11  C   UNL A   1      34.203  22.592  23.961  1.00  0.00     0.036 A 
ATOM     12  Cl  UNL A   1      32.831  22.707  21.657  1.00  0.00    -0.082 Cl
BRANCH   7  13
ATOM     13  N   UNL A   1      33.014  25.717  22.350  1.00  0.00    -0.306 N 
ATOM     14  C   UNL A   1      31.851  26.395  22.538  1.00  0.00     0.321 C 
ATOM     15  O   UNL A   1      31.290  26.780  21.506  1.00  0.00    -0.248 OA
ATOM     16  H   UNL A   1      33.445  25.892  21.483  1.00  0.00     0.171 HD
BRANCH  14  17
ATOM     17  N   UNL A   1      31.397  26.766  23.791  1.00  0.00    -0.325 N 
BRANCH  17  18
ATOM     18  C   UNL A   1      30.215  26.054  24.308  1.00  0.00     0.124 C 
BRANCH  18  19
ATOM     19  C   UNL A   1      30.404  25.537  25.762  1.00  0.00     0.005 C 
ATOM     20  C   UNL A   1      29.056  25.201  26.411  1.00  0.00     0.009 C 
BRANCH  19  21
ATOM     21  C   UNL A   1      31.338  24.308  25.758  1.00  0.00     0.002 C 
ATOM     22  C   UNL A   1      30.706  23.051  26.345  1.00  0.00     0.004 C 
ENDBRANCH  19  21
ENDBRANCH  18  19
ENDBRANCH  17  18
BRANCH  17  23
ATOM     23  C   UNL A   1      31.896  27.828  24.675  1.00  0.00     0.118 C 
ATOM     24  C   UNL A   1      31.039  29.087  24.593  1.00  0.00     0.027 C 
ENDBRANCH  17  23
ENDBRANCH  14  17
ENDBRANCH   7  13
ENDBRANCH   3   6
ENDBRANCH   1   2
BRANCH   1  25
ATOM     25  C   UNL A   1      38.865  23.228  26.424  1.00  0.00     0.023 C 
BRANCH  25  26
ATOM     26  C   UNL A   1      40.137  22.430  26.718  1.00  0.00     0.023 C 
BRANCH  26  27
ATOM     27  C   UNL A   1      41.394  23.267  26.939  1.00  0.00     0.116 C 
BRANCH  27  28
ATOM     28  N   UNL A   1      41.684  24.167  25.832  1.00  0.00    -0.352 N 
ATOM     29  C   UNL A   1      41.816  25.535  25.843  1.00  0.00     0.251 C 
ATOM     30  H   UNL A   1      41.801  23.736  24.955  1.00  0.00     0.163 HD
ATOM     31  O   UNL A   1      41.948  26.146  24.785  1.00  0.00    -0.269 OA
BRANCH  29  32
ATOM     32  C   UNL A   1      41.759  26.269  27.126  1.00  0.00     0.039 A 
ATOM     33  C   UNL A   1      42.633  27.340  27.328  1.00  0.00     0.014 A 
ATOM     34  C   UNL A   1      40.825  25.927  28.107  1.00  0.00     0.014 A 
ATOM     35  C   UNL A   1      42.512  28.122  28.480  1.00  0.00     0.010 A 
ATOM     36  C   UNL A   1      40.662  26.746  29.221  1.00  0.00     0.010 A 
ATOM     37  C   UNL A   1      41.494  27.859  29.412  1.00  0.00    -0.014 A 
BRANCH  37  38
ATOM     38  C   UNL A   1      41.255  28.766  30.564  1.00  0.00     0.031 A 
ATOM     39  C   UNL A   1      42.083  28.649  31.813  1.00  0.00     0.074 A 
ATOM     40  C   UNL A   1      40.234  29.644  30.513  1.00  0.00     0.049 A 
ATOM     41  N   UNL A   1      41.979  29.314  32.936  1.00  0.00    -0.248 NA
ATOM     42  C   UNL A   1      43.152  27.638  31.811  1.00  0.00     0.031 C 
ATOM     43  C   UNL A   1      39.329  29.825  29.374  1.00  0.00     0.029 A 
ATOM     44  N   UNL A   1      39.781  30.547  31.442  1.00  0.00    -0.354 N 
ATOM     45  C   UNL A   1      42.956  28.797  33.776  1.00  0.00     0.074 A 
ATOM     46  C   UNL A   1      43.613  27.730  33.050  1.00  0.00     0.031 C 
ATOM     47  C   UNL A   1      38.448  30.795  29.662  1.00  0.00     0.029 A 
ATOM     48  C   UNL A   1      38.695  31.277  31.017  1.00  0.00     0.049 A 
ATOM     49  H   UNL A   1      40.192  30.660  32.328  1.00  0.00     0.167 HD
ATOM     50  C   UNL A   1      43.290  29.184  35.031  1.00  0.00     0.031 A 
ATOM     51  C   UNL A   1      37.973  32.224  31.647  1.00  0.00     0.031 A 
ATOM     52  C   UNL A   1      42.636  30.246  35.750  1.00  0.00     0.049 A 
ATOM     53  C   UNL A   1      38.346  32.621  33.049  1.00  0.00     0.074 A 
ATOM     54  C   UNL A   1      42.940  30.753  37.001  1.00  0.00     0.029 A 
ATOM     55  N   UNL A   1      41.537  30.956  35.288  1.00  0.00    -0.354 N 
ATOM     56  N   UNL A   1      39.322  32.169  33.799  1.00  0.00    -0.248 NA
ATOM     57  C   UNL A   1      37.521  33.657  33.685  1.00  0.00     0.031 C 
ATOM     58  C   UNL A   1      41.993  31.732  37.318  1.00  0.00     0.029 A 
ATOM     59  C   UNL A   1      41.131  31.874  36.242  1.00  0.00     0.049 A 
ATOM     60  H   UNL A   1      41.108  30.826  34.411  1.00  0.00     0.167 HD
ATOM     61  C   UNL A   1      39.240  32.879  34.992  1.00  0.00     0.074 A 
ATOM     62  C   UNL A   1      38.130  33.801  34.855  1.00  0.00     0.031 C 
ATOM     63  C   UNL A   1      40.015  32.775  36.100  1.00  0.00     0.031 A 
BRANCH  50  64
ATOM     64  C   UNL A   1      44.410  28.440  35.709  1.00  0.00    -0.014 A 
ATOM     65  C   UNL A   1      45.757  28.763  35.456  1.00  0.00     0.010 A 
ATOM     66  C   UNL A   1      44.115  27.416  36.626  1.00  0.00     0.010 A 
ATOM     67  C   UNL A   1      46.785  28.041  36.064  1.00  0.00     0.020 A 
ATOM     68  C   UNL A   1      45.143  26.709  37.260  1.00  0.00     0.020 A 
ATOM     69  C   UNL A   1      46.472  27.012  36.957  1.00  0.00     0.054 A 
BRANCH  69  70
ATOM     70  S   UNL A   1      47.827  26.086  37.729  1.00  0.00     0.124 S 
ATOM     71  O   UNL A   1      47.496  24.711  37.365  1.00  0.00    -0.237 OA
ATOM     72  O   UNL A   1      49.009  26.641  37.074  1.00  0.00    -0.237 OA
ATOM     73  O   UNL A   1      47.699  26.403  39.149  1.00  0.00    -0.744 OA
ENDBRANCH  69  70
ENDBRANCH  50  64
BRANCH  51  74
ATOM     74  C   UNL A   1      36.831  32.870  30.944  1.00  0.00    -0.014 A 
ATOM     75  C   UNL A   1      35.514  32.460  31.208  1.00  0.00     0.010 A 
ATOM     76  C   UNL A   1      37.054  33.921  30.037  1.00  0.00     0.010 A 
ATOM     77  C   UNL A   1      34.437  33.086  30.572  1.00  0.00     0.020 A 
ATOM     78  C   UNL A   1      35.979  34.566  29.419  1.00  0.00     0.020 A 
ATOM     79  C   UNL A   1      34.677  34.139  29.686  1.00  0.00     0.054 A 
BRANCH  79  80
ATOM     80  S   UNL A   1      33.260  34.987  28.931  1.00  0.00     0.124 S 
ATOM     81  O   UNL A   1      32.731  33.958  28.040  1.00  0.00    -0.237 OA
ATOM     82  O   UNL A   1      32.432  35.309  30.090  1.00  0.00    -0.237 OA
ATOM     83  O   UNL A   1      33.866  36.139  28.267  1.00  0.00    -0.744 OA
ENDBRANCH  79  80
ENDBRANCH  51  74
BRANCH  63  84
ATOM     84  C   UNL A   1      39.695  33.687  37.254  1.00  0.00    -0.014 A 
ATOM     85  C   UNL A   1      38.783  33.302  38.252  1.00  0.00     0.010 A 
ATOM     86  C   UNL A   1      40.357  34.924  37.369  1.00  0.00     0.010 A 
ATOM     87  C   UNL A   1      38.519  34.147  39.333  1.00  0.00     0.020 A 
ATOM     88  C   UNL A   1      40.115  35.760  38.463  1.00  0.00     0.020 A 
ATOM     89  C   UNL A   1      39.187  35.371  39.431  1.00  0.00     0.054 A 
BRANCH  89  90
ATOM     90  S   UNL A   1      38.863  36.428  40.870  1.00  0.00     0.124 S 
ATOM     91  O   UNL A   1      40.186  36.523  41.481  1.00  0.00    -0.237 OA
ATOM     92  O   UNL A   1      38.364  37.658  40.259  1.00  0.00    -0.237 OA
ATOM     93  O   UNL A   1      37.873  35.675  41.637  1.00  0.00    -0.744 OA
ENDBRANCH  89  90
ENDBRANCH  63  84
ENDBRANCH  37  38
ENDBRANCH  29  32
ENDBRANCH  27  28
ENDBRANCH  26  27
ENDBRANCH  25  26
ENDBRANCH   1  25
TORSDOF 20
ENDMDL
MODEL 2
REMARK VINA RESULT:      -9.8      1.727      2.443
REMARK SMILES CC[C@H](C)CN(CC)C(=O)Nc1ccc(C(=O)NCCCCNC(=O)c2ccc(-c3c4nc(c(-c5ccc(S(=O)(=O)[O-])cc5)c5ccc([nH]5)c(-c5ccc(S(=O)(=O)[O-])cc5)c5nc(c(-c6ccc(S(=O)(=O)[O-])cc6)c6ccc3[nH]6)C=C5)C=C4)cc2)cc1Cl
REMARK SMILES IDX 19 1 18 2 16 3 17 4 15 6 12 7 13 8 87 9 14 10 86 11 88 12
REMARK SMILES IDX 11 13 9 14 10 15 6 17 5 18 3 19 4 20 2 21 1 22 7 23 8 24
REMARK SMILES IDX 20 25 21 26 22 27 23 28 24 29 25 31 26 32 27 33 85 34 28 35
REMARK SMILES IDX 84 36 29 37 30 38 31 39 78 40 32 41 83 42 77 43 79 44 33 45
REMARK SMILES IDX 82 46 76 47 75 48 34 50 64 51 45 52 63 53 46 54 49 55 62 56
REMARK SMILES IDX 80 57 47 58 48 59 61 61 81 62 50 63 35 64 36 65 44 66 37 67
REMARK SMILES IDX 43 68 38 69 39 70 40 71 41 72 42 73 65 74 66 75 74 76 67 77
REMARK SMILES IDX 73 78 68 79 69 80 70 81 71 82 72 83 51 84 52 85 60 86 53 87
REMARK SMILES IDX 59 88 54 89 55 90 56 91 57 92 58 93
REMARK H PARENT 18 5 11 16 23 30 79 49 49 60
REMARK Flexibility Score: inf
ROOT
ATOM      1  C   UNL A   1      36.827  22.545  24.975  1.00  0.00     0.116 C 
ENDROOT
BRANCH   1   2
ATOM      2  N   UNL A   1      36.304  21.187  24.993  1.00  0.00    -0.352 N 
ATOM      3  C   UNL A   1      35.013  20.727  25.073  1.00  0.00     0.251 C 
ATOM      4  O   UNL A   1      34.785  19.528  24.946  1.00  0.00    -0.269 OA
ATOM      5  H   UNL A   1      36.989  20.483  24.938  1.00  0.00     0.163 HD
BRANCH   3   6
ATOM      6  C   UNL A   1      33.876  21.664  25.224  1.00  0.00     0.041 A 
ATOM      7  C   UNL A   1      31.571  23.162  25.672  1.00  0.00     0.061 A 
ATOM      8  C   UNL A   1      32.447  22.907  26.731  1.00  0.00     0.028 A 
ATOM      9  C   UNL A   1      31.941  22.823  24.364  1.00  0.00     0.065 A 
ATOM     10  C   UNL A   1      33.587  22.136  26.510  1.00  0.00     0.016 A 
ATOM     11  C   UNL A   1      33.103  22.087  24.140  1.00  0.00     0.036 A 
ATOM     12  Cl  UNL A   1      31.025  23.341  22.994  1.00  0.00    -0.082 Cl
BRANCH   7  13
ATOM     13  N   UNL A   1      30.348  23.756  25.985  1.00  0.00    -0.306 N 
ATOM     14  C   UNL A   1      30.001  25.053  26.198  1.00  0.00     0.321 C 
ATOM     15  O   UNL A   1      28.963  25.223  26.848  1.00  0.00    -0.248 OA
ATOM     16  H   UNL A   1      29.601  23.121  26.066  1.00  0.00     0.171 HD
BRANCH  14  17
ATOM     17  N   UNL A   1      30.667  26.110  25.605  1.00  0.00    -0.325 N 
BRANCH  17  18
ATOM     18  C   UNL A   1      31.544  26.914  26.474  1.00  0.00     0.124 C 
BRANCH  18  19
ATOM     19  C   UNL A   1      32.928  27.213  25.831  1.00  0.00     0.005 C 
ATOM     20  C   UNL A   1      33.609  28.407  26.511  1.00  0.00     0.009 C 
BRANCH  19  21
ATOM     21  C   UNL A   1      33.817  25.953  25.903  1.00  0.00     0.002 C 
ATOM     22  C   UNL A   1      34.418  25.544  24.563  1.00  0.00     0.004 C 
ENDBRANCH  19  21
ENDBRANCH  18  19
ENDBRANCH  17  18
BRANCH  17  23
ATOM     23  C   UNL A   1      30.579  26.595  24.221  1.00  0.00     0.118 C 
ATOM     24  C   UNL A   1      30.191  28.069  24.157  1.00  0.00     0.027 C 
ENDBRANCH  17  23
ENDBRANCH  14  17
ENDBRANCH   7  13
ENDBRANCH   3   6
ENDBRANCH   1   2
BRANCH   1  25
ATOM     25  C   UNL A   1      37.919  22.738  26.027  1.00  0.00     0.023 C 
BRANCH  25  26
ATOM     26  C   UNL A   1      38.051  24.173  26.544  1.00  0.00     0.023 C 
BRANCH  26  27
ATOM     27  C   UNL A   1      39.422  24.538  27.105  1.00  0.00     0.116 C 
BRANCH  27  28
ATOM     28  N   UNL A   1      40.280  25.200  26.133  1.00  0.00    -0.352 N 
ATOM     29  C   UNL A   1      40.810  26.468  26.171  1.00  0.00     0.251 C 
ATOM     30  H   UNL A   1      40.512  24.667  25.340  1.00  0.00     0.163 HD
ATOM     31  O   UNL A   1      41.422  26.906  25.200  1.00  0.00    -0.269 OA
BRANCH  29  32
ATOM     32  C   UNL A   1      40.605  27.315  27.367  1.00  0.00     0.039 A 
ATOM     33  C   UNL A   1      39.932  26.776  28.466  1.00  0.00     0.014 A 
ATOM     34  C   UNL A   1      41.107  28.618  27.417  1.00  0.00     0.014 A 
ATOM     35  C   UNL A   1      39.837  27.516  29.648  1.00  0.00     0.010 A 
ATOM     36  C   UNL A   1      41.070  29.326  28.615  1.00  0.00     0.010 A 
ATOM     37  C   UNL A   1      40.447  28.777  29.747  1.00  0.00    -0.014 A 
BRANCH  37  38
ATOM     38  C   UNL A   1      40.486  29.513  31.036  1.00  0.00     0.031 A 
ATOM     39  C   UNL A   1      41.564  29.231  32.045  1.00  0.00     0.074 A 
ATOM     40  C   UNL A   1      39.499  30.383  31.330  1.00  0.00     0.049 A 
ATOM     41  N   UNL A   1      41.723  29.734  33.243  1.00  0.00    -0.248 NA
ATOM     42  C   UNL A   1      42.583  28.239  31.670  1.00  0.00     0.031 C 
ATOM     43  C   UNL A   1      38.371  30.713  30.454  1.00  0.00     0.029 A 
ATOM     44  N   UNL A   1      39.281  31.145  32.451  1.00  0.00    -0.354 N 
ATOM     45  C   UNL A   1      42.848  29.113  33.769  1.00  0.00     0.074 A 
ATOM     46  C   UNL A   1      43.305  28.161  32.778  1.00  0.00     0.031 C 
ATOM     47  C   UNL A   1      37.597  31.627  31.059  1.00  0.00     0.029 A 
ATOM     48  C   UNL A   1      38.146  31.919  32.379  1.00  0.00     0.049 A 
ATOM     49  H   UNL A   1      39.878  31.138  33.232  1.00  0.00     0.167 HD
ATOM     50  C   UNL A   1      43.457  29.325  34.961  1.00  0.00     0.031 A 
ATOM     51  C   UNL A   1      37.601  32.764  33.276  1.00  0.00     0.031 A 
ATOM     52  C   UNL A   1      43.000  30.271  35.944  1.00  0.00     0.049 A 
ATOM     53  C   UNL A   1      38.280  32.965  34.602  1.00  0.00     0.074 A 
ATOM     54  C   UNL A   1      43.582  30.603  37.156  1.00  0.00     0.029 A 
ATOM     55  N   UNL A   1      41.844  31.031  35.836  1.00  0.00    -0.354 N 
ATOM     56  N   UNL A   1      39.385  32.422  35.051  1.00  0.00    -0.248 NA
ATOM     57  C   UNL A   1      37.639  33.897  35.539  1.00  0.00     0.031 C 
ATOM     58  C   UNL A   1      42.750  31.522  37.804  1.00  0.00     0.029 A 
ATOM     59  C   UNL A   1      41.677  31.805  36.973  1.00  0.00     0.049 A 
ATOM     60  H   UNL A   1      41.231  31.020  35.065  1.00  0.00     0.167 HD
ATOM     61  C   UNL A   1      39.582  32.958  36.318  1.00  0.00     0.074 A 
ATOM     62  C   UNL A   1      38.491  33.883  36.555  1.00  0.00     0.031 C 
ATOM     63  C   UNL A   1      40.578  32.708  37.204  1.00  0.00     0.031 A 
BRANCH  50  64
ATOM     64  C   UNL A   1      44.681  28.502  35.268  1.00  0.00    -0.014 A 
ATOM     65  C   UNL A   1      45.943  28.857  34.757  1.00  0.00     0.010 A 
ATOM     66  C   UNL A   1      44.573  27.369  36.094  1.00  0.00     0.010 A 
ATOM     67  C   UNL A   1      47.063  28.065  35.021  1.00  0.00     0.020 A 
ATOM     68  C   UNL A   1      45.698  26.589  36.384  1.00  0.00     0.020 A 
ATOM     69  C   UNL A   1      46.931  26.931  35.826  1.00  0.00     0.054 A 
BRANCH  69  70
ATOM     70  S   UNL A   1      48.400  25.917  36.149  1.00  0.00     0.124 S 
ATOM     71  O   UNL A   1      48.136  25.429  37.500  1.00  0.00    -0.237 OA
ATOM     72  O   UNL A   1      48.332  24.909  35.094  1.00  0.00    -0.237 OA
ATOM     73  O   UNL A   1      49.507  26.862  36.033  1.00  0.00    -0.744 OA
ENDBRANCH  69  70
ENDBRANCH  50  64
BRANCH  51  74
ATOM     74  C   UNL A   1      36.348  33.492  32.936  1.00  0.00    -0.014 A 
ATOM     75  C   UNL A   1      36.385  34.865  32.639  1.00  0.00     0.010 A 
ATOM     76  C   UNL A   1      35.120  32.810  32.873  1.00  0.00     0.010 A 
ATOM     77  C   UNL A   1      35.215  35.545  32.289  1.00  0.00     0.020 A 
ATOM     78  C   UNL A   1      33.952  33.481  32.499  1.00  0.00     0.020 A 
ATOM     79  C   UNL A   1      34.007  34.847  32.215  1.00  0.00     0.054 A 
BRANCH  79  80
ATOM     80  S   UNL A   1      32.514  35.734  31.686  1.00  0.00     0.124 S 
ATOM     81  O   UNL A   1      31.509  35.214  32.608  1.00  0.00    -0.237 OA
ATOM     82  O   UNL A   1      32.893  37.132  31.883  1.00  0.00    -0.237 OA
ATOM     83  O   UNL A   1      32.354  35.331  30.291  1.00  0.00    -0.744 OA
ENDBRANCH  79  80
ENDBRANCH  51  74
BRANCH  63  84
ATOM     84  C   UNL A   1      40.539  33.449  38.513  1.00  0.00    -0.014 A 
ATOM     85  C   UNL A   1      40.391  32.763  39.731  1.00  0.00     0.010 A 
ATOM     86  C   UNL A   1      40.708  34.846  38.529  1.00  0.00     0.010 A 
ATOM     87  C   UNL A   1      40.387  33.462  40.941  1.00  0.00     0.020 A 
ATOM     88  C   UNL A   1      40.730  35.546  39.739  1.00  0.00     0.020 A 
ATOM     89  C   UNL A   1      40.557  34.850  40.937  1.00  0.00     0.054 A 
BRANCH  89  90
ATOM     90  S   UNL A   1      40.597  35.728  42.524  1.00  0.00     0.124 S 
ATOM     91  O   UNL A   1      40.718  34.629  43.477  1.00  0.00    -0.237 OA
ATOM     92  O   UNL A   1      41.778  36.578  42.390  1.00  0.00    -0.237 OA
ATOM     93  O   UNL A   1      39.323  36.444  42.556  1.00  0.00    -0.744 OA
ENDBRANCH  89  90
ENDBRANCH  63  84
ENDBRANCH  37  38
ENDBRANCH  29  32
ENDBRANCH  27  28
ENDBRANCH  26  27
ENDBRANCH  25  26
ENDBRANCH   1  25
TORSDOF 20
ENDMDL
MODEL 3
REMARK VINA RESULT:      -9.4      6.005     11.606
REMARK SMILES CC[C@H](C)CN(CC)C(=O)Nc1ccc(C(=O)NCCCCNC(=O)c2ccc(-c3c4nc(c(-c5ccc(S(=O)(=O)[O-])cc5)c5ccc([nH]5)c(-c5ccc(S(=O)(=O)[O-])cc5)c5nc(c(-c6ccc(S(=O)(=O)[O-])cc6)c6ccc3[nH]6)C=C5)C=C4)cc2)cc1Cl
REMARK SMILES IDX 19 1 18 2 16 3 17 4 15 6 12 7 13 8 87 9 14 10 86 11 88 12
REMARK SMILES IDX 11 13 9 14 10 15 6 17 5 18 3 19 4 20 2 21 1 22 7 23 8 24
REMARK SMILES IDX 20 25 21 26 22 27 23 28 24 29 25 31 26 32 27 33 85 34 28 35
REMARK SMILES IDX 84 36 29 37 30 38 31 39 78 40 32 41 83 42 77 43 79 44 33 45
REMARK SMILES IDX 82 46 76 47 75 48 34 50 64 51 45 52 63 53 46 54 49 55 62 56
REMARK SMILES IDX 80 57 47 58 48 59 61 61 81 62 50 63 35 64 36 65 44 66 37 67
REMARK SMILES IDX 43 68 38 69 39 70 40 71 41 72 42 73 65 74 66 75 74 76 67 77
REMARK SMILES IDX 73 78 68 79 69 80 70 81 71 82 72 83 51 84 52 85 60 86 53 87
REMARK SMILES IDX 59 88 54 89 55 90 56 91 57 92 58 93
REMARK H PARENT 18 5 11 16 23 30 79 49 49 60
REMARK Flexibility Score: inf
ROOT
ATOM      1  C   UNL A   1      35.054  29.750  27.115  1.00  0.00     0.116 C 
ENDROOT
BRANCH   1   2
ATOM      2  N   UNL A   1      34.038  30.088  26.129  1.00  0.00    -0.352 N 
ATOM      3  C   UNL A   1      33.153  29.290  25.449  1.00  0.00     0.251 C 
ATOM      4  O   UNL A   1      32.287  29.803  24.745  1.00  0.00    -0.269 OA
ATOM      5  H   UNL A   1      33.976  31.046  25.916  1.00  0.00     0.163 HD
BRANCH   3   6
ATOM      6  C   UNL A   1      33.166  27.818  25.615  1.00  0.00     0.041 A 
ATOM      7  C   UNL A   1      33.330  25.110  26.245  1.00  0.00     0.061 A 
ATOM      8  C   UNL A   1      32.335  25.898  26.832  1.00  0.00     0.028 A 
ATOM      9  C   UNL A   1      34.119  25.636  25.214  1.00  0.00     0.065 A 
ATOM     10  C   UNL A   1      32.270  27.258  26.534  1.00  0.00     0.016 A 
ATOM     11  C   UNL A   1      34.025  26.989  24.890  1.00  0.00     0.036 A 
ATOM     12  Cl  UNL A   1      35.180  24.644  24.280  1.00  0.00    -0.082 Cl
BRANCH   7  13
ATOM     13  N   UNL A   1      33.482  23.811  26.730  1.00  0.00    -0.306 N 
ATOM     14  C   UNL A   1      32.573  22.866  27.087  1.00  0.00     0.321 C 
ATOM     15  O   UNL A   1      32.993  21.989  27.851  1.00  0.00    -0.248 OA
ATOM     16  H   UNL A   1      34.419  23.527  26.832  1.00  0.00     0.171 HD
BRANCH  14  17
ATOM     17  N   UNL A   1      31.312  22.793  26.522  1.00  0.00    -0.325 N 
BRANCH  17  18
ATOM     18  C   UNL A   1      31.190  22.032  25.266  1.00  0.00     0.124 C 
BRANCH  18  19
ATOM     19  C   UNL A   1      31.804  22.773  24.045  1.00  0.00     0.005 C 
ATOM     20  C   UNL A   1      32.370  21.780  23.022  1.00  0.00     0.009 C 
BRANCH  19  21
ATOM     21  C   UNL A   1      30.738  23.685  23.401  1.00  0.00     0.002 C 
ATOM     22  C   UNL A   1      31.292  25.002  22.869  1.00  0.00     0.004 C 
ENDBRANCH  19  21
ENDBRANCH  18  19
ENDBRANCH  17  18
BRANCH  17  23
ATOM     23  C   UNL A   1      30.064  23.425  26.970  1.00  0.00     0.118 C 
ATOM     24  C   UNL A   1      28.981  22.395  27.275  1.00  0.00     0.027 C 
ENDBRANCH  17  23
ENDBRANCH  14  17
ENDBRANCH   7  13
ENDBRANCH   3   6
ENDBRANCH   1   2
BRANCH   1  25
ATOM     25  C   UNL A   1      35.028  30.716  28.299  1.00  0.00     0.023 C 
BRANCH  25  26
ATOM     26  C   UNL A   1      35.552  32.119  27.982  1.00  0.00     0.023 C 
BRANCH  26  27
ATOM     27  C   UNL A   1      36.538  32.690  28.997  1.00  0.00     0.116 C 
BRANCH  27  28
ATOM     28  N   UNL A   1      36.205  32.349  30.373  1.00  0.00    -0.352 N 
ATOM     29  C   UNL A   1      36.819  31.450  31.213  1.00  0.00     0.251 C 
ATOM     30  H   UNL A   1      35.434  32.827  30.753  1.00  0.00     0.163 HD
ATOM     31  O   UNL A   1      36.327  31.204  32.311  1.00  0.00    -0.269 OA
BRANCH  29  32
ATOM     32  C   UNL A   1      38.047  30.754  30.773  1.00  0.00     0.039 A 
ATOM     33  C   UNL A   1      38.272  30.583  29.405  1.00  0.00     0.014 A 
ATOM     34  C   UNL A   1      38.989  30.305  31.703  1.00  0.00     0.014 A 
ATOM     35  C   UNL A   1      39.481  30.039  28.966  1.00  0.00     0.010 A 
ATOM     36  C   UNL A   1      40.220  29.826  31.263  1.00  0.00     0.010 A 
ATOM     37  C   UNL A   1      40.484  29.701  29.890  1.00  0.00    -0.014 A 
BRANCH  37  38
ATOM     38  C   UNL A   1      41.829  29.262  29.438  1.00  0.00     0.031 A 
ATOM     39  C   UNL A   1      42.974  30.234  29.393  1.00  0.00     0.074 A 
ATOM     40  C   UNL A   1      41.998  28.001  28.992  1.00  0.00     0.049 A 
ATOM     41  N   UNL A   1      44.200  30.044  28.974  1.00  0.00    -0.248 NA
ATOM     42  C   UNL A   1      42.704  31.604  29.856  1.00  0.00     0.031 C 
ATOM     43  C   UNL A   1      40.955  26.973  28.944  1.00  0.00     0.029 A 
ATOM     44  N   UNL A   1      43.108  27.370  28.489  1.00  0.00    -0.354 N 
ATOM     45  C   UNL A   1      44.842  31.268  29.111  1.00  0.00     0.074 A 
ATOM     46  C   UNL A   1      43.857  32.207  29.606  1.00  0.00     0.031 C 
ATOM     47  C   UNL A   1      41.480  25.835  28.465  1.00  0.00     0.029 A 
ATOM     48  C   UNL A   1      42.882  26.061  28.132  1.00  0.00     0.049 A 
ATOM     49  H   UNL A   1      43.981  27.811  28.392  1.00  0.00     0.167 HD
ATOM     50  C   UNL A   1      46.137  31.581  28.862  1.00  0.00     0.031 A 
ATOM     51  C   UNL A   1      43.708  25.144  27.590  1.00  0.00     0.031 A 
ATOM     52  C   UNL A   1      47.114  30.647  28.369  1.00  0.00     0.049 A 
ATOM     53  C   UNL A   1      45.134  25.520  27.300  1.00  0.00     0.074 A 
ATOM     54  C   UNL A   1      48.464  30.851  28.143  1.00  0.00     0.029 A 
ATOM     55  N   UNL A   1      46.845  29.332  28.013  1.00  0.00    -0.354 N 
ATOM     56  N   UNL A   1      45.741  26.664  27.505  1.00  0.00    -0.248 NA
ATOM     57  C   UNL A   1      45.986  24.480  26.708  1.00  0.00     0.031 C 
ATOM     58  C   UNL A   1      48.999  29.678  27.600  1.00  0.00     0.029 A 
ATOM     59  C   UNL A   1      47.995  28.725  27.539  1.00  0.00     0.049 A 
ATOM     60  H   UNL A   1      45.965  28.896  28.087  1.00  0.00     0.167 HD
ATOM     61  C   UNL A   1      47.052  26.477  27.083  1.00  0.00     0.074 A 
ATOM     62  C   UNL A   1      47.154  25.104  26.629  1.00  0.00     0.031 C 
ATOM     63  C   UNL A   1      48.079  27.363  27.074  1.00  0.00     0.031 A 
BRANCH  50  64
ATOM     64  C   UNL A   1      46.564  33.005  29.110  1.00  0.00    -0.014 A 
ATOM     65  C   UNL A   1      47.058  33.408  30.365  1.00  0.00     0.010 A 
ATOM     66  C   UNL A   1      46.489  33.949  28.071  1.00  0.00     0.010 A 
ATOM     67  C   UNL A   1      47.416  34.738  30.591  1.00  0.00     0.020 A 
ATOM     68  C   UNL A   1      46.875  35.277  28.285  1.00  0.00     0.020 A 
ATOM     69  C   UNL A   1      47.314  35.666  29.551  1.00  0.00     0.054 A 
BRANCH  69  70
ATOM     70  S   UNL A   1      47.782  37.389  29.873  1.00  0.00     0.124 S 
ATOM     71  O   UNL A   1      48.400  37.773  28.607  1.00  0.00    -0.237 OA
ATOM     72  O   UNL A   1      46.497  38.022  30.161  1.00  0.00    -0.237 OA
ATOM     73  O   UNL A   1      48.695  37.295  31.009  1.00  0.00    -0.744 OA
ENDBRANCH  69  70
ENDBRANCH  50  64
BRANCH  51  74
ATOM     74  C   UNL A   1      43.201  23.774  27.303  1.00  0.00    -0.014 A 
ATOM     75  C   UNL A   1      42.808  23.424  26.000  1.00  0.00     0.010 A 
ATOM     76  C   UNL A   1      43.144  22.805  28.321  1.00  0.00     0.010 A 
ATOM     77  C   UNL A   1      42.361  22.128  25.721  1.00  0.00     0.020 A 
ATOM     78  C   UNL A   1      42.722  21.503  28.040  1.00  0.00     0.020 A 
ATOM     79  C   UNL A   1      42.327  21.175  26.741  1.00  0.00     0.054 A 
BRANCH  79  80
ATOM     80  S   UNL A   1      41.815  19.481  26.339  1.00  0.00     0.124 S 
ATOM     81  O   UNL A   1      40.365  19.618  26.237  1.00  0.00    -0.237 OA
ATOM     82  O   UNL A   1      42.518  19.229  25.083  1.00  0.00    -0.237 OA
ATOM     83  O   UNL A   1      42.292  18.700  27.478  1.00  0.00    -0.744 OA
ENDBRANCH  79  80
ENDBRANCH  51  74
BRANCH  63  84
ATOM     84  C   UNL A   1      49.407  26.874  26.562  1.00  0.00    -0.014 A 
ATOM     85  C   UNL A   1      50.283  26.150  27.390  1.00  0.00     0.010 A 
ATOM     86  C   UNL A   1      49.760  27.096  25.218  1.00  0.00     0.010 A 
ATOM     87  C   UNL A   1      51.500  25.678  26.890  1.00  0.00     0.020 A 
ATOM     88  C   UNL A   1      50.965  26.603  24.708  1.00  0.00     0.020 A 
ATOM     89  C   UNL A   1      51.833  25.907  25.552  1.00  0.00     0.054 A 
BRANCH  89  90
ATOM     90  S   UNL A   1      53.395  25.241  24.916  1.00  0.00     0.124 S 
ATOM     91  O   UNL A   1      54.381  25.957  25.721  1.00  0.00    -0.237 OA
ATOM     92  O   UNL A   1      53.273  23.813  25.195  1.00  0.00    -0.237 OA
ATOM     93  O   UNL A   1      53.372  25.596  23.498  1.00  0.00    -0.744 OA
ENDBRANCH  89  90
ENDBRANCH  63  84
ENDBRANCH  37  38
ENDBRANCH  29  32
ENDBRANCH  27  28
ENDBRANCH  26  27
ENDBRANCH  25  26
ENDBRANCH   1  25
TORSDOF 20
ENDMDL
