MODEL 1
REMARK VINA RESULT:     -10.2      0.000      0.000
REMARK SMILES Cc1noc(C)c1[C@@H](C)NC(=O)N[C@H](CO)C(=O)NCCCCNC(=O)c1ccc(-c2c3nc(c(-c4ccc(S(=O)(=O)[O-])cc4)c4ccc([nH]4)c(-c4ccc(S(=O)(=O)[O-])cc4)c4nc(c(-c5ccc(S(=O)(=O)[O-])cc5)c5ccc2[nH]5)C=C4)C=C3)cc1
REMARK SMILES IDX 21 1 20 2 19 3 17 4 18 5 14 7 13 8 10 9 11 10 12 12 8 14
REMARK SMILES IDX 9 15 7 16 1 17 2 18 3 19 4 20 5 21 6 22 15 23 16 24 22 26
REMARK SMILES IDX 23 27 24 28 25 29 26 31 27 32 28 33 86 34 29 35 85 36 30 37
REMARK SMILES IDX 31 38 32 39 79 40 33 41 84 42 78 43 80 44 34 45 83 46 77 47
REMARK SMILES IDX 76 48 35 50 65 51 46 52 64 53 47 54 50 55 63 56 81 57 48 58
REMARK SMILES IDX 49 59 62 61 82 62 51 63 36 64 37 65 45 66 38 67 44 68 39 69
REMARK SMILES IDX 40 70 41 71 42 72 43 73 66 74 67 75 75 76 68 77 74 78 69 79
REMARK SMILES IDX 70 80 71 81 72 82 73 83 52 84 53 85 61 86 54 87 60 88 55 89
REMARK SMILES IDX 56 90 57 91 58 92 59 93
REMARK H PARENT 19 6 10 11 13 13 16 25 24 30 80 49 50 60
REMARK Flexibility Score: inf
ROOT
ATOM      1  C   UNL A   1      34.278  33.496  28.775  1.00  0.00     0.023 C 
ENDROOT
BRANCH   1   2
ATOM      2  C   UNL A   1      34.242  34.779  29.593  1.00  0.00     0.116 C 
BRANCH   2   3
ATOM      3  N   UNL A   1      33.078  34.843  30.459  1.00  0.00    -0.354 N 
ATOM      4  C   UNL A   1      32.908  35.321  31.723  1.00  0.00     0.245 C 
ATOM      5  O   UNL A   1      31.743  35.341  32.142  1.00  0.00    -0.273 OA
ATOM      6  H   UNL A   1      32.259  34.472  30.058  1.00  0.00     0.163 HD
BRANCH   4   7
ATOM      7  C   UNL A   1      34.027  36.003  32.548  1.00  0.00     0.198 C 
BRANCH   7   8
ATOM      8  N   UNL A   1      34.403  35.499  33.873  1.00  0.00    -0.324 N 
ATOM      9  N   UNL A   1      36.283  34.055  33.764  1.00  0.00    -0.331 N 
ATOM     10  C   UNL A   1      35.332  34.716  34.414  1.00  0.00     0.315 C 
ATOM     11  H   UNL A   1      36.982  33.730  34.375  1.00  0.00     0.165 HD
ATOM     12  O   UNL A   1      35.330  34.646  35.646  1.00  0.00    -0.249 OA
ATOM     13  H   UNL A   1      33.788  35.839  34.562  1.00  0.00     0.166 HD
BRANCH   9  14
ATOM     14  C   UNL A   1      36.560  33.687  32.383  1.00  0.00     0.116 C 
ATOM     15  C   UNL A   1      35.711  32.460  32.053  1.00  0.00     0.036 C 
BRANCH  14  16
ATOM     16  C   UNL A   1      38.024  33.426  32.153  1.00  0.00     0.040 A 
ATOM     17  C   UNL A   1      38.830  32.087  34.288  1.00  0.00     0.071 C 
ATOM     18  C   UNL A   1      38.973  32.708  32.951  1.00  0.00     0.086 A 
ATOM     19  N   UNL A   1      40.168  32.638  32.353  1.00  0.00    -0.085 NA
ATOM     20  O   UNL A   1      40.048  33.338  31.182  1.00  0.00    -0.361 OA
ATOM     21  C   UNL A   1      38.782  33.808  31.056  1.00  0.00     0.139 A 
ATOM     22  C   UNL A   1      38.553  34.586  29.824  1.00  0.00     0.091 C 
ENDBRANCH  14  16
ENDBRANCH   9  14
ENDBRANCH   7   8
BRANCH   7  23
ATOM     23  C   UNL A   1      33.950  37.546  32.445  1.00  0.00     0.191 C 
BRANCH  23  24
ATOM     24  O   UNL A   1      33.102  38.011  31.393  1.00  0.00    -0.394 OA
ATOM     25  H   UNL A   1      32.381  37.376  31.254  1.00  0.00     0.210 HD
ENDBRANCH  23  24
ENDBRANCH   7  23
ENDBRANCH   4   7
ENDBRANCH   2   3
ENDBRANCH   1   2
BRANCH   1  26
ATOM     26  C   UNL A   1      35.622  33.147  28.156  1.00  0.00     0.023 C 
BRANCH  26  27
ATOM     27  C   UNL A   1      35.785  31.666  27.901  1.00  0.00     0.116 C 
BRANCH  27  28
ATOM     28  N   UNL A   1      35.536  30.834  29.079  1.00  0.00    -0.352 N 
ATOM     29  C   UNL A   1      36.408  30.022  29.773  1.00  0.00     0.251 C 
ATOM     30  H   UNL A   1      34.614  30.857  29.425  1.00  0.00     0.163 HD
ATOM     31  O   UNL A   1      36.001  29.319  30.688  1.00  0.00    -0.269 OA
BRANCH  29  32
ATOM     32  C   UNL A   1      37.831  29.976  29.363  1.00  0.00     0.039 A 
ATOM     33  C   UNL A   1      38.836  30.073  30.330  1.00  0.00     0.014 A 
ATOM     34  C   UNL A   1      38.170  29.750  28.030  1.00  0.00     0.014 A 
ATOM     35  C   UNL A   1      40.165  29.849  29.964  1.00  0.00     0.010 A 
ATOM     36  C   UNL A   1      39.457  29.362  27.706  1.00  0.00     0.010 A 
ATOM     37  C   UNL A   1      40.480  29.436  28.659  1.00  0.00    -0.014 A 
BRANCH  37  38
ATOM     38  C   UNL A   1      41.869  29.117  28.234  1.00  0.00     0.031 A 
ATOM     39  C   UNL A   1      42.203  27.708  27.806  1.00  0.00     0.074 A 
ATOM     40  C   UNL A   1      42.836  30.051  28.328  1.00  0.00     0.049 A 
ATOM     41  N   UNL A   1      43.368  27.183  27.527  1.00  0.00    -0.248 NA
ATOM     42  C   UNL A   1      41.089  26.742  27.739  1.00  0.00     0.031 C 
ATOM     43  C   UNL A   1      42.654  31.425  28.809  1.00  0.00     0.029 A 
ATOM     44  N   UNL A   1      44.174  29.985  28.028  1.00  0.00    -0.354 N 
ATOM     45  C   UNL A   1      43.129  25.831  27.305  1.00  0.00     0.074 A 
ATOM     46  C   UNL A   1      41.726  25.598  27.551  1.00  0.00     0.031 C 
ATOM     47  C   UNL A   1      43.824  32.080  28.728  1.00  0.00     0.029 A 
ATOM     48  C   UNL A   1      44.848  31.167  28.236  1.00  0.00     0.049 A 
ATOM     49  H   UNL A   1      44.610  29.168  27.695  1.00  0.00     0.167 HD
ATOM     50  C   UNL A   1      43.992  24.873  26.897  1.00  0.00     0.031 A 
ATOM     51  C   UNL A   1      46.146  31.475  28.050  1.00  0.00     0.031 A 
ATOM     52  C   UNL A   1      45.369  25.132  26.580  1.00  0.00     0.049 A 
ATOM     53  C   UNL A   1      47.071  30.411  27.524  1.00  0.00     0.074 A 
ATOM     54  C   UNL A   1      46.308  24.264  26.055  1.00  0.00     0.029 A 
ATOM     55  N   UNL A   1      45.995  26.359  26.739  1.00  0.00    -0.354 N 
ATOM     56  N   UNL A   1      46.806  29.156  27.240  1.00  0.00    -0.248 NA
ATOM     57  C   UNL A   1      48.465  30.804  27.279  1.00  0.00     0.031 C 
ATOM     58  C   UNL A   1      47.518  24.956  25.939  1.00  0.00     0.029 A 
ATOM     59  C   UNL A   1      47.315  26.267  26.338  1.00  0.00     0.049 A 
ATOM     60  H   UNL A   1      45.564  27.173  27.084  1.00  0.00     0.167 HD
ATOM     61  C   UNL A   1      47.995  28.618  26.761  1.00  0.00     0.074 A 
ATOM     62  C   UNL A   1      48.971  29.689  26.770  1.00  0.00     0.031 C 
ATOM     63  C   UNL A   1      48.260  27.353  26.352  1.00  0.00     0.031 A 
BRANCH  50  64
ATOM     64  C   UNL A   1      43.469  23.468  26.744  1.00  0.00    -0.014 A 
ATOM     65  C   UNL A   1      43.242  22.909  25.472  1.00  0.00     0.010 A 
ATOM     66  C   UNL A   1      43.250  22.677  27.885  1.00  0.00     0.010 A 
ATOM     67  C   UNL A   1      42.775  21.598  25.347  1.00  0.00     0.020 A 
ATOM     68  C   UNL A   1      42.813  21.355  27.764  1.00  0.00     0.020 A 
ATOM     69  C   UNL A   1      42.566  20.828  26.495  1.00  0.00     0.054 A 
BRANCH  69  70
ATOM     70  S   UNL A   1      42.012  19.113  26.297  1.00  0.00     0.124 S 
ATOM     71  O   UNL A   1      42.966  18.599  25.318  1.00  0.00    -0.237 OA
ATOM     72  O   UNL A   1      42.149  18.575  27.649  1.00  0.00    -0.237 OA
ATOM     73  O   UNL A   1      40.638  19.244  25.819  1.00  0.00    -0.744 OA
ENDBRANCH  69  70
ENDBRANCH  50  64
BRANCH  51  74
ATOM     74  C   UNL A   1      46.643  32.851  28.338  1.00  0.00    -0.014 A 
ATOM     75  C   UNL A   1      47.133  33.182  29.614  1.00  0.00     0.010 A 
ATOM     76  C   UNL A   1      46.627  33.841  27.339  1.00  0.00     0.010 A 
ATOM     77  C   UNL A   1      47.562  34.483  29.896  1.00  0.00     0.020 A 
ATOM     78  C   UNL A   1      47.084  35.134  27.607  1.00  0.00     0.020 A 
ATOM     79  C   UNL A   1      47.533  35.453  28.890  1.00  0.00     0.054 A 
BRANCH  79  80
ATOM     80  S   UNL A   1      48.116  37.128  29.271  1.00  0.00     0.124 S 
ATOM     81  O   UNL A   1      48.329  37.055  30.714  1.00  0.00    -0.237 OA
ATOM     82  O   UNL A   1      49.325  37.235  28.458  1.00  0.00    -0.237 OA
ATOM     83  O   UNL A   1      47.010  37.982  28.844  1.00  0.00    -0.744 OA
ENDBRANCH  79  80
ENDBRANCH  51  74
BRANCH  63  84
ATOM     84  C   UNL A   1      49.649  27.068  25.851  1.00  0.00    -0.014 A 
ATOM     85  C   UNL A   1      50.622  26.501  26.692  1.00  0.00     0.010 A 
ATOM     86  C   UNL A   1      49.961  27.316  24.503  1.00  0.00     0.010 A 
ATOM     87  C   UNL A   1      51.898  26.220  26.201  1.00  0.00     0.020 A 
ATOM     88  C   UNL A   1      51.227  27.008  24.001  1.00  0.00     0.020 A 
ATOM     89  C   UNL A   1      52.192  26.477  24.857  1.00  0.00     0.054 A 
BRANCH  89  90
ATOM     90  S   UNL A   1      53.844  26.067  24.234  1.00  0.00     0.124 S 
ATOM     91  O   UNL A   1      54.654  27.147  24.791  1.00  0.00    -0.237 OA
ATOM     92  O   UNL A   1      54.083  24.744  24.806  1.00  0.00    -0.237 OA
ATOM     93  O   UNL A   1      53.683  26.092  22.782  1.00  0.00    -0.744 OA
ENDBRANCH  89  90
ENDBRANCH  63  84
ENDBRANCH  37  38
ENDBRANCH  29  32
ENDBRANCH  27  28
ENDBRANCH  26  27
ENDBRANCH   1  26
TORSDOF 19
ENDMDL
MODEL 2
REMARK VINA RESULT:     -10.1      6.122     11.202
REMARK SMILES Cc1noc(C)c1[C@@H](C)NC(=O)N[C@H](CO)C(=O)NCCCCNC(=O)c1ccc(-c2c3nc(c(-c4ccc(S(=O)(=O)[O-])cc4)c4ccc([nH]4)c(-c4ccc(S(=O)(=O)[O-])cc4)c4nc(c(-c5ccc(S(=O)(=O)[O-])cc5)c5ccc2[nH]5)C=C4)C=C3)cc1
REMARK SMILES IDX 21 1 20 2 19 3 17 4 18 5 14 7 13 8 10 9 11 10 12 12 8 14
REMARK SMILES IDX 9 15 7 16 1 17 2 18 3 19 4 20 5 21 6 22 15 23 16 24 22 26
REMARK SMILES IDX 23 27 24 28 25 29 26 31 27 32 28 33 86 34 29 35 85 36 30 37
REMARK SMILES IDX 31 38 32 39 79 40 33 41 84 42 78 43 80 44 34 45 83 46 77 47
REMARK SMILES IDX 76 48 35 50 65 51 46 52 64 53 47 54 50 55 63 56 81 57 48 58
REMARK SMILES IDX 49 59 62 61 82 62 51 63 36 64 37 65 45 66 38 67 44 68 39 69
REMARK SMILES IDX 40 70 41 71 42 72 43 73 66 74 67 75 75 76 68 77 74 78 69 79
REMARK SMILES IDX 70 80 71 81 72 82 73 83 52 84 53 85 61 86 54 87 60 88 55 89
REMARK SMILES IDX 56 90 57 91 58 92 59 93
REMARK H PARENT 19 6 10 11 13 13 16 25 24 30 80 49 50 60
REMARK Flexibility Score: inf
ROOT
ATOM      1  C   UNL A   1      31.795  29.476  26.828  1.00  0.00     0.023 C 
ENDROOT
BRANCH   1   2
ATOM      2  C   UNL A   1      31.434  29.697  25.367  1.00  0.00     0.116 C 
BRANCH   2   3
ATOM      3  N   UNL A   1      32.601  29.648  24.502  1.00  0.00    -0.354 N 
ATOM      4  C   UNL A   1      32.889  28.900  23.401  1.00  0.00     0.245 C 
ATOM      5  O   UNL A   1      33.937  29.188  22.809  1.00  0.00    -0.273 OA
ATOM      6  H   UNL A   1      33.317  30.273  24.760  1.00  0.00     0.163 HD
BRANCH   4   7
ATOM      7  C   UNL A   1      31.907  27.885  22.765  1.00  0.00     0.198 C 
BRANCH   7   8
ATOM      8  N   UNL A   1      32.400  26.723  22.018  1.00  0.00    -0.324 N 
ATOM      9  N   UNL A   1      33.075  24.969  23.467  1.00  0.00    -0.331 N 
ATOM     10  C   UNL A   1      32.868  25.504  22.269  1.00  0.00     0.315 C 
ATOM     11  H   UNL A   1      33.205  23.996  23.413  1.00  0.00     0.165 HD
ATOM     12  O   UNL A   1      33.078  24.792  21.283  1.00  0.00    -0.249 OA
ATOM     13  H   UNL A   1      32.379  26.897  21.050  1.00  0.00     0.166 HD
BRANCH   9  14
ATOM     14  C   UNL A   1      33.158  25.449  24.839  1.00  0.00     0.116 C 
ATOM     15  C   UNL A   1      34.579  25.181  25.335  1.00  0.00     0.036 C 
BRANCH  14  16
ATOM     16  C   UNL A   1      32.129  24.800  25.725  1.00  0.00     0.040 A 
ATOM     17  C   UNL A   1      33.425  22.870  26.989  1.00  0.00     0.071 C 
ATOM     18  C   UNL A   1      32.262  23.730  26.668  1.00  0.00     0.086 A 
ATOM     19  N   UNL A   1      31.115  23.499  27.317  1.00  0.00    -0.085 NA
ATOM     20  O   UNL A   1      30.199  24.372  26.792  1.00  0.00    -0.361 OA
ATOM     21  C   UNL A   1      30.792  25.146  25.849  1.00  0.00     0.139 A 
ATOM     22  C   UNL A   1      29.881  26.118  25.216  1.00  0.00     0.091 C 
ENDBRANCH  14  16
ENDBRANCH   9  14
ENDBRANCH   7   8
BRANCH   7  23
ATOM     23  C   UNL A   1      30.694  28.597  22.117  1.00  0.00     0.191 C 
BRANCH  23  24
ATOM     24  O   UNL A   1      30.971  29.934  21.692  1.00  0.00    -0.394 OA
ATOM     25  H   UNL A   1      30.176  30.479  21.806  1.00  0.00     0.210 HD
ENDBRANCH  23  24
ENDBRANCH   7  23
ENDBRANCH   4   7
ENDBRANCH   2   3
ENDBRANCH   1   2
BRANCH   1  26
ATOM     26  C   UNL A   1      33.036  28.636  27.080  1.00  0.00     0.023 C 
BRANCH  26  27
ATOM     27  C   UNL A   1      34.290  29.468  27.225  1.00  0.00     0.116 C 
BRANCH  27  28
ATOM     28  N   UNL A   1      34.083  30.727  27.939  1.00  0.00    -0.352 N 
ATOM     29  C   UNL A   1      34.896  31.348  28.866  1.00  0.00     0.251 C 
ATOM     30  H   UNL A   1      33.245  31.199  27.729  1.00  0.00     0.163 HD
ATOM     31  O   UNL A   1      34.518  32.361  29.436  1.00  0.00    -0.269 OA
BRANCH  29  32
ATOM     32  C   UNL A   1      36.208  30.742  29.194  1.00  0.00     0.039 A 
ATOM     33  C   UNL A   1      37.384  31.352  28.750  1.00  0.00     0.014 A 
ATOM     34  C   UNL A   1      36.275  29.618  30.015  1.00  0.00     0.014 A 
ATOM     35  C   UNL A   1      38.616  30.882  29.212  1.00  0.00     0.010 A 
ATOM     36  C   UNL A   1      37.478  29.267  30.600  1.00  0.00     0.010 A 
ATOM     37  C   UNL A   1      38.670  29.871  30.185  1.00  0.00    -0.014 A 
BRANCH  37  38
ATOM     38  C   UNL A   1      39.950  29.382  30.761  1.00  0.00     0.031 A 
ATOM     39  C   UNL A   1      40.518  30.068  31.981  1.00  0.00     0.074 A 
ATOM     40  C   UNL A   1      40.642  28.406  30.140  1.00  0.00     0.049 A 
ATOM     41  N   UNL A   1      41.676  29.892  32.563  1.00  0.00    -0.248 NA
ATOM     42  C   UNL A   1      39.703  31.134  32.595  1.00  0.00     0.031 C 
ATOM     43  C   UNL A   1      40.239  27.725  28.906  1.00  0.00     0.029 A 
ATOM     44  N   UNL A   1      41.841  27.819  30.460  1.00  0.00    -0.354 N 
ATOM     45  C   UNL A   1      41.742  30.852  33.567  1.00  0.00     0.074 A 
ATOM     46  C   UNL A   1      40.546  31.654  33.473  1.00  0.00     0.031 C 
ATOM     47  C   UNL A   1      41.149  26.785  28.601  1.00  0.00     0.029 A 
ATOM     48  C   UNL A   1      42.223  26.826  29.587  1.00  0.00     0.049 A 
ATOM     49  H   UNL A   1      42.377  28.083  31.242  1.00  0.00     0.167 HD
ATOM     50  C   UNL A   1      42.696  31.030  34.510  1.00  0.00     0.031 A 
ATOM     51  C   UNL A   1      43.316  26.039  29.584  1.00  0.00     0.031 A 
ATOM     52  C   UNL A   1      43.844  30.178  34.643  1.00  0.00     0.049 A 
ATOM     53  C   UNL A   1      44.326  26.207  30.687  1.00  0.00     0.074 A 
ATOM     54  C   UNL A   1      44.819  30.196  35.623  1.00  0.00     0.029 A 
ATOM     55  N   UNL A   1      44.158  29.140  33.779  1.00  0.00    -0.354 N 
ATOM     56  N   UNL A   1      44.329  27.068  31.679  1.00  0.00    -0.248 NA
ATOM     57  C   UNL A   1      45.474  25.290  30.681  1.00  0.00     0.031 C 
ATOM     58  C   UNL A   1      45.749  29.195  35.325  1.00  0.00     0.029 A 
ATOM     59  C   UNL A   1      45.322  28.520  34.193  1.00  0.00     0.049 A 
ATOM     60  H   UNL A   1      43.630  28.882  32.989  1.00  0.00     0.167 HD
ATOM     61  C   UNL A   1      45.464  26.779  32.427  1.00  0.00     0.074 A 
ATOM     62  C   UNL A   1      46.110  25.651  31.788  1.00  0.00     0.031 C 
ATOM     63  C   UNL A   1      45.936  27.393  33.540  1.00  0.00     0.031 A 
BRANCH  50  64
ATOM     64  C   UNL A   1      42.526  32.167  35.483  1.00  0.00    -0.014 A 
ATOM     65  C   UNL A   1      43.040  33.448  35.206  1.00  0.00     0.010 A 
ATOM     66  C   UNL A   1      41.795  31.968  36.668  1.00  0.00     0.010 A 
ATOM     67  C   UNL A   1      42.857  34.497  36.110  1.00  0.00     0.020 A 
ATOM     68  C   UNL A   1      41.582  33.022  37.561  1.00  0.00     0.020 A 
ATOM     69  C   UNL A   1      42.126  34.278  37.282  1.00  0.00     0.054 A 
BRANCH  69  70
ATOM     70  S   UNL A   1      41.858  35.673  38.409  1.00  0.00     0.124 S 
ATOM     71  O   UNL A   1      42.203  36.813  37.564  1.00  0.00    -0.237 OA
ATOM     72  O   UNL A   1      40.442  35.546  38.744  1.00  0.00    -0.237 OA
ATOM     73  O   UNL A   1      42.782  35.412  39.510  1.00  0.00    -0.744 OA
ENDBRANCH  69  70
ENDBRANCH  50  64
BRANCH  51  74
ATOM     74  C   UNL A   1      43.502  25.010  28.522  1.00  0.00    -0.014 A 
ATOM     75  C   UNL A   1      44.135  25.339  27.310  1.00  0.00     0.010 A 
ATOM     76  C   UNL A   1      43.043  23.693  28.714  1.00  0.00     0.010 A 
ATOM     77  C   UNL A   1      44.274  24.383  26.297  1.00  0.00     0.020 A 
ATOM     78  C   UNL A   1      43.208  22.727  27.717  1.00  0.00     0.020 A 
ATOM     79  C   UNL A   1      43.807  23.083  26.507  1.00  0.00     0.054 A 
BRANCH  79  80
ATOM     80  S   UNL A   1      44.018  21.853  25.189  1.00  0.00     0.124 S 
ATOM     81  O   UNL A   1      45.359  21.344  25.461  1.00  0.00    -0.237 OA
ATOM     82  O   UNL A   1      42.924  20.921  25.447  1.00  0.00    -0.237 OA
ATOM     83  O   UNL A   1      43.883  22.637  23.963  1.00  0.00    -0.744 OA
ENDBRANCH  79  80
ENDBRANCH  51  74
BRANCH  63  84
ATOM     84  C   UNL A   1      47.189  26.835  34.155  1.00  0.00    -0.014 A 
ATOM     85  C   UNL A   1      47.135  25.794  35.097  1.00  0.00     0.010 A 
ATOM     86  C   UNL A   1      48.440  27.322  33.736  1.00  0.00     0.010 A 
ATOM     87  C   UNL A   1      48.312  25.273  35.637  1.00  0.00     0.020 A 
ATOM     88  C   UNL A   1      49.620  26.783  34.251  1.00  0.00     0.020 A 
ATOM     89  C   UNL A   1      49.547  25.772  35.211  1.00  0.00     0.054 A 
BRANCH  89  90
ATOM     90  S   UNL A   1      51.062  25.052  35.899  1.00  0.00     0.124 S 
ATOM     91  O   UNL A   1      50.853  25.223  37.334  1.00  0.00    -0.237 OA
ATOM     92  O   UNL A   1      51.009  23.674  35.416  1.00  0.00    -0.237 OA
ATOM     93  O   UNL A   1      52.127  25.868  35.322  1.00  0.00    -0.744 OA
ENDBRANCH  89  90
ENDBRANCH  63  84
ENDBRANCH  37  38
ENDBRANCH  29  32
ENDBRANCH  27  28
ENDBRANCH  26  27
ENDBRANCH   1  26
TORSDOF 19
ENDMDL
MODEL 3
REMARK VINA RESULT:     -10.1      4.031     10.314
REMARK SMILES Cc1noc(C)c1[C@@H](C)NC(=O)N[C@H](CO)C(=O)NCCCCNC(=O)c1ccc(-c2c3nc(c(-c4ccc(S(=O)(=O)[O-])cc4)c4ccc([nH]4)c(-c4ccc(S(=O)(=O)[O-])cc4)c4nc(c(-c5ccc(S(=O)(=O)[O-])cc5)c5ccc2[nH]5)C=C4)C=C3)cc1
REMARK SMILES IDX 21 1 20 2 19 3 17 4 18 5 14 7 13 8 10 9 11 10 12 12 8 14
REMARK SMILES IDX 9 15 7 16 1 17 2 18 3 19 4 20 5 21 6 22 15 23 16 24 22 26
REMARK SMILES IDX 23 27 24 28 25 29 26 31 27 32 28 33 86 34 29 35 85 36 30 37
REMARK SMILES IDX 31 38 32 39 79 40 33 41 84 42 78 43 80 44 34 45 83 46 77 47
REMARK SMILES IDX 76 48 35 50 65 51 46 52 64 53 47 54 50 55 63 56 81 57 48 58
REMARK SMILES IDX 49 59 62 61 82 62 51 63 36 64 37 65 45 66 38 67 44 68 39 69
REMARK SMILES IDX 40 70 41 71 42 72 43 73 66 74 67 75 75 76 68 77 74 78 69 79
REMARK SMILES IDX 70 80 71 81 72 82 73 83 52 84 53 85 61 86 54 87 60 88 55 89
REMARK SMILES IDX 56 90 57 91 58 92 59 93
REMARK H PARENT 19 6 10 11 13 13 16 25 24 30 80 49 50 60
REMARK Flexibility Score: inf
ROOT
ATOM      1  C   UNL A   1      33.534  29.084  27.049  1.00  0.00     0.023 C 
ENDROOT
BRANCH   1   2
ATOM      2  C   UNL A   1      33.662  28.023  25.965  1.00  0.00     0.116 C 
BRANCH   2   3
ATOM      3  N   UNL A   1      34.049  28.593  24.686  1.00  0.00    -0.354 N 
ATOM      4  C   UNL A   1      33.654  28.322  23.411  1.00  0.00     0.245 C 
ATOM      5  O   UNL A   1      34.089  29.082  22.536  1.00  0.00    -0.273 OA
ATOM      6  H   UNL A   1      34.721  29.310  24.753  1.00  0.00     0.163 HD
BRANCH   4   7
ATOM      7  C   UNL A   1      32.570  27.279  23.045  1.00  0.00     0.198 C 
BRANCH   7   8
ATOM      8  N   UNL A   1      32.907  26.077  22.275  1.00  0.00    -0.324 N 
ATOM      9  N   UNL A   1      33.593  24.294  23.683  1.00  0.00    -0.331 N 
ATOM     10  C   UNL A   1      33.310  24.830  22.501  1.00  0.00     0.315 C 
ATOM     11  H   UNL A   1      33.649  23.313  23.633  1.00  0.00     0.165 HD
ATOM     12  O   UNL A   1      33.375  24.095  21.512  1.00  0.00    -0.249 OA
ATOM     13  H   UNL A   1      32.805  26.242  21.310  1.00  0.00     0.166 HD
BRANCH   9  14
ATOM     14  C   UNL A   1      33.840  24.780  25.032  1.00  0.00     0.116 C 
ATOM     15  C   UNL A   1      35.282  24.425  25.394  1.00  0.00     0.036 C 
BRANCH  14  16
ATOM     16  C   UNL A   1      32.862  24.210  26.024  1.00  0.00     0.040 A 
ATOM     17  C   UNL A   1      34.086  22.110  27.070  1.00  0.00     0.071 C 
ATOM     18  C   UNL A   1      32.992  23.097  26.917  1.00  0.00     0.086 A 
ATOM     19  N   UNL A   1      31.914  22.963  27.698  1.00  0.00    -0.085 NA
ATOM     20  O   UNL A   1      31.041  23.945  27.312  1.00  0.00    -0.361 OA
ATOM     21  C   UNL A   1      31.595  24.688  26.322  1.00  0.00     0.139 A 
ATOM     22  C   UNL A   1      30.725  25.773  25.831  1.00  0.00     0.091 C 
ENDBRANCH  14  16
ENDBRANCH   9  14
ENDBRANCH   7   8
BRANCH   7  23
ATOM     23  C   UNL A   1      31.244  27.959  22.626  1.00  0.00     0.191 C 
BRANCH  23  24
ATOM     24  O   UNL A   1      31.421  29.245  22.027  1.00  0.00    -0.394 OA
ATOM     25  H   UNL A   1      31.404  29.156  21.061  1.00  0.00     0.210 HD
ENDBRANCH  23  24
ENDBRANCH   7  23
ENDBRANCH   4   7
ENDBRANCH   2   3
ENDBRANCH   1   2
BRANCH   1  26
ATOM     26  C   UNL A   1      34.699  30.054  27.162  1.00  0.00     0.023 C 
BRANCH  26  27
ATOM     27  C   UNL A   1      35.935  29.422  27.762  1.00  0.00     0.116 C 
BRANCH  27  28
ATOM     28  N   UNL A   1      35.963  29.452  29.224  1.00  0.00    -0.352 N 
ATOM     29  C   UNL A   1      37.006  29.172  30.083  1.00  0.00     0.251 C 
ATOM     30  H   UNL A   1      35.116  29.709  29.657  1.00  0.00     0.163 HD
ATOM     31  O   UNL A   1      36.823  29.159  31.291  1.00  0.00    -0.269 OA
BRANCH  29  32
ATOM     32  C   UNL A   1      38.335  28.841  29.517  1.00  0.00     0.039 A 
ATOM     33  C   UNL A   1      38.694  29.328  28.258  1.00  0.00     0.014 A 
ATOM     34  C   UNL A   1      39.257  28.118  30.271  1.00  0.00     0.014 A 
ATOM     35  C   UNL A   1      40.007  29.166  27.809  1.00  0.00     0.010 A 
ATOM     36  C   UNL A   1      40.590  28.110  29.901  1.00  0.00     0.010 A 
ATOM     37  C   UNL A   1      40.980  28.604  28.651  1.00  0.00    -0.014 A 
BRANCH  37  38
ATOM     38  C   UNL A   1      42.406  28.472  28.251  1.00  0.00     0.031 A 
ATOM     39  C   UNL A   1      43.330  29.656  28.412  1.00  0.00     0.074 A 
ATOM     40  C   UNL A   1      42.839  27.342  27.658  1.00  0.00     0.049 A 
ATOM     41  N   UNL A   1      44.565  29.801  28.008  1.00  0.00    -0.248 NA
ATOM     42  C   UNL A   1      42.775  30.860  29.060  1.00  0.00     0.031 C 
ATOM     43  C   UNL A   1      42.020  26.160  27.369  1.00  0.00     0.029 A 
ATOM     44  N   UNL A   1      44.081  27.002  27.183  1.00  0.00    -0.354 N 
ATOM     45  C   UNL A   1      44.907  31.115  28.307  1.00  0.00     0.074 A 
ATOM     46  C   UNL A   1      43.734  31.749  28.859  1.00  0.00     0.031 C 
ATOM     47  C   UNL A   1      42.791  25.212  26.810  1.00  0.00     0.029 A 
ATOM     48  C   UNL A   1      44.145  25.731  26.657  1.00  0.00     0.049 A 
ATOM     49  H   UNL A   1      44.854  27.610  27.216  1.00  0.00     0.167 HD
ATOM     50  C   UNL A   1      46.103  31.732  28.170  1.00  0.00     0.031 A 
ATOM     51  C   UNL A   1      45.181  25.064  26.113  1.00  0.00     0.031 A 
ATOM     52  C   UNL A   1      47.285  31.070  27.693  1.00  0.00     0.049 A 
ATOM     53  C   UNL A   1      46.520  25.747  26.040  1.00  0.00     0.074 A 
ATOM     54  C   UNL A   1      48.574  31.564  27.612  1.00  0.00     0.029 A 
ATOM     55  N   UNL A   1      47.322  29.762  27.234  1.00  0.00    -0.354 N 
ATOM     56  N   UNL A   1      46.844  26.966  26.406  1.00  0.00    -0.248 NA
ATOM     57  C   UNL A   1      47.636  24.964  25.494  1.00  0.00     0.031 C 
ATOM     58  C   UNL A   1      49.384  30.566  27.062  1.00  0.00     0.029 A 
ATOM     59  C   UNL A   1      48.610  29.436  26.853  1.00  0.00     0.049 A 
ATOM     60  H   UNL A   1      46.548  29.157  27.188  1.00  0.00     0.167 HD
ATOM     61  C   UNL A   1      48.206  27.085  26.158  1.00  0.00     0.074 A 
ATOM     62  C   UNL A   1      48.649  25.810  25.633  1.00  0.00     0.031 C 
ATOM     63  C   UNL A   1      49.021  28.154  26.341  1.00  0.00     0.031 A 
BRANCH  50  64
ATOM     64  C   UNL A   1      46.200  33.183  28.565  1.00  0.00    -0.014 A 
ATOM     65  C   UNL A   1      46.383  33.563  29.909  1.00  0.00     0.010 A 
ATOM     66  C   UNL A   1      46.160  34.180  27.575  1.00  0.00     0.010 A 
ATOM     67  C   UNL A   1      46.489  34.911  30.257  1.00  0.00     0.020 A 
ATOM     68  C   UNL A   1      46.299  35.530  27.915  1.00  0.00     0.020 A 
ATOM     69  C   UNL A   1      46.449  35.887  29.256  1.00  0.00     0.054 A 
BRANCH  69  70
ATOM     70  S   UNL A   1      46.646  37.625  29.733  1.00  0.00     0.124 S 
ATOM     71  O   UNL A   1      45.443  38.231  29.167  1.00  0.00    -0.237 OA
ATOM     72  O   UNL A   1      46.685  37.554  31.192  1.00  0.00    -0.237 OA
ATOM     73  O   UNL A   1      47.900  38.020  29.097  1.00  0.00    -0.744 OA
ENDBRANCH  69  70
ENDBRANCH  50  64
BRANCH  51  74
ATOM     74  C   UNL A   1      45.003  23.669  25.618  1.00  0.00    -0.014 A 
ATOM     75  C   UNL A   1      45.147  22.576  26.491  1.00  0.00     0.010 A 
ATOM     76  C   UNL A   1      44.692  23.424  24.268  1.00  0.00     0.010 A 
ATOM     77  C   UNL A   1      45.019  21.265  26.018  1.00  0.00     0.020 A 
ATOM     78  C   UNL A   1      44.532  22.117  23.797  1.00  0.00     0.020 A 
ATOM     79  C   UNL A   1      44.714  21.044  24.672  1.00  0.00     0.054 A 
BRANCH  79  80
ATOM     80  S   UNL A   1      44.530  19.337  24.085  1.00  0.00     0.124 S 
ATOM     81  O   UNL A   1      43.282  18.930  24.722  1.00  0.00    -0.237 OA
ATOM     82  O   UNL A   1      44.474  19.505  22.634  1.00  0.00    -0.237 OA
ATOM     83  O   UNL A   1      45.733  18.672  24.581  1.00  0.00    -0.744 OA
ENDBRANCH  79  80
ENDBRANCH  51  74
BRANCH  63  84
ATOM     84  C   UNL A   1      50.475  27.977  26.005  1.00  0.00    -0.014 A 
ATOM     85  C   UNL A   1      51.375  27.431  26.937  1.00  0.00     0.010 A 
ATOM     86  C   UNL A   1      50.931  28.306  24.716  1.00  0.00     0.010 A 
ATOM     87  C   UNL A   1      52.717  27.252  26.596  1.00  0.00     0.020 A 
ATOM     88  C   UNL A   1      52.265  28.099  24.362  1.00  0.00     0.020 A 
ATOM     89  C   UNL A   1      53.153  27.588  25.310  1.00  0.00     0.054 A 
BRANCH  89  90
ATOM     90  S   UNL A   1      54.892  27.309  24.880  1.00  0.00     0.124 S 
ATOM     91  O   UNL A   1      55.586  28.021  25.949  1.00  0.00    -0.237 OA
ATOM     92  O   UNL A   1      55.002  25.853  24.920  1.00  0.00    -0.237 OA
ATOM     93  O   UNL A   1      55.019  27.901  23.550  1.00  0.00    -0.744 OA
ENDBRANCH  89  90
ENDBRANCH  63  84
ENDBRANCH  37  38
ENDBRANCH  29  32
ENDBRANCH  27  28
ENDBRANCH  26  27
ENDBRANCH   1  26
TORSDOF 19
ENDMDL
