MODEL 1
REMARK VINA RESULT:     -10.9      0.000      0.000
REMARK SMILES COc1ccccc1[C@H](C)NC(=O)[C@@H]1CC=CC[C@@H]1C(=O)NCCCCNC(=O)c1ccc(-c2c3nc(c(-c4ccc(S(=O)(=O)[O-])cc4)c4ccc([nH]4)c(-c4ccc(S(=O)(=O)[O-])cc4)c4nc(c(-c5ccc(S(=O)(=O)[O-])cc5)c5ccc2[nH]5)C=C4)C=C3)cc1
REMARK SMILES IDX 24 1 23 2 22 3 20 4 21 5 19 7 14 8 15 9 16 10 18 11 17 12
REMARK SMILES IDX 12 13 11 14 13 16 9 17 10 18 8 19 3 20 4 21 5 22 7 23 6 24
REMARK SMILES IDX 2 25 1 26 25 27 26 28 27 29 28 30 29 32 30 33 31 34 89 35
REMARK SMILES IDX 32 36 88 37 33 38 34 39 35 40 82 41 36 42 87 43 81 44 83 45
REMARK SMILES IDX 37 46 86 47 80 48 79 49 38 51 68 52 49 53 67 54 50 55 53 56
REMARK SMILES IDX 66 57 84 58 51 59 52 60 65 62 85 63 54 64 39 65 40 66 48 67
REMARK SMILES IDX 41 68 47 69 42 70 43 71 44 72 45 73 46 74 69 75 70 76 78 77
REMARK SMILES IDX 71 78 77 79 72 80 73 81 74 82 75 83 76 84 55 85 56 86 64 87
REMARK SMILES IDX 57 88 63 89 58 90 59 91 60 92 61 93 62 94
REMARK H PARENT 22 6 11 15 27 31 83 50 53 61
REMARK Flexibility Score: inf
ROOT
ATOM      1  C   UNL A   1      31.436  26.797  26.726  1.00  0.00     0.023 C 
ENDROOT
BRANCH   1   2
ATOM      2  C   UNL A   1      31.051  26.133  25.410  1.00  0.00     0.116 C 
BRANCH   2   3
ATOM      3  N   UNL A   1      30.642  27.045  24.351  1.00  0.00    -0.356 N 
ATOM      4  C   UNL A   1      31.105  27.356  23.108  1.00  0.00     0.224 C 
ATOM      5  O   UNL A   1      30.381  28.147  22.484  1.00  0.00    -0.275 OA
ATOM      6  H   UNL A   1      29.837  27.560  24.590  1.00  0.00     0.163 HD
BRANCH   4   7
ATOM      7  C   UNL A   1      32.322  26.734  22.380  1.00  0.00     0.095 C 
ATOM      8  C   UNL A   1      33.344  25.904  23.156  1.00  0.00     0.095 C 
ATOM      9  C   UNL A   1      33.938  26.778  24.304  1.00  0.00     0.041 C 
ATOM     10  C   UNL A   1      34.231  28.201  23.898  1.00  0.00    -0.030 C 
ATOM     11  C   UNL A   1      33.131  27.878  21.695  1.00  0.00     0.041 C 
ATOM     12  C   UNL A   1      33.893  28.696  22.699  1.00  0.00    -0.030 C 
BRANCH   8  13
ATOM     13  C   UNL A   1      32.876  24.526  23.617  1.00  0.00     0.224 C 
ATOM     14  N   UNL A   1      33.624  23.697  24.402  1.00  0.00    -0.349 N 
ATOM     15  H   UNL A   1      33.576  22.751  24.134  1.00  0.00     0.164 HD
ATOM     16  O   UNL A   1      31.784  24.084  23.243  1.00  0.00    -0.275 OA
BRANCH  14  17
ATOM     17  C   UNL A   1      34.490  23.934  25.578  1.00  0.00     0.113 C 
ATOM     18  C   UNL A   1      33.595  23.615  26.790  1.00  0.00     0.036 C 
BRANCH  17  19
ATOM     19  C   UNL A   1      35.820  23.155  25.542  1.00  0.00     0.016 A 
ATOM     20  C   UNL A   1      35.987  21.832  25.085  1.00  0.00     0.124 A 
ATOM     21  C   UNL A   1      37.248  21.198  25.118  1.00  0.00     0.047 A 
ATOM     22  C   UNL A   1      38.371  21.843  25.629  1.00  0.00     0.004 A 
ATOM     23  C   UNL A   1      36.987  23.758  26.054  1.00  0.00     0.010 A 
ATOM     24  C   UNL A   1      38.239  23.135  26.099  1.00  0.00     0.001 A 
BRANCH  20  25
ATOM     25  O   UNL A   1      35.024  21.123  24.421  1.00  0.00    -0.496 OA
ATOM     26  C   UNL A   1      34.341  20.159  25.212  1.00  0.00     0.278 C 
ENDBRANCH  20  25
ENDBRANCH  17  19
ENDBRANCH  14  17
ENDBRANCH   8  13
ENDBRANCH   4   7
ENDBRANCH   2   3
ENDBRANCH   1   2
BRANCH   1  27
ATOM     27  C   UNL A   1      31.846  28.264  26.617  1.00  0.00     0.023 C 
BRANCH  27  28
ATOM     28  C   UNL A   1      33.139  28.658  27.332  1.00  0.00     0.116 C 
BRANCH  28  29
ATOM     29  N   UNL A   1      33.241  30.076  27.649  1.00  0.00    -0.352 N 
ATOM     30  C   UNL A   1      34.304  30.807  28.129  1.00  0.00     0.251 C 
ATOM     31  H   UNL A   1      32.418  30.595  27.496  1.00  0.00     0.163 HD
ATOM     32  O   UNL A   1      34.153  31.997  28.403  1.00  0.00    -0.269 OA
BRANCH  30  33
ATOM     33  C   UNL A   1      35.613  30.161  28.366  1.00  0.00     0.039 A 
ATOM     34  C   UNL A   1      36.530  30.094  27.314  1.00  0.00     0.014 A 
ATOM     35  C   UNL A   1      35.951  29.646  29.619  1.00  0.00     0.014 A 
ATOM     36  C   UNL A   1      37.820  29.612  27.548  1.00  0.00     0.010 A 
ATOM     37  C   UNL A   1      37.262  29.248  29.872  1.00  0.00     0.010 A 
ATOM     38  C   UNL A   1      38.218  29.239  28.843  1.00  0.00    -0.014 A 
BRANCH  38  39
ATOM     39  C   UNL A   1      39.628  28.869  29.145  1.00  0.00     0.031 A 
ATOM     40  C   UNL A   1      40.572  29.884  29.736  1.00  0.00     0.074 A 
ATOM     41  C   UNL A   1      40.084  27.641  28.812  1.00  0.00     0.049 A 
ATOM     42  N   UNL A   1      41.849  29.766  29.995  1.00  0.00    -0.248 NA
ATOM     43  C   UNL A   1      40.019  31.212  30.052  1.00  0.00     0.031 C 
ATOM     44  C   UNL A   1      39.289  26.583  28.182  1.00  0.00     0.029 A 
ATOM     45  N   UNL A   1      41.331  27.078  28.944  1.00  0.00    -0.354 N 
ATOM     46  C   UNL A   1      42.258  31.007  30.474  1.00  0.00     0.074 A 
ATOM     47  C   UNL A   1      41.102  31.874  30.438  1.00  0.00     0.031 C 
ATOM     48  C   UNL A   1      40.059  25.497  28.002  1.00  0.00     0.029 A 
ATOM     49  C   UNL A   1      41.413  25.791  28.460  1.00  0.00     0.049 A 
ATOM     50  H   UNL A   1      42.094  27.551  29.347  1.00  0.00     0.167 HD
ATOM     51  C   UNL A   1      43.480  31.384  30.917  1.00  0.00     0.031 A 
ATOM     52  C   UNL A   1      42.460  24.946  28.379  1.00  0.00     0.031 A 
ATOM     53  C   UNL A   1      44.620  30.508  30.988  1.00  0.00     0.049 A 
ATOM     54  C   UNL A   1      43.804  25.391  28.896  1.00  0.00     0.074 A 
ATOM     55  C   UNL A   1      45.874  30.777  31.510  1.00  0.00     0.029 A 
ATOM     56  N   UNL A   1      44.651  29.203  30.523  1.00  0.00    -0.354 N 
ATOM     57  N   UNL A   1      44.140  26.538  29.437  1.00  0.00    -0.248 NA
ATOM     58  C   UNL A   1      44.908  24.424  28.803  1.00  0.00     0.031 C 
ATOM     59  C   UNL A   1      46.681  29.656  31.305  1.00  0.00     0.029 A 
ATOM     60  C   UNL A   1      45.912  28.666  30.717  1.00  0.00     0.049 A 
ATOM     61  H   UNL A   1      43.889  28.729  30.117  1.00  0.00     0.167 HD
ATOM     62  C   UNL A   1      45.482  26.416  29.779  1.00  0.00     0.074 A 
ATOM     63  C   UNL A   1      45.891  25.079  29.402  1.00  0.00     0.031 C 
ATOM     64  C   UNL A   1      46.303  27.329  30.353  1.00  0.00     0.031 A 
BRANCH  51  65
ATOM     65  C   UNL A   1      43.666  32.808  31.367  1.00  0.00    -0.014 A 
ATOM     66  C   UNL A   1      43.648  33.151  32.730  1.00  0.00     0.010 A 
ATOM     67  C   UNL A   1      43.970  33.800  30.415  1.00  0.00     0.010 A 
ATOM     68  C   UNL A   1      43.919  34.462  33.133  1.00  0.00     0.020 A 
ATOM     69  C   UNL A   1      44.267  35.106  30.816  1.00  0.00     0.020 A 
ATOM     70  C   UNL A   1      44.234  35.429  32.173  1.00  0.00     0.054 A 
BRANCH  70  71
ATOM     71  S   UNL A   1      44.657  37.102  32.733  1.00  0.00     0.124 S 
ATOM     72  O   UNL A   1      43.854  37.932  31.840  1.00  0.00    -0.237 OA
ATOM     73  O   UNL A   1      44.231  37.089  34.130  1.00  0.00    -0.237 OA
ATOM     74  O   UNL A   1      46.102  37.183  32.526  1.00  0.00    -0.744 OA
ENDBRANCH  70  71
ENDBRANCH  51  65
BRANCH  52  75
ATOM     75  C   UNL A   1      42.299  23.594  27.770  1.00  0.00    -0.014 A 
ATOM     76  C   UNL A   1      41.898  22.495  28.552  1.00  0.00     0.010 A 
ATOM     77  C   UNL A   1      42.589  23.390  26.409  1.00  0.00     0.010 A 
ATOM     78  C   UNL A   1      41.839  21.212  27.998  1.00  0.00     0.020 A 
ATOM     79  C   UNL A   1      42.498  22.115  25.843  1.00  0.00     0.020 A 
ATOM     80  C   UNL A   1      42.146  21.030  26.646  1.00  0.00     0.054 A 
BRANCH  80  81
ATOM     81  S   UNL A   1      42.065  19.358  25.947  1.00  0.00     0.124 S 
ATOM     82  O   UNL A   1      42.943  19.473  24.786  1.00  0.00    -0.237 OA
ATOM     83  O   UNL A   1      42.566  18.531  27.041  1.00  0.00    -0.237 OA
ATOM     84  O   UNL A   1      40.647  19.184  25.644  1.00  0.00    -0.744 OA
ENDBRANCH  80  81
ENDBRANCH  52  75
BRANCH  64  85
ATOM     85  C   UNL A   1      47.715  26.905  30.658  1.00  0.00    -0.014 A 
ATOM     86  C   UNL A   1      48.753  27.085  29.728  1.00  0.00     0.010 A 
ATOM     87  C   UNL A   1      48.016  26.371  31.925  1.00  0.00     0.010 A 
ATOM     88  C   UNL A   1      50.061  26.709  30.047  1.00  0.00     0.020 A 
ATOM     89  C   UNL A   1      49.327  26.024  32.260  1.00  0.00     0.020 A 
ATOM     90  C   UNL A   1      50.339  26.182  31.312  1.00  0.00     0.054 A 
BRANCH  90  91
ATOM     91  S   UNL A   1      52.052  25.744  31.718  1.00  0.00     0.124 S 
ATOM     92  O   UNL A   1      52.352  26.667  32.808  1.00  0.00    -0.237 OA
ATOM     93  O   UNL A   1      51.940  24.337  32.099  1.00  0.00    -0.237 OA
ATOM     94  O   UNL A   1      52.778  25.990  30.475  1.00  0.00    -0.744 OA
ENDBRANCH  90  91
ENDBRANCH  64  85
ENDBRANCH  38  39
ENDBRANCH  30  33
ENDBRANCH  28  29
ENDBRANCH  27  28
ENDBRANCH   1  27
TORSDOF 18
ENDMDL
MODEL 2
REMARK VINA RESULT:     -10.8      4.548     10.513
REMARK SMILES COc1ccccc1[C@H](C)NC(=O)[C@@H]1CC=CC[C@@H]1C(=O)NCCCCNC(=O)c1ccc(-c2c3nc(c(-c4ccc(S(=O)(=O)[O-])cc4)c4ccc([nH]4)c(-c4ccc(S(=O)(=O)[O-])cc4)c4nc(c(-c5ccc(S(=O)(=O)[O-])cc5)c5ccc2[nH]5)C=C4)C=C3)cc1
REMARK SMILES IDX 24 1 23 2 22 3 20 4 21 5 19 7 14 8 15 9 16 10 18 11 17 12
REMARK SMILES IDX 12 13 11 14 13 16 9 17 10 18 8 19 3 20 4 21 5 22 7 23 6 24
REMARK SMILES IDX 2 25 1 26 25 27 26 28 27 29 28 30 29 32 30 33 31 34 89 35
REMARK SMILES IDX 32 36 88 37 33 38 34 39 35 40 82 41 36 42 87 43 81 44 83 45
REMARK SMILES IDX 37 46 86 47 80 48 79 49 38 51 68 52 49 53 67 54 50 55 53 56
REMARK SMILES IDX 66 57 84 58 51 59 52 60 65 62 85 63 54 64 39 65 40 66 48 67
REMARK SMILES IDX 41 68 47 69 42 70 43 71 44 72 45 73 46 74 69 75 70 76 78 77
REMARK SMILES IDX 71 78 77 79 72 80 73 81 74 82 75 83 76 84 55 85 56 86 64 87
REMARK SMILES IDX 57 88 63 89 58 90 59 91 60 92 61 93 62 94
REMARK H PARENT 22 6 11 15 27 31 83 50 53 61
REMARK Flexibility Score: inf
ROOT
ATOM      1  C   UNL A   1      38.285  21.903  25.614  1.00  0.00     0.023 C 
ENDROOT
BRANCH   1   2
ATOM      2  C   UNL A   1      37.374  23.119  25.708  1.00  0.00     0.116 C 
BRANCH   2   3
ATOM      3  N   UNL A   1      36.280  23.004  26.664  1.00  0.00    -0.356 N 
ATOM      4  C   UNL A   1      34.921  22.996  26.583  1.00  0.00     0.224 C 
ATOM      5  O   UNL A   1      34.353  22.778  27.664  1.00  0.00    -0.275 OA
ATOM      6  H   UNL A   1      36.601  22.910  27.590  1.00  0.00     0.163 HD
BRANCH   4   7
ATOM      7  C   UNL A   1      34.058  23.090  25.299  1.00  0.00     0.095 C 
ATOM      8  C   UNL A   1      32.540  22.932  25.376  1.00  0.00     0.095 C 
ATOM      9  C   UNL A   1      32.208  21.545  26.009  1.00  0.00     0.041 C 
ATOM     10  C   UNL A   1      33.089  20.424  25.517  1.00  0.00    -0.030 C 
ATOM     11  C   UNL A   1      34.551  22.010  24.288  1.00  0.00     0.041 C 
ATOM     12  C   UNL A   1      34.137  20.628  24.708  1.00  0.00    -0.030 C 
BRANCH   8  13
ATOM     13  C   UNL A   1      31.778  24.092  26.011  1.00  0.00     0.224 C 
ATOM     14  N   UNL A   1      31.621  25.311  25.415  1.00  0.00    -0.349 N 
ATOM     15  H   UNL A   1      31.715  26.068  26.037  1.00  0.00     0.164 HD
ATOM     16  O   UNL A   1      31.299  23.975  27.144  1.00  0.00    -0.275 OA
BRANCH  14  17
ATOM     17  C   UNL A   1      31.337  25.721  24.023  1.00  0.00     0.113 C 
ATOM     18  C   UNL A   1      30.276  24.719  23.532  1.00  0.00     0.036 C 
BRANCH  17  19
ATOM     19  C   UNL A   1      30.933  27.202  23.877  1.00  0.00     0.016 A 
ATOM     20  C   UNL A   1      31.317  28.249  24.740  1.00  0.00     0.124 A 
ATOM     21  C   UNL A   1      30.870  29.572  24.533  1.00  0.00     0.047 A 
ATOM     22  C   UNL A   1      30.012  29.891  23.485  1.00  0.00     0.004 A 
ATOM     23  C   UNL A   1      30.060  27.580  22.837  1.00  0.00     0.010 A 
ATOM     24  C   UNL A   1      29.605  28.887  22.629  1.00  0.00     0.001 A 
BRANCH  20  25
ATOM     25  O   UNL A   1      32.267  28.128  25.717  1.00  0.00    -0.496 OA
ATOM     26  C   UNL A   1      32.141  29.053  26.789  1.00  0.00     0.278 C 
ENDBRANCH  20  25
ENDBRANCH  17  19
ENDBRANCH  14  17
ENDBRANCH   8  13
ENDBRANCH   4   7
ENDBRANCH   2   3
ENDBRANCH   1   2
BRANCH   1  27
ATOM     27  C   UNL A   1      39.498  21.928  26.542  1.00  0.00     0.023 C 
BRANCH  27  28
ATOM     28  C   UNL A   1      39.956  23.308  27.017  1.00  0.00     0.116 C 
BRANCH  28  29
ATOM     29  N   UNL A   1      40.594  24.116  25.985  1.00  0.00    -0.352 N 
ATOM     30  C   UNL A   1      41.099  25.395  26.041  1.00  0.00     0.251 C 
ATOM     31  H   UNL A   1      40.675  23.677  25.107  1.00  0.00     0.163 HD
ATOM     32  O   UNL A   1      41.533  25.926  25.020  1.00  0.00    -0.269 OA
BRANCH  30  33
ATOM     33  C   UNL A   1      41.076  26.155  27.310  1.00  0.00     0.039 A 
ATOM     34  C   UNL A   1      42.165  26.972  27.624  1.00  0.00     0.014 A 
ATOM     35  C   UNL A   1      39.982  26.090  28.175  1.00  0.00     0.014 A 
ATOM     36  C   UNL A   1      42.110  27.802  28.747  1.00  0.00     0.010 A 
ATOM     37  C   UNL A   1      39.891  26.981  29.242  1.00  0.00     0.010 A 
ATOM     38  C   UNL A   1      40.948  27.859  29.534  1.00  0.00    -0.014 A 
BRANCH  38  39
ATOM     39  C   UNL A   1      40.808  28.845  30.640  1.00  0.00     0.031 A 
ATOM     40  C   UNL A   1      41.660  28.729  31.877  1.00  0.00     0.074 A 
ATOM     41  C   UNL A   1      39.855  29.801  30.566  1.00  0.00     0.049 A 
ATOM     42  N   UNL A   1      41.625  29.449  32.970  1.00  0.00    -0.248 NA
ATOM     43  C   UNL A   1      42.662  27.651  31.905  1.00  0.00     0.031 C 
ATOM     44  C   UNL A   1      38.925  29.989  29.449  1.00  0.00     0.029 A 
ATOM     45  N   UNL A   1      39.500  30.788  31.455  1.00  0.00    -0.354 N 
ATOM     46  C   UNL A   1      42.574  28.894  33.822  1.00  0.00     0.074 A 
ATOM     47  C   UNL A   1      43.145  27.757  33.136  1.00  0.00     0.031 C 
ATOM     48  C   UNL A   1      38.124  31.035  29.710  1.00  0.00     0.029 A 
ATOM     49  C   UNL A   1      38.448  31.567  31.029  1.00  0.00     0.049 A 
ATOM     50  H   UNL A   1      39.956  30.924  32.317  1.00  0.00     0.167 HD
ATOM     51  C   UNL A   1      42.946  29.303  35.058  1.00  0.00     0.031 A 
ATOM     52  C   UNL A   1      37.804  32.585  31.635  1.00  0.00     0.031 A 
ATOM     53  C   UNL A   1      42.404  30.458  35.724  1.00  0.00     0.049 A 
ATOM     54  C   UNL A   1      38.254  33.027  33.003  1.00  0.00     0.074 A 
ATOM     55  C   UNL A   1      42.787  31.003  36.938  1.00  0.00     0.029 A 
ATOM     56  N   UNL A   1      41.368  31.241  35.243  1.00  0.00    -0.354 N 
ATOM     57  N   UNL A   1      39.222  32.547  33.747  1.00  0.00    -0.248 NA
ATOM     58  C   UNL A   1      37.533  34.156  33.610  1.00  0.00     0.031 C 
ATOM     59  C   UNL A   1      41.941  32.078  37.220  1.00  0.00     0.029 A 
ATOM     60  C   UNL A   1      41.076  32.245  36.151  1.00  0.00     0.049 A 
ATOM     61  H   UNL A   1      40.907  31.105  34.383  1.00  0.00     0.167 HD
ATOM     62  C   UNL A   1      39.247  33.337  34.891  1.00  0.00     0.074 A 
ATOM     63  C   UNL A   1      38.211  34.337  34.734  1.00  0.00     0.031 C 
ATOM     64  C   UNL A   1      40.054  33.243  35.976  1.00  0.00     0.031 A 
BRANCH  51  65
ATOM     65  C   UNL A   1      43.994  28.505  35.787  1.00  0.00    -0.014 A 
ATOM     66  C   UNL A   1      43.639  27.490  36.692  1.00  0.00     0.010 A 
ATOM     67  C   UNL A   1      45.354  28.705  35.479  1.00  0.00     0.010 A 
ATOM     68  C   UNL A   1      44.625  26.696  37.285  1.00  0.00     0.020 A 
ATOM     69  C   UNL A   1      46.340  27.895  36.051  1.00  0.00     0.020 A 
ATOM     70  C   UNL A   1      45.968  26.900  36.955  1.00  0.00     0.054 A 
BRANCH  70  71
ATOM     71  S   UNL A   1      47.216  25.802  37.682  1.00  0.00     0.124 S 
ATOM     72  O   UNL A   1      47.238  26.249  39.072  1.00  0.00    -0.237 OA
ATOM     73  O   UNL A   1      46.645  24.476  37.458  1.00  0.00    -0.237 OA
ATOM     74  O   UNL A   1      48.426  26.094  36.915  1.00  0.00    -0.744 OA
ENDBRANCH  70  71
ENDBRANCH  51  65
BRANCH  52  75
ATOM     75  C   UNL A   1      36.651  33.257  30.968  1.00  0.00    -0.014 A 
ATOM     76  C   UNL A   1      36.806  33.881  29.717  1.00  0.00     0.010 A 
ATOM     77  C   UNL A   1      35.399  33.313  31.605  1.00  0.00     0.010 A 
ATOM     78  C   UNL A   1      35.747  34.590  29.140  1.00  0.00     0.020 A 
ATOM     79  C   UNL A   1      34.328  33.992  31.016  1.00  0.00     0.020 A 
ATOM     80  C   UNL A   1      34.516  34.646  29.798  1.00  0.00     0.054 A 
BRANCH  80  81
ATOM     81  S   UNL A   1      33.155  35.572  29.035  1.00  0.00     0.124 S 
ATOM     82  O   UNL A   1      32.385  35.995  30.200  1.00  0.00    -0.237 OA
ATOM     83  O   UNL A   1      33.856  36.633  28.317  1.00  0.00    -0.237 OA
ATOM     84  O   UNL A   1      32.504  34.579  28.182  1.00  0.00    -0.744 OA
ENDBRANCH  80  81
ENDBRANCH  52  75
BRANCH  64  85
ATOM     85  C   UNL A   1      39.890  34.275  37.061  1.00  0.00    -0.014 A 
ATOM     86  C   UNL A   1      40.543  35.518  36.996  1.00  0.00     0.010 A 
ATOM     87  C   UNL A   1      39.017  34.014  38.134  1.00  0.00     0.010 A 
ATOM     88  C   UNL A   1      40.351  36.469  38.002  1.00  0.00     0.020 A 
ATOM     89  C   UNL A   1      38.797  34.975  39.124  1.00  0.00     0.020 A 
ATOM     90  C   UNL A   1      39.478  36.191  39.059  1.00  0.00     0.054 A 
BRANCH  90  91
ATOM     91  S   UNL A   1      39.212  37.460  40.328  1.00  0.00     0.124 S 
ATOM     92  O   UNL A   1      38.721  36.667  41.451  1.00  0.00    -0.237 OA
ATOM     93  O   UNL A   1      40.547  38.030  40.495  1.00  0.00    -0.237 OA
ATOM     94  O   UNL A   1      38.230  38.356  39.722  1.00  0.00    -0.744 OA
ENDBRANCH  90  91
ENDBRANCH  64  85
ENDBRANCH  38  39
ENDBRANCH  30  33
ENDBRANCH  28  29
ENDBRANCH  27  28
ENDBRANCH   1  27
TORSDOF 18
ENDMDL
MODEL 3
REMARK VINA RESULT:     -10.7      2.983      3.932
REMARK SMILES COc1ccccc1[C@H](C)NC(=O)[C@@H]1CC=CC[C@@H]1C(=O)NCCCCNC(=O)c1ccc(-c2c3nc(c(-c4ccc(S(=O)(=O)[O-])cc4)c4ccc([nH]4)c(-c4ccc(S(=O)(=O)[O-])cc4)c4nc(c(-c5ccc(S(=O)(=O)[O-])cc5)c5ccc2[nH]5)C=C4)C=C3)cc1
REMARK SMILES IDX 24 1 23 2 22 3 20 4 21 5 19 7 14 8 15 9 16 10 18 11 17 12
REMARK SMILES IDX 12 13 11 14 13 16 9 17 10 18 8 19 3 20 4 21 5 22 7 23 6 24
REMARK SMILES IDX 2 25 1 26 25 27 26 28 27 29 28 30 29 32 30 33 31 34 89 35
REMARK SMILES IDX 32 36 88 37 33 38 34 39 35 40 82 41 36 42 87 43 81 44 83 45
REMARK SMILES IDX 37 46 86 47 80 48 79 49 38 51 68 52 49 53 67 54 50 55 53 56
REMARK SMILES IDX 66 57 84 58 51 59 52 60 65 62 85 63 54 64 39 65 40 66 48 67
REMARK SMILES IDX 41 68 47 69 42 70 43 71 44 72 45 73 46 74 69 75 70 76 78 77
REMARK SMILES IDX 71 78 77 79 72 80 73 81 74 82 75 83 76 84 55 85 56 86 64 87
REMARK SMILES IDX 57 88 63 89 58 90 59 91 60 92 61 93 62 94
REMARK H PARENT 22 6 11 15 27 31 83 50 53 61
REMARK Flexibility Score: inf
ROOT
ATOM      1  C   UNL A   1      35.004  29.666  27.403  1.00  0.00     0.023 C 
ENDROOT
BRANCH   1   2
ATOM      2  C   UNL A   1      33.833  29.162  26.571  1.00  0.00     0.116 C 
BRANCH   2   3
ATOM      3  N   UNL A   1      34.091  29.044  25.143  1.00  0.00    -0.356 N 
ATOM      4  C   UNL A   1      33.738  28.165  24.164  1.00  0.00     0.224 C 
ATOM      5  O   UNL A   1      34.109  28.499  23.029  1.00  0.00    -0.275 OA
ATOM      6  H   UNL A   1      34.656  29.775  24.803  1.00  0.00     0.163 HD
BRANCH   4   7
ATOM      7  C   UNL A   1      32.834  26.915  24.310  1.00  0.00     0.095 C 
ATOM      8  C   UNL A   1      32.233  26.248  23.073  1.00  0.00     0.095 C 
ATOM      9  C   UNL A   1      31.380  27.299  22.298  1.00  0.00     0.041 C 
ATOM     10  C   UNL A   1      30.550  28.189  23.190  1.00  0.00    -0.030 C 
ATOM     11  C   UNL A   1      31.629  27.276  25.231  1.00  0.00     0.041 C 
ATOM     12  C   UNL A   1      30.638  28.159  24.526  1.00  0.00    -0.030 C 
BRANCH   8  13
ATOM     13  C   UNL A   1      33.209  25.479  22.187  1.00  0.00     0.224 C 
ATOM     14  N   UNL A   1      33.920  24.392  22.610  1.00  0.00    -0.349 N 
ATOM     15  H   UNL A   1      34.850  24.381  22.288  1.00  0.00     0.164 HD
ATOM     16  O   UNL A   1      33.427  25.855  21.030  1.00  0.00    -0.275 OA
BRANCH  14  17
ATOM     17  C   UNL A   1      33.572  23.228  23.454  1.00  0.00     0.113 C 
ATOM     18  C   UNL A   1      32.573  22.419  22.606  1.00  0.00     0.036 C 
BRANCH  17  19
ATOM     19  C   UNL A   1      34.793  22.424  23.944  1.00  0.00     0.016 A 
ATOM     20  C   UNL A   1      34.745  21.236  24.702  1.00  0.00     0.124 A 
ATOM     21  C   UNL A   1      35.925  20.587  25.125  1.00  0.00     0.047 A 
ATOM     22  C   UNL A   1      37.183  21.109  24.835  1.00  0.00     0.004 A 
ATOM     23  C   UNL A   1      36.090  22.910  23.684  1.00  0.00     0.010 A 
ATOM     24  C   UNL A   1      37.265  22.279  24.107  1.00  0.00     0.001 A 
BRANCH  20  25
ATOM     25  O   UNL A   1      33.601  20.522  24.939  1.00  0.00    -0.496 OA
ATOM     26  C   UNL A   1      33.011  20.746  26.212  1.00  0.00     0.278 C 
ENDBRANCH  20  25
ENDBRANCH  17  19
ENDBRANCH  14  17
ENDBRANCH   8  13
ENDBRANCH   4   7
ENDBRANCH   2   3
ENDBRANCH   1   2
BRANCH   1  27
ATOM     27  C   UNL A   1      35.034  31.176  27.634  1.00  0.00     0.023 C 
BRANCH  27  28
ATOM     28  C   UNL A   1      35.895  31.664  28.800  1.00  0.00     0.116 C 
BRANCH  28  29
ATOM     29  N   UNL A   1      35.744  30.888  30.024  1.00  0.00    -0.352 N 
ATOM     30  C   UNL A   1      36.654  30.111  30.704  1.00  0.00     0.251 C 
ATOM     31  H   UNL A   1      34.847  30.924  30.428  1.00  0.00     0.163 HD
ATOM     32  O   UNL A   1      36.294  29.471  31.690  1.00  0.00    -0.269 OA
BRANCH  30  33
ATOM     33  C   UNL A   1      38.049  30.000  30.227  1.00  0.00     0.039 A 
ATOM     34  C   UNL A   1      39.079  29.940  31.170  1.00  0.00     0.014 A 
ATOM     35  C   UNL A   1      38.347  29.929  28.865  1.00  0.00     0.014 A 
ATOM     36  C   UNL A   1      40.391  29.700  30.751  1.00  0.00     0.010 A 
ATOM     37  C   UNL A   1      39.638  29.602  28.455  1.00  0.00     0.010 A 
ATOM     38  C   UNL A   1      40.675  29.470  29.394  1.00  0.00    -0.014 A 
BRANCH  38  39
ATOM     39  C   UNL A   1      42.033  29.060  28.945  1.00  0.00     0.031 A 
ATOM     40  C   UNL A   1      43.133  30.081  28.814  1.00  0.00     0.074 A 
ATOM     41  C   UNL A   1      42.258  27.779  28.577  1.00  0.00     0.049 A 
ATOM     42  N   UNL A   1      44.353  29.923  28.368  1.00  0.00    -0.248 NA
ATOM     43  C   UNL A   1      42.816  31.464  29.208  1.00  0.00     0.031 C 
ATOM     44  C   UNL A   1      41.264  26.702  28.602  1.00  0.00     0.029 A 
ATOM     45  N   UNL A   1      43.390  27.167  28.095  1.00  0.00    -0.354 N 
ATOM     46  C   UNL A   1      44.937  31.185  28.398  1.00  0.00     0.074 A 
ATOM     47  C   UNL A   1      43.929  32.106  28.875  1.00  0.00     0.031 C 
ATOM     48  C   UNL A   1      41.834  25.562  28.177  1.00  0.00     0.029 A 
ATOM     49  C   UNL A   1      43.219  25.831  27.805  1.00  0.00     0.049 A 
ATOM     50  H   UNL A   1      44.244  27.640  27.969  1.00  0.00     0.167 HD
ATOM     51  C   UNL A   1      46.202  31.543  28.075  1.00  0.00     0.031 A 
ATOM     52  C   UNL A   1      44.074  24.926  27.286  1.00  0.00     0.031 A 
ATOM     53  C   UNL A   1      47.216  30.619  27.638  1.00  0.00     0.049 A 
ATOM     54  C   UNL A   1      45.479  25.352  26.951  1.00  0.00     0.074 A 
ATOM     55  C   UNL A   1      48.551  30.876  27.376  1.00  0.00     0.029 A 
ATOM     56  N   UNL A   1      47.012  29.271  27.394  1.00  0.00    -0.354 N 
ATOM     57  N   UNL A   1      46.036  26.533  27.085  1.00  0.00    -0.248 NA
ATOM     58  C   UNL A   1      46.377  24.322  26.408  1.00  0.00     0.031 C 
ATOM     59  C   UNL A   1      49.140  29.696  26.915  1.00  0.00     0.029 A 
ATOM     60  C   UNL A   1      48.190  28.690  26.953  1.00  0.00     0.049 A 
ATOM     61  H   UNL A   1      46.158  28.796  27.516  1.00  0.00     0.167 HD
ATOM     62  C   UNL A   1      47.356  26.376  26.674  1.00  0.00     0.074 A 
ATOM     63  C   UNL A   1      47.519  24.985  26.307  1.00  0.00     0.031 C 
ATOM     64  C   UNL A   1      48.344  27.302  26.606  1.00  0.00     0.031 A 
BRANCH  51  65
ATOM     65  C   UNL A   1      46.580  32.996  28.176  1.00  0.00    -0.014 A 
ATOM     66  C   UNL A   1      47.112  33.531  29.363  1.00  0.00     0.010 A 
ATOM     67  C   UNL A   1      46.501  33.813  27.032  1.00  0.00     0.010 A 
ATOM     68  C   UNL A   1      47.546  34.858  29.407  1.00  0.00     0.020 A 
ATOM     69  C   UNL A   1      46.960  35.133  27.066  1.00  0.00     0.020 A 
ATOM     70  C   UNL A   1      47.474  35.649  28.256  1.00  0.00     0.054 A 
BRANCH  70  71
ATOM     71  S   UNL A   1      48.118  37.343  28.325  1.00  0.00     0.124 S 
ATOM     72  O   UNL A   1      49.395  37.152  29.007  1.00  0.00    -0.237 OA
ATOM     73  O   UNL A   1      48.208  37.709  26.914  1.00  0.00    -0.237 OA
ATOM     74  O   UNL A   1      47.107  38.069  29.090  1.00  0.00    -0.744 OA
ENDBRANCH  70  71
ENDBRANCH  51  65
BRANCH  52  75
ATOM     75  C   UNL A   1      43.630  23.526  27.029  1.00  0.00    -0.014 A 
ATOM     76  C   UNL A   1      43.663  22.986  25.730  1.00  0.00     0.010 A 
ATOM     77  C   UNL A   1      43.128  22.737  28.080  1.00  0.00     0.010 A 
ATOM     78  C   UNL A   1      43.158  21.706  25.478  1.00  0.00     0.020 A 
ATOM     79  C   UNL A   1      42.654  21.444  27.839  1.00  0.00     0.020 A 
ATOM     80  C   UNL A   1      42.651  20.946  26.535  1.00  0.00     0.054 A 
BRANCH  80  81
ATOM     81  S   UNL A   1      41.999  19.288  26.188  1.00  0.00     0.124 S 
ATOM     82  O   UNL A   1      40.562  19.535  26.127  1.00  0.00    -0.237 OA
ATOM     83  O   UNL A   1      42.640  18.954  24.919  1.00  0.00    -0.237 OA
ATOM     84  O   UNL A   1      42.450  18.499  27.332  1.00  0.00    -0.744 OA
ENDBRANCH  80  81
ENDBRANCH  52  75
BRANCH  64  85
ATOM     85  C   UNL A   1      49.707  26.838  26.165  1.00  0.00    -0.014 A 
ATOM     86  C   UNL A   1      50.153  27.021  24.845  1.00  0.00     0.010 A 
ATOM     87  C   UNL A   1      50.578  26.261  27.109  1.00  0.00     0.010 A 
ATOM     88  C   UNL A   1      51.434  26.608  24.468  1.00  0.00     0.020 A 
ATOM     89  C   UNL A   1      51.870  25.876  26.744  1.00  0.00     0.020 A 
ATOM     90  C   UNL A   1      52.284  26.038  25.422  1.00  0.00     0.054 A 
BRANCH  90  91
ATOM     91  S   UNL A   1      53.958  25.551  24.919  1.00  0.00     0.124 S 
ATOM     92  O   UNL A   1      54.020  26.047  23.548  1.00  0.00    -0.237 OA
ATOM     93  O   UNL A   1      54.799  26.258  25.882  1.00  0.00    -0.237 OA
ATOM     94  O   UNL A   1      53.952  24.096  25.056  1.00  0.00    -0.744 OA
ENDBRANCH  90  91
ENDBRANCH  64  85
ENDBRANCH  38  39
ENDBRANCH  30  33
ENDBRANCH  28  29
ENDBRANCH  27  28
ENDBRANCH   1  27
TORSDOF 18
ENDMDL
