MODEL 1
REMARK VINA RESULT:     -11.0      0.000      0.000
REMARK SMILES CC[C@@](O)(C(=O)NCCCCNC(=O)c1ccc(-c2c3nc(c(-c4ccc(S(=O)(=O)[O-])cc4)c4ccc([nH]4)c(-c4ccc(S(=O)(=O)[O-])cc4)c4nc(c(-c5ccc(S(=O)(=O)[O-])cc5)c5ccc2[nH]5)C=C4)C=C3)cc1)[C@@H]1CCOc2ccccc21
REMARK SMILES IDX 10 1 9 2 8 3 7 4 5 5 6 6 3 8 2 9 1 10 4 11 75 13 76 14 84 15
REMARK SMILES IDX 77 16 79 17 83 18 78 19 80 20 82 21 81 22 11 23 12 24 13 25
REMARK SMILES IDX 14 27 15 28 16 29 74 30 17 31 73 32 18 33 19 34 20 35 67 36
REMARK SMILES IDX 21 37 72 38 66 39 68 40 22 41 71 42 65 43 64 44 23 46 53 47
REMARK SMILES IDX 34 48 52 49 35 50 38 51 51 52 69 53 36 54 37 55 50 57 70 58
REMARK SMILES IDX 39 59 24 60 25 61 33 62 26 63 32 64 27 65 28 66 29 67 30 68
REMARK SMILES IDX 31 69 54 70 55 71 63 72 56 73 62 74 57 75 58 76 59 77 60 78
REMARK SMILES IDX 61 79 40 80 41 81 49 82 42 83 48 84 43 85 44 86 45 87 46 88
REMARK SMILES IDX 47 89
REMARK H PARENT 7 7 4 12 12 26 68 45 38 56
REMARK Flexibility Score: inf
ROOT
ATOM      1  C   UNL A   1      33.014  27.682  25.846  1.00  0.00     0.023 C 
ENDROOT
BRANCH   1   2
ATOM      2  C   UNL A   1      31.602  27.553  26.412  1.00  0.00     0.023 C 
BRANCH   2   3
ATOM      3  C   UNL A   1      30.786  26.366  25.874  1.00  0.00     0.116 C 
BRANCH   3   4
ATOM      4  N   UNL A   1      30.819  25.264  26.810  1.00  0.00    -0.354 N 
ATOM      5  C   UNL A   1      30.964  23.920  26.606  1.00  0.00     0.252 C 
ATOM      6  O   UNL A   1      30.467  23.247  27.509  1.00  0.00    -0.272 OA
ATOM      7  H   UNL A   1      30.722  25.527  27.754  1.00  0.00     0.163 HD
BRANCH   5   8
ATOM      8  C   UNL A   1      31.650  23.323  25.311  1.00  0.00     0.149 C 
BRANCH   8   9
ATOM      9  C   UNL A   1      32.153  21.888  25.644  1.00  0.00     0.043 C 
ATOM     10  C   UNL A   1      32.220  20.890  24.483  1.00  0.00     0.007 C 
ENDBRANCH   8   9
BRANCH   8  11
ATOM     11  O   UNL A   1      30.553  23.203  24.362  1.00  0.00    -0.379 OA
ATOM     12  H   UNL A   1      30.275  24.087  24.075  1.00  0.00     0.212 HD
ENDBRANCH   8  11
BRANCH   8  13
ATOM     13  C   UNL A   1      32.762  24.242  24.585  1.00  0.00     0.068 C 
ATOM     14  C   UNL A   1      32.376  24.545  23.106  1.00  0.00     0.053 C 
ATOM     15  C   UNL A   1      34.246  23.898  24.653  1.00  0.00     0.001 A 
ATOM     16  C   UNL A   1      33.572  24.900  22.248  1.00  0.00     0.230 C 
ATOM     17  C   UNL A   1      34.984  23.600  23.500  1.00  0.00     0.122 A 
ATOM     18  C   UNL A   1      34.965  23.993  25.855  1.00  0.00     0.008 A 
ATOM     19  O   UNL A   1      34.473  23.788  22.241  1.00  0.00    -0.493 OA
ATOM     20  C   UNL A   1      36.314  23.181  23.568  1.00  0.00     0.047 A 
ATOM     21  C   UNL A   1      36.305  23.598  25.933  1.00  0.00     0.001 A 
ATOM     22  C   UNL A   1      36.969  23.158  24.794  1.00  0.00     0.004 A 
ENDBRANCH   8  13
ENDBRANCH   5   8
ENDBRANCH   3   4
ENDBRANCH   2   3
ENDBRANCH   1   2
BRANCH   1  23
ATOM     23  C   UNL A   1      34.034  28.232  26.823  1.00  0.00     0.116 C 
BRANCH  23  24
ATOM     24  N   UNL A   1      33.704  29.574  27.273  1.00  0.00    -0.352 N 
ATOM     25  C   UNL A   1      34.469  30.445  28.007  1.00  0.00     0.251 C 
ATOM     26  H   UNL A   1      32.812  29.902  27.016  1.00  0.00     0.163 HD
ATOM     27  O   UNL A   1      33.987  31.485  28.433  1.00  0.00    -0.269 OA
BRANCH  25  28
ATOM     28  C   UNL A   1      35.873  30.090  28.292  1.00  0.00     0.039 A 
ATOM     29  C   UNL A   1      36.196  29.563  29.543  1.00  0.00     0.014 A 
ATOM     30  C   UNL A   1      36.857  30.254  27.312  1.00  0.00     0.014 A 
ATOM     31  C   UNL A   1      37.508  29.168  29.800  1.00  0.00     0.010 A 
ATOM     32  C   UNL A   1      38.138  29.773  27.537  1.00  0.00     0.010 A 
ATOM     33  C   UNL A   1      38.483  29.255  28.792  1.00  0.00    -0.014 A 
BRANCH  33  34
ATOM     34  C   UNL A   1      39.890  28.870  29.051  1.00  0.00     0.031 A 
ATOM     35  C   UNL A   1      40.818  29.859  29.703  1.00  0.00     0.074 A 
ATOM     36  C   UNL A   1      40.339  27.664  28.658  1.00  0.00     0.049 A 
ATOM     37  N   UNL A   1      42.086  29.731  29.995  1.00  0.00    -0.248 NA
ATOM     38  C   UNL A   1      40.255  31.179  30.041  1.00  0.00     0.031 C 
ATOM     39  C   UNL A   1      39.542  26.641  27.976  1.00  0.00     0.029 A 
ATOM     40  N   UNL A   1      41.579  27.092  28.781  1.00  0.00    -0.354 N 
ATOM     41  C   UNL A   1      42.475  30.958  30.521  1.00  0.00     0.074 A 
ATOM     42  C   UNL A   1      41.328  31.834  30.454  1.00  0.00     0.031 C 
ATOM     43  C   UNL A   1      40.303  25.551  27.781  1.00  0.00     0.029 A 
ATOM     44  C   UNL A   1      41.645  25.810  28.291  1.00  0.00     0.049 A 
ATOM     45  H   UNL A   1      42.349  27.557  29.182  1.00  0.00     0.167 HD
ATOM     46  C   UNL A   1      43.674  31.317  31.039  1.00  0.00     0.031 A 
ATOM     47  C   UNL A   1      42.672  24.939  28.268  1.00  0.00     0.031 A 
ATOM     48  C   UNL A   1      44.802  30.431  31.125  1.00  0.00     0.049 A 
ATOM     49  C   UNL A   1      43.988  25.349  28.869  1.00  0.00     0.074 A 
ATOM     50  C   UNL A   1      46.043  30.668  31.688  1.00  0.00     0.029 A 
ATOM     51  N   UNL A   1      44.825  29.134  30.634  1.00  0.00    -0.354 N 
ATOM     52  N   UNL A   1      44.322  26.491  29.426  1.00  0.00    -0.248 NA
ATOM     53  C   UNL A   1      45.061  24.346  28.858  1.00  0.00     0.031 C 
ATOM     54  C   UNL A   1      46.831  29.527  31.497  1.00  0.00     0.029 A 
ATOM     55  C   UNL A   1      46.062  28.561  30.866  1.00  0.00     0.049 A 
ATOM     56  H   UNL A   1      44.070  28.687  30.185  1.00  0.00     0.167 HD
ATOM     57  C   UNL A   1      45.630  26.330  29.866  1.00  0.00     0.074 A 
ATOM     58  C   UNL A   1      46.023  24.979  29.514  1.00  0.00     0.031 C 
ATOM     59  C   UNL A   1      46.431  27.214  30.511  1.00  0.00     0.031 A 
BRANCH  46  60
ATOM     60  C   UNL A   1      43.814  32.733  31.535  1.00  0.00    -0.014 A 
ATOM     61  C   UNL A   1      43.434  33.092  32.842  1.00  0.00     0.010 A 
ATOM     62  C   UNL A   1      44.328  33.723  30.678  1.00  0.00     0.010 A 
ATOM     63  C   UNL A   1      43.504  34.423  33.260  1.00  0.00     0.020 A 
ATOM     64  C   UNL A   1      44.430  35.051  31.103  1.00  0.00     0.020 A 
ATOM     65  C   UNL A   1      43.994  35.396  32.385  1.00  0.00     0.054 A 
BRANCH  65  66
ATOM     66  S   UNL A   1      44.065  37.119  32.947  1.00  0.00     0.124 S 
ATOM     67  O   UNL A   1      43.894  37.851  31.695  1.00  0.00    -0.237 OA
ATOM     68  O   UNL A   1      42.944  37.199  33.880  1.00  0.00    -0.237 OA
ATOM     69  O   UNL A   1      45.388  37.229  33.557  1.00  0.00    -0.744 OA
ENDBRANCH  65  66
ENDBRANCH  46  60
BRANCH  47  70
ATOM     70  C   UNL A   1      42.472  23.574  27.711  1.00  0.00    -0.014 A 
ATOM     71  C   UNL A   1      42.849  23.291  26.386  1.00  0.00     0.010 A 
ATOM     72  C   UNL A   1      41.940  22.544  28.506  1.00  0.00     0.010 A 
ATOM     73  C   UNL A   1      42.683  22.005  25.861  1.00  0.00     0.020 A 
ATOM     74  C   UNL A   1      41.796  21.251  27.993  1.00  0.00     0.020 A 
ATOM     75  C   UNL A   1      42.160  20.992  26.670  1.00  0.00     0.054 A 
BRANCH  75  76
ATOM     76  S   UNL A   1      42.014  19.318  25.986  1.00  0.00     0.124 S 
ATOM     77  O   UNL A   1      40.576  19.205  25.764  1.00  0.00    -0.237 OA
ATOM     78  O   UNL A   1      42.837  19.397  24.781  1.00  0.00    -0.237 OA
ATOM     79  O   UNL A   1      42.554  18.469  27.045  1.00  0.00    -0.744 OA
ENDBRANCH  75  76
ENDBRANCH  47  70
BRANCH  59  80
ATOM     80  C   UNL A   1      47.795  26.734  30.925  1.00  0.00    -0.014 A 
ATOM     81  C   UNL A   1      48.917  26.897  30.094  1.00  0.00     0.010 A 
ATOM     82  C   UNL A   1      47.960  26.146  32.194  1.00  0.00     0.010 A 
ATOM     83  C   UNL A   1      50.173  26.445  30.507  1.00  0.00     0.020 A 
ATOM     84  C   UNL A   1      49.218  25.719  32.622  1.00  0.00     0.020 A 
ATOM     85  C   UNL A   1      50.314  25.855  31.768  1.00  0.00     0.054 A 
BRANCH  85  86
ATOM     86  S   UNL A   1      51.959  25.301  32.295  1.00  0.00     0.124 S 
ATOM     87  O   UNL A   1      52.107  25.976  33.582  1.00  0.00    -0.237 OA
ATOM     88  O   UNL A   1      51.804  23.851  32.360  1.00  0.00    -0.237 OA
ATOM     89  O   UNL A   1      52.842  25.782  31.234  1.00  0.00    -0.744 OA
ENDBRANCH  85  86
ENDBRANCH  59  80
ENDBRANCH  33  34
ENDBRANCH  25  28
ENDBRANCH  23  24
ENDBRANCH   1  23
TORSDOF 17
ENDMDL
MODEL 2
REMARK VINA RESULT:     -10.7      4.580     10.469
REMARK SMILES CC[C@@](O)(C(=O)NCCCCNC(=O)c1ccc(-c2c3nc(c(-c4ccc(S(=O)(=O)[O-])cc4)c4ccc([nH]4)c(-c4ccc(S(=O)(=O)[O-])cc4)c4nc(c(-c5ccc(S(=O)(=O)[O-])cc5)c5ccc2[nH]5)C=C4)C=C3)cc1)[C@@H]1CCOc2ccccc21
REMARK SMILES IDX 10 1 9 2 8 3 7 4 5 5 6 6 3 8 2 9 1 10 4 11 75 13 76 14 84 15
REMARK SMILES IDX 77 16 79 17 83 18 78 19 80 20 82 21 81 22 11 23 12 24 13 25
REMARK SMILES IDX 14 27 15 28 16 29 74 30 17 31 73 32 18 33 19 34 20 35 67 36
REMARK SMILES IDX 21 37 72 38 66 39 68 40 22 41 71 42 65 43 64 44 23 46 53 47
REMARK SMILES IDX 34 48 52 49 35 50 38 51 51 52 69 53 36 54 37 55 50 57 70 58
REMARK SMILES IDX 39 59 24 60 25 61 33 62 26 63 32 64 27 65 28 66 29 67 30 68
REMARK SMILES IDX 31 69 54 70 55 71 63 72 56 73 62 74 57 75 58 76 59 77 60 78
REMARK SMILES IDX 61 79 40 80 41 81 49 82 42 83 48 84 43 85 44 86 45 87 46 88
REMARK SMILES IDX 47 89
REMARK H PARENT 7 7 4 12 12 26 68 45 38 56
REMARK Flexibility Score: inf
ROOT
ATOM      1  C   UNL A   1      40.185  21.849  27.173  1.00  0.00     0.023 C 
ENDROOT
BRANCH   1   2
ATOM      2  C   UNL A   1      39.471  21.658  25.836  1.00  0.00     0.023 C 
BRANCH   2   3
ATOM      3  C   UNL A   1      37.973  22.007  25.838  1.00  0.00     0.116 C 
BRANCH   3   4
ATOM      4  N   UNL A   1      37.622  22.731  24.637  1.00  0.00    -0.354 N 
ATOM      5  C   UNL A   1      36.477  22.723  23.888  1.00  0.00     0.252 C 
ATOM      6  O   UNL A   1      36.675  23.042  22.717  1.00  0.00    -0.272 OA
ATOM      7  H   UNL A   1      38.325  23.333  24.302  1.00  0.00     0.163 HD
BRANCH   5   8
ATOM      8  C   UNL A   1      35.075  22.289  24.479  1.00  0.00     0.149 C 
BRANCH   8   9
ATOM      9  C   UNL A   1      33.998  22.480  23.371  1.00  0.00     0.043 C 
ATOM     10  C   UNL A   1      32.677  21.727  23.550  1.00  0.00     0.007 C 
ENDBRANCH   8   9
BRANCH   8  11
ATOM     11  O   UNL A   1      35.226  20.860  24.713  1.00  0.00    -0.379 OA
ATOM     12  H   UNL A   1      34.350  20.453  24.807  1.00  0.00     0.212 HD
ENDBRANCH   8  11
BRANCH   8  13
ATOM     13  C   UNL A   1      34.653  22.927  25.902  1.00  0.00     0.068 C 
ATOM     14  C   UNL A   1      34.134  21.836  26.886  1.00  0.00     0.053 C 
ATOM     15  C   UNL A   1      33.747  24.150  25.988  1.00  0.00     0.001 A 
ATOM     16  C   UNL A   1      33.240  22.401  27.970  1.00  0.00     0.230 C 
ATOM     17  C   UNL A   1      32.496  24.092  26.615  1.00  0.00     0.122 A 
ATOM     18  C   UNL A   1      34.180  25.414  25.558  1.00  0.00     0.008 A 
ATOM     19  O   UNL A   1      32.100  23.005  27.350  1.00  0.00    -0.493 OA
ATOM     20  C   UNL A   1      31.618  25.178  26.602  1.00  0.00     0.047 A 
ATOM     21  C   UNL A   1      33.319  26.516  25.561  1.00  0.00     0.001 A 
ATOM     22  C   UNL A   1      32.025  26.389  26.052  1.00  0.00     0.004 A 
ENDBRANCH   8  13
ENDBRANCH   5   8
ENDBRANCH   3   4
ENDBRANCH   2   3
ENDBRANCH   1   2
BRANCH   1  23
ATOM     23  C   UNL A   1      40.561  23.285  27.483  1.00  0.00     0.116 C 
BRANCH  23  24
ATOM     24  N   UNL A   1      41.031  24.001  26.309  1.00  0.00    -0.352 N 
ATOM     25  C   UNL A   1      41.202  25.352  26.140  1.00  0.00     0.251 C 
ATOM     26  H   UNL A   1      41.258  23.442  25.530  1.00  0.00     0.163 HD
ATOM     27  O   UNL A   1      41.465  25.810  25.037  1.00  0.00    -0.269 OA
BRANCH  25  28
ATOM     28  C   UNL A   1      41.036  26.240  27.307  1.00  0.00     0.039 A 
ATOM     29  C   UNL A   1      41.939  27.288  27.493  1.00  0.00     0.014 A 
ATOM     30  C   UNL A   1      39.974  26.049  28.195  1.00  0.00     0.014 A 
ATOM     31  C   UNL A   1      41.754  28.167  28.559  1.00  0.00     0.010 A 
ATOM     32  C   UNL A   1      39.738  26.980  29.196  1.00  0.00     0.010 A 
ATOM     33  C   UNL A   1      40.643  28.029  29.406  1.00  0.00    -0.014 A 
BRANCH  33  34
ATOM     34  C   UNL A   1      40.442  28.932  30.562  1.00  0.00     0.031 A 
ATOM     35  C   UNL A   1      41.312  28.776  31.781  1.00  0.00     0.074 A 
ATOM     36  C   UNL A   1      39.458  29.849  30.535  1.00  0.00     0.049 A 
ATOM     37  N   UNL A   1      41.285  29.445  32.904  1.00  0.00    -0.248 NA
ATOM     38  C   UNL A   1      42.321  27.703  31.747  1.00  0.00     0.031 C 
ATOM     39  C   UNL A   1      38.525  30.061  29.427  1.00  0.00     0.029 A 
ATOM     40  N   UNL A   1      39.080  30.779  31.470  1.00  0.00    -0.354 N 
ATOM     41  C   UNL A   1      42.249  28.857  33.715  1.00  0.00     0.074 A 
ATOM     42  C   UNL A   1      42.802  27.742  32.979  1.00  0.00     0.031 C 
ATOM     43  C   UNL A   1      37.711  31.087  29.728  1.00  0.00     0.029 A 
ATOM     44  C   UNL A   1      38.042  31.581  31.061  1.00  0.00     0.049 A 
ATOM     45  H   UNL A   1      39.513  30.864  32.350  1.00  0.00     0.167 HD
ATOM     46  C   UNL A   1      42.659  29.226  34.952  1.00  0.00     0.031 A 
ATOM     47  C   UNL A   1      37.435  32.606  31.688  1.00  0.00     0.031 A 
ATOM     48  C   UNL A   1      42.121  30.352  35.666  1.00  0.00     0.049 A 
ATOM     49  C   UNL A   1      37.920  33.015  33.051  1.00  0.00     0.074 A 
ATOM     50  C   UNL A   1      42.505  30.856  36.895  1.00  0.00     0.029 A 
ATOM     51  N   UNL A   1      41.082  31.150  35.210  1.00  0.00    -0.354 N 
ATOM     52  N   UNL A   1      38.881  32.492  33.777  1.00  0.00    -0.248 NA
ATOM     53  C   UNL A   1      37.253  34.168  33.671  1.00  0.00     0.031 C 
ATOM     54  C   UNL A   1      41.667  31.934  37.202  1.00  0.00     0.029 A 
ATOM     55  C   UNL A   1      40.800  32.135  36.140  1.00  0.00     0.049 A 
ATOM     56  H   UNL A   1      40.614  31.033  34.351  1.00  0.00     0.167 HD
ATOM     57  C   UNL A   1      38.960  33.275  34.923  1.00  0.00     0.074 A 
ATOM     58  C   UNL A   1      37.952  34.310  34.788  1.00  0.00     0.031 C 
ATOM     59  C   UNL A   1      39.795  33.156  35.985  1.00  0.00     0.031 A 
BRANCH  46  60
ATOM     60  C   UNL A   1      43.730  28.390  35.602  1.00  0.00    -0.014 A 
ATOM     61  C   UNL A   1      45.096  28.662  35.399  1.00  0.00     0.010 A 
ATOM     62  C   UNL A   1      43.364  27.308  36.424  1.00  0.00     0.010 A 
ATOM     63  C   UNL A   1      46.074  27.831  35.952  1.00  0.00     0.020 A 
ATOM     64  C   UNL A   1      44.340  26.494  37.006  1.00  0.00     0.020 A 
ATOM     65  C   UNL A   1      45.689  26.746  36.745  1.00  0.00     0.054 A 
BRANCH  65  66
ATOM     66  S   UNL A   1      46.977  25.677  37.444  1.00  0.00     0.124 S 
ATOM     67  O   UNL A   1      47.162  26.258  38.771  1.00  0.00    -0.237 OA
ATOM     68  O   UNL A   1      46.349  24.359  37.418  1.00  0.00    -0.237 OA
ATOM     69  O   UNL A   1      48.101  25.846  36.527  1.00  0.00    -0.744 OA
ENDBRANCH  65  66
ENDBRANCH  46  60
BRANCH  47  70
ATOM     70  C   UNL A   1      36.346  33.352  31.002  1.00  0.00    -0.014 A 
ATOM     71  C   UNL A   1      35.129  33.593  31.665  1.00  0.00     0.010 A 
ATOM     72  C   UNL A   1      36.527  33.855  29.702  1.00  0.00     0.010 A 
ATOM     73  C   UNL A   1      34.107  34.310  31.035  1.00  0.00     0.020 A 
ATOM     74  C   UNL A   1      35.517  34.594  29.077  1.00  0.00     0.020 A 
ATOM     75  C   UNL A   1      34.309  34.810  29.746  1.00  0.00     0.054 A 
BRANCH  75  76
ATOM     76  S   UNL A   1      32.994  35.792  28.975  1.00  0.00     0.124 S 
ATOM     77  O   UNL A   1      32.202  36.201  30.131  1.00  0.00    -0.237 OA
ATOM     78  O   UNL A   1      33.742  36.856  28.311  1.00  0.00    -0.237 OA
ATOM     79  O   UNL A   1      32.343  34.843  28.074  1.00  0.00    -0.744 OA
ENDBRANCH  75  76
ENDBRANCH  47  70
BRANCH  59  80
ATOM     80  C   UNL A   1      39.692  34.201  37.063  1.00  0.00    -0.014 A 
ATOM     81  C   UNL A   1      38.934  33.984  38.226  1.00  0.00     0.010 A 
ATOM     82  C   UNL A   1      40.406  35.406  36.923  1.00  0.00     0.010 A 
ATOM     83  C   UNL A   1      38.860  34.971  39.214  1.00  0.00     0.020 A 
ATOM     84  C   UNL A   1      40.358  36.381  37.919  1.00  0.00     0.020 A 
ATOM     85  C   UNL A   1      39.570  36.165  39.051  1.00  0.00     0.054 A 
BRANCH  85  86
ATOM     86  S   UNL A   1      39.482  37.419  40.358  1.00  0.00     0.124 S 
ATOM     87  O   UNL A   1      38.943  36.653  41.479  1.00  0.00    -0.237 OA
ATOM     88  O   UNL A   1      40.874  37.839  40.495  1.00  0.00    -0.237 OA
ATOM     89  O   UNL A   1      38.584  38.432  39.806  1.00  0.00    -0.744 OA
ENDBRANCH  85  86
ENDBRANCH  59  80
ENDBRANCH  33  34
ENDBRANCH  25  28
ENDBRANCH  23  24
ENDBRANCH   1  23
TORSDOF 17
ENDMDL
MODEL 3
REMARK VINA RESULT:     -10.6      4.551     10.208
REMARK SMILES CC[C@@](O)(C(=O)NCCCCNC(=O)c1ccc(-c2c3nc(c(-c4ccc(S(=O)(=O)[O-])cc4)c4ccc([nH]4)c(-c4ccc(S(=O)(=O)[O-])cc4)c4nc(c(-c5ccc(S(=O)(=O)[O-])cc5)c5ccc2[nH]5)C=C4)C=C3)cc1)[C@@H]1CCOc2ccccc21
REMARK SMILES IDX 10 1 9 2 8 3 7 4 5 5 6 6 3 8 2 9 1 10 4 11 75 13 76 14 84 15
REMARK SMILES IDX 77 16 79 17 83 18 78 19 80 20 82 21 81 22 11 23 12 24 13 25
REMARK SMILES IDX 14 27 15 28 16 29 74 30 17 31 73 32 18 33 19 34 20 35 67 36
REMARK SMILES IDX 21 37 72 38 66 39 68 40 22 41 71 42 65 43 64 44 23 46 53 47
REMARK SMILES IDX 34 48 52 49 35 50 38 51 51 52 69 53 36 54 37 55 50 57 70 58
REMARK SMILES IDX 39 59 24 60 25 61 33 62 26 63 32 64 27 65 28 66 29 67 30 68
REMARK SMILES IDX 31 69 54 70 55 71 63 72 56 73 62 74 57 75 58 76 59 77 60 78
REMARK SMILES IDX 61 79 40 80 41 81 49 82 42 83 48 84 43 85 44 86 45 87 46 88
REMARK SMILES IDX 47 89
REMARK H PARENT 7 7 4 12 12 26 68 45 38 56
REMARK Flexibility Score: inf
ROOT
ATOM      1  C   UNL A   1      37.400  23.169  26.219  1.00  0.00     0.023 C 
ENDROOT
BRANCH   1   2
ATOM      2  C   UNL A   1      36.606  23.241  24.917  1.00  0.00     0.023 C 
BRANCH   2   3
ATOM      3  C   UNL A   1      35.749  22.003  24.602  1.00  0.00     0.116 C 
BRANCH   3   4
ATOM      4  N   UNL A   1      35.074  21.539  25.794  1.00  0.00    -0.354 N 
ATOM      5  C   UNL A   1      33.743  21.450  26.093  1.00  0.00     0.252 C 
ATOM      6  O   UNL A   1      33.524  21.495  27.303  1.00  0.00    -0.272 OA
ATOM      7  H   UNL A   1      35.676  21.235  26.512  1.00  0.00     0.163 HD
BRANCH   5   8
ATOM      8  C   UNL A   1      32.623  21.359  24.978  1.00  0.00     0.149 C 
BRANCH   8   9
ATOM      9  C   UNL A   1      32.923  20.119  24.086  1.00  0.00     0.043 C 
ATOM     10  C   UNL A   1      32.828  18.744  24.753  1.00  0.00     0.007 C 
ENDBRANCH   8   9
BRANCH   8  11
ATOM     11  O   UNL A   1      31.408  21.084  25.731  1.00  0.00    -0.379 OA
ATOM     12  H   UNL A   1      31.109  21.895  26.171  1.00  0.00     0.212 HD
ENDBRANCH   8  11
BRANCH   8  13
ATOM     13  C   UNL A   1      32.324  22.702  24.133  1.00  0.00     0.068 C 
ATOM     14  C   UNL A   1      32.876  22.598  22.680  1.00  0.00     0.053 C 
ATOM     15  C   UNL A   1      32.648  24.083  24.693  1.00  0.00     0.001 A 
ATOM     16  C   UNL A   1      33.122  23.952  22.046  1.00  0.00     0.230 C 
ATOM     17  C   UNL A   1      33.576  24.928  24.070  1.00  0.00     0.122 A 
ATOM     18  C   UNL A   1      31.939  24.618  25.779  1.00  0.00     0.008 A 
ATOM     19  O   UNL A   1      34.094  24.650  22.831  1.00  0.00    -0.493 OA
ATOM     20  C   UNL A   1      33.956  26.146  24.636  1.00  0.00     0.047 A 
ATOM     21  C   UNL A   1      32.293  25.848  26.343  1.00  0.00     0.001 A 
ATOM     22  C   UNL A   1      33.326  26.597  25.791  1.00  0.00     0.004 A 
ENDBRANCH   8  13
ENDBRANCH   5   8
ENDBRANCH   3   4
ENDBRANCH   2   3
ENDBRANCH   1   2
BRANCH   1  23
ATOM     23  C   UNL A   1      38.265  24.382  26.494  1.00  0.00     0.116 C 
BRANCH  23  24
ATOM     24  N   UNL A   1      39.640  24.194  26.060  1.00  0.00    -0.352 N 
ATOM     25  C   UNL A   1      40.767  24.863  26.467  1.00  0.00     0.251 C 
ATOM     26  H   UNL A   1      39.781  23.492  25.384  1.00  0.00     0.163 HD
ATOM     27  O   UNL A   1      41.832  24.685  25.893  1.00  0.00    -0.269 OA
BRANCH  25  28
ATOM     28  C   UNL A   1      40.661  25.815  27.588  1.00  0.00     0.039 A 
ATOM     29  C   UNL A   1      41.460  26.960  27.582  1.00  0.00     0.014 A 
ATOM     30  C   UNL A   1      39.753  25.587  28.627  1.00  0.00     0.014 A 
ATOM     31  C   UNL A   1      41.323  27.895  28.606  1.00  0.00     0.010 A 
ATOM     32  C   UNL A   1      39.551  26.563  29.591  1.00  0.00     0.010 A 
ATOM     33  C   UNL A   1      40.355  27.711  29.607  1.00  0.00    -0.014 A 
BRANCH  33  34
ATOM     34  C   UNL A   1      40.212  28.675  30.722  1.00  0.00     0.031 A 
ATOM     35  C   UNL A   1      41.100  28.545  31.930  1.00  0.00     0.074 A 
ATOM     36  C   UNL A   1      39.260  29.624  30.670  1.00  0.00     0.049 A 
ATOM     37  N   UNL A   1      41.121  29.267  33.020  1.00  0.00    -0.248 NA
ATOM     38  C   UNL A   1      42.070  27.436  31.928  1.00  0.00     0.031 C 
ATOM     39  C   UNL A   1      38.311  29.818  29.571  1.00  0.00     0.029 A 
ATOM     40  N   UNL A   1      38.936  30.611  31.565  1.00  0.00    -0.354 N 
ATOM     41  C   UNL A   1      42.082  28.684  33.839  1.00  0.00     0.074 A 
ATOM     42  C   UNL A   1      42.578  27.516  33.147  1.00  0.00     0.031 C 
ATOM     43  C   UNL A   1      37.542  30.886  29.838  1.00  0.00     0.029 A 
ATOM     44  C   UNL A   1      37.918  31.431  31.139  1.00  0.00     0.049 A 
ATOM     45  H   UNL A   1      39.390  30.722  32.432  1.00  0.00     0.167 HD
ATOM     46  C   UNL A   1      42.530  29.096  35.048  1.00  0.00     0.031 A 
ATOM     47  C   UNL A   1      37.362  32.506  31.727  1.00  0.00     0.031 A 
ATOM     48  C   UNL A   1      42.048  30.273  35.717  1.00  0.00     0.049 A 
ATOM     49  C   UNL A   1      37.891  32.962  33.059  1.00  0.00     0.074 A 
ATOM     50  C   UNL A   1      42.476  30.822  36.912  1.00  0.00     0.029 A 
ATOM     51  N   UNL A   1      41.029  31.087  35.244  1.00  0.00    -0.354 N 
ATOM     52  N   UNL A   1      38.847  32.439  33.791  1.00  0.00    -0.248 NA
ATOM     53  C   UNL A   1      37.278  34.166  33.636  1.00  0.00     0.031 C 
ATOM     54  C   UNL A   1      41.684  31.943  37.184  1.00  0.00     0.029 A 
ATOM     55  C   UNL A   1      40.802  32.125  36.130  1.00  0.00     0.049 A 
ATOM     56  H   UNL A   1      40.539  30.946  34.401  1.00  0.00     0.167 HD
ATOM     57  C   UNL A   1      38.978  33.272  34.895  1.00  0.00     0.074 A 
ATOM     58  C   UNL A   1      38.005  34.335  34.731  1.00  0.00     0.031 C 
ATOM     59  C   UNL A   1      39.831  33.174  35.945  1.00  0.00     0.031 A 
BRANCH  46  60
ATOM     60  C   UNL A   1      43.584  28.253  35.717  1.00  0.00    -0.014 A 
ATOM     61  C   UNL A   1      43.238  27.153  36.524  1.00  0.00     0.010 A 
ATOM     62  C   UNL A   1      44.943  28.571  35.542  1.00  0.00     0.010 A 
ATOM     63  C   UNL A   1      44.227  26.427  37.194  1.00  0.00     0.020 A 
ATOM     64  C   UNL A   1      45.937  27.826  36.184  1.00  0.00     0.020 A 
ATOM     65  C   UNL A   1      45.571  26.774  37.027  1.00  0.00     0.054 A 
BRANCH  65  66
ATOM     66  S   UNL A   1      46.834  25.824  37.915  1.00  0.00     0.124 S 
ATOM     67  O   UNL A   1      46.810  24.551  37.199  1.00  0.00    -0.237 OA
ATOM     68  O   UNL A   1      48.036  26.629  37.723  1.00  0.00    -0.237 OA
ATOM     69  O   UNL A   1      46.331  25.776  39.286  1.00  0.00    -0.744 OA
ENDBRANCH  65  66
ENDBRANCH  46  60
BRANCH  47  70
ATOM     70  C   UNL A   1      36.285  33.258  31.028  1.00  0.00    -0.014 A 
ATOM     71  C   UNL A   1      35.015  33.384  31.618  1.00  0.00     0.010 A 
ATOM     72  C   UNL A   1      36.530  33.879  29.791  1.00  0.00     0.010 A 
ATOM     73  C   UNL A   1      34.003  34.106  30.976  1.00  0.00     0.020 A 
ATOM     74  C   UNL A   1      35.529  34.623  29.157  1.00  0.00     0.020 A 
ATOM     75  C   UNL A   1      34.268  34.724  29.751  1.00  0.00     0.054 A 
BRANCH  75  76
ATOM     76  S   UNL A   1      32.960  35.708  28.970  1.00  0.00     0.124 S 
ATOM     77  O   UNL A   1      32.342  34.735  28.074  1.00  0.00    -0.237 OA
ATOM     78  O   UNL A   1      32.149  36.120  30.113  1.00  0.00    -0.237 OA
ATOM     79  O   UNL A   1      33.691  36.789  28.313  1.00  0.00    -0.744 OA
ENDBRANCH  75  76
ENDBRANCH  47  70
BRANCH  59  80
ATOM     80  C   UNL A   1      39.788  34.271  36.974  1.00  0.00    -0.014 A 
ATOM     81  C   UNL A   1      40.489  35.476  36.793  1.00  0.00     0.010 A 
ATOM     82  C   UNL A   1      38.993  34.105  38.123  1.00  0.00     0.010 A 
ATOM     83  C   UNL A   1      40.428  36.480  37.763  1.00  0.00     0.020 A 
ATOM     84  C   UNL A   1      38.906  35.117  39.080  1.00  0.00     0.020 A 
ATOM     85  C   UNL A   1      39.639  36.292  38.902  1.00  0.00     0.054 A 
BRANCH  85  86
ATOM     86  S   UNL A   1      39.550  37.620  40.135  1.00  0.00     0.124 S 
ATOM     87  O   UNL A   1      39.214  36.883  41.351  1.00  0.00    -0.237 OA
ATOM     88  O   UNL A   1      40.896  38.186  40.094  1.00  0.00    -0.237 OA
ATOM     89  O   UNL A   1      38.497  38.495  39.625  1.00  0.00    -0.744 OA
ENDBRANCH  85  86
ENDBRANCH  59  80
ENDBRANCH  33  34
ENDBRANCH  25  28
ENDBRANCH  23  24
ENDBRANCH   1  23
TORSDOF 17
ENDMDL
