MODEL 1
REMARK VINA RESULT:     -11.4      0.000      0.000
REMARK SMILES Cc1cc2c(c(C)c1Br)C=C(C(=O)NCCCCNC(=O)c1ccc(-c3c4nc(c(-c5ccc(S(=O)(=O)[O-])cc5)c5ccc([nH]5)c(-c5ccc(S(=O)(=O)[O-])cc5)c5nc(c(-c6ccc(S(=O)(=O)[O-])cc6)c6ccc3[nH]6)C=C5)C=C4)cc1)[C@@H](C(F)(F)F)O2
REMARK SMILES IDX 17 1 16 2 15 3 14 4 12 5 13 6 11 8 1 9 2 10 3 11 8 12 4 13
REMARK SMILES IDX 6 14 9 15 5 16 87 17 7 18 10 19 82 20 83 21 84 22 85 23
REMARK SMILES IDX 86 24 18 25 19 26 20 27 21 29 22 30 23 31 81 32 24 33 80 34
REMARK SMILES IDX 25 35 26 36 27 37 74 38 28 39 79 40 73 41 75 42 29 43 78 44
REMARK SMILES IDX 72 45 71 46 30 48 60 49 41 50 59 51 42 52 45 53 58 54 76 55
REMARK SMILES IDX 43 56 44 57 57 59 77 60 46 61 31 62 32 63 40 64 33 65 39 66
REMARK SMILES IDX 34 67 35 68 36 69 37 70 38 71 61 72 62 73 70 74 63 75 69 76
REMARK SMILES IDX 64 77 65 78 66 79 67 80 68 81 47 82 48 83 56 84 49 85 55 86
REMARK SMILES IDX 50 87 51 88 52 89 53 90 54 91
REMARK H PARENT 14 7 19 28 75 47 45 58
REMARK Flexibility Score: inf
ROOT
ATOM      1  C   UNL A   1      36.540  23.158  24.469  1.00  0.00     0.023 C 
ENDROOT
BRANCH   1   2
ATOM      2  C   UNL A   1      36.302  21.743  23.934  1.00  0.00     0.023 C 
BRANCH   2   3
ATOM      3  C   UNL A   1      35.647  20.797  24.935  1.00  0.00     0.116 C 
BRANCH   3   4
ATOM      4  N   UNL A   1      34.291  20.451  24.551  1.00  0.00    -0.352 N 
ATOM      5  C   UNL A   1      33.066  21.022  24.625  1.00  0.00     0.251 C 
ATOM      6  O   UNL A   1      32.142  20.347  24.159  1.00  0.00    -0.270 OA
ATOM      7  H   UNL A   1      34.251  19.565  24.122  1.00  0.00     0.163 HD
BRANCH   5   8
ATOM      8  C   UNL A   1      32.772  22.366  25.206  1.00  0.00     0.067 C 
ATOM      9  C   UNL A   1      31.728  28.678  26.448  1.00  0.00     0.046 C 
ATOM     10  C   UNL A   1      32.116  27.344  25.865  1.00  0.00    -0.033 A 
ATOM     11  C   UNL A   1      31.766  26.190  26.573  1.00  0.00     0.051 A 
ATOM     12  C   UNL A   1      32.794  27.209  24.635  1.00  0.00     0.024 A 
ATOM     13  C   UNL A   1      32.083  24.931  26.078  1.00  0.00     0.128 A 
ATOM     14  C   UNL A   1      33.135  25.930  24.124  1.00  0.00    -0.026 A 
ATOM     15  Br  UNL A   1      33.215  28.799  23.653  1.00  0.00    -0.050 Br
ATOM     16  C   UNL A   1      32.748  24.780  24.857  1.00  0.00     0.021 A 
ATOM     17  O   UNL A   1      31.660  23.877  26.836  1.00  0.00    -0.475 OA
ATOM     18  C   UNL A   1      33.868  25.753  22.814  1.00  0.00     0.046 C 
ATOM     19  C   UNL A   1      32.964  23.411  24.378  1.00  0.00     0.026 C 
ATOM     20  C   UNL A   1      32.333  22.607  26.619  1.00  0.00     0.314 C 
BRANCH  20  21
ATOM     21  C   UNL A   1      33.480  22.457  27.633  1.00  0.00     0.429 C 
ATOM     22  F   UNL A   1      33.917  21.172  27.669  1.00  0.00    -0.167 F 
ATOM     23  F   UNL A   1      34.555  23.219  27.320  1.00  0.00    -0.167 F 
ATOM     24  F   UNL A   1      33.112  22.792  28.891  1.00  0.00    -0.167 F 
ENDBRANCH  20  21
ENDBRANCH   5   8
ENDBRANCH   3   4
ENDBRANCH   2   3
ENDBRANCH   1   2
BRANCH   1  25
ATOM     25  C   UNL A   1      37.277  23.243  25.805  1.00  0.00     0.116 C 
BRANCH  25  26
ATOM     26  N   UNL A   1      38.524  22.490  25.842  1.00  0.00    -0.352 N 
ATOM     27  C   UNL A   1      39.748  22.915  26.304  1.00  0.00     0.251 C 
ATOM     28  H   UNL A   1      38.487  21.570  25.496  1.00  0.00     0.163 HD
ATOM     29  O   UNL A   1      40.736  22.194  26.226  1.00  0.00    -0.269 OA
BRANCH  27  30
ATOM     30  C   UNL A   1      39.851  24.282  26.848  1.00  0.00     0.039 A 
ATOM     31  C   UNL A   1      39.345  24.534  28.124  1.00  0.00     0.014 A 
ATOM     32  C   UNL A   1      40.547  25.268  26.142  1.00  0.00     0.014 A 
ATOM     33  C   UNL A   1      39.612  25.760  28.733  1.00  0.00     0.010 A 
ATOM     34  C   UNL A   1      40.860  26.467  26.773  1.00  0.00     0.010 A 
ATOM     35  C   UNL A   1      40.409  26.716  28.079  1.00  0.00    -0.014 A 
BRANCH  35  36
ATOM     36  C   UNL A   1      40.804  27.967  28.767  1.00  0.00     0.031 A 
ATOM     37  C   UNL A   1      42.191  28.117  29.321  1.00  0.00     0.074 A 
ATOM     38  C   UNL A   1      39.895  28.948  28.932  1.00  0.00     0.049 A 
ATOM     39  N   UNL A   1      42.716  29.134  29.953  1.00  0.00    -0.248 NA
ATOM     40  C   UNL A   1      43.100  26.970  29.163  1.00  0.00     0.031 C 
ATOM     41  C   UNL A   1      38.502  28.899  28.480  1.00  0.00     0.029 A 
ATOM     42  N   UNL A   1      40.009  30.183  29.518  1.00  0.00    -0.354 N 
ATOM     43  C   UNL A   1      44.011  28.750  30.272  1.00  0.00     0.074 A 
ATOM     44  C   UNL A   1      44.177  27.388  29.809  1.00  0.00     0.031 C 
ATOM     45  C   UNL A   1      37.904  30.066  28.769  1.00  0.00     0.029 A 
ATOM     46  C   UNL A   1      38.861  30.935  29.446  1.00  0.00     0.049 A 
ATOM     47  H   UNL A   1      40.835  30.501  29.949  1.00  0.00     0.167 HD
ATOM     48  C   UNL A   1      44.985  29.473  30.874  1.00  0.00     0.031 A 
ATOM     49  C   UNL A   1      38.610  32.191  29.867  1.00  0.00     0.031 A 
ATOM     50  C   UNL A   1      44.824  30.830  31.316  1.00  0.00     0.049 A 
ATOM     51  C   UNL A   1      39.706  32.976  30.529  1.00  0.00     0.074 A 
ATOM     52  C   UNL A   1      45.766  31.664  31.892  1.00  0.00     0.029 A 
ATOM     53  N   UNL A   1      43.645  31.553  31.230  1.00  0.00    -0.354 N 
ATOM     54  N   UNL A   1      40.943  32.614  30.771  1.00  0.00    -0.248 NA
ATOM     55  C   UNL A   1      39.376  34.339  30.969  1.00  0.00     0.031 C 
ATOM     56  C   UNL A   1      45.147  32.885  32.179  1.00  0.00     0.029 A 
ATOM     57  C   UNL A   1      43.830  32.820  31.752  1.00  0.00     0.049 A 
ATOM     58  H   UNL A   1      42.801  31.215  30.852  1.00  0.00     0.167 HD
ATOM     59  C   UNL A   1      41.545  33.710  31.376  1.00  0.00     0.074 A 
ATOM     60  C   UNL A   1      40.540  34.751  31.457  1.00  0.00     0.031 C 
ATOM     61  C   UNL A   1      42.817  33.841  31.823  1.00  0.00     0.031 A 
BRANCH  48  62
ATOM     62  C   UNL A   1      46.315  28.803  31.068  1.00  0.00    -0.014 A 
ATOM     63  C   UNL A   1      47.309  28.886  30.076  1.00  0.00     0.010 A 
ATOM     64  C   UNL A   1      46.585  28.100  32.254  1.00  0.00     0.010 A 
ATOM     65  C   UNL A   1      48.535  28.239  30.248  1.00  0.00     0.020 A 
ATOM     66  C   UNL A   1      47.819  27.469  32.439  1.00  0.00     0.020 A 
ATOM     67  C   UNL A   1      48.778  27.528  31.426  1.00  0.00     0.054 A 
BRANCH  67  68
ATOM     68  S   UNL A   1      50.380  26.702  31.628  1.00  0.00     0.124 S 
ATOM     69  O   UNL A   1      51.271  27.590  30.885  1.00  0.00    -0.237 OA
ATOM     70  O   UNL A   1      50.562  26.700  33.078  1.00  0.00    -0.237 OA
ATOM     71  O   UNL A   1      50.169  25.387  31.028  1.00  0.00    -0.744 OA
ENDBRANCH  67  68
ENDBRANCH  48  62
BRANCH  49  72
ATOM     72  C   UNL A   1      37.275  32.796  29.626  1.00  0.00    -0.014 A 
ATOM     73  C   UNL A   1      36.269  32.691  30.602  1.00  0.00     0.010 A 
ATOM     74  C   UNL A   1      37.012  33.508  28.443  1.00  0.00     0.010 A 
ATOM     75  C   UNL A   1      35.021  33.285  30.398  1.00  0.00     0.020 A 
ATOM     76  C   UNL A   1      35.769  34.118  28.242  1.00  0.00     0.020 A 
ATOM     77  C   UNL A   1      34.779  33.997  29.220  1.00  0.00     0.054 A 
BRANCH  77  78
ATOM     78  S   UNL A   1      33.175  34.819  29.007  1.00  0.00     0.124 S 
ATOM     79  O   UNL A   1      33.569  36.128  28.496  1.00  0.00    -0.237 OA
ATOM     80  O   UNL A   1      32.496  33.945  28.054  1.00  0.00    -0.237 OA
ATOM     81  O   UNL A   1      32.609  34.815  30.355  1.00  0.00    -0.744 OA
ENDBRANCH  77  78
ENDBRANCH  49  72
BRANCH  61  82
ATOM     82  C   UNL A   1      43.209  35.156  32.435  1.00  0.00    -0.014 A 
ATOM     83  C   UNL A   1      43.728  36.190  31.638  1.00  0.00     0.010 A 
ATOM     84  C   UNL A   1      42.956  35.392  33.798  1.00  0.00     0.010 A 
ATOM     85  C   UNL A   1      43.988  37.444  32.197  1.00  0.00     0.020 A 
ATOM     86  C   UNL A   1      43.200  36.649  34.355  1.00  0.00     0.020 A 
ATOM     87  C   UNL A   1      43.717  37.667  33.551  1.00  0.00     0.054 A 
BRANCH  87  88
ATOM     88  S   UNL A   1      43.977  39.329  34.230  1.00  0.00     0.124 S 
ATOM     89  O   UNL A   1      42.805  40.046  33.737  1.00  0.00    -0.237 OA
ATOM     90  O   UNL A   1      44.008  39.088  35.671  1.00  0.00    -0.237 OA
ATOM     91  O   UNL A   1      45.253  39.744  33.648  1.00  0.00    -0.744 OA
ENDBRANCH  87  88
ENDBRANCH  61  82
ENDBRANCH  35  36
ENDBRANCH  27  30
ENDBRANCH  25  26
ENDBRANCH   1  25
TORSDOF 15
ENDMDL
MODEL 2
REMARK VINA RESULT:     -11.1      3.232      9.425
REMARK SMILES Cc1cc2c(c(C)c1Br)C=C(C(=O)NCCCCNC(=O)c1ccc(-c3c4nc(c(-c5ccc(S(=O)(=O)[O-])cc5)c5ccc([nH]5)c(-c5ccc(S(=O)(=O)[O-])cc5)c5nc(c(-c6ccc(S(=O)(=O)[O-])cc6)c6ccc3[nH]6)C=C5)C=C4)cc1)[C@@H](C(F)(F)F)O2
REMARK SMILES IDX 17 1 16 2 15 3 14 4 12 5 13 6 11 8 1 9 2 10 3 11 8 12 4 13
REMARK SMILES IDX 6 14 9 15 5 16 87 17 7 18 10 19 82 20 83 21 84 22 85 23
REMARK SMILES IDX 86 24 18 25 19 26 20 27 21 29 22 30 23 31 81 32 24 33 80 34
REMARK SMILES IDX 25 35 26 36 27 37 74 38 28 39 79 40 73 41 75 42 29 43 78 44
REMARK SMILES IDX 72 45 71 46 30 48 60 49 41 50 59 51 42 52 45 53 58 54 76 55
REMARK SMILES IDX 43 56 44 57 57 59 77 60 46 61 31 62 32 63 40 64 33 65 39 66
REMARK SMILES IDX 34 67 35 68 36 69 37 70 38 71 61 72 62 73 70 74 63 75 69 76
REMARK SMILES IDX 64 77 65 78 66 79 67 80 68 81 47 82 48 83 56 84 49 85 55 86
REMARK SMILES IDX 50 87 51 88 52 89 53 90 54 91
REMARK H PARENT 14 7 19 28 75 47 45 58
REMARK Flexibility Score: inf
ROOT
ATOM      1  C   UNL A   1      32.336  28.039  26.643  1.00  0.00     0.023 C 
ENDROOT
BRANCH   1   2
ATOM      2  C   UNL A   1      31.391  29.052  25.990  1.00  0.00     0.023 C 
BRANCH   2   3
ATOM      3  C   UNL A   1      31.230  28.877  24.482  1.00  0.00     0.116 C 
BRANCH   3   4
ATOM      4  N   UNL A   1      32.507  28.878  23.794  1.00  0.00    -0.352 N 
ATOM      5  C   UNL A   1      33.339  27.958  23.253  1.00  0.00     0.251 C 
ATOM      6  O   UNL A   1      34.371  28.415  22.749  1.00  0.00    -0.270 OA
ATOM      7  H   UNL A   1      32.864  29.791  23.695  1.00  0.00     0.163 HD
BRANCH   5   8
ATOM      8  C   UNL A   1      33.096  26.484  23.221  1.00  0.00     0.067 C 
ATOM      9  C   UNL A   1      33.019  20.023  24.063  1.00  0.00     0.046 C 
ATOM     10  C   UNL A   1      33.342  21.494  24.045  1.00  0.00    -0.033 A 
ATOM     11  C   UNL A   1      32.419  22.363  23.453  1.00  0.00     0.051 A 
ATOM     12  C   UNL A   1      34.516  22.032  24.614  1.00  0.00     0.024 A 
ATOM     13  C   UNL A   1      32.655  23.732  23.420  1.00  0.00     0.128 A 
ATOM     14  C   UNL A   1      34.775  23.426  24.576  1.00  0.00    -0.026 A 
ATOM     15  Br  UNL A   1      35.741  20.833  25.468  1.00  0.00    -0.050 Br
ATOM     16  C   UNL A   1      33.809  24.281  23.986  1.00  0.00     0.021 A 
ATOM     17  O   UNL A   1      31.668  24.485  22.850  1.00  0.00    -0.475 OA
ATOM     18  C   UNL A   1      36.027  24.032  25.169  1.00  0.00     0.046 C 
ATOM     19  C   UNL A   1      33.929  25.743  23.977  1.00  0.00     0.026 C 
ATOM     20  C   UNL A   1      32.045  25.811  22.391  1.00  0.00     0.314 C 
BRANCH  20  21
ATOM     21  C   UNL A   1      32.413  25.749  20.898  1.00  0.00     0.429 C 
ATOM     22  F   UNL A   1      33.335  26.699  20.597  1.00  0.00    -0.167 F 
ATOM     23  F   UNL A   1      32.959  24.560  20.546  1.00  0.00    -0.167 F 
ATOM     24  F   UNL A   1      31.349  25.950  20.089  1.00  0.00    -0.167 F 
ENDBRANCH  20  21
ENDBRANCH   5   8
ENDBRANCH   3   4
ENDBRANCH   2   3
ENDBRANCH   1   2
BRANCH   1  25
ATOM     25  C   UNL A   1      33.675  28.599  27.120  1.00  0.00     0.116 C 
BRANCH  25  26
ATOM     26  N   UNL A   1      33.605  29.971  27.605  1.00  0.00    -0.352 N 
ATOM     27  C   UNL A   1      34.598  30.695  28.222  1.00  0.00     0.251 C 
ATOM     28  H   UNL A   1      32.746  30.433  27.477  1.00  0.00     0.163 HD
ATOM     29  O   UNL A   1      34.387  31.831  28.633  1.00  0.00    -0.269 OA
BRANCH  27  30
ATOM     30  C   UNL A   1      35.909  30.050  28.423  1.00  0.00     0.039 A 
ATOM     31  C   UNL A   1      36.855  30.126  27.400  1.00  0.00     0.014 A 
ATOM     32  C   UNL A   1      36.228  29.478  29.658  1.00  0.00     0.014 A 
ATOM     33  C   UNL A   1      38.161  29.702  27.647  1.00  0.00     0.010 A 
ATOM     34  C   UNL A   1      37.543  29.109  29.919  1.00  0.00     0.010 A 
ATOM     35  C   UNL A   1      38.522  29.233  28.922  1.00  0.00    -0.014 A 
BRANCH  35  36
ATOM     36  C   UNL A   1      39.933  28.901  29.231  1.00  0.00     0.031 A 
ATOM     37  C   UNL A   1      40.805  29.898  29.936  1.00  0.00     0.074 A 
ATOM     38  C   UNL A   1      40.437  27.716  28.833  1.00  0.00     0.049 A 
ATOM     39  N   UNL A   1      42.060  29.785  30.289  1.00  0.00    -0.248 NA
ATOM     40  C   UNL A   1      40.198  31.196  30.272  1.00  0.00     0.031 C 
ATOM     41  C   UNL A   1      39.701  26.685  28.096  1.00  0.00     0.029 A 
ATOM     42  N   UNL A   1      41.687  27.175  28.998  1.00  0.00    -0.354 N 
ATOM     43  C   UNL A   1      42.392  30.996  30.882  1.00  0.00     0.074 A 
ATOM     44  C   UNL A   1      41.225  31.847  30.797  1.00  0.00     0.031 C 
ATOM     45  C   UNL A   1      40.500  25.622  27.911  1.00  0.00     0.029 A 
ATOM     46  C   UNL A   1      41.809  25.904  28.491  1.00  0.00     0.049 A 
ATOM     47  H   UNL A   1      42.427  27.654  29.438  1.00  0.00     0.167 HD
ATOM     48  C   UNL A   1      43.558  31.359  31.469  1.00  0.00     0.031 A 
ATOM     49  C   UNL A   1      42.855  25.054  28.504  1.00  0.00     0.031 A 
ATOM     50  C   UNL A   1      44.709  30.507  31.568  1.00  0.00     0.049 A 
ATOM     51  C   UNL A   1      44.137  25.477  29.163  1.00  0.00     0.074 A 
ATOM     52  C   UNL A   1      45.920  30.767  32.186  1.00  0.00     0.029 A 
ATOM     53  N   UNL A   1      44.794  29.229  31.038  1.00  0.00    -0.354 N 
ATOM     54  N   UNL A   1      44.414  26.606  29.768  1.00  0.00    -0.248 NA
ATOM     55  C   UNL A   1      45.244  24.511  29.146  1.00  0.00     0.031 C 
ATOM     56  C   UNL A   1      46.747  29.653  32.006  1.00  0.00     0.029 A 
ATOM     57  C   UNL A   1      46.039  28.690  31.303  1.00  0.00     0.049 A 
ATOM     58  H   UNL A   1      44.073  28.773  30.545  1.00  0.00     0.167 HD
ATOM     59  C   UNL A   1      45.721  26.481  30.220  1.00  0.00     0.074 A 
ATOM     60  C   UNL A   1      46.178  25.164  29.825  1.00  0.00     0.031 C 
ATOM     61  C   UNL A   1      46.474  27.377  30.902  1.00  0.00     0.031 A 
BRANCH  48  62
ATOM     62  C   UNL A   1      43.626  32.738  32.060  1.00  0.00    -0.014 A 
ATOM     63  C   UNL A   1      43.232  32.965  33.391  1.00  0.00     0.010 A 
ATOM     64  C   UNL A   1      44.102  33.813  31.291  1.00  0.00     0.010 A 
ATOM     65  C   UNL A   1      43.272  34.253  33.929  1.00  0.00     0.020 A 
ATOM     66  C   UNL A   1      44.163  35.100  31.833  1.00  0.00     0.020 A 
ATOM     67  C   UNL A   1      43.730  35.314  33.144  1.00  0.00     0.054 A 
BRANCH  67  68
ATOM     68  S   UNL A   1      43.776  36.976  33.868  1.00  0.00     0.124 S 
ATOM     69  O   UNL A   1      43.686  37.823  32.681  1.00  0.00    -0.237 OA
ATOM     70  O   UNL A   1      42.600  36.983  34.735  1.00  0.00    -0.237 OA
ATOM     71  O   UNL A   1      45.060  37.014  34.565  1.00  0.00    -0.744 OA
ENDBRANCH  67  68
ENDBRANCH  48  62
BRANCH  49  72
ATOM     72  C   UNL A   1      42.709  23.698  27.914  1.00  0.00    -0.014 A 
ATOM     73  C   UNL A   1      42.246  22.633  28.705  1.00  0.00     0.010 A 
ATOM     74  C   UNL A   1      42.996  23.471  26.556  1.00  0.00     0.010 A 
ATOM     75  C   UNL A   1      42.075  21.362  28.150  1.00  0.00     0.020 A 
ATOM     76  C   UNL A   1      42.810  22.204  25.994  1.00  0.00     0.020 A 
ATOM     77  C   UNL A   1      42.355  21.156  26.797  1.00  0.00     0.054 A 
BRANCH  77  78
ATOM     78  S   UNL A   1      42.059  19.514  26.081  1.00  0.00     0.124 S 
ATOM     79  O   UNL A   1      42.899  19.547  24.889  1.00  0.00    -0.237 OA
ATOM     80  O   UNL A   1      42.505  18.620  27.147  1.00  0.00    -0.237 OA
ATOM     81  O   UNL A   1      40.619  19.505  25.835  1.00  0.00    -0.744 OA
ENDBRANCH  77  78
ENDBRANCH  49  72
BRANCH  61  82
ATOM     82  C   UNL A   1      47.871  26.972  31.277  1.00  0.00    -0.014 A 
ATOM     83  C   UNL A   1      48.133  26.376  32.523  1.00  0.00     0.010 A 
ATOM     84  C   UNL A   1      48.909  27.093  30.335  1.00  0.00     0.010 A 
ATOM     85  C   UNL A   1      49.414  25.905  32.819  1.00  0.00     0.020 A 
ATOM     86  C   UNL A   1      50.185  26.608  30.623  1.00  0.00     0.020 A 
ATOM     87  C   UNL A   1      50.431  26.019  31.865  1.00  0.00     0.054 A 
BRANCH  87  88
ATOM     88  S   UNL A   1      52.062  25.317  32.241  1.00  0.00     0.124 S 
ATOM     89  O   UNL A   1      51.815  23.885  32.104  1.00  0.00    -0.237 OA
ATOM     90  O   UNL A   1      52.913  25.911  31.212  1.00  0.00    -0.237 OA
ATOM     91  O   UNL A   1      52.330  25.778  33.602  1.00  0.00    -0.744 OA
ENDBRANCH  87  88
ENDBRANCH  61  82
ENDBRANCH  35  36
ENDBRANCH  27  30
ENDBRANCH  25  26
ENDBRANCH   1  25
TORSDOF 15
ENDMDL
MODEL 3
REMARK VINA RESULT:     -11.0      4.252      7.853
REMARK SMILES Cc1cc2c(c(C)c1Br)C=C(C(=O)NCCCCNC(=O)c1ccc(-c3c4nc(c(-c5ccc(S(=O)(=O)[O-])cc5)c5ccc([nH]5)c(-c5ccc(S(=O)(=O)[O-])cc5)c5nc(c(-c6ccc(S(=O)(=O)[O-])cc6)c6ccc3[nH]6)C=C5)C=C4)cc1)[C@@H](C(F)(F)F)O2
REMARK SMILES IDX 17 1 16 2 15 3 14 4 12 5 13 6 11 8 1 9 2 10 3 11 8 12 4 13
REMARK SMILES IDX 6 14 9 15 5 16 87 17 7 18 10 19 82 20 83 21 84 22 85 23
REMARK SMILES IDX 86 24 18 25 19 26 20 27 21 29 22 30 23 31 81 32 24 33 80 34
REMARK SMILES IDX 25 35 26 36 27 37 74 38 28 39 79 40 73 41 75 42 29 43 78 44
REMARK SMILES IDX 72 45 71 46 30 48 60 49 41 50 59 51 42 52 45 53 58 54 76 55
REMARK SMILES IDX 43 56 44 57 57 59 77 60 46 61 31 62 32 63 40 64 33 65 39 66
REMARK SMILES IDX 34 67 35 68 36 69 37 70 38 71 61 72 62 73 70 74 63 75 69 76
REMARK SMILES IDX 64 77 65 78 66 79 67 80 68 81 47 82 48 83 56 84 49 85 55 86
REMARK SMILES IDX 50 87 51 88 52 89 53 90 54 91
REMARK H PARENT 14 7 19 28 75 47 45 58
REMARK Flexibility Score: inf
ROOT
ATOM      1  C   UNL A   1      42.567  22.637  25.721  1.00  0.00     0.023 C 
ENDROOT
BRANCH   1   2
ATOM      2  C   UNL A   1      43.677  23.553  26.244  1.00  0.00     0.023 C 
BRANCH   2   3
ATOM      3  C   UNL A   1      44.859  22.815  26.866  1.00  0.00     0.116 C 
BRANCH   3   4
ATOM      4  N   UNL A   1      45.546  23.623  27.855  1.00  0.00    -0.352 N 
ATOM      5  C   UNL A   1      46.458  24.624  27.854  1.00  0.00     0.251 C 
ATOM      6  O   UNL A   1      46.786  25.037  28.970  1.00  0.00    -0.270 OA
ATOM      7  H   UNL A   1      45.280  23.379  28.771  1.00  0.00     0.163 HD
BRANCH   5   8
ATOM      8  C   UNL A   1      47.064  25.241  26.635  1.00  0.00     0.067 C 
ATOM      9  C   UNL A   1      50.909  27.657  21.961  1.00  0.00     0.046 C 
ATOM     10  C   UNL A   1      50.315  27.115  23.235  1.00  0.00    -0.033 A 
ATOM     11  C   UNL A   1      48.972  26.724  23.221  1.00  0.00     0.051 A 
ATOM     12  C   UNL A   1      51.055  26.967  24.428  1.00  0.00     0.024 A 
ATOM     13  C   UNL A   1      48.373  26.203  24.361  1.00  0.00     0.128 A 
ATOM     14  C   UNL A   1      50.453  26.448  25.603  1.00  0.00    -0.026 A 
ATOM     15  Br  UNL A   1      52.907  27.456  24.412  1.00  0.00    -0.050 Br
ATOM     16  C   UNL A   1      49.095  26.042  25.548  1.00  0.00     0.021 A 
ATOM     17  O   UNL A   1      47.069  25.822  24.219  1.00  0.00    -0.475 OA
ATOM     18  C   UNL A   1      51.216  26.284  26.897  1.00  0.00     0.046 C 
ATOM     19  C   UNL A   1      48.400  25.406  26.673  1.00  0.00     0.026 C 
ATOM     20  C   UNL A   1      46.289  25.706  25.440  1.00  0.00     0.314 C 
BRANCH  20  21
ATOM     21  C   UNL A   1      45.538  27.025  25.692  1.00  0.00     0.429 C 
ATOM     22  F   UNL A   1      44.227  26.782  25.948  1.00  0.00    -0.167 F 
ATOM     23  F   UNL A   1      46.018  27.700  26.764  1.00  0.00    -0.167 F 
ATOM     24  F   UNL A   1      45.593  27.868  24.637  1.00  0.00    -0.167 F 
ENDBRANCH  20  21
ENDBRANCH   5   8
ENDBRANCH   3   4
ENDBRANCH   2   3
ENDBRANCH   1   2
BRANCH   1  25
ATOM     25  C   UNL A   1      41.545  22.178  26.760  1.00  0.00     0.116 C 
BRANCH  25  26
ATOM     26  N   UNL A   1      40.219  21.924  26.213  1.00  0.00    -0.352 N 
ATOM     27  C   UNL A   1      39.148  22.787  26.174  1.00  0.00     0.251 C 
ATOM     28  H   UNL A   1      40.071  21.032  25.827  1.00  0.00     0.163 HD
ATOM     29  O   UNL A   1      38.063  22.425  25.733  1.00  0.00    -0.269 OA
BRANCH  27  30
ATOM     30  C   UNL A   1      39.325  24.143  26.726  1.00  0.00     0.039 A 
ATOM     31  C   UNL A   1      38.908  24.392  28.035  1.00  0.00     0.014 A 
ATOM     32  C   UNL A   1      40.002  25.118  25.988  1.00  0.00     0.014 A 
ATOM     33  C   UNL A   1      39.250  25.601  28.639  1.00  0.00     0.010 A 
ATOM     34  C   UNL A   1      40.390  26.299  26.612  1.00  0.00     0.010 A 
ATOM     35  C   UNL A   1      40.031  26.543  27.947  1.00  0.00    -0.014 A 
BRANCH  35  36
ATOM     36  C   UNL A   1      40.506  27.773  28.623  1.00  0.00     0.031 A 
ATOM     37  C   UNL A   1      41.919  27.862  29.120  1.00  0.00     0.074 A 
ATOM     38  C   UNL A   1      39.646  28.790  28.827  1.00  0.00     0.049 A 
ATOM     39  N   UNL A   1      42.511  28.853  29.734  1.00  0.00    -0.248 NA
ATOM     40  C   UNL A   1      42.772  26.679  28.922  1.00  0.00     0.031 C 
ATOM     41  C   UNL A   1      38.235  28.802  28.432  1.00  0.00     0.029 A 
ATOM     42  N   UNL A   1      39.835  30.017  29.412  1.00  0.00    -0.354 N 
ATOM     43  C   UNL A   1      43.801  28.413  29.999  1.00  0.00     0.074 A 
ATOM     44  C   UNL A   1      43.891  27.049  29.525  1.00  0.00     0.031 C 
ATOM     45  C   UNL A   1      37.699  29.991  28.749  1.00  0.00     0.029 A 
ATOM     46  C   UNL A   1      38.718  30.816  29.390  1.00  0.00     0.049 A 
ATOM     47  H   UNL A   1      40.691  30.297  29.811  1.00  0.00     0.167 HD
ATOM     48  C   UNL A   1      44.828  29.092  30.563  1.00  0.00     0.031 A 
ATOM     49  C   UNL A   1      38.537  32.079  29.825  1.00  0.00     0.031 A 
ATOM     50  C   UNL A   1      44.742  30.452  31.017  1.00  0.00     0.049 A 
ATOM     51  C   UNL A   1      39.691  32.814  30.445  1.00  0.00     0.074 A 
ATOM     52  C   UNL A   1      45.741  31.243  31.557  1.00  0.00     0.029 A 
ATOM     53  N   UNL A   1      43.592  31.225  30.980  1.00  0.00    -0.354 N 
ATOM     54  N   UNL A   1      40.920  32.400  30.635  1.00  0.00    -0.248 NA
ATOM     55  C   UNL A   1      39.437  34.187  30.902  1.00  0.00     0.031 C 
ATOM     56  C   UNL A   1      45.186  32.487  31.873  1.00  0.00     0.029 A 
ATOM     57  C   UNL A   1      43.850  32.480  31.499  1.00  0.00     0.049 A 
ATOM     58  H   UNL A   1      42.720  30.924  30.636  1.00  0.00     0.167 HD
ATOM     59  C   UNL A   1      41.592  33.466  31.219  1.00  0.00     0.074 A 
ATOM     60  C   UNL A   1      40.635  34.548  31.344  1.00  0.00     0.031 C 
ATOM     61  C   UNL A   1      42.885  33.542  31.614  1.00  0.00     0.031 A 
BRANCH  48  62
ATOM     62  C   UNL A   1      46.135  28.366  30.701  1.00  0.00    -0.014 A 
ATOM     63  C   UNL A   1      47.118  28.467  29.699  1.00  0.00     0.010 A 
ATOM     64  C   UNL A   1      46.396  27.592  31.845  1.00  0.00     0.010 A 
ATOM     65  C   UNL A   1      48.322  27.769  29.819  1.00  0.00     0.020 A 
ATOM     66  C   UNL A   1      47.608  26.909  31.977  1.00  0.00     0.020 A 
ATOM     67  C   UNL A   1      48.556  26.988  30.953  1.00  0.00     0.054 A 
BRANCH  67  68
ATOM     68  S   UNL A   1      50.129  26.096  31.086  1.00  0.00     0.124 S 
ATOM     69  O   UNL A   1      51.100  27.179  30.952  1.00  0.00    -0.237 OA
ATOM     70  O   UNL A   1      50.045  25.489  32.413  1.00  0.00    -0.237 OA
ATOM     71  O   UNL A   1      50.088  25.154  29.970  1.00  0.00    -0.744 OA
ENDBRANCH  67  68
ENDBRANCH  48  62
BRANCH  49  72
ATOM     72  C   UNL A   1      37.219  32.741  29.640  1.00  0.00    -0.014 A 
ATOM     73  C   UNL A   1      36.305  32.797  30.706  1.00  0.00     0.010 A 
ATOM     74  C   UNL A   1      36.886  33.348  28.417  1.00  0.00     0.010 A 
ATOM     75  C   UNL A   1      35.078  33.445  30.552  1.00  0.00     0.020 A 
ATOM     76  C   UNL A   1      35.665  34.012  28.264  1.00  0.00     0.020 A 
ATOM     77  C   UNL A   1      34.766  34.052  29.332  1.00  0.00     0.054 A 
BRANCH  77  78
ATOM     78  S   UNL A   1      33.195  34.948  29.176  1.00  0.00     0.124 S 
ATOM     79  O   UNL A   1      32.480  34.140  28.194  1.00  0.00    -0.237 OA
ATOM     80  O   UNL A   1      32.669  34.902  30.538  1.00  0.00    -0.237 OA
ATOM     81  O   UNL A   1      33.605  36.275  28.720  1.00  0.00    -0.744 OA
ENDBRANCH  77  78
ENDBRANCH  49  72
BRANCH  61  82
ATOM     82  C   UNL A   1      43.356  34.836  32.215  1.00  0.00    -0.014 A 
ATOM     83  C   UNL A   1      43.866  35.860  31.399  1.00  0.00     0.010 A 
ATOM     84  C   UNL A   1      43.188  35.067  33.592  1.00  0.00     0.010 A 
ATOM     85  C   UNL A   1      44.200  37.098  31.953  1.00  0.00     0.020 A 
ATOM     86  C   UNL A   1      43.506  36.309  34.145  1.00  0.00     0.020 A 
ATOM     87  C   UNL A   1      44.013  37.317  33.322  1.00  0.00     0.054 A 
BRANCH  87  88
ATOM     88  S   UNL A   1      44.369  38.962  33.999  1.00  0.00     0.124 S 
ATOM     89  O   UNL A   1      43.091  39.646  33.823  1.00  0.00    -0.237 OA
ATOM     90  O   UNL A   1      44.740  38.668  35.381  1.00  0.00    -0.237 OA
ATOM     91  O   UNL A   1      45.461  39.452  33.159  1.00  0.00    -0.744 OA
ENDBRANCH  87  88
ENDBRANCH  61  82
ENDBRANCH  35  36
ENDBRANCH  27  30
ENDBRANCH  25  26
ENDBRANCH   1  25
TORSDOF 15
ENDMDL
