MODEL 1
REMARK VINA RESULT:     -12.0      0.000      0.000
REMARK SMILES Cc1c(Cl)cc2c(c1C)O[C@H](C(F)(F)F)C(C(=O)NCCCCNC(=O)c1ccc(-c3c4nc(c(-c5ccc(S(=O)(=O)[O-])cc5)c5ccc([nH]5)c(-c5ccc(S(=O)(=O)[O-])cc5)c5nc(c(-c6ccc(S(=O)(=O)[O-])cc6)c6ccc3[nH]6)C=C5)C=C4)cc1)=C2
REMARK SMILES IDX 22 1 21 2 20 3 19 4 17 5 18 6 16 8 1 9 2 10 3 11 8 12 4 13
REMARK SMILES IDX 5 14 7 15 9 16 6 17 10 18 87 19 11 20 12 21 13 22 14 23
REMARK SMILES IDX 15 24 23 25 24 26 25 27 26 29 27 30 28 31 86 32 29 33 85 34
REMARK SMILES IDX 30 35 31 36 32 37 79 38 33 39 84 40 78 41 80 42 34 43 83 44
REMARK SMILES IDX 77 45 76 46 35 48 65 49 46 50 64 51 47 52 50 53 63 54 81 55
REMARK SMILES IDX 48 56 49 57 62 59 82 60 51 61 36 62 37 63 45 64 38 65 44 66
REMARK SMILES IDX 39 67 40 68 41 69 42 70 43 71 66 72 67 73 75 74 68 75 74 76
REMARK SMILES IDX 69 77 70 78 71 79 72 80 73 81 52 82 53 83 61 84 54 85 60 86
REMARK SMILES IDX 55 87 56 88 57 89 58 90 59 91
REMARK H PARENT 19 7 24 28 80 47 50 58
REMARK Flexibility Score: inf
ROOT
ATOM      1  C   UNL A   1      33.770  28.260  25.756  1.00  0.00     0.023 C 
ENDROOT
BRANCH   1   2
ATOM      2  C   UNL A   1      32.609  28.740  24.881  1.00  0.00     0.023 C 
BRANCH   2   3
ATOM      3  C   UNL A   1      31.776  27.612  24.280  1.00  0.00     0.116 C 
BRANCH   3   4
ATOM      4  N   UNL A   1      30.950  26.955  25.277  1.00  0.00    -0.352 N 
ATOM      5  C   UNL A   1      30.897  25.738  25.865  1.00  0.00     0.251 C 
ATOM      6  O   UNL A   1      29.991  25.590  26.692  1.00  0.00    -0.270 OA
ATOM      7  H   UNL A   1      30.244  27.552  25.614  1.00  0.00     0.163 HD
BRANCH   5   8
ATOM      8  C   UNL A   1      31.829  24.605  25.590  1.00  0.00     0.067 C 
ATOM      9  C   UNL A   1      36.936  20.535  25.098  1.00  0.00     0.046 C 
ATOM     10  C   UNL A   1      35.947  21.655  25.301  1.00  0.00    -0.026 A 
ATOM     11  C   UNL A   1      36.368  22.944  25.688  1.00  0.00     0.045 A 
ATOM     12  C   UNL A   1      34.567  21.438  25.065  1.00  0.00    -0.004 A 
ATOM     13  Cl  UNL A   1      38.037  23.338  25.924  1.00  0.00    -0.084 Cl
ATOM     14  C   UNL A   1      35.446  23.976  25.897  1.00  0.00     0.032 A 
ATOM     15  C   UNL A   1      33.656  22.487  25.295  1.00  0.00     0.131 A 
ATOM     16  C   UNL A   1      34.022  20.110  24.598  1.00  0.00     0.049 C 
ATOM     17  C   UNL A   1      34.085  23.747  25.713  1.00  0.00     0.019 A 
ATOM     18  O   UNL A   1      32.324  22.205  25.142  1.00  0.00    -0.475 OA
ATOM     19  C   UNL A   1      33.104  24.792  25.979  1.00  0.00     0.025 C 
ATOM     20  C   UNL A   1      31.445  23.335  24.886  1.00  0.00     0.314 C 
BRANCH  20  21
ATOM     21  C   UNL A   1      31.290  23.519  23.365  1.00  0.00     0.429 C 
ATOM     22  F   UNL A   1      31.473  22.337  22.725  1.00  0.00    -0.167 F 
ATOM     23  F   UNL A   1      30.059  23.958  23.016  1.00  0.00    -0.167 F 
ATOM     24  F   UNL A   1      32.182  24.398  22.852  1.00  0.00    -0.167 F 
ENDBRANCH  20  21
ENDBRANCH   5   8
ENDBRANCH   3   4
ENDBRANCH   2   3
ENDBRANCH   1   2
BRANCH   1  25
ATOM     25  C   UNL A   1      33.589  28.469  27.259  1.00  0.00     0.116 C 
BRANCH  25  26
ATOM     26  N   UNL A   1      33.485  29.866  27.648  1.00  0.00    -0.352 N 
ATOM     27  C   UNL A   1      34.462  30.669  28.189  1.00  0.00     0.251 C 
ATOM     28  H   UNL A   1      32.606  30.290  27.509  1.00  0.00     0.163 HD
ATOM     29  O   UNL A   1      34.206  31.815  28.542  1.00  0.00    -0.269 OA
BRANCH  27  30
ATOM     30  C   UNL A   1      35.812  30.105  28.375  1.00  0.00     0.039 A 
ATOM     31  C   UNL A   1      36.722  30.180  27.321  1.00  0.00     0.014 A 
ATOM     32  C   UNL A   1      36.189  29.575  29.612  1.00  0.00     0.014 A 
ATOM     33  C   UNL A   1      38.043  29.782  27.529  1.00  0.00     0.010 A 
ATOM     34  C   UNL A   1      37.518  29.235  29.835  1.00  0.00     0.010 A 
ATOM     35  C   UNL A   1      38.456  29.337  28.796  1.00  0.00    -0.014 A 
BRANCH  35  36
ATOM     36  C   UNL A   1      39.867  28.963  29.045  1.00  0.00     0.031 A 
ATOM     37  C   UNL A   1      40.796  29.950  29.692  1.00  0.00     0.074 A 
ATOM     38  C   UNL A   1      40.318  27.756  28.655  1.00  0.00     0.049 A 
ATOM     39  N   UNL A   1      42.065  29.817  29.981  1.00  0.00    -0.248 NA
ATOM     40  C   UNL A   1      40.232  31.263  30.043  1.00  0.00     0.031 C 
ATOM     41  C   UNL A   1      39.518  26.727  27.985  1.00  0.00     0.029 A 
ATOM     42  N   UNL A   1      41.559  27.185  28.775  1.00  0.00    -0.354 N 
ATOM     43  C   UNL A   1      42.451  31.029  30.538  1.00  0.00     0.074 A 
ATOM     44  C   UNL A   1      41.298  31.902  30.499  1.00  0.00     0.031 C 
ATOM     45  C   UNL A   1      40.280  25.638  27.789  1.00  0.00     0.029 A 
ATOM     46  C   UNL A   1      41.625  25.900  28.293  1.00  0.00     0.049 A 
ATOM     47  H   UNL A   1      42.332  27.653  29.168  1.00  0.00     0.167 HD
ATOM     48  C   UNL A   1      43.649  31.377  31.062  1.00  0.00     0.031 A 
ATOM     49  C   UNL A   1      42.650  25.027  28.269  1.00  0.00     0.031 A 
ATOM     50  C   UNL A   1      44.789  30.503  31.114  1.00  0.00     0.049 A 
ATOM     51  C   UNL A   1      43.977  25.439  28.841  1.00  0.00     0.074 A 
ATOM     52  C   UNL A   1      46.034  30.744  31.666  1.00  0.00     0.029 A 
ATOM     53  N   UNL A   1      44.819  29.218  30.597  1.00  0.00    -0.354 N 
ATOM     54  N   UNL A   1      44.310  26.574  29.408  1.00  0.00    -0.248 NA
ATOM     55  C   UNL A   1      45.065  24.454  28.773  1.00  0.00     0.031 C 
ATOM     56  C   UNL A   1      46.830  29.614  31.453  1.00  0.00     0.029 A 
ATOM     57  C   UNL A   1      46.068  28.657  30.799  1.00  0.00     0.049 A 
ATOM     58  H   UNL A   1      44.064  28.770  30.151  1.00  0.00     0.167 HD
ATOM     59  C   UNL A   1      45.643  26.436  29.774  1.00  0.00     0.074 A 
ATOM     60  C   UNL A   1      46.052  25.104  29.377  1.00  0.00     0.031 C 
ATOM     61  C   UNL A   1      46.456  27.333  30.385  1.00  0.00     0.031 A 
BRANCH  48  62
ATOM     62  C   UNL A   1      43.770  32.764  31.627  1.00  0.00    -0.014 A 
ATOM     63  C   UNL A   1      43.454  33.020  32.974  1.00  0.00     0.010 A 
ATOM     64  C   UNL A   1      44.198  33.823  30.808  1.00  0.00     0.010 A 
ATOM     65  C   UNL A   1      43.514  34.320  33.479  1.00  0.00     0.020 A 
ATOM     66  C   UNL A   1      44.282  35.122  31.317  1.00  0.00     0.020 A 
ATOM     67  C   UNL A   1      43.919  35.365  32.644  1.00  0.00     0.054 A 
BRANCH  67  68
ATOM     68  S   UNL A   1      43.980  37.046  33.323  1.00  0.00     0.124 S 
ATOM     69  O   UNL A   1      43.972  37.860  32.110  1.00  0.00    -0.237 OA
ATOM     70  O   UNL A   1      42.766  37.112  34.131  1.00  0.00    -0.237 OA
ATOM     71  O   UNL A   1      45.230  37.068  34.078  1.00  0.00    -0.744 OA
ENDBRANCH  67  68
ENDBRANCH  48  62
BRANCH  49  72
ATOM     72  C   UNL A   1      42.444  23.662  27.718  1.00  0.00    -0.014 A 
ATOM     73  C   UNL A   1      42.723  23.401  26.366  1.00  0.00     0.010 A 
ATOM     74  C   UNL A   1      42.011  22.612  28.547  1.00  0.00     0.010 A 
ATOM     75  C   UNL A   1      42.572  22.111  25.850  1.00  0.00     0.020 A 
ATOM     76  C   UNL A   1      41.877  21.317  28.038  1.00  0.00     0.020 A 
ATOM     77  C   UNL A   1      42.154  21.075  26.691  1.00  0.00     0.054 A 
BRANCH  77  78
ATOM     78  S   UNL A   1      42.039  19.394  26.016  1.00  0.00     0.124 S 
ATOM     79  O   UNL A   1      40.610  19.268  25.753  1.00  0.00    -0.237 OA
ATOM     80  O   UNL A   1      42.896  19.470  24.835  1.00  0.00    -0.237 OA
ATOM     81  O   UNL A   1      42.556  18.558  27.096  1.00  0.00    -0.744 OA
ENDBRANCH  77  78
ENDBRANCH  49  72
BRANCH  61  82
ATOM     82  C   UNL A   1      47.872  26.911  30.659  1.00  0.00    -0.014 A 
ATOM     83  C   UNL A   1      48.901  27.234  29.758  1.00  0.00     0.010 A 
ATOM     84  C   UNL A   1      48.188  26.265  31.868  1.00  0.00     0.010 A 
ATOM     85  C   UNL A   1      50.226  26.912  30.060  1.00  0.00     0.020 A 
ATOM     86  C   UNL A   1      49.513  25.959  32.180  1.00  0.00     0.020 A 
ATOM     87  C   UNL A   1      50.525  26.279  31.271  1.00  0.00     0.054 A 
BRANCH  87  88
ATOM     88  S   UNL A   1      52.261  25.942  31.674  1.00  0.00     0.124 S 
ATOM     89  O   UNL A   1      52.913  26.117  30.380  1.00  0.00    -0.237 OA
ATOM     90  O   UNL A   1      52.563  26.963  32.674  1.00  0.00    -0.237 OA
ATOM     91  O   UNL A   1      52.238  24.571  32.180  1.00  0.00    -0.744 OA
ENDBRANCH  87  88
ENDBRANCH  61  82
ENDBRANCH  35  36
ENDBRANCH  27  30
ENDBRANCH  25  26
ENDBRANCH   1  25
TORSDOF 15
ENDMDL
MODEL 2
REMARK VINA RESULT:     -11.4      2.822      9.309
REMARK SMILES Cc1c(Cl)cc2c(c1C)O[C@H](C(F)(F)F)C(C(=O)NCCCCNC(=O)c1ccc(-c3c4nc(c(-c5ccc(S(=O)(=O)[O-])cc5)c5ccc([nH]5)c(-c5ccc(S(=O)(=O)[O-])cc5)c5nc(c(-c6ccc(S(=O)(=O)[O-])cc6)c6ccc3[nH]6)C=C5)C=C4)cc1)=C2
REMARK SMILES IDX 22 1 21 2 20 3 19 4 17 5 18 6 16 8 1 9 2 10 3 11 8 12 4 13
REMARK SMILES IDX 5 14 7 15 9 16 6 17 10 18 87 19 11 20 12 21 13 22 14 23
REMARK SMILES IDX 15 24 23 25 24 26 25 27 26 29 27 30 28 31 86 32 29 33 85 34
REMARK SMILES IDX 30 35 31 36 32 37 79 38 33 39 84 40 78 41 80 42 34 43 83 44
REMARK SMILES IDX 77 45 76 46 35 48 65 49 46 50 64 51 47 52 50 53 63 54 81 55
REMARK SMILES IDX 48 56 49 57 62 59 82 60 51 61 36 62 37 63 45 64 38 65 44 66
REMARK SMILES IDX 39 67 40 68 41 69 42 70 43 71 66 72 67 73 75 74 68 75 74 76
REMARK SMILES IDX 69 77 70 78 71 79 72 80 73 81 52 82 53 83 61 84 54 85 60 86
REMARK SMILES IDX 55 87 56 88 57 89 58 90 59 91
REMARK H PARENT 19 7 24 28 80 47 50 58
REMARK Flexibility Score: inf
ROOT
ATOM      1  C   UNL A   1      35.509  22.851  25.296  1.00  0.00     0.023 C 
ENDROOT
BRANCH   1   2
ATOM      2  C   UNL A   1      34.159  23.208  25.923  1.00  0.00     0.023 C 
BRANCH   2   3
ATOM      3  C   UNL A   1      32.974  23.069  24.971  1.00  0.00     0.116 C 
BRANCH   3   4
ATOM      4  N   UNL A   1      33.311  23.485  23.621  1.00  0.00    -0.352 N 
ATOM      5  C   UNL A   1      33.176  24.603  22.872  1.00  0.00     0.251 C 
ATOM      6  O   UNL A   1      33.612  24.522  21.718  1.00  0.00    -0.270 OA
ATOM      7  H   UNL A   1      33.754  22.763  23.119  1.00  0.00     0.163 HD
BRANCH   5   8
ATOM      8  C   UNL A   1      32.558  25.882  23.333  1.00  0.00     0.067 C 
ATOM      9  C   UNL A   1      31.193  31.668  26.078  1.00  0.00     0.046 C 
ATOM     10  C   UNL A   1      31.732  30.341  25.607  1.00  0.00    -0.026 A 
ATOM     11  C   UNL A   1      32.887  29.772  26.183  1.00  0.00     0.045 A 
ATOM     12  C   UNL A   1      31.056  29.616  24.594  1.00  0.00    -0.004 A 
ATOM     13  Cl  UNL A   1      33.742  30.534  27.481  1.00  0.00    -0.084 Cl
ATOM     14  C   UNL A   1      33.398  28.551  25.728  1.00  0.00     0.032 A 
ATOM     15  C   UNL A   1      31.596  28.396  24.143  1.00  0.00     0.131 A 
ATOM     16  C   UNL A   1      29.784  30.114  23.951  1.00  0.00     0.049 C 
ATOM     17  C   UNL A   1      32.760  27.865  24.698  1.00  0.00     0.019 A 
ATOM     18  O   UNL A   1      30.960  27.777  23.100  1.00  0.00    -0.475 OA
ATOM     19  C   UNL A   1      33.307  26.620  24.173  1.00  0.00     0.025 C 
ATOM     20  C   UNL A   1      31.180  26.346  22.961  1.00  0.00     0.314 C 
BRANCH  20  21
ATOM     21  C   UNL A   1      30.071  25.589  23.716  1.00  0.00     0.429 C 
ATOM     22  F   UNL A   1      29.913  24.345  23.200  1.00  0.00    -0.167 F 
ATOM     23  F   UNL A   1      30.353  25.427  25.030  1.00  0.00    -0.167 F 
ATOM     24  F   UNL A   1      28.872  26.211  23.643  1.00  0.00    -0.167 F 
ENDBRANCH  20  21
ENDBRANCH   5   8
ENDBRANCH   3   4
ENDBRANCH   2   3
ENDBRANCH   1   2
BRANCH   1  25
ATOM     25  C   UNL A   1      36.729  23.495  25.953  1.00  0.00     0.116 C 
BRANCH  25  26
ATOM     26  N   UNL A   1      37.891  22.622  26.015  1.00  0.00    -0.352 N 
ATOM     27  C   UNL A   1      39.154  22.927  26.465  1.00  0.00     0.251 C 
ATOM     28  H   UNL A   1      37.757  21.700  25.695  1.00  0.00     0.163 HD
ATOM     29  O   UNL A   1      40.062  22.106  26.386  1.00  0.00    -0.269 OA
BRANCH  27  30
ATOM     30  C   UNL A   1      39.403  24.277  27.002  1.00  0.00     0.039 A 
ATOM     31  C   UNL A   1      39.045  24.551  28.323  1.00  0.00     0.014 A 
ATOM     32  C   UNL A   1      40.054  25.237  26.223  1.00  0.00     0.014 A 
ATOM     33  C   UNL A   1      39.404  25.774  28.888  1.00  0.00     0.010 A 
ATOM     34  C   UNL A   1      40.463  26.430  26.805  1.00  0.00     0.010 A 
ATOM     35  C   UNL A   1      40.142  26.708  28.143  1.00  0.00    -0.014 A 
BRANCH  35  36
ATOM     36  C   UNL A   1      40.576  27.989  28.749  1.00  0.00     0.031 A 
ATOM     37  C   UNL A   1      41.994  28.149  29.215  1.00  0.00     0.074 A 
ATOM     38  C   UNL A   1      39.687  28.987  28.912  1.00  0.00     0.049 A 
ATOM     39  N   UNL A   1      42.561  29.183  29.782  1.00  0.00    -0.248 NA
ATOM     40  C   UNL A   1      42.886  26.991  29.041  1.00  0.00     0.031 C 
ATOM     41  C   UNL A   1      38.273  28.935  28.530  1.00  0.00     0.029 A 
ATOM     42  N   UNL A   1      39.843  30.245  29.434  1.00  0.00    -0.354 N 
ATOM     43  C   UNL A   1      43.870  28.798  30.038  1.00  0.00     0.074 A 
ATOM     44  C   UNL A   1      44.000  27.420  29.615  1.00  0.00     0.031 C 
ATOM     45  C   UNL A   1      37.703  30.122  28.796  1.00  0.00     0.029 A 
ATOM     46  C   UNL A   1      38.700  31.007  29.390  1.00  0.00     0.049 A 
ATOM     47  H   UNL A   1      40.694  30.571  29.808  1.00  0.00     0.167 HD
ATOM     48  C   UNL A   1      44.884  29.532  30.553  1.00  0.00     0.031 A 
ATOM     49  C   UNL A   1      38.483  32.279  29.775  1.00  0.00     0.031 A 
ATOM     50  C   UNL A   1      44.758  30.905  30.958  1.00  0.00     0.049 A 
ATOM     51  C   UNL A   1      39.618  33.072  30.360  1.00  0.00     0.074 A 
ATOM     52  C   UNL A   1      45.736  31.751  31.449  1.00  0.00     0.029 A 
ATOM     53  N   UNL A   1      43.579  31.633  30.916  1.00  0.00    -0.354 N 
ATOM     54  N   UNL A   1      40.863  32.706  30.550  1.00  0.00    -0.248 NA
ATOM     55  C   UNL A   1      39.320  34.449  30.779  1.00  0.00     0.031 C 
ATOM     56  C   UNL A   1      45.140  32.984  31.735  1.00  0.00     0.029 A 
ATOM     57  C   UNL A   1      43.798  32.914  31.389  1.00  0.00     0.049 A 
ATOM     58  H   UNL A   1      42.713  31.289  30.597  1.00  0.00     0.167 HD
ATOM     59  C   UNL A   1      41.501  33.810  31.102  1.00  0.00     0.074 A 
ATOM     60  C   UNL A   1      40.509  34.861  31.202  1.00  0.00     0.031 C 
ATOM     61  C   UNL A   1      42.793  33.941  31.490  1.00  0.00     0.031 A 
BRANCH  48  62
ATOM     62  C   UNL A   1      46.217  28.852  30.692  1.00  0.00    -0.014 A 
ATOM     63  C   UNL A   1      46.540  28.140  31.860  1.00  0.00     0.010 A 
ATOM     64  C   UNL A   1      47.158  28.927  29.650  1.00  0.00     0.010 A 
ATOM     65  C   UNL A   1      47.800  27.557  32.008  1.00  0.00     0.020 A 
ATOM     66  C   UNL A   1      48.412  28.324  29.784  1.00  0.00     0.020 A 
ATOM     67  C   UNL A   1      48.731  27.661  30.971  1.00  0.00     0.054 A 
BRANCH  67  68
ATOM     68  S   UNL A   1      50.365  26.901  31.191  1.00  0.00     0.124 S 
ATOM     69  O   UNL A   1      50.835  27.551  32.412  1.00  0.00    -0.237 OA
ATOM     70  O   UNL A   1      50.045  25.482  31.317  1.00  0.00    -0.237 OA
ATOM     71  O   UNL A   1      51.083  27.270  29.974  1.00  0.00    -0.744 OA
ENDBRANCH  67  68
ENDBRANCH  48  62
BRANCH  49  72
ATOM     72  C   UNL A   1      37.143  32.891  29.579  1.00  0.00    -0.014 A 
ATOM     73  C   UNL A   1      36.284  33.068  30.677  1.00  0.00     0.010 A 
ATOM     74  C   UNL A   1      36.737  33.336  28.309  1.00  0.00     0.010 A 
ATOM     75  C   UNL A   1      35.039  33.680  30.509  1.00  0.00     0.020 A 
ATOM     76  C   UNL A   1      35.499  33.965  28.140  1.00  0.00     0.020 A 
ATOM     77  C   UNL A   1      34.657  34.129  29.241  1.00  0.00     0.054 A 
BRANCH  77  78
ATOM     78  S   UNL A   1      33.068  34.989  29.063  1.00  0.00     0.124 S 
ATOM     79  O   UNL A   1      32.395  34.180  28.052  1.00  0.00    -0.237 OA
ATOM     80  O   UNL A   1      32.513  34.908  30.412  1.00  0.00    -0.237 OA
ATOM     81  O   UNL A   1      33.455  36.333  28.638  1.00  0.00    -0.744 OA
ENDBRANCH  77  78
ENDBRANCH  49  72
BRANCH  61  82
ATOM     82  C   UNL A   1      43.213  35.264  32.066  1.00  0.00    -0.014 A 
ATOM     83  C   UNL A   1      43.767  36.258  31.242  1.00  0.00     0.010 A 
ATOM     84  C   UNL A   1      42.970  35.545  33.422  1.00  0.00     0.010 A 
ATOM     85  C   UNL A   1      44.076  37.515  31.768  1.00  0.00     0.020 A 
ATOM     86  C   UNL A   1      43.262  36.806  33.946  1.00  0.00     0.020 A 
ATOM     87  C   UNL A   1      43.819  37.782  33.116  1.00  0.00     0.054 A 
BRANCH  87  88
ATOM     88  S   UNL A   1      44.158  39.446  33.756  1.00  0.00     0.124 S 
ATOM     89  O   UNL A   1      45.120  39.955  32.782  1.00  0.00    -0.237 OA
ATOM     90  O   UNL A   1      42.841  40.076  33.727  1.00  0.00    -0.237 OA
ATOM     91  O   UNL A   1      44.694  39.199  35.092  1.00  0.00    -0.744 OA
ENDBRANCH  87  88
ENDBRANCH  61  82
ENDBRANCH  35  36
ENDBRANCH  27  30
ENDBRANCH  25  26
ENDBRANCH   1  25
TORSDOF 15
ENDMDL
MODEL 3
REMARK VINA RESULT:     -11.2      1.897      2.457
REMARK SMILES Cc1c(Cl)cc2c(c1C)O[C@H](C(F)(F)F)C(C(=O)NCCCCNC(=O)c1ccc(-c3c4nc(c(-c5ccc(S(=O)(=O)[O-])cc5)c5ccc([nH]5)c(-c5ccc(S(=O)(=O)[O-])cc5)c5nc(c(-c6ccc(S(=O)(=O)[O-])cc6)c6ccc3[nH]6)C=C5)C=C4)cc1)=C2
REMARK SMILES IDX 22 1 21 2 20 3 19 4 17 5 18 6 16 8 1 9 2 10 3 11 8 12 4 13
REMARK SMILES IDX 5 14 7 15 9 16 6 17 10 18 87 19 11 20 12 21 13 22 14 23
REMARK SMILES IDX 15 24 23 25 24 26 25 27 26 29 27 30 28 31 86 32 29 33 85 34
REMARK SMILES IDX 30 35 31 36 32 37 79 38 33 39 84 40 78 41 80 42 34 43 83 44
REMARK SMILES IDX 77 45 76 46 35 48 65 49 46 50 64 51 47 52 50 53 63 54 81 55
REMARK SMILES IDX 48 56 49 57 62 59 82 60 51 61 36 62 37 63 45 64 38 65 44 66
REMARK SMILES IDX 39 67 40 68 41 69 42 70 43 71 66 72 67 73 75 74 68 75 74 76
REMARK SMILES IDX 69 77 70 78 71 79 72 80 73 81 52 82 53 83 61 84 54 85 60 86
REMARK SMILES IDX 55 87 56 88 57 89 58 90 59 91
REMARK H PARENT 19 7 24 28 80 47 50 58
REMARK Flexibility Score: inf
ROOT
ATOM      1  C   UNL A   1      32.766  28.423  26.062  1.00  0.00     0.023 C 
ENDROOT
BRANCH   1   2
ATOM      2  C   UNL A   1      32.490  29.565  25.081  1.00  0.00     0.023 C 
BRANCH   2   3
ATOM      3  C   UNL A   1      31.024  29.982  25.009  1.00  0.00     0.116 C 
BRANCH   3   4
ATOM      4  N   UNL A   1      30.478  29.825  23.673  1.00  0.00    -0.352 N 
ATOM      5  C   UNL A   1      30.349  28.823  22.774  1.00  0.00     0.251 C 
ATOM      6  O   UNL A   1      29.808  29.137  21.708  1.00  0.00    -0.270 OA
ATOM      7  H   UNL A   1      30.105  30.670  23.332  1.00  0.00     0.163 HD
BRANCH   5   8
ATOM      8  C   UNL A   1      30.799  27.414  22.980  1.00  0.00     0.067 C 
ATOM      9  C   UNL A   1      31.810  21.295  25.079  1.00  0.00     0.046 C 
ATOM     10  C   UNL A   1      31.437  22.734  24.832  1.00  0.00    -0.026 A 
ATOM     11  C   UNL A   1      30.750  23.491  25.804  1.00  0.00     0.045 A 
ATOM     12  C   UNL A   1      31.810  23.369  23.622  1.00  0.00    -0.004 A 
ATOM     13  Cl  UNL A   1      30.318  22.838  27.348  1.00  0.00    -0.084 Cl
ATOM     14  C   UNL A   1      30.385  24.821  25.563  1.00  0.00     0.032 A 
ATOM     15  C   UNL A   1      31.420  24.704  23.396  1.00  0.00     0.131 A 
ATOM     16  C   UNL A   1      32.591  22.662  22.541  1.00  0.00     0.049 C 
ATOM     17  C   UNL A   1      30.709  25.428  24.352  1.00  0.00     0.019 A 
ATOM     18  O   UNL A   1      31.723  25.246  22.175  1.00  0.00    -0.475 OA
ATOM     19  C   UNL A   1      30.290  26.793  24.061  1.00  0.00     0.025 C 
ATOM     20  C   UNL A   1      31.787  26.698  22.106  1.00  0.00     0.314 C 
BRANCH  20  21
ATOM     21  C   UNL A   1      33.239  27.151  22.351  1.00  0.00     0.429 C 
ATOM     22  F   UNL A   1      34.080  26.527  21.488  1.00  0.00    -0.167 F 
ATOM     23  F   UNL A   1      33.409  28.480  22.159  1.00  0.00    -0.167 F 
ATOM     24  F   UNL A   1      33.667  26.875  23.603  1.00  0.00    -0.167 F 
ENDBRANCH  20  21
ENDBRANCH   5   8
ENDBRANCH   3   4
ENDBRANCH   2   3
ENDBRANCH   1   2
BRANCH   1  25
ATOM     25  C   UNL A   1      33.780  28.734  27.163  1.00  0.00     0.116 C 
BRANCH  25  26
ATOM     26  N   UNL A   1      33.666  30.080  27.702  1.00  0.00    -0.352 N 
ATOM     27  C   UNL A   1      34.621  30.806  28.375  1.00  0.00     0.251 C 
ATOM     28  H   UNL A   1      32.797  30.526  27.571  1.00  0.00     0.163 HD
ATOM     29  O   UNL A   1      34.355  31.908  28.843  1.00  0.00    -0.269 OA
BRANCH  27  30
ATOM     30  C   UNL A   1      35.957  30.210  28.559  1.00  0.00     0.039 A 
ATOM     31  C   UNL A   1      36.882  30.301  27.519  1.00  0.00     0.014 A 
ATOM     32  C   UNL A   1      36.307  29.632  29.782  1.00  0.00     0.014 A 
ATOM     33  C   UNL A   1      38.192  29.871  27.731  1.00  0.00     0.010 A 
ATOM     34  C   UNL A   1      37.626  29.259  30.011  1.00  0.00     0.010 A 
ATOM     35  C   UNL A   1      38.580  29.376  28.987  1.00  0.00    -0.014 A 
BRANCH  35  36
ATOM     36  C   UNL A   1      39.980  28.967  29.241  1.00  0.00     0.031 A 
ATOM     37  C   UNL A   1      40.923  29.917  29.921  1.00  0.00     0.074 A 
ATOM     38  C   UNL A   1      40.410  27.759  28.827  1.00  0.00     0.049 A 
ATOM     39  N   UNL A   1      42.185  29.751  30.219  1.00  0.00    -0.248 NA
ATOM     40  C   UNL A   1      40.382  31.233  30.299  1.00  0.00     0.031 C 
ATOM     41  C   UNL A   1      39.595  26.765  28.123  1.00  0.00     0.029 A 
ATOM     42  N   UNL A   1      41.638  27.160  28.945  1.00  0.00    -0.354 N 
ATOM     43  C   UNL A   1      42.591  30.940  30.809  1.00  0.00     0.074 A 
ATOM     44  C   UNL A   1      41.457  31.838  30.780  1.00  0.00     0.031 C 
ATOM     45  C   UNL A   1      40.336  25.664  27.909  1.00  0.00     0.029 A 
ATOM     46  C   UNL A   1      41.681  25.885  28.433  1.00  0.00     0.049 A 
ATOM     47  H   UNL A   1      42.415  27.602  29.357  1.00  0.00     0.167 HD
ATOM     48  C   UNL A   1      43.791  31.250  31.354  1.00  0.00     0.031 A 
ATOM     49  C   UNL A   1      42.688  24.992  28.398  1.00  0.00     0.031 A 
ATOM     50  C   UNL A   1      44.911  30.351  31.396  1.00  0.00     0.049 A 
ATOM     51  C   UNL A   1      44.017  25.362  28.993  1.00  0.00     0.074 A 
ATOM     52  C   UNL A   1      46.156  30.553  31.966  1.00  0.00     0.029 A 
ATOM     53  N   UNL A   1      44.920  29.078  30.848  1.00  0.00    -0.354 N 
ATOM     54  N   UNL A   1      44.368  26.475  29.591  1.00  0.00    -0.248 NA
ATOM     55  C   UNL A   1      45.085  24.355  28.912  1.00  0.00     0.031 C 
ATOM     56  C   UNL A   1      46.930  29.410  31.733  1.00  0.00     0.029 A 
ATOM     57  C   UNL A   1      46.154  28.486  31.049  1.00  0.00     0.049 A 
ATOM     58  H   UNL A   1      44.161  28.657  30.384  1.00  0.00     0.167 HD
ATOM     59  C   UNL A   1      45.694  26.300  29.967  1.00  0.00     0.074 A 
ATOM     60  C   UNL A   1      46.079  24.969  29.541  1.00  0.00     0.031 C 
ATOM     61  C   UNL A   1      46.519  27.165  30.607  1.00  0.00     0.031 A 
BRANCH  48  62
ATOM     62  C   UNL A   1      43.935  32.620  31.954  1.00  0.00    -0.014 A 
ATOM     63  C   UNL A   1      44.328  33.712  31.160  1.00  0.00     0.010 A 
ATOM     64  C   UNL A   1      43.679  32.821  33.321  1.00  0.00     0.010 A 
ATOM     65  C   UNL A   1      44.514  34.972  31.732  1.00  0.00     0.020 A 
ATOM     66  C   UNL A   1      43.841  34.086  33.894  1.00  0.00     0.020 A 
ATOM     67  C   UNL A   1      44.278  35.148  33.099  1.00  0.00     0.054 A 
BRANCH  67  68
ATOM     68  S   UNL A   1      44.535  36.793  33.820  1.00  0.00     0.124 S 
ATOM     69  O   UNL A   1      45.580  37.338  32.957  1.00  0.00    -0.237 OA
ATOM     70  O   UNL A   1      43.220  37.414  33.683  1.00  0.00    -0.237 OA
ATOM     71  O   UNL A   1      44.947  36.508  35.192  1.00  0.00    -0.744 OA
ENDBRANCH  67  68
ENDBRANCH  48  62
BRANCH  49  72
ATOM     72  C   UNL A   1      42.459  23.645  27.812  1.00  0.00    -0.014 A 
ATOM     73  C   UNL A   1      42.887  23.366  26.503  1.00  0.00     0.010 A 
ATOM     74  C   UNL A   1      41.854  22.627  28.570  1.00  0.00     0.010 A 
ATOM     75  C   UNL A   1      42.714  22.091  25.959  1.00  0.00     0.020 A 
ATOM     76  C   UNL A   1      41.695  21.345  28.035  1.00  0.00     0.020 A 
ATOM     77  C   UNL A   1      42.122  21.086  26.731  1.00  0.00     0.054 A 
BRANCH  77  78
ATOM     78  S   UNL A   1      41.977  19.418  26.030  1.00  0.00     0.124 S 
ATOM     79  O   UNL A   1      42.799  19.520  24.829  1.00  0.00    -0.237 OA
ATOM     80  O   UNL A   1      42.518  18.579  27.098  1.00  0.00    -0.237 OA
ATOM     81  O   UNL A   1      40.542  19.269  25.800  1.00  0.00    -0.744 OA
ENDBRANCH  77  78
ENDBRANCH  49  72
BRANCH  61  82
ATOM     82  C   UNL A   1      47.923  26.706  30.885  1.00  0.00    -0.014 A 
ATOM     83  C   UNL A   1      48.954  26.967  29.968  1.00  0.00     0.010 A 
ATOM     84  C   UNL A   1      48.227  26.089  32.111  1.00  0.00     0.010 A 
ATOM     85  C   UNL A   1      50.271  26.613  30.271  1.00  0.00     0.020 A 
ATOM     86  C   UNL A   1      49.544  25.749  32.425  1.00  0.00     0.020 A 
ATOM     87  C   UNL A   1      50.559  26.009  31.499  1.00  0.00     0.054 A 
BRANCH  87  88
ATOM     88  S   UNL A   1      52.286  25.628  31.902  1.00  0.00     0.124 S 
ATOM     89  O   UNL A   1      52.214  24.209  32.234  1.00  0.00    -0.237 OA
ATOM     90  O   UNL A   1      52.983  25.948  30.658  1.00  0.00    -0.237 OA
ATOM     91  O   UNL A   1      52.584  26.518  33.022  1.00  0.00    -0.744 OA
ENDBRANCH  87  88
ENDBRANCH  61  82
ENDBRANCH  35  36
ENDBRANCH  27  30
ENDBRANCH  25  26
ENDBRANCH   1  25
TORSDOF 15
ENDMDL
