MODEL 1
REMARK VINA RESULT:     -10.8      0.000      0.000
REMARK SMILES CCC[C@H]1CC[C@H](C(=O)NCCCCNC(=O)c2ccc(-c3c4nc(c(-c5ccc(S(=O)(=O)[O-])cc5)c5ccc([nH]5)c(-c5ccc(S(=O)(=O)[O-])cc5)c5nc(c(-c6ccc(S(=O)(=O)[O-])cc6)c6ccc3[nH]6)C=C5)C=C4)cc2)[C@H](Sc2ccncc2)C1
REMARK SMILES IDX 13 1 12 2 11 3 10 4 8 5 9 6 7 8 4 9 5 10 86 11 6 12 78 13
REMARK SMILES IDX 3 14 2 15 1 16 79 17 80 18 81 19 85 20 82 21 84 22 83 23
REMARK SMILES IDX 14 24 15 25 16 26 17 28 18 29 19 30 77 31 20 32 76 33 21 34
REMARK SMILES IDX 22 35 23 36 70 37 24 38 75 39 69 40 71 41 25 42 74 43 68 44
REMARK SMILES IDX 67 45 26 47 56 48 37 49 55 50 38 51 41 52 54 53 72 54 39 55
REMARK SMILES IDX 40 56 53 58 73 59 42 60 27 61 28 62 36 63 29 64 35 65 30 66
REMARK SMILES IDX 31 67 32 68 33 69 34 70 57 71 58 72 66 73 59 74 65 75 60 76
REMARK SMILES IDX 61 77 62 78 63 79 64 80 43 81 44 82 52 83 45 84 51 85 46 86
REMARK SMILES IDX 47 87 48 88 49 89 50 90
REMARK H PARENT 10 7 15 27 71 46 41 57
REMARK Flexibility Score: inf
ROOT
ATOM      1  C   UNL A   1      36.092  23.246  24.412  1.00  0.00     0.023 C 
ENDROOT
BRANCH   1   2
ATOM      2  C   UNL A   1      34.573  23.138  24.427  1.00  0.00     0.023 C 
BRANCH   2   3
ATOM      3  C   UNL A   1      33.859  24.185  23.573  1.00  0.00     0.116 C 
BRANCH   3   4
ATOM      4  N   UNL A   1      32.472  23.863  23.338  1.00  0.00    -0.356 N 
ATOM      5  C   UNL A   1      31.310  24.496  23.617  1.00  0.00     0.224 C 
ATOM      6  O   UNL A   1      30.293  23.943  23.170  1.00  0.00    -0.275 OA
ATOM      7  H   UNL A   1      32.345  23.003  22.877  1.00  0.00     0.163 HD
BRANCH   5   8
ATOM      8  C   UNL A   1      31.129  25.754  24.479  1.00  0.00     0.092 C 
ATOM      9  C   UNL A   1      33.583  27.003  25.761  1.00  0.00    -0.010 C 
ATOM     10  C   UNL A   1      32.948  25.692  26.268  1.00  0.00     0.004 C 
ATOM     11  C   UNL A   1      33.041  27.547  24.408  1.00  0.00     0.019 C 
ATOM     12  C   UNL A   1      31.480  25.491  25.946  1.00  0.00     0.015 C 
ATOM     13  C   UNL A   1      31.600  27.155  24.073  1.00  0.00     0.064 C 
BRANCH   9  14
ATOM     14  C   UNL A   1      33.555  28.090  26.863  1.00  0.00     0.003 C 
BRANCH  14  15
ATOM     15  C   UNL A   1      33.281  29.498  26.309  1.00  0.00    -0.003 C 
ATOM     16  C   UNL A   1      32.027  30.158  26.859  1.00  0.00     0.004 C 
ENDBRANCH  14  15
ENDBRANCH   9  14
BRANCH  13  17
ATOM     17  S   UNL A   1      30.999  27.844  22.464  1.00  0.00    -0.122 SA
BRANCH  17  18
ATOM     18  C   UNL A   1      29.505  28.720  22.862  1.00  0.00     0.011 A 
ATOM     19  C   UNL A   1      29.478  30.112  22.809  1.00  0.00     0.035 A 
ATOM     20  C   UNL A   1      28.311  28.033  23.072  1.00  0.00     0.035 A 
ATOM     21  C   UNL A   1      28.282  30.762  23.059  1.00  0.00     0.112 A 
ATOM     22  C   UNL A   1      27.157  28.772  23.282  1.00  0.00     0.112 A 
ATOM     23  N   UNL A   1      27.122  30.121  23.305  1.00  0.00    -0.265 NA
ENDBRANCH  17  18
ENDBRANCH  13  17
ENDBRANCH   5   8
ENDBRANCH   3   4
ENDBRANCH   2   3
ENDBRANCH   1   2
BRANCH   1  24
ATOM     24  C   UNL A   1      36.751  23.261  25.788  1.00  0.00     0.116 C 
BRANCH  24  25
ATOM     25  N   UNL A   1      37.967  22.462  25.874  1.00  0.00    -0.352 N 
ATOM     26  C   UNL A   1      39.199  22.851  26.360  1.00  0.00     0.251 C 
ATOM     27  H   UNL A   1      37.902  21.535  25.548  1.00  0.00     0.163 HD
ATOM     28  O   UNL A   1      40.159  22.095  26.319  1.00  0.00    -0.269 OA
BRANCH  26  29
ATOM     29  C   UNL A   1      39.336  24.224  26.884  1.00  0.00     0.039 A 
ATOM     30  C   UNL A   1      38.907  24.498  28.184  1.00  0.00     0.014 A 
ATOM     31  C   UNL A   1      40.006  25.194  26.132  1.00  0.00     0.014 A 
ATOM     32  C   UNL A   1      39.235  25.723  28.767  1.00  0.00     0.010 A 
ATOM     33  C   UNL A   1      40.397  26.379  26.743  1.00  0.00     0.010 A 
ATOM     34  C   UNL A   1      40.025  26.651  28.069  1.00  0.00    -0.014 A 
BRANCH  34  35
ATOM     35  C   UNL A   1      40.490  27.909  28.707  1.00  0.00     0.031 A 
ATOM     36  C   UNL A   1      41.878  27.990  29.277  1.00  0.00     0.074 A 
ATOM     37  C   UNL A   1      39.637  28.943  28.848  1.00  0.00     0.049 A 
ATOM     38  N   UNL A   1      42.437  28.963  29.951  1.00  0.00    -0.248 NA
ATOM     39  C   UNL A   1      42.738  26.809  29.098  1.00  0.00     0.031 C 
ATOM     40  C   UNL A   1      38.244  28.969  28.391  1.00  0.00     0.029 A 
ATOM     41  N   UNL A   1      39.814  30.175  29.430  1.00  0.00    -0.354 N 
ATOM     42  C   UNL A   1      43.700  28.501  30.297  1.00  0.00     0.074 A 
ATOM     43  C   UNL A   1      43.808  27.146  29.803  1.00  0.00     0.031 C 
ATOM     44  C   UNL A   1      37.705  30.164  28.685  1.00  0.00     0.029 A 
ATOM     45  C   UNL A   1      38.698  30.977  29.381  1.00  0.00     0.049 A 
ATOM     46  H   UNL A   1      40.661  30.457  29.843  1.00  0.00     0.167 HD
ATOM     47  C   UNL A   1      44.691  29.152  30.951  1.00  0.00     0.031 A 
ATOM     48  C   UNL A   1      38.496  32.225  29.844  1.00  0.00     0.031 A 
ATOM     49  C   UNL A   1      44.595  30.508  31.416  1.00  0.00     0.049 A 
ATOM     50  C   UNL A   1      39.624  32.943  30.533  1.00  0.00     0.074 A 
ATOM     51  C   UNL A   1      45.564  31.279  32.034  1.00  0.00     0.029 A 
ATOM     52  N   UNL A   1      43.462  31.301  31.306  1.00  0.00    -0.354 N 
ATOM     53  N   UNL A   1      40.833  32.510  30.798  1.00  0.00    -0.248 NA
ATOM     54  C   UNL A   1      39.364  34.321  30.972  1.00  0.00     0.031 C 
ATOM     55  C   UNL A   1      45.007  32.529  32.323  1.00  0.00     0.029 A 
ATOM     56  C   UNL A   1      43.705  32.549  31.849  1.00  0.00     0.049 A 
ATOM     57  H   UNL A   1      42.611  31.016  30.901  1.00  0.00     0.167 HD
ATOM     58  C   UNL A   1      41.486  33.571  31.415  1.00  0.00     0.074 A 
ATOM     59  C   UNL A   1      40.543  34.669  31.472  1.00  0.00     0.031 C 
ATOM     60  C   UNL A   1      42.754  33.631  31.892  1.00  0.00     0.031 A 
BRANCH  47  61
ATOM     61  C   UNL A   1      45.969  28.393  31.191  1.00  0.00    -0.014 A 
ATOM     62  C   UNL A   1      46.992  28.380  30.225  1.00  0.00     0.010 A 
ATOM     63  C   UNL A   1      46.154  27.694  32.396  1.00  0.00     0.010 A 
ATOM     64  C   UNL A   1      48.155  27.638  30.438  1.00  0.00     0.020 A 
ATOM     65  C   UNL A   1      47.329  26.971  32.625  1.00  0.00     0.020 A 
ATOM     66  C   UNL A   1      48.312  26.931  31.633  1.00  0.00     0.054 A 
BRANCH  66  67
ATOM     67  S   UNL A   1      49.834  25.976  31.886  1.00  0.00     0.124 S 
ATOM     68  O   UNL A   1      49.338  24.812  32.617  1.00  0.00    -0.237 OA
ATOM     69  O   UNL A   1      50.284  25.716  30.522  1.00  0.00    -0.237 OA
ATOM     70  O   UNL A   1      50.684  26.880  32.658  1.00  0.00    -0.744 OA
ENDBRANCH  66  67
ENDBRANCH  47  61
BRANCH  48  71
ATOM     71  C   UNL A   1      37.181  32.890  29.642  1.00  0.00    -0.014 A 
ATOM     72  C   UNL A   1      36.376  33.220  30.748  1.00  0.00     0.010 A 
ATOM     73  C   UNL A   1      36.731  33.210  28.349  1.00  0.00     0.010 A 
ATOM     74  C   UNL A   1      35.138  33.843  30.563  1.00  0.00     0.020 A 
ATOM     75  C   UNL A   1      35.504  33.854  28.162  1.00  0.00     0.020 A 
ATOM     76  C   UNL A   1      34.711  34.158  29.270  1.00  0.00     0.054 A 
BRANCH  76  77
ATOM     77  S   UNL A   1      33.127  35.019  29.056  1.00  0.00     0.124 S 
ATOM     78  O   UNL A   1      32.475  34.205  28.038  1.00  0.00    -0.237 OA
ATOM     79  O   UNL A   1      32.544  34.949  30.394  1.00  0.00    -0.237 OA
ATOM     80  O   UNL A   1      33.526  36.359  28.630  1.00  0.00    -0.744 OA
ENDBRANCH  76  77
ENDBRANCH  48  71
BRANCH  60  81
ATOM     81  C   UNL A   1      43.207  34.934  32.487  1.00  0.00    -0.014 A 
ATOM     82  C   UNL A   1      43.754  35.948  31.683  1.00  0.00     0.010 A 
ATOM     83  C   UNL A   1      43.027  35.166  33.863  1.00  0.00     0.010 A 
ATOM     84  C   UNL A   1      44.137  37.167  32.249  1.00  0.00     0.020 A 
ATOM     85  C   UNL A   1      43.389  36.392  34.428  1.00  0.00     0.020 A 
ATOM     86  C   UNL A   1      43.952  37.380  33.619  1.00  0.00     0.054 A 
BRANCH  86  87
ATOM     87  S   UNL A   1      44.407  38.989  34.324  1.00  0.00     0.124 S 
ATOM     88  O   UNL A   1      44.575  38.663  35.738  1.00  0.00    -0.237 OA
ATOM     89  O   UNL A   1      45.635  39.321  33.604  1.00  0.00    -0.237 OA
ATOM     90  O   UNL A   1      43.261  39.839  34.011  1.00  0.00    -0.744 OA
ENDBRANCH  86  87
ENDBRANCH  60  81
ENDBRANCH  34  35
ENDBRANCH  26  29
ENDBRANCH  24  25
ENDBRANCH   1  24
TORSDOF 18
ENDMDL
MODEL 2
REMARK VINA RESULT:     -10.7      3.823      9.395
REMARK SMILES CCC[C@H]1CC[C@H](C(=O)NCCCCNC(=O)c2ccc(-c3c4nc(c(-c5ccc(S(=O)(=O)[O-])cc5)c5ccc([nH]5)c(-c5ccc(S(=O)(=O)[O-])cc5)c5nc(c(-c6ccc(S(=O)(=O)[O-])cc6)c6ccc3[nH]6)C=C5)C=C4)cc2)[C@H](Sc2ccncc2)C1
REMARK SMILES IDX 13 1 12 2 11 3 10 4 8 5 9 6 7 8 4 9 5 10 86 11 6 12 78 13
REMARK SMILES IDX 3 14 2 15 1 16 79 17 80 18 81 19 85 20 82 21 84 22 83 23
REMARK SMILES IDX 14 24 15 25 16 26 17 28 18 29 19 30 77 31 20 32 76 33 21 34
REMARK SMILES IDX 22 35 23 36 70 37 24 38 75 39 69 40 71 41 25 42 74 43 68 44
REMARK SMILES IDX 67 45 26 47 56 48 37 49 55 50 38 51 41 52 54 53 72 54 39 55
REMARK SMILES IDX 40 56 53 58 73 59 42 60 27 61 28 62 36 63 29 64 35 65 30 66
REMARK SMILES IDX 31 67 32 68 33 69 34 70 57 71 58 72 66 73 59 74 65 75 60 76
REMARK SMILES IDX 61 77 62 78 63 79 64 80 43 81 44 82 52 83 45 84 51 85 46 86
REMARK SMILES IDX 47 87 48 88 49 89 50 90
REMARK H PARENT 10 7 15 27 71 46 41 57
REMARK Flexibility Score: inf
ROOT
ATOM      1  C   UNL A   1      31.712  32.972  26.562  1.00  0.00     0.023 C 
ENDROOT
BRANCH   1   2
ATOM      2  C   UNL A   1      31.262  31.521  26.454  1.00  0.00     0.023 C 
BRANCH   2   3
ATOM      3  C   UNL A   1      32.329  30.500  26.849  1.00  0.00     0.116 C 
BRANCH   3   4
ATOM      4  N   UNL A   1      31.767  29.254  27.310  1.00  0.00    -0.356 N 
ATOM      5  C   UNL A   1      31.669  28.020  26.765  1.00  0.00     0.224 C 
ATOM      6  O   UNL A   1      31.189  27.154  27.514  1.00  0.00    -0.275 OA
ATOM      7  H   UNL A   1      31.370  29.315  28.208  1.00  0.00     0.163 HD
BRANCH   5   8
ATOM      8  C   UNL A   1      32.012  27.618  25.323  1.00  0.00     0.092 C 
ATOM      9  C   UNL A   1      33.253  24.890  24.830  1.00  0.00    -0.010 C 
ATOM     10  C   UNL A   1      34.035  26.068  25.450  1.00  0.00     0.004 C 
ATOM     11  C   UNL A   1      31.719  25.095  24.674  1.00  0.00     0.019 C 
ATOM     12  C   UNL A   1      33.522  27.456  25.124  1.00  0.00     0.015 C 
ATOM     13  C   UNL A   1      31.262  26.549  24.522  1.00  0.00     0.064 C 
BRANCH   9  14
ATOM     14  C   UNL A   1      33.905  24.437  23.501  1.00  0.00     0.003 C 
BRANCH  14  15
ATOM     15  C   UNL A   1      32.954  24.555  22.298  1.00  0.00    -0.003 C 
ATOM     16  C   UNL A   1      33.071  25.861  21.530  1.00  0.00     0.004 C 
ENDBRANCH  14  15
ENDBRANCH   9  14
BRANCH  13  17
ATOM     17  S   UNL A   1      29.432  26.733  24.319  1.00  0.00    -0.122 SA
BRANCH  17  18
ATOM     18  C   UNL A   1      29.224  28.067  23.164  1.00  0.00     0.011 A 
ATOM     19  C   UNL A   1      27.969  28.647  22.989  1.00  0.00     0.035 A 
ATOM     20  C   UNL A   1      30.326  28.653  22.545  1.00  0.00     0.035 A 
ATOM     21  C   UNL A   1      27.852  29.728  22.133  1.00  0.00     0.112 A 
ATOM     22  C   UNL A   1      30.113  29.754  21.730  1.00  0.00     0.112 A 
ATOM     23  N   UNL A   1      28.897  30.287  21.490  1.00  0.00    -0.265 NA
ENDBRANCH  17  18
ENDBRANCH  13  17
ENDBRANCH   5   8
ENDBRANCH   3   4
ENDBRANCH   2   3
ENDBRANCH   1   2
BRANCH   1  24
ATOM     24  C   UNL A   1      32.862  33.220  27.533  1.00  0.00     0.116 C 
BRANCH  24  25
ATOM     25  N   UNL A   1      32.800  34.508  28.214  1.00  0.00    -0.352 N 
ATOM     26  C   UNL A   1      33.619  34.967  29.225  1.00  0.00     0.251 C 
ATOM     27  H   UNL A   1      32.090  35.122  27.917  1.00  0.00     0.163 HD
ATOM     28  O   UNL A   1      33.419  36.051  29.753  1.00  0.00    -0.269 OA
BRANCH  26  29
ATOM     29  C   UNL A   1      34.715  34.089  29.683  1.00  0.00     0.039 A 
ATOM     30  C   UNL A   1      36.011  34.331  29.225  1.00  0.00     0.014 A 
ATOM     31  C   UNL A   1      34.470  33.122  30.661  1.00  0.00     0.014 A 
ATOM     32  C   UNL A   1      37.081  33.660  29.819  1.00  0.00     0.010 A 
ATOM     33  C   UNL A   1      35.542  32.514  31.302  1.00  0.00     0.010 A 
ATOM     34  C   UNL A   1      36.859  32.786  30.896  1.00  0.00    -0.014 A 
BRANCH  34  35
ATOM     35  C   UNL A   1      37.986  32.151  31.625  1.00  0.00     0.031 A 
ATOM     36  C   UNL A   1      38.394  32.675  32.973  1.00  0.00     0.074 A 
ATOM     37  C   UNL A   1      38.693  31.165  31.039  1.00  0.00     0.049 A 
ATOM     38  N   UNL A   1      39.404  32.319  33.726  1.00  0.00    -0.248 NA
ATOM     39  C   UNL A   1      37.581  33.768  33.534  1.00  0.00     0.031 C 
ATOM     40  C   UNL A   1      38.436  30.607  29.708  1.00  0.00     0.029 A 
ATOM     41  N   UNL A   1      39.785  30.461  31.485  1.00  0.00    -0.354 N 
ATOM     42  C   UNL A   1      39.363  33.159  34.831  1.00  0.00     0.074 A 
ATOM     43  C   UNL A   1      38.261  34.074  34.629  1.00  0.00     0.031 C 
ATOM     44  C   UNL A   1      39.326  29.631  29.459  1.00  0.00     0.029 A 
ATOM     45  C   UNL A   1      40.237  29.516  30.594  1.00  0.00     0.049 A 
ATOM     46  H   UNL A   1      40.205  30.618  32.361  1.00  0.00     0.167 HD
ATOM     47  C   UNL A   1      40.158  33.159  35.926  1.00  0.00     0.031 A 
ATOM     48  C   UNL A   1      41.268  28.654  30.679  1.00  0.00     0.031 A 
ATOM     49  C   UNL A   1      41.235  32.231  36.140  1.00  0.00     0.049 A 
ATOM     50  C   UNL A   1      42.115  28.646  31.923  1.00  0.00     0.074 A 
ATOM     51  C   UNL A   1      42.059  32.108  37.245  1.00  0.00     0.029 A 
ATOM     52  N   UNL A   1      41.631  31.260  35.233  1.00  0.00    -0.354 N 
ATOM     53  N   UNL A   1      42.022  29.409  32.985  1.00  0.00    -0.248 NA
ATOM     54  C   UNL A   1      43.194  27.651  31.984  1.00  0.00     0.031 C 
ATOM     55  C   UNL A   1      42.974  31.079  36.992  1.00  0.00     0.029 A 
ATOM     56  C   UNL A   1      42.692  30.537  35.748  1.00  0.00     0.049 A 
ATOM     57  H   UNL A   1      41.217  31.108  34.353  1.00  0.00     0.167 HD
ATOM     58  C   UNL A   1      43.018  28.972  33.851  1.00  0.00     0.074 A 
ATOM     59  C   UNL A   1      43.691  27.870  33.195  1.00  0.00     0.031 C 
ATOM     60  C   UNL A   1      43.345  29.440  35.081  1.00  0.00     0.031 A 
BRANCH  47  61
ATOM     61  C   UNL A   1      39.878  34.198  36.978  1.00  0.00    -0.014 A 
ATOM     62  C   UNL A   1      40.355  35.515  36.837  1.00  0.00     0.010 A 
ATOM     63  C   UNL A   1      39.125  33.860  38.116  1.00  0.00     0.010 A 
ATOM     64  C   UNL A   1      40.128  36.460  37.839  1.00  0.00     0.020 A 
ATOM     65  C   UNL A   1      38.872  34.811  39.109  1.00  0.00     0.020 A 
ATOM     66  C   UNL A   1      39.396  36.099  38.973  1.00  0.00     0.054 A 
BRANCH  66  67
ATOM     67  S   UNL A   1      39.112  37.347  40.259  1.00  0.00     0.124 S 
ATOM     68  O   UNL A   1      38.239  38.294  39.570  1.00  0.00    -0.237 OA
ATOM     69  O   UNL A   1      38.481  36.574  41.326  1.00  0.00    -0.237 OA
ATOM     70  O   UNL A   1      40.452  37.842  40.563  1.00  0.00    -0.744 OA
ENDBRANCH  66  67
ENDBRANCH  47  61
BRANCH  48  71
ATOM     71  C   UNL A   1      41.539  27.705  29.567  1.00  0.00    -0.014 A 
ATOM     72  C   UNL A   1      40.714  26.581  29.378  1.00  0.00     0.010 A 
ATOM     73  C   UNL A   1      42.611  27.924  28.683  1.00  0.00     0.010 A 
ATOM     74  C   UNL A   1      40.966  25.684  28.335  1.00  0.00     0.020 A 
ATOM     75  C   UNL A   1      42.851  27.041  27.625  1.00  0.00     0.020 A 
ATOM     76  C   UNL A   1      42.033  25.922  27.464  1.00  0.00     0.054 A 
BRANCH  76  77
ATOM     77  S   UNL A   1      42.307  24.778  26.081  1.00  0.00     0.124 S 
ATOM     78  O   UNL A   1      41.259  23.786  26.297  1.00  0.00    -0.237 OA
ATOM     79  O   UNL A   1      42.134  25.641  24.915  1.00  0.00    -0.237 OA
ATOM     80  O   UNL A   1      43.673  24.305  26.299  1.00  0.00    -0.744 OA
ENDBRANCH  76  77
ENDBRANCH  48  71
BRANCH  60  81
ATOM     81  C   UNL A   1      44.459  28.744  35.811  1.00  0.00    -0.014 A 
ATOM     82  C   UNL A   1      44.203  27.639  36.641  1.00  0.00     0.010 A 
ATOM     83  C   UNL A   1      45.786  29.168  35.616  1.00  0.00     0.010 A 
ATOM     84  C   UNL A   1      45.256  26.982  37.284  1.00  0.00     0.020 A 
ATOM     85  C   UNL A   1      46.843  28.500  36.240  1.00  0.00     0.020 A 
ATOM     86  C   UNL A   1      46.569  27.418  37.079  1.00  0.00     0.054 A 
BRANCH  86  87
ATOM     87  S   UNL A   1      47.925  26.519  37.882  1.00  0.00     0.124 S 
ATOM     88  O   UNL A   1      48.046  25.336  37.036  1.00  0.00    -0.237 OA
ATOM     89  O   UNL A   1      49.034  27.468  37.801  1.00  0.00    -0.237 OA
ATOM     90  O   UNL A   1      47.423  26.272  39.232  1.00  0.00    -0.744 OA
ENDBRANCH  86  87
ENDBRANCH  60  81
ENDBRANCH  34  35
ENDBRANCH  26  29
ENDBRANCH  24  25
ENDBRANCH   1  24
TORSDOF 18
ENDMDL
MODEL 3
REMARK VINA RESULT:     -10.6      4.079      5.734
REMARK SMILES CCC[C@H]1CC[C@H](C(=O)NCCCCNC(=O)c2ccc(-c3c4nc(c(-c5ccc(S(=O)(=O)[O-])cc5)c5ccc([nH]5)c(-c5ccc(S(=O)(=O)[O-])cc5)c5nc(c(-c6ccc(S(=O)(=O)[O-])cc6)c6ccc3[nH]6)C=C5)C=C4)cc2)[C@H](Sc2ccncc2)C1
REMARK SMILES IDX 13 1 12 2 11 3 10 4 8 5 9 6 7 8 4 9 5 10 86 11 6 12 78 13
REMARK SMILES IDX 3 14 2 15 1 16 79 17 80 18 81 19 85 20 82 21 84 22 83 23
REMARK SMILES IDX 14 24 15 25 16 26 17 28 18 29 19 30 77 31 20 32 76 33 21 34
REMARK SMILES IDX 22 35 23 36 70 37 24 38 75 39 69 40 71 41 25 42 74 43 68 44
REMARK SMILES IDX 67 45 26 47 56 48 37 49 55 50 38 51 41 52 54 53 72 54 39 55
REMARK SMILES IDX 40 56 53 58 73 59 42 60 27 61 28 62 36 63 29 64 35 65 30 66
REMARK SMILES IDX 31 67 32 68 33 69 34 70 57 71 58 72 66 73 59 74 65 75 60 76
REMARK SMILES IDX 61 77 62 78 63 79 64 80 43 81 44 82 52 83 45 84 51 85 46 86
REMARK SMILES IDX 47 87 48 88 49 89 50 90
REMARK H PARENT 10 7 15 27 71 46 41 57
REMARK Flexibility Score: inf
ROOT
ATOM      1  C   UNL A   1      39.314  22.061  25.917  1.00  0.00     0.023 C 
ENDROOT
BRANCH   1   2
ATOM      2  C   UNL A   1      38.786  23.351  26.531  1.00  0.00     0.023 C 
BRANCH   2   3
ATOM      3  C   UNL A   1      37.510  23.883  25.878  1.00  0.00     0.116 C 
BRANCH   3   4
ATOM      4  N   UNL A   1      37.399  23.513  24.487  1.00  0.00    -0.356 N 
ATOM      5  C   UNL A   1      36.351  23.232  23.681  1.00  0.00     0.224 C 
ATOM      6  O   UNL A   1      36.643  23.040  22.490  1.00  0.00    -0.275 OA
ATOM      7  H   UNL A   1      38.268  23.452  24.030  1.00  0.00     0.163 HD
BRANCH   5   8
ATOM      8  C   UNL A   1      34.884  23.057  24.102  1.00  0.00     0.092 C 
ATOM      9  C   UNL A   1      34.262  22.578  27.036  1.00  0.00    -0.010 C 
ATOM     10  C   UNL A   1      34.878  21.498  26.122  1.00  0.00     0.004 C 
ATOM     11  C   UNL A   1      34.180  24.013  26.440  1.00  0.00     0.019 C 
ATOM     12  C   UNL A   1      34.613  21.648  24.637  1.00  0.00     0.015 C 
ATOM     13  C   UNL A   1      34.089  24.085  24.913  1.00  0.00     0.064 C 
BRANCH   9  14
ATOM     14  C   UNL A   1      32.893  22.114  27.591  1.00  0.00     0.003 C 
BRANCH  14  15
ATOM     15  C   UNL A   1      31.738  23.050  27.196  1.00  0.00    -0.003 C 
ATOM     16  C   UNL A   1      30.821  22.498  26.117  1.00  0.00     0.004 C 
ENDBRANCH  14  15
ENDBRANCH   9  14
BRANCH  13  17
ATOM     17  S   UNL A   1      33.973  25.813  24.259  1.00  0.00    -0.122 SA
BRANCH  17  18
ATOM     18  C   UNL A   1      33.207  26.752  25.558  1.00  0.00     0.011 A 
ATOM     19  C   UNL A   1      33.921  27.760  26.202  1.00  0.00     0.035 A 
ATOM     20  C   UNL A   1      31.851  26.605  25.840  1.00  0.00     0.035 A 
ATOM     21  C   UNL A   1      33.276  28.519  27.163  1.00  0.00     0.112 A 
ATOM     22  C   UNL A   1      31.286  27.434  26.796  1.00  0.00     0.112 A 
ATOM     23  N   UNL A   1      31.975  28.369  27.482  1.00  0.00    -0.265 NA
ENDBRANCH  17  18
ENDBRANCH  13  17
ENDBRANCH   5   8
ENDBRANCH   3   4
ENDBRANCH   2   3
ENDBRANCH   1   2
BRANCH   1  24
ATOM     24  C   UNL A   1      39.979  21.104  26.902  1.00  0.00     0.116 C 
BRANCH  24  25
ATOM     25  N   UNL A   1      40.747  20.038  26.270  1.00  0.00    -0.352 N 
ATOM     26  C   UNL A   1      42.055  20.088  25.831  1.00  0.00     0.251 C 
ATOM     27  H   UNL A   1      40.278  19.182  26.142  1.00  0.00     0.163 HD
ATOM     28  O   UNL A   1      42.563  19.135  25.260  1.00  0.00    -0.269 OA
BRANCH  26  29
ATOM     29  C   UNL A   1      42.805  21.345  26.028  1.00  0.00     0.039 A 
ATOM     30  C   UNL A   1      42.884  22.257  24.974  1.00  0.00     0.014 A 
ATOM     31  C   UNL A   1      43.309  21.665  27.291  1.00  0.00     0.014 A 
ATOM     32  C   UNL A   1      43.390  23.535  25.215  1.00  0.00     0.010 A 
ATOM     33  C   UNL A   1      43.739  22.962  27.545  1.00  0.00     0.010 A 
ATOM     34  C   UNL A   1      43.773  23.913  26.512  1.00  0.00    -0.014 A 
BRANCH  34  35
ATOM     35  C   UNL A   1      44.202  25.300  26.822  1.00  0.00     0.031 A 
ATOM     36  C   UNL A   1      45.631  25.709  26.599  1.00  0.00     0.074 A 
ATOM     37  C   UNL A   1      43.329  26.162  27.382  1.00  0.00     0.049 A 
ATOM     38  N   UNL A   1      46.220  26.841  26.891  1.00  0.00    -0.248 NA
ATOM     39  C   UNL A   1      46.523  24.702  26.002  1.00  0.00     0.031 C 
ATOM     40  C   UNL A   1      41.930  25.869  27.705  1.00  0.00     0.029 A 
ATOM     41  N   UNL A   1      43.496  27.462  27.792  1.00  0.00    -0.354 N 
ATOM     42  C   UNL A   1      47.553  26.671  26.539  1.00  0.00     0.074 A 
ATOM     43  C   UNL A   1      47.696  25.314  26.058  1.00  0.00     0.031 C 
ATOM     44  C   UNL A   1      41.361  26.964  28.236  1.00  0.00     0.029 A 
ATOM     45  C   UNL A   1      42.360  28.025  28.323  1.00  0.00     0.049 A 
ATOM     46  H   UNL A   1      44.349  27.946  27.712  1.00  0.00     0.167 HD
ATOM     47  C   UNL A   1      48.565  27.568  26.592  1.00  0.00     0.031 A 
ATOM     48  C   UNL A   1      42.145  29.256  28.826  1.00  0.00     0.031 A 
ATOM     49  C   UNL A   1      48.416  28.925  27.042  1.00  0.00     0.049 A 
ATOM     50  C   UNL A   1      43.275  30.250  28.839  1.00  0.00     0.074 A 
ATOM     51  C   UNL A   1      49.366  29.931  27.075  1.00  0.00     0.029 A 
ATOM     52  N   UNL A   1      47.238  29.469  27.530  1.00  0.00    -0.354 N 
ATOM     53  N   UNL A   1      44.516  30.089  28.445  1.00  0.00    -0.248 NA
ATOM     54  C   UNL A   1      42.971  31.593  29.350  1.00  0.00     0.031 C 
ATOM     55  C   UNL A   1      48.767  31.077  27.610  1.00  0.00     0.029 A 
ATOM     56  C   UNL A   1      47.436  30.794  27.872  1.00  0.00     0.049 A 
ATOM     57  H   UNL A   1      46.386  28.984  27.618  1.00  0.00     0.167 HD
ATOM     58  C   UNL A   1      45.135  31.317  28.640  1.00  0.00     0.074 A 
ATOM     59  C   UNL A   1      44.131  32.214  29.175  1.00  0.00     0.031 C 
ATOM     60  C   UNL A   1      46.421  31.672  28.398  1.00  0.00     0.031 A 
BRANCH  47  61
ATOM     61  C   UNL A   1      49.922  27.100  26.141  1.00  0.00    -0.014 A 
ATOM     62  C   UNL A   1      50.790  26.439  27.031  1.00  0.00     0.010 A 
ATOM     63  C   UNL A   1      50.334  27.314  24.814  1.00  0.00     0.010 A 
ATOM     64  C   UNL A   1      52.064  26.048  26.615  1.00  0.00     0.020 A 
ATOM     65  C   UNL A   1      51.599  26.900  24.386  1.00  0.00     0.020 A 
ATOM     66  C   UNL A   1      52.464  26.289  25.298  1.00  0.00     0.054 A 
BRANCH  66  67
ATOM     67  S   UNL A   1      54.123  25.769  24.782  1.00  0.00     0.124 S 
ATOM     68  O   UNL A   1      54.009  24.313  24.834  1.00  0.00    -0.237 OA
ATOM     69  O   UNL A   1      54.241  26.341  23.444  1.00  0.00    -0.237 OA
ATOM     70  O   UNL A   1      55.000  26.361  25.790  1.00  0.00    -0.744 OA
ENDBRANCH  66  67
ENDBRANCH  47  61
BRANCH  48  71
ATOM     71  C   UNL A   1      40.796  29.630  29.329  1.00  0.00    -0.014 A 
ATOM     72  C   UNL A   1      39.757  29.919  28.426  1.00  0.00     0.010 A 
ATOM     73  C   UNL A   1      40.538  29.686  30.710  1.00  0.00     0.010 A 
ATOM     74  C   UNL A   1      38.488  30.272  28.894  1.00  0.00     0.020 A 
ATOM     75  C   UNL A   1      39.263  30.017  31.182  1.00  0.00     0.020 A 
ATOM     76  C   UNL A   1      38.249  30.318  30.270  1.00  0.00     0.054 A 
BRANCH  76  77
ATOM     77  S   UNL A   1      36.580  30.722  30.856  1.00  0.00     0.124 S 
ATOM     78  O   UNL A   1      36.262  29.567  31.688  1.00  0.00    -0.237 OA
ATOM     79  O   UNL A   1      36.789  31.980  31.571  1.00  0.00    -0.237 OA
ATOM     80  O   UNL A   1      35.807  30.839  29.622  1.00  0.00    -0.744 OA
ENDBRANCH  76  77
ENDBRANCH  48  71
BRANCH  60  81
ATOM     81  C   UNL A   1      46.810  33.097  28.678  1.00  0.00    -0.014 A 
ATOM     82  C   UNL A   1      46.659  34.095  27.701  1.00  0.00     0.010 A 
ATOM     83  C   UNL A   1      47.275  33.449  29.958  1.00  0.00     0.010 A 
ATOM     84  C   UNL A   1      46.992  35.421  27.991  1.00  0.00     0.020 A 
ATOM     85  C   UNL A   1      47.588  34.777  30.258  1.00  0.00     0.020 A 
ATOM     86  C   UNL A   1      47.455  35.753  29.268  1.00  0.00     0.054 A 
BRANCH  86  87
ATOM     87  S   UNL A   1      47.831  37.488  29.640  1.00  0.00     0.124 S 
ATOM     88  O   UNL A   1      49.188  37.622  29.117  1.00  0.00    -0.237 OA
ATOM     89  O   UNL A   1      46.797  38.208  28.900  1.00  0.00    -0.237 OA
ATOM     90  O   UNL A   1      47.713  37.563  31.095  1.00  0.00    -0.744 OA
ENDBRANCH  86  87
ENDBRANCH  60  81
ENDBRANCH  34  35
ENDBRANCH  26  29
ENDBRANCH  24  25
ENDBRANCH   1  24
TORSDOF 18
ENDMDL
