MODEL 1
REMARK VINA RESULT:     -10.0      0.000      0.000
REMARK SMILES Cc1nc([C@@H]2C[N@@H+]3CCC[C@@H]3CO2)sc1CC(=O)NCCCCNC(=O)c1ccc(-c2c3nc(c(-c4ccc(S(=O)(=O)[O-])cc4)c4ccc([nH]4)c(-c4ccc(S(=O)(=O)[O-])cc4)c4nc(c(-c5ccc(S(=O)(=O)[O-])cc5)c5ccc2[nH]5)C=C4)C=C3)cc1
REMARK SMILES IDX 22 1 21 2 20 3 19 4 17 5 18 6 16 8 15 9 1 10 2 11 3 12 4 13
REMARK SMILES IDX 14 14 5 15 6 16 13 17 7 18 12 19 8 20 11 21 9 23 10 24 23 25
REMARK SMILES IDX 24 26 25 27 26 29 27 30 28 31 86 32 29 33 85 34 30 35 31 36
REMARK SMILES IDX 32 37 79 38 33 39 84 40 78 41 80 42 34 43 83 44 77 45 76 46
REMARK SMILES IDX 35 48 65 49 46 50 64 51 47 52 50 53 63 54 81 55 48 56 49 57
REMARK SMILES IDX 62 59 82 60 51 61 36 62 37 63 45 64 38 65 44 66 39 67 40 68
REMARK SMILES IDX 41 69 42 70 43 71 66 72 67 73 75 74 68 75 74 76 69 77 70 78
REMARK SMILES IDX 71 79 72 80 73 81 52 82 53 83 61 84 54 85 60 86 55 87 56 88
REMARK SMILES IDX 57 89 58 90 59 91
REMARK H PARENT 19 7 7 22 24 28 80 47 50 58
REMARK Flexibility Score: inf
ROOT
ATOM      1  C   UNL A   1      34.443  33.330  27.912  1.00  0.00     0.023 C 
ENDROOT
BRANCH   1   2
ATOM      2  C   UNL A   1      34.517  34.713  28.565  1.00  0.00     0.023 C 
BRANCH   2   3
ATOM      3  C   UNL A   1      33.526  34.933  29.709  1.00  0.00     0.116 C 
BRANCH   3   4
ATOM      4  N   UNL A   1      34.118  35.670  30.810  1.00  0.00    -0.356 N 
ATOM      5  C   UNL A   1      34.622  35.211  31.993  1.00  0.00     0.225 C 
ATOM      6  O   UNL A   1      35.060  36.033  32.800  1.00  0.00    -0.275 OA
ATOM      7  H   UNL A   1      34.161  36.646  30.685  1.00  0.00     0.163 HD
BRANCH   5   8
ATOM      8  C   UNL A   1      34.724  33.719  32.269  1.00  0.00     0.148 C 
BRANCH   8   9
ATOM      9  C   UNL A   1      36.093  33.300  32.702  1.00  0.00     0.037 A 
ATOM     10  C   UNL A   1      37.350  33.050  30.449  1.00  0.00     0.068 C 
ATOM     11  C   UNL A   1      37.209  33.017  31.930  1.00  0.00     0.052 A 
ATOM     12  N   UNL A   1      38.304  32.581  32.646  1.00  0.00    -0.243 NA
ATOM     13  C   UNL A   1      38.017  32.476  33.928  1.00  0.00     0.128 A 
ATOM     14  S   UNL A   1      36.482  33.104  34.369  1.00  0.00    -0.120 S 
BRANCH  13  15
ATOM     15  C   UNL A   1      38.936  31.845  34.955  1.00  0.00     0.232 C 
ATOM     16  C   UNL A   1      38.159  31.519  36.263  1.00  0.00     0.302 C 
ATOM     17  O   UNL A   1      40.062  32.729  35.129  1.00  0.00    -0.359 OA
ATOM     18  N   UNL A   1      38.678  32.046  37.534  1.00  0.00    -0.328 N 
ATOM     19  C   UNL A   1      39.768  33.807  36.017  1.00  0.00     0.226 C 
ATOM     20  C   UNL A   1      37.630  32.239  38.544  1.00  0.00     0.262 C 
ATOM     21  C   UNL A   1      39.462  33.289  37.422  1.00  0.00     0.210 C 
ATOM     22  H   UNL A   1      39.316  31.309  37.835  1.00  0.00     0.348 HD
ATOM     23  C   UNL A   1      38.071  33.456  39.339  1.00  0.00     0.068 C 
ATOM     24  C   UNL A   1      38.733  34.316  38.282  1.00  0.00     0.073 C 
ENDBRANCH  13  15
ENDBRANCH   8   9
ENDBRANCH   5   8
ENDBRANCH   3   4
ENDBRANCH   2   3
ENDBRANCH   1   2
BRANCH   1  25
ATOM     25  C   UNL A   1      34.242  32.164  28.874  1.00  0.00     0.116 C 
BRANCH  25  26
ATOM     26  N   UNL A   1      33.802  30.944  28.213  1.00  0.00    -0.352 N 
ATOM     27  C   UNL A   1      34.544  29.837  27.871  1.00  0.00     0.251 C 
ATOM     28  H   UNL A   1      32.846  30.905  27.979  1.00  0.00     0.163 HD
ATOM     29  O   UNL A   1      34.039  28.931  27.217  1.00  0.00    -0.269 OA
BRANCH  27  30
ATOM     30  C   UNL A   1      35.968  29.772  28.263  1.00  0.00     0.039 A 
ATOM     31  C   UNL A   1      36.293  29.376  29.562  1.00  0.00     0.014 A 
ATOM     32  C   UNL A   1      36.976  30.049  27.335  1.00  0.00     0.014 A 
ATOM     33  C   UNL A   1      37.631  29.172  29.908  1.00  0.00     0.010 A 
ATOM     34  C   UNL A   1      38.304  29.792  27.664  1.00  0.00     0.010 A 
ATOM     35  C   UNL A   1      38.643  29.333  28.947  1.00  0.00    -0.014 A 
BRANCH  35  36
ATOM     36  C   UNL A   1      40.054  28.975  29.242  1.00  0.00     0.031 A 
ATOM     37  C   UNL A   1      40.998  30.002  29.804  1.00  0.00     0.074 A 
ATOM     38  C   UNL A   1      40.508  27.749  28.913  1.00  0.00     0.049 A 
ATOM     39  N   UNL A   1      42.282  29.902  30.028  1.00  0.00    -0.248 NA
ATOM     40  C   UNL A   1      40.428  31.317  30.135  1.00  0.00     0.031 C 
ATOM     41  C   UNL A   1      39.702  26.678  28.320  1.00  0.00     0.029 A 
ATOM     42  N   UNL A   1      41.763  27.203  29.011  1.00  0.00    -0.354 N 
ATOM     43  C   UNL A   1      42.681  31.144  30.506  1.00  0.00     0.074 A 
ATOM     44  C   UNL A   1      41.508  31.991  30.508  1.00  0.00     0.031 C 
ATOM     45  C   UNL A   1      40.481  25.602  28.119  1.00  0.00     0.029 A 
ATOM     46  C   UNL A   1      41.845  25.918  28.528  1.00  0.00     0.049 A 
ATOM     47  H   UNL A   1      42.532  27.686  29.391  1.00  0.00     0.167 HD
ATOM     48  C   UNL A   1      43.909  31.539  30.917  1.00  0.00     0.031 A 
ATOM     49  C   UNL A   1      42.902  25.090  28.409  1.00  0.00     0.031 A 
ATOM     50  C   UNL A   1      45.071  30.691  30.927  1.00  0.00     0.049 A 
ATOM     51  C   UNL A   1      44.257  25.555  28.863  1.00  0.00     0.074 A 
ATOM     52  C   UNL A   1      46.343  30.981  31.393  1.00  0.00     0.029 A 
ATOM     53  N   UNL A   1      45.109  29.392  30.444  1.00  0.00    -0.354 N 
ATOM     54  N   UNL A   1      44.598  26.711  29.381  1.00  0.00    -0.248 NA
ATOM     55  C   UNL A   1      45.369  24.605  28.718  1.00  0.00     0.031 C 
ATOM     56  C   UNL A   1      47.161  29.873  31.149  1.00  0.00     0.029 A 
ATOM     57  C   UNL A   1      46.388  28.877  30.574  1.00  0.00     0.049 A 
ATOM     58  H   UNL A   1      44.340  28.908  30.065  1.00  0.00     0.167 HD
ATOM     59  C   UNL A   1      45.961  26.621  29.639  1.00  0.00     0.074 A 
ATOM     60  C   UNL A   1      46.378  25.294  29.236  1.00  0.00     0.031 C 
ATOM     61  C   UNL A   1      46.791  27.555  30.163  1.00  0.00     0.031 A 
BRANCH  48  62
ATOM     62  C   UNL A   1      44.061  32.961  31.385  1.00  0.00    -0.014 A 
ATOM     63  C   UNL A   1      44.397  33.988  30.485  1.00  0.00     0.010 A 
ATOM     64  C   UNL A   1      43.821  33.282  32.734  1.00  0.00     0.010 A 
ATOM     65  C   UNL A   1      44.529  35.305  30.933  1.00  0.00     0.020 A 
ATOM     66  C   UNL A   1      43.930  34.602  33.181  1.00  0.00     0.020 A 
ATOM     67  C   UNL A   1      44.300  35.602  32.280  1.00  0.00     0.054 A 
BRANCH  67  68
ATOM     68  S   UNL A   1      44.461  37.324  32.831  1.00  0.00     0.124 S 
ATOM     69  O   UNL A   1      44.284  38.057  31.581  1.00  0.00    -0.237 OA
ATOM     70  O   UNL A   1      43.371  37.455  33.795  1.00  0.00    -0.237 OA
ATOM     71  O   UNL A   1      45.803  37.381  33.402  1.00  0.00    -0.744 OA
ENDBRANCH  67  68
ENDBRANCH  48  62
BRANCH  49  72
ATOM     72  C   UNL A   1      42.717  23.731  27.833  1.00  0.00    -0.014 A 
ATOM     73  C   UNL A   1      42.946  23.501  26.466  1.00  0.00     0.010 A 
ATOM     74  C   UNL A   1      42.330  22.656  28.655  1.00  0.00     0.010 A 
ATOM     75  C   UNL A   1      42.775  22.223  25.926  1.00  0.00     0.020 A 
ATOM     76  C   UNL A   1      42.181  21.372  28.123  1.00  0.00     0.020 A 
ATOM     77  C   UNL A   1      42.395  21.166  26.759  1.00  0.00     0.054 A 
BRANCH  77  78
ATOM     78  S   UNL A   1      42.234  19.504  26.048  1.00  0.00     0.124 S 
ATOM     79  O   UNL A   1      40.807  19.438  25.752  1.00  0.00    -0.237 OA
ATOM     80  O   UNL A   1      43.120  19.567  24.888  1.00  0.00    -0.237 OA
ATOM     81  O   UNL A   1      42.693  18.628  27.124  1.00  0.00    -0.744 OA
ENDBRANCH  77  78
ENDBRANCH  49  72
BRANCH  61  82
ATOM     82  C   UNL A   1      48.235  27.176  30.348  1.00  0.00    -0.014 A 
ATOM     83  C   UNL A   1      49.192  27.476  29.364  1.00  0.00     0.010 A 
ATOM     84  C   UNL A   1      48.649  26.574  31.551  1.00  0.00     0.010 A 
ATOM     85  C   UNL A   1      50.538  27.166  29.572  1.00  0.00     0.020 A 
ATOM     86  C   UNL A   1      49.997  26.284  31.771  1.00  0.00     0.020 A 
ATOM     87  C   UNL A   1      50.933  26.573  30.776  1.00  0.00     0.054 A 
BRANCH  87  88
ATOM     88  S   UNL A   1      52.694  26.238  31.048  1.00  0.00     0.124 S 
ATOM     89  O   UNL A   1      52.652  25.012  31.841  1.00  0.00    -0.237 OA
ATOM     90  O   UNL A   1      53.209  26.090  29.688  1.00  0.00    -0.237 OA
ATOM     91  O   UNL A   1      53.166  27.424  31.760  1.00  0.00    -0.744 OA
ENDBRANCH  87  88
ENDBRANCH  61  82
ENDBRANCH  35  36
ENDBRANCH  27  30
ENDBRANCH  25  26
ENDBRANCH   1  25
TORSDOF 16
ENDMDL
MODEL 2
REMARK VINA RESULT:     -10.0      4.273      7.585
REMARK SMILES Cc1nc([C@@H]2C[N@@H+]3CCC[C@@H]3CO2)sc1CC(=O)NCCCCNC(=O)c1ccc(-c2c3nc(c(-c4ccc(S(=O)(=O)[O-])cc4)c4ccc([nH]4)c(-c4ccc(S(=O)(=O)[O-])cc4)c4nc(c(-c5ccc(S(=O)(=O)[O-])cc5)c5ccc2[nH]5)C=C4)C=C3)cc1
REMARK SMILES IDX 22 1 21 2 20 3 19 4 17 5 18 6 16 8 15 9 1 10 2 11 3 12 4 13
REMARK SMILES IDX 14 14 5 15 6 16 13 17 7 18 12 19 8 20 11 21 9 23 10 24 23 25
REMARK SMILES IDX 24 26 25 27 26 29 27 30 28 31 86 32 29 33 85 34 30 35 31 36
REMARK SMILES IDX 32 37 79 38 33 39 84 40 78 41 80 42 34 43 83 44 77 45 76 46
REMARK SMILES IDX 35 48 65 49 46 50 64 51 47 52 50 53 63 54 81 55 48 56 49 57
REMARK SMILES IDX 62 59 82 60 51 61 36 62 37 63 45 64 38 65 44 66 39 67 40 68
REMARK SMILES IDX 41 69 42 70 43 71 66 72 67 73 75 74 68 75 74 76 69 77 70 78
REMARK SMILES IDX 71 79 72 80 73 81 52 82 53 83 61 84 54 85 60 86 55 87 56 88
REMARK SMILES IDX 57 89 58 90 59 91
REMARK H PARENT 19 7 7 22 24 28 80 47 50 58
REMARK Flexibility Score: inf
ROOT
ATOM      1  C   UNL A   1      33.670  28.883  27.227  1.00  0.00     0.023 C 
ENDROOT
BRANCH   1   2
ATOM      2  C   UNL A   1      33.000  29.897  26.296  1.00  0.00     0.023 C 
BRANCH   2   3
ATOM      3  C   UNL A   1      32.895  29.452  24.837  1.00  0.00     0.116 C 
BRANCH   3   4
ATOM      4  N   UNL A   1      31.583  29.719  24.277  1.00  0.00    -0.356 N 
ATOM      5  C   UNL A   1      30.877  29.017  23.343  1.00  0.00     0.225 C 
ATOM      6  O   UNL A   1      29.775  29.448  22.997  1.00  0.00    -0.275 OA
ATOM      7  H   UNL A   1      31.136  30.525  24.623  1.00  0.00     0.163 HD
BRANCH   5   8
ATOM      8  C   UNL A   1      31.396  27.691  22.809  1.00  0.00     0.148 C 
BRANCH   8   9
ATOM      9  C   UNL A   1      31.183  26.557  23.761  1.00  0.00     0.037 A 
ATOM     10  C   UNL A   1      28.600  26.436  23.934  1.00  0.00     0.068 C 
ATOM     11  C   UNL A   1      29.997  26.022  24.238  1.00  0.00     0.052 A 
ATOM     12  N   UNL A   1      30.155  25.020  25.171  1.00  0.00    -0.243 NA
ATOM     13  C   UNL A   1      31.430  24.830  25.446  1.00  0.00     0.128 A 
ATOM     14  S   UNL A   1      32.514  25.698  24.437  1.00  0.00    -0.120 S 
BRANCH  13  15
ATOM     15  C   UNL A   1      31.934  23.940  26.564  1.00  0.00     0.232 C 
ATOM     16  C   UNL A   1      33.482  23.794  26.498  1.00  0.00     0.302 C 
ATOM     17  O   UNL A   1      31.209  22.696  26.486  1.00  0.00    -0.359 OA
ATOM     18  N   UNL A   1      34.056  22.441  26.458  1.00  0.00    -0.328 N 
ATOM     19  C   UNL A   1      31.755  21.815  25.504  1.00  0.00     0.226 C 
ATOM     20  C   UNL A   1      35.360  22.393  25.788  1.00  0.00     0.262 C 
ATOM     21  C   UNL A   1      33.183  21.409  25.869  1.00  0.00     0.210 C 
ATOM     22  H   UNL A   1      34.166  22.218  27.447  1.00  0.00     0.348 HD
ATOM     23  C   UNL A   1      35.398  21.040  25.099  1.00  0.00     0.068 C 
ATOM     24  C   UNL A   1      33.955  20.844  24.681  1.00  0.00     0.073 C 
ENDBRANCH  13  15
ENDBRANCH   8   9
ENDBRANCH   5   8
ENDBRANCH   3   4
ENDBRANCH   2   3
ENDBRANCH   1   2
BRANCH   1  25
ATOM     25  C   UNL A   1      35.112  29.201  27.611  1.00  0.00     0.116 C 
BRANCH  25  26
ATOM     26  N   UNL A   1      35.217  30.179  28.684  1.00  0.00    -0.352 N 
ATOM     27  C   UNL A   1      36.309  30.482  29.464  1.00  0.00     0.251 C 
ATOM     28  H   UNL A   1      34.398  30.690  28.879  1.00  0.00     0.163 HD
ATOM     29  O   UNL A   1      36.200  31.262  30.405  1.00  0.00    -0.269 OA
BRANCH  27  30
ATOM     30  C   UNL A   1      37.604  29.826  29.183  1.00  0.00     0.039 A 
ATOM     31  C   UNL A   1      38.087  29.820  27.873  1.00  0.00     0.014 A 
ATOM     32  C   UNL A   1      38.359  29.268  30.219  1.00  0.00     0.014 A 
ATOM     33  C   UNL A   1      39.369  29.331  27.612  1.00  0.00     0.010 A 
ATOM     34  C   UNL A   1      39.657  28.833  29.966  1.00  0.00     0.010 A 
ATOM     35  C   UNL A   1      40.182  28.878  28.665  1.00  0.00    -0.014 A 
BRANCH  35  36
ATOM     36  C   UNL A   1      41.600  28.499  28.440  1.00  0.00     0.031 A 
ATOM     37  C   UNL A   1      42.677  29.548  28.442  1.00  0.00     0.074 A 
ATOM     38  C   UNL A   1      41.903  27.221  28.137  1.00  0.00     0.049 A 
ATOM     39  N   UNL A   1      43.948  29.421  28.163  1.00  0.00    -0.248 NA
ATOM     40  C   UNL A   1      42.267  30.921  28.777  1.00  0.00     0.031 C 
ATOM     41  C   UNL A   1      40.942  26.117  28.060  1.00  0.00     0.029 A 
ATOM     42  N   UNL A   1      43.104  26.636  27.819  1.00  0.00    -0.354 N 
ATOM     43  C   UNL A   1      44.489  30.697  28.269  1.00  0.00     0.074 A 
ATOM     44  C   UNL A   1      43.399  31.589  28.605  1.00  0.00     0.031 C 
ATOM     45  C   UNL A   1      41.593  24.990  27.728  1.00  0.00     0.029 A 
ATOM     46  C   UNL A   1      43.005  25.296  27.529  1.00  0.00     0.049 A 
ATOM     47  H   UNL A   1      43.955  27.131  27.800  1.00  0.00     0.167 HD
ATOM     48  C   UNL A   1      45.775  31.088  28.113  1.00  0.00     0.031 A 
ATOM     49  C   UNL A   1      43.941  24.412  27.130  1.00  0.00     0.031 A 
ATOM     50  C   UNL A   1      46.859  30.198  27.794  1.00  0.00     0.049 A 
ATOM     51  C   UNL A   1      45.362  24.873  26.954  1.00  0.00     0.074 A 
ATOM     52  C   UNL A   1      48.208  30.489  27.686  1.00  0.00     0.029 A 
ATOM     53  N   UNL A   1      46.720  28.845  27.523  1.00  0.00    -0.354 N 
ATOM     54  N   UNL A   1      45.864  26.071  27.131  1.00  0.00    -0.248 NA
ATOM     55  C   UNL A   1      46.340  23.863  26.526  1.00  0.00     0.031 C 
ATOM     56  C   UNL A   1      48.879  29.322  27.304  1.00  0.00     0.029 A 
ATOM     57  C   UNL A   1      47.954  28.294  27.220  1.00  0.00     0.049 A 
ATOM     58  H   UNL A   1      45.870  28.349  27.543  1.00  0.00     0.167 HD
ATOM     59  C   UNL A   1      47.221  25.955  26.852  1.00  0.00     0.074 A 
ATOM     60  C   UNL A   1      47.463  24.568  26.511  1.00  0.00     0.031 C 
ATOM     61  C   UNL A   1      48.180  26.913  26.877  1.00  0.00     0.031 A 
BRANCH  48  62
ATOM     62  C   UNL A   1      46.082  32.551  28.280  1.00  0.00    -0.014 A 
ATOM     63  C   UNL A   1      46.566  33.056  29.501  1.00  0.00     0.010 A 
ATOM     64  C   UNL A   1      45.928  33.427  27.189  1.00  0.00     0.010 A 
ATOM     65  C   UNL A   1      46.852  34.417  29.639  1.00  0.00     0.020 A 
ATOM     66  C   UNL A   1      46.235  34.784  27.316  1.00  0.00     0.020 A 
ATOM     67  C   UNL A   1      46.680  35.273  28.547  1.00  0.00     0.054 A 
BRANCH  67  68
ATOM     68  S   UNL A   1      47.076  37.032  28.749  1.00  0.00     0.124 S 
ATOM     69  O   UNL A   1      48.532  37.027  28.629  1.00  0.00    -0.237 OA
ATOM     70  O   UNL A   1      46.357  37.653  27.639  1.00  0.00    -0.237 OA
ATOM     71  O   UNL A   1      46.562  37.353  30.077  1.00  0.00    -0.744 OA
ENDBRANCH  67  68
ENDBRANCH  48  62
BRANCH  49  72
ATOM     72  C   UNL A   1      43.562  22.998  26.868  1.00  0.00    -0.014 A 
ATOM     73  C   UNL A   1      43.872  22.394  25.638  1.00  0.00     0.010 A 
ATOM     74  C   UNL A   1      42.903  22.244  27.857  1.00  0.00     0.010 A 
ATOM     75  C   UNL A   1      43.518  21.064  25.394  1.00  0.00     0.020 A 
ATOM     76  C   UNL A   1      42.568  20.907  27.625  1.00  0.00     0.020 A 
ATOM     77  C   UNL A   1      42.869  20.328  26.390  1.00  0.00     0.054 A 
BRANCH  77  78
ATOM     78  S   UNL A   1      42.468  18.587  26.074  1.00  0.00     0.124 S 
ATOM     79  O   UNL A   1      43.366  18.265  24.970  1.00  0.00    -0.237 OA
ATOM     80  O   UNL A   1      42.782  17.952  27.352  1.00  0.00    -0.237 OA
ATOM     81  O   UNL A   1      41.046  18.620  25.738  1.00  0.00    -0.744 OA
ENDBRANCH  77  78
ENDBRANCH  49  72
BRANCH  61  82
ATOM     82  C   UNL A   1      49.585  26.497  26.541  1.00  0.00    -0.014 A 
ATOM     83  C   UNL A   1      50.431  25.948  27.520  1.00  0.00     0.010 A 
ATOM     84  C   UNL A   1      50.042  26.593  25.213  1.00  0.00     0.010 A 
ATOM     85  C   UNL A   1      51.716  25.517  27.182  1.00  0.00     0.020 A 
ATOM     86  C   UNL A   1      51.318  26.142  24.867  1.00  0.00     0.020 A 
ATOM     87  C   UNL A   1      52.151  25.615  25.856  1.00  0.00     0.054 A 
BRANCH  87  88
ATOM     88  S   UNL A   1      53.799  24.991  25.429  1.00  0.00     0.124 S 
ATOM     89  O   UNL A   1      53.526  23.589  25.128  1.00  0.00    -0.237 OA
ATOM     90  O   UNL A   1      54.171  25.820  24.284  1.00  0.00    -0.237 OA
ATOM     91  O   UNL A   1      54.582  25.227  26.640  1.00  0.00    -0.744 OA
ENDBRANCH  87  88
ENDBRANCH  61  82
ENDBRANCH  35  36
ENDBRANCH  27  30
ENDBRANCH  25  26
ENDBRANCH   1  25
TORSDOF 16
ENDMDL
MODEL 3
REMARK VINA RESULT:      -9.8      4.890     12.209
REMARK SMILES Cc1nc([C@@H]2C[N@@H+]3CCC[C@@H]3CO2)sc1CC(=O)NCCCCNC(=O)c1ccc(-c2c3nc(c(-c4ccc(S(=O)(=O)[O-])cc4)c4ccc([nH]4)c(-c4ccc(S(=O)(=O)[O-])cc4)c4nc(c(-c5ccc(S(=O)(=O)[O-])cc5)c5ccc2[nH]5)C=C4)C=C3)cc1
REMARK SMILES IDX 22 1 21 2 20 3 19 4 17 5 18 6 16 8 15 9 1 10 2 11 3 12 4 13
REMARK SMILES IDX 14 14 5 15 6 16 13 17 7 18 12 19 8 20 11 21 9 23 10 24 23 25
REMARK SMILES IDX 24 26 25 27 26 29 27 30 28 31 86 32 29 33 85 34 30 35 31 36
REMARK SMILES IDX 32 37 79 38 33 39 84 40 78 41 80 42 34 43 83 44 77 45 76 46
REMARK SMILES IDX 35 48 65 49 46 50 64 51 47 52 50 53 63 54 81 55 48 56 49 57
REMARK SMILES IDX 62 59 82 60 51 61 36 62 37 63 45 64 38 65 44 66 39 67 40 68
REMARK SMILES IDX 41 69 42 70 43 71 66 72 67 73 75 74 68 75 74 76 69 77 70 78
REMARK SMILES IDX 71 79 72 80 73 81 52 82 53 83 61 84 54 85 60 86 55 87 56 88
REMARK SMILES IDX 57 89 58 90 59 91
REMARK H PARENT 19 7 7 22 24 28 80 47 50 58
REMARK Flexibility Score: inf
ROOT
ATOM      1  C   UNL A   1      42.787  22.038  26.882  1.00  0.00     0.023 C 
ENDROOT
BRANCH   1   2
ATOM      2  C   UNL A   1      41.499  21.692  26.131  1.00  0.00     0.023 C 
BRANCH   2   3
ATOM      3  C   UNL A   1      40.252  21.597  27.011  1.00  0.00     0.116 C 
BRANCH   3   4
ATOM      4  N   UNL A   1      39.372  22.737  26.837  1.00  0.00    -0.356 N 
ATOM      5  C   UNL A   1      38.219  22.844  26.113  1.00  0.00     0.225 C 
ATOM      6  O   UNL A   1      37.641  23.933  26.092  1.00  0.00    -0.275 OA
ATOM      7  H   UNL A   1      39.648  23.555  27.311  1.00  0.00     0.163 HD
BRANCH   5   8
ATOM      8  C   UNL A   1      37.616  21.630  25.426  1.00  0.00     0.148 C 
BRANCH   8   9
ATOM      9  C   UNL A   1      36.174  21.816  25.075  1.00  0.00     0.037 A 
ATOM     10  C   UNL A   1      36.296  22.949  22.748  1.00  0.00     0.068 C 
ATOM     11  C   UNL A   1      35.612  22.374  23.938  1.00  0.00     0.052 A 
ATOM     12  N   UNL A   1      34.236  22.463  23.964  1.00  0.00    -0.243 NA
ATOM     13  C   UNL A   1      33.759  22.036  25.116  1.00  0.00     0.128 A 
ATOM     14  S   UNL A   1      34.923  21.305  26.143  1.00  0.00    -0.120 S 
BRANCH  13  15
ATOM     15  C   UNL A   1      32.310  22.178  25.539  1.00  0.00     0.232 C 
ATOM     16  C   UNL A   1      31.460  22.800  24.394  1.00  0.00     0.302 C 
ATOM     17  O   UNL A   1      32.291  22.921  26.774  1.00  0.00    -0.359 OA
ATOM     18  N   UNL A   1      30.663  24.001  24.688  1.00  0.00    -0.328 N 
ATOM     19  C   UNL A   1      32.393  24.328  26.558  1.00  0.00     0.226 C 
ATOM     20  C   UNL A   1      30.434  24.839  23.506  1.00  0.00     0.262 C 
ATOM     21  C   UNL A   1      31.186  24.848  25.775  1.00  0.00     0.210 C 
ATOM     22  H   UNL A   1      29.779  23.605  25.009  1.00  0.00     0.348 HD
ATOM     23  C   UNL A   1      30.413  26.263  24.033  1.00  0.00     0.068 C 
ATOM     24  C   UNL A   1      31.438  26.216  25.148  1.00  0.00     0.073 C 
ENDBRANCH  13  15
ENDBRANCH   8   9
ENDBRANCH   5   8
ENDBRANCH   3   4
ENDBRANCH   2   3
ENDBRANCH   1   2
BRANCH   1  25
ATOM     25  C   UNL A   1      43.134  23.523  26.933  1.00  0.00     0.116 C 
BRANCH  25  26
ATOM     26  N   UNL A   1      42.468  24.304  25.901  1.00  0.00    -0.352 N 
ATOM     27  C   UNL A   1      41.755  25.472  26.035  1.00  0.00     0.251 C 
ATOM     28  H   UNL A   1      42.538  23.948  24.985  1.00  0.00     0.163 HD
ATOM     29  O   UNL A   1      41.162  25.949  25.073  1.00  0.00    -0.269 OA
BRANCH  27  30
ATOM     30  C   UNL A   1      41.675  26.123  27.360  1.00  0.00     0.039 A 
ATOM     31  C   UNL A   1      42.578  27.143  27.666  1.00  0.00     0.014 A 
ATOM     32  C   UNL A   1      40.679  25.762  28.272  1.00  0.00     0.014 A 
ATOM     33  C   UNL A   1      42.428  27.864  28.854  1.00  0.00     0.010 A 
ATOM     34  C   UNL A   1      40.498  26.518  29.427  1.00  0.00     0.010 A 
ATOM     35  C   UNL A   1      41.358  27.587  29.720  1.00  0.00    -0.014 A 
BRANCH  35  36
ATOM     36  C   UNL A   1      41.085  28.436  30.907  1.00  0.00     0.031 A 
ATOM     37  C   UNL A   1      39.989  29.465  30.872  1.00  0.00     0.074 A 
ATOM     38  C   UNL A   1      41.890  28.345  31.985  1.00  0.00     0.049 A 
ATOM     39  N   UNL A   1      39.673  30.361  31.770  1.00  0.00    -0.248 NA
ATOM     40  C   UNL A   1      39.156  29.505  29.660  1.00  0.00     0.031 C 
ATOM     41  C   UNL A   1      43.016  27.418  32.126  1.00  0.00     0.029 A 
ATOM     42  N   UNL A   1      41.897  29.055  33.161  1.00  0.00    -0.354 N 
ATOM     43  C   UNL A   1      38.619  31.086  31.227  1.00  0.00     0.074 A 
ATOM     44  C   UNL A   1      38.372  30.546  29.908  1.00  0.00     0.031 C 
ATOM     45  C   UNL A   1      43.596  27.608  33.322  1.00  0.00     0.029 A 
ATOM     46  C   UNL A   1      42.912  28.696  34.016  1.00  0.00     0.049 A 
ATOM     47  H   UNL A   1      41.238  29.754  33.371  1.00  0.00     0.167 HD
ATOM     48  C   UNL A   1      37.915  32.101  31.782  1.00  0.00     0.031 A 
ATOM     49  C   UNL A   1      43.268  29.194  35.216  1.00  0.00     0.031 A 
ATOM     50  C   UNL A   1      38.152  32.627  33.099  1.00  0.00     0.049 A 
ATOM     51  C   UNL A   1      42.476  30.328  35.806  1.00  0.00     0.074 A 
ATOM     52  C   UNL A   1      37.444  33.606  33.775  1.00  0.00     0.029 A 
ATOM     53  N   UNL A   1      39.180  32.225  33.940  1.00  0.00    -0.354 N 
ATOM     54  N   UNL A   1      41.436  30.951  35.307  1.00  0.00    -0.248 NA
ATOM     55  C   UNL A   1      42.904  30.823  37.122  1.00  0.00     0.031 C 
ATOM     56  C   UNL A   1      38.072  33.829  35.006  1.00  0.00     0.029 A 
ATOM     57  C   UNL A   1      39.142  32.956  35.115  1.00  0.00     0.049 A 
ATOM     58  H   UNL A   1      39.839  31.524  33.731  1.00  0.00     0.167 HD
ATOM     59  C   UNL A   1      41.075  31.902  36.254  1.00  0.00     0.074 A 
ATOM     60  C   UNL A   1      41.997  31.761  37.363  1.00  0.00     0.031 C 
ATOM     61  C   UNL A   1      40.070  32.810  36.208  1.00  0.00     0.031 A 
BRANCH  48  62
ATOM     62  C   UNL A   1      36.818  32.717  30.957  1.00  0.00    -0.014 A 
ATOM     63  C   UNL A   1      37.109  33.646  29.941  1.00  0.00     0.010 A 
ATOM     64  C   UNL A   1      35.481  32.330  31.169  1.00  0.00     0.010 A 
ATOM     65  C   UNL A   1      36.080  34.206  29.179  1.00  0.00     0.020 A 
ATOM     66  C   UNL A   1      34.452  32.870  30.394  1.00  0.00     0.020 A 
ATOM     67  C   UNL A   1      34.757  33.818  29.415  1.00  0.00     0.054 A 
BRANCH  67  68
ATOM     68  S   UNL A   1      33.442  34.547  28.398  1.00  0.00     0.124 S 
ATOM     69  O   UNL A   1      32.527  35.060  29.415  1.00  0.00    -0.237 OA
ATOM     70  O   UNL A   1      34.157  35.561  27.628  1.00  0.00    -0.237 OA
ATOM     71  O   UNL A   1      32.939  33.418  27.621  1.00  0.00    -0.744 OA
ENDBRANCH  67  68
ENDBRANCH  48  62
BRANCH  49  72
ATOM     72  C   UNL A   1      44.434  28.622  35.941  1.00  0.00    -0.014 A 
ATOM     73  C   UNL A   1      45.721  29.148  35.744  1.00  0.00     0.010 A 
ATOM     74  C   UNL A   1      44.257  27.559  36.846  1.00  0.00     0.010 A 
ATOM     75  C   UNL A   1      46.816  28.612  36.428  1.00  0.00     0.020 A 
ATOM     76  C   UNL A   1      45.345  27.036  37.549  1.00  0.00     0.020 A 
ATOM     77  C   UNL A   1      46.621  27.559  37.328  1.00  0.00     0.054 A 
BRANCH  77  78
ATOM     78  S   UNL A   1      48.047  26.915  38.247  1.00  0.00     0.124 S 
ATOM     79  O   UNL A   1      48.411  25.743  37.459  1.00  0.00    -0.237 OA
ATOM     80  O   UNL A   1      48.988  28.031  38.195  1.00  0.00    -0.237 OA
ATOM     81  O   UNL A   1      47.499  26.636  39.573  1.00  0.00    -0.744 OA
ENDBRANCH  77  78
ENDBRANCH  49  72
BRANCH  61  82
ATOM     82  C   UNL A   1      39.899  33.716  37.396  1.00  0.00    -0.014 A 
ATOM     83  C   UNL A   1      40.559  34.955  37.461  1.00  0.00     0.010 A 
ATOM     84  C   UNL A   1      39.013  33.354  38.427  1.00  0.00     0.010 A 
ATOM     85  C   UNL A   1      40.349  35.811  38.545  1.00  0.00     0.020 A 
ATOM     86  C   UNL A   1      38.783  34.217  39.501  1.00  0.00     0.020 A 
ATOM     87  C   UNL A   1      39.460  35.437  39.558  1.00  0.00     0.054 A 
BRANCH  87  88
ATOM     88  S   UNL A   1      39.157  36.591  40.924  1.00  0.00     0.124 S 
ATOM     89  O   UNL A   1      38.450  37.678  40.252  1.00  0.00    -0.237 OA
ATOM     90  O   UNL A   1      38.352  35.794  41.847  1.00  0.00    -0.237 OA
ATOM     91  O   UNL A   1      40.497  36.921  41.402  1.00  0.00    -0.744 OA
ENDBRANCH  87  88
ENDBRANCH  61  82
ENDBRANCH  35  36
ENDBRANCH  27  30
ENDBRANCH  25  26
ENDBRANCH   1  25
TORSDOF 16
ENDMDL
