MODEL 1
REMARK VINA RESULT:     -10.4      0.000      0.000
REMARK SMILES CCOc1ccc2c(c1)=N[C@H](SCC(=O)NCCCCNC(=O)c1ccc(-c3c4nc(c(-c5ccc(S(=O)(=O)[O-])cc5)c5ccc([nH]5)c(-c5ccc(S(=O)(=O)[O-])cc5)c5nc(c(-c6ccc(S(=O)(=O)[O-])cc6)c6ccc3[nH]6)C=C5)C=C4)cc1)N=2
REMARK SMILES IDX 18 1 17 2 16 3 14 4 15 5 13 7 12 8 11 9 4 10 5 11 9 12 6 13
REMARK SMILES IDX 8 14 7 15 10 16 84 17 3 18 2 19 1 20 19 21 20 22 21 23 22 24
REMARK SMILES IDX 23 26 24 27 25 28 83 29 26 30 82 31 27 32 28 33 29 34 76 35
REMARK SMILES IDX 30 36 81 37 75 38 77 39 31 40 80 41 74 42 73 43 32 45 62 46
REMARK SMILES IDX 43 47 61 48 44 49 47 50 60 51 78 52 45 53 46 54 59 56 79 57
REMARK SMILES IDX 48 58 33 59 34 60 42 61 35 62 41 63 36 64 37 65 38 66 39 67
REMARK SMILES IDX 40 68 63 69 64 70 72 71 65 72 71 73 66 74 67 75 68 76 69 77
REMARK SMILES IDX 70 78 49 79 50 80 58 81 51 82 57 83 52 84 53 85 54 86 55 87
REMARK SMILES IDX 56 88
REMARK H PARENT 16 6 21 25 77 44 47 55
REMARK Flexibility Score: inf
ROOT
ATOM      1  C   UNL A   1      35.560  21.955  26.558  1.00  0.00     0.023 C 
ENDROOT
BRANCH   1   2
ATOM      2  C   UNL A   1      34.158  21.791  27.152  1.00  0.00     0.116 C 
BRANCH   2   3
ATOM      3  N   UNL A   1      33.391  20.772  26.458  1.00  0.00    -0.355 N 
ATOM      4  C   UNL A   1      32.483  20.911  25.448  1.00  0.00     0.230 C 
ATOM      5  O   UNL A   1      31.894  19.902  25.053  1.00  0.00    -0.274 OA
ATOM      6  H   UNL A   1      33.548  19.849  26.759  1.00  0.00     0.163 HD
BRANCH   4   7
ATOM      7  C   UNL A   1      32.256  22.255  24.782  1.00  0.00     0.173 C 
BRANCH   7   8
ATOM      8  S   UNL A   1      31.046  23.293  25.639  1.00  0.00    -0.102 SA
BRANCH   8   9
ATOM      9  C   UNL A   1      30.793  24.602  24.363  1.00  0.00     0.281 C 
ATOM     10  C   UNL A   1      32.747  28.621  24.848  1.00  0.00     0.121 A 
ATOM     11  C   UNL A   1      33.757  27.954  24.045  1.00  0.00     0.049 A 
ATOM     12  C   UNL A   1      31.597  28.036  25.210  1.00  0.00     0.076 A 
ATOM     13  C   UNL A   1      33.602  26.722  23.539  1.00  0.00     0.034 A 
ATOM     14  C   UNL A   1      31.373  26.663  24.753  1.00  0.00     0.090 A 
ATOM     15  C   UNL A   1      32.378  26.004  23.896  1.00  0.00     0.087 A 
ATOM     16  N   UNL A   1      30.380  25.886  25.003  1.00  0.00    -0.246 NA
ATOM     17  N   UNL A   1      32.036  24.809  23.569  1.00  0.00    -0.246 NA
BRANCH  10  18
ATOM     18  O   UNL A   1      33.108  29.849  25.356  1.00  0.00    -0.494 OA
BRANCH  18  19
ATOM     19  C   UNL A   1      32.693  30.059  26.710  1.00  0.00     0.226 C 
ATOM     20  C   UNL A   1      33.876  30.494  27.557  1.00  0.00     0.049 C 
ENDBRANCH  18  19
ENDBRANCH  10  18
ENDBRANCH   8   9
ENDBRANCH   7   8
ENDBRANCH   4   7
ENDBRANCH   2   3
ENDBRANCH   1   2
BRANCH   1  21
ATOM     21  C   UNL A   1      35.818  23.300  25.878  1.00  0.00     0.023 C 
BRANCH  21  22
ATOM     22  C   UNL A   1      37.067  23.360  25.008  1.00  0.00     0.116 C 
BRANCH  22  23
ATOM     23  N   UNL A   1      38.117  22.448  25.439  1.00  0.00    -0.352 N 
ATOM     24  C   UNL A   1      39.217  22.716  26.220  1.00  0.00     0.251 C 
ATOM     25  H   UNL A   1      38.027  21.517  25.132  1.00  0.00     0.163 HD
ATOM     26  O   UNL A   1      40.068  21.851  26.411  1.00  0.00    -0.269 OA
BRANCH  24  27
ATOM     27  C   UNL A   1      39.391  24.072  26.783  1.00  0.00     0.039 A 
ATOM     28  C   UNL A   1      40.056  25.063  26.058  1.00  0.00     0.014 A 
ATOM     29  C   UNL A   1      38.935  24.335  28.079  1.00  0.00     0.014 A 
ATOM     30  C   UNL A   1      40.418  26.248  26.687  1.00  0.00     0.010 A 
ATOM     31  C   UNL A   1      39.233  25.559  28.683  1.00  0.00     0.010 A 
ATOM     32  C   UNL A   1      40.025  26.504  28.011  1.00  0.00    -0.014 A 
BRANCH  32  33
ATOM     33  C   UNL A   1      40.473  27.756  28.677  1.00  0.00     0.031 A 
ATOM     34  C   UNL A   1      41.911  27.937  29.083  1.00  0.00     0.074 A 
ATOM     35  C   UNL A   1      39.594  28.763  28.847  1.00  0.00     0.049 A 
ATOM     36  N   UNL A   1      42.483  28.977  29.634  1.00  0.00    -0.248 NA
ATOM     37  C   UNL A   1      42.830  26.810  28.841  1.00  0.00     0.031 C 
ATOM     38  C   UNL A   1      38.181  28.715  28.467  1.00  0.00     0.029 A 
ATOM     39  N   UNL A   1      39.762  30.029  29.347  1.00  0.00    -0.354 N 
ATOM     40  C   UNL A   1      43.818  28.631  29.812  1.00  0.00     0.074 A 
ATOM     41  C   UNL A   1      43.969  27.273  29.340  1.00  0.00     0.031 C 
ATOM     42  C   UNL A   1      37.628  29.917  28.687  1.00  0.00     0.029 A 
ATOM     43  C   UNL A   1      38.627  30.801  29.282  1.00  0.00     0.049 A 
ATOM     44  H   UNL A   1      40.615  30.354  29.717  1.00  0.00     0.167 HD
ATOM     45  C   UNL A   1      44.828  29.383  30.310  1.00  0.00     0.031 A 
ATOM     46  C   UNL A   1      38.404  32.075  29.659  1.00  0.00     0.031 A 
ATOM     47  C   UNL A   1      44.677  30.740  30.766  1.00  0.00     0.049 A 
ATOM     48  C   UNL A   1      39.527  32.874  30.253  1.00  0.00     0.074 A 
ATOM     49  C   UNL A   1      45.647  31.581  31.285  1.00  0.00     0.029 A 
ATOM     50  N   UNL A   1      43.491  31.458  30.752  1.00  0.00    -0.354 N 
ATOM     51  N   UNL A   1      40.778  32.521  30.428  1.00  0.00    -0.248 NA
ATOM     52  C   UNL A   1      39.213  34.235  30.704  1.00  0.00     0.031 C 
ATOM     53  C   UNL A   1      45.037  32.789  31.632  1.00  0.00     0.029 A 
ATOM     54  C   UNL A   1      43.700  32.724  31.273  1.00  0.00     0.049 A 
ATOM     55  H   UNL A   1      42.629  31.119  30.420  1.00  0.00     0.167 HD
ATOM     56  C   UNL A   1      41.401  33.617  31.010  1.00  0.00     0.074 A 
ATOM     57  C   UNL A   1      40.398  34.654  31.137  1.00  0.00     0.031 C 
ATOM     58  C   UNL A   1      42.691  33.746  31.407  1.00  0.00     0.031 A 
BRANCH  45  59
ATOM     59  C   UNL A   1      46.200  28.768  30.394  1.00  0.00    -0.014 A 
ATOM     60  C   UNL A   1      47.053  28.806  29.274  1.00  0.00     0.010 A 
ATOM     61  C   UNL A   1      46.604  28.058  31.537  1.00  0.00     0.010 A 
ATOM     62  C   UNL A   1      48.274  28.127  29.289  1.00  0.00     0.020 A 
ATOM     63  C   UNL A   1      47.836  27.397  31.565  1.00  0.00     0.020 A 
ATOM     64  C   UNL A   1      48.655  27.419  30.432  1.00  0.00     0.054 A 
BRANCH  64  65
ATOM     65  S   UNL A   1      50.240  26.536  30.433  1.00  0.00     0.124 S 
ATOM     66  O   UNL A   1      50.187  25.806  29.171  1.00  0.00    -0.237 OA
ATOM     67  O   UNL A   1      51.214  27.624  30.495  1.00  0.00    -0.237 OA
ATOM     68  O   UNL A   1      50.168  25.712  31.639  1.00  0.00    -0.744 OA
ENDBRANCH  64  65
ENDBRANCH  45  59
BRANCH  46  69
ATOM     69  C   UNL A   1      37.049  32.656  29.459  1.00  0.00    -0.014 A 
ATOM     70  C   UNL A   1      36.726  33.302  28.250  1.00  0.00     0.010 A 
ATOM     71  C   UNL A   1      36.116  32.663  30.509  1.00  0.00     0.010 A 
ATOM     72  C   UNL A   1      35.523  33.999  28.118  1.00  0.00     0.020 A 
ATOM     73  C   UNL A   1      34.899  33.337  30.371  1.00  0.00     0.020 A 
ATOM     74  C   UNL A   1      34.626  34.028  29.188  1.00  0.00     0.054 A 
BRANCH  74  75
ATOM     75  S   UNL A   1      33.100  34.995  29.023  1.00  0.00     0.124 S 
ATOM     76  O   UNL A   1      32.574  34.956  30.384  1.00  0.00    -0.237 OA
ATOM     77  O   UNL A   1      33.590  36.297  28.575  1.00  0.00    -0.237 OA
ATOM     78  O   UNL A   1      32.331  34.249  28.032  1.00  0.00    -0.744 OA
ENDBRANCH  74  75
ENDBRANCH  46  69
BRANCH  58  79
ATOM     79  C   UNL A   1      43.113  35.046  32.033  1.00  0.00    -0.014 A 
ATOM     80  C   UNL A   1      42.689  35.366  33.336  1.00  0.00     0.010 A 
ATOM     81  C   UNL A   1      43.814  36.008  31.283  1.00  0.00     0.010 A 
ATOM     82  C   UNL A   1      42.925  36.636  33.867  1.00  0.00     0.020 A 
ATOM     83  C   UNL A   1      44.073  37.272  31.820  1.00  0.00     0.020 A 
ATOM     84  C   UNL A   1      43.603  37.586  33.100  1.00  0.00     0.054 A 
BRANCH  84  85
ATOM     85  S   UNL A   1      43.870  39.243  33.787  1.00  0.00     0.124 S 
ATOM     86  O   UNL A   1      44.959  39.748  32.956  1.00  0.00    -0.237 OA
ATOM     87  O   UNL A   1      42.574  39.888  33.588  1.00  0.00    -0.237 OA
ATOM     88  O   UNL A   1      44.218  38.981  35.182  1.00  0.00    -0.744 OA
ENDBRANCH  84  85
ENDBRANCH  58  79
ENDBRANCH  32  33
ENDBRANCH  24  27
ENDBRANCH  22  23
ENDBRANCH  21  22
ENDBRANCH   1  21
TORSDOF 18
ENDMDL
MODEL 2
REMARK VINA RESULT:     -10.4      2.679      9.634
REMARK SMILES CCOc1ccc2c(c1)=N[C@H](SCC(=O)NCCCCNC(=O)c1ccc(-c3c4nc(c(-c5ccc(S(=O)(=O)[O-])cc5)c5ccc([nH]5)c(-c5ccc(S(=O)(=O)[O-])cc5)c5nc(c(-c6ccc(S(=O)(=O)[O-])cc6)c6ccc3[nH]6)C=C5)C=C4)cc1)N=2
REMARK SMILES IDX 18 1 17 2 16 3 14 4 15 5 13 7 12 8 11 9 4 10 5 11 9 12 6 13
REMARK SMILES IDX 8 14 7 15 10 16 84 17 3 18 2 19 1 20 19 21 20 22 21 23 22 24
REMARK SMILES IDX 23 26 24 27 25 28 83 29 26 30 82 31 27 32 28 33 29 34 76 35
REMARK SMILES IDX 30 36 81 37 75 38 77 39 31 40 80 41 74 42 73 43 32 45 62 46
REMARK SMILES IDX 43 47 61 48 44 49 47 50 60 51 78 52 45 53 46 54 59 56 79 57
REMARK SMILES IDX 48 58 33 59 34 60 42 61 35 62 41 63 36 64 37 65 38 66 39 67
REMARK SMILES IDX 40 68 63 69 64 70 72 71 65 72 71 73 66 74 67 75 68 76 69 77
REMARK SMILES IDX 70 78 49 79 50 80 58 81 51 82 57 83 52 84 53 85 54 86 55 87
REMARK SMILES IDX 56 88
REMARK H PARENT 16 6 21 25 77 44 47 55
REMARK Flexibility Score: inf
ROOT
ATOM      1  C   UNL A   1      33.317  29.472  24.864  1.00  0.00     0.023 C 
ENDROOT
BRANCH   1   2
ATOM      2  C   UNL A   1      33.306  29.014  23.402  1.00  0.00     0.116 C 
BRANCH   2   3
ATOM      3  N   UNL A   1      31.996  29.170  22.795  1.00  0.00    -0.355 N 
ATOM      4  C   UNL A   1      31.032  28.231  22.563  1.00  0.00     0.230 C 
ATOM      5  O   UNL A   1      30.012  28.580  21.965  1.00  0.00    -0.274 OA
ATOM      6  H   UNL A   1      31.770  30.084  22.511  1.00  0.00     0.163 HD
BRANCH   4   7
ATOM      7  C   UNL A   1      31.182  26.814  23.086  1.00  0.00     0.173 C 
BRANCH   7   8
ATOM      8  S   UNL A   1      30.556  26.593  24.769  1.00  0.00    -0.102 SA
BRANCH   8   9
ATOM      9  C   UNL A   1      31.957  25.642  25.504  1.00  0.00     0.281 C 
ATOM     10  C   UNL A   1      32.211  21.193  24.908  1.00  0.00     0.121 A 
ATOM     11  C   UNL A   1      33.024  21.636  23.790  1.00  0.00     0.049 A 
ATOM     12  C   UNL A   1      31.654  22.039  25.787  1.00  0.00     0.076 A 
ATOM     13  C   UNL A   1      33.345  22.920  23.574  1.00  0.00     0.034 A 
ATOM     14  C   UNL A   1      31.902  23.468  25.589  1.00  0.00     0.090 A 
ATOM     15  C   UNL A   1      32.769  23.913  24.481  1.00  0.00     0.087 A 
ATOM     16  N   UNL A   1      31.448  24.462  26.265  1.00  0.00    -0.246 NA
ATOM     17  N   UNL A   1      32.900  25.191  24.443  1.00  0.00    -0.246 NA
BRANCH  10  18
ATOM     18  O   UNL A   1      31.908  19.850  24.928  1.00  0.00    -0.494 OA
BRANCH  18  19
ATOM     19  C   UNL A   1      33.053  18.997  24.816  1.00  0.00     0.226 C 
ATOM     20  C   UNL A   1      32.801  17.687  25.540  1.00  0.00     0.049 C 
ENDBRANCH  18  19
ENDBRANCH  10  18
ENDBRANCH   8   9
ENDBRANCH   7   8
ENDBRANCH   4   7
ENDBRANCH   2   3
ENDBRANCH   1   2
BRANCH   1  21
ATOM     21  C   UNL A   1      33.918  28.467  25.848  1.00  0.00     0.023 C 
BRANCH  21  22
ATOM     22  C   UNL A   1      33.515  28.663  27.304  1.00  0.00     0.116 C 
BRANCH  22  23
ATOM     23  N   UNL A   1      33.540  30.055  27.730  1.00  0.00    -0.352 N 
ATOM     24  C   UNL A   1      34.586  30.764  28.274  1.00  0.00     0.251 C 
ATOM     25  H   UNL A   1      32.700  30.554  27.612  1.00  0.00     0.163 HD
ATOM     26  O   UNL A   1      34.413  31.913  28.675  1.00  0.00    -0.269 OA
BRANCH  24  27
ATOM     27  C   UNL A   1      35.905  30.112  28.420  1.00  0.00     0.039 A 
ATOM     28  C   UNL A   1      36.272  29.515  29.627  1.00  0.00     0.014 A 
ATOM     29  C   UNL A   1      36.807  30.155  27.353  1.00  0.00     0.014 A 
ATOM     30  C   UNL A   1      37.590  29.120  29.825  1.00  0.00     0.010 A 
ATOM     31  C   UNL A   1      38.111  29.684  27.529  1.00  0.00     0.010 A 
ATOM     32  C   UNL A   1      38.529  29.214  28.783  1.00  0.00    -0.014 A 
BRANCH  32  33
ATOM     33  C   UNL A   1      39.943  28.836  29.040  1.00  0.00     0.031 A 
ATOM     34  C   UNL A   1      40.852  29.747  29.821  1.00  0.00     0.074 A 
ATOM     35  C   UNL A   1      40.388  27.632  28.629  1.00  0.00     0.049 A 
ATOM     36  N   UNL A   1      42.098  29.557  30.173  1.00  0.00    -0.248 NA
ATOM     37  C   UNL A   1      40.296  31.036  30.269  1.00  0.00     0.031 C 
ATOM     38  C   UNL A   1      39.592  26.652  27.888  1.00  0.00     0.029 A 
ATOM     39  N   UNL A   1      41.600  27.013  28.806  1.00  0.00    -0.354 N 
ATOM     40  C   UNL A   1      42.477  30.698  30.872  1.00  0.00     0.074 A 
ATOM     41  C   UNL A   1      41.341  31.592  30.869  1.00  0.00     0.031 C 
ATOM     42  C   UNL A   1      40.313  25.532  27.731  1.00  0.00     0.029 A 
ATOM     43  C   UNL A   1      41.642  25.735  28.301  1.00  0.00     0.049 A 
ATOM     44  H   UNL A   1      42.365  27.443  29.251  1.00  0.00     0.167 HD
ATOM     45  C   UNL A   1      43.660  30.968  31.473  1.00  0.00     0.031 A 
ATOM     46  C   UNL A   1      42.635  24.824  28.290  1.00  0.00     0.031 A 
ATOM     47  C   UNL A   1      44.786  30.070  31.484  1.00  0.00     0.049 A 
ATOM     48  C   UNL A   1      43.953  25.165  28.921  1.00  0.00     0.074 A 
ATOM     49  C   UNL A   1      46.025  30.261  32.071  1.00  0.00     0.029 A 
ATOM     50  N   UNL A   1      44.810  28.816  30.896  1.00  0.00    -0.354 N 
ATOM     51  N   UNL A   1      44.295  26.257  29.560  1.00  0.00    -0.248 NA
ATOM     52  C   UNL A   1      45.019  24.159  28.825  1.00  0.00     0.031 C 
ATOM     53  C   UNL A   1      46.815  29.142  31.793  1.00  0.00     0.029 A 
ATOM     54  C   UNL A   1      46.050  28.230  31.086  1.00  0.00     0.049 A 
ATOM     55  H   UNL A   1      44.057  28.402  30.414  1.00  0.00     0.167 HD
ATOM     56  C   UNL A   1      45.617  26.070  29.945  1.00  0.00     0.074 A 
ATOM     57  C   UNL A   1      46.007  24.753  29.487  1.00  0.00     0.031 C 
ATOM     58  C   UNL A   1      46.432  26.921  30.614  1.00  0.00     0.031 A 
BRANCH  45  59
ATOM     59  C   UNL A   1      43.816  32.291  32.176  1.00  0.00    -0.014 A 
ATOM     60  C   UNL A   1      43.440  32.412  33.527  1.00  0.00     0.010 A 
ATOM     61  C   UNL A   1      44.229  33.437  31.475  1.00  0.00     0.010 A 
ATOM     62  C   UNL A   1      43.453  33.660  34.158  1.00  0.00     0.020 A 
ATOM     63  C   UNL A   1      44.266  34.683  32.110  1.00  0.00     0.020 A 
ATOM     64  C   UNL A   1      43.858  34.789  33.442  1.00  0.00     0.054 A 
BRANCH  64  65
ATOM     65  S   UNL A   1      43.861  36.402  34.273  1.00  0.00     0.124 S 
ATOM     66  O   UNL A   1      45.275  36.760  34.248  1.00  0.00    -0.237 OA
ATOM     67  O   UNL A   1      42.990  37.206  33.418  1.00  0.00    -0.237 OA
ATOM     68  O   UNL A   1      43.312  36.104  35.595  1.00  0.00    -0.744 OA
ENDBRANCH  64  65
ENDBRANCH  45  59
BRANCH  46  69
ATOM     69  C   UNL A   1      42.384  23.498  27.664  1.00  0.00    -0.014 A 
ATOM     70  C   UNL A   1      41.895  22.429  28.440  1.00  0.00     0.010 A 
ATOM     71  C   UNL A   1      42.734  23.267  26.323  1.00  0.00     0.010 A 
ATOM     72  C   UNL A   1      41.822  21.141  27.905  1.00  0.00     0.020 A 
ATOM     73  C   UNL A   1      42.636  21.984  25.776  1.00  0.00     0.020 A 
ATOM     74  C   UNL A   1      42.212  20.924  26.582  1.00  0.00     0.054 A 
BRANCH  74  75
ATOM     75  S   UNL A   1      42.175  19.233  25.926  1.00  0.00     0.124 S 
ATOM     76  O   UNL A   1      40.750  19.045  25.668  1.00  0.00    -0.237 OA
ATOM     77  O   UNL A   1      43.022  19.328  24.739  1.00  0.00    -0.237 OA
ATOM     78  O   UNL A   1      42.725  18.433  27.017  1.00  0.00    -0.744 OA
ENDBRANCH  74  75
ENDBRANCH  46  69
BRANCH  58  79
ATOM     79  C   UNL A   1      47.843  26.480  30.893  1.00  0.00    -0.014 A 
ATOM     80  C   UNL A   1      48.154  25.865  32.119  1.00  0.00     0.010 A 
ATOM     81  C   UNL A   1      48.881  26.797  30.000  1.00  0.00     0.010 A 
ATOM     82  C   UNL A   1      49.482  25.606  32.466  1.00  0.00     0.020 A 
ATOM     83  C   UNL A   1      50.210  26.517  30.332  1.00  0.00     0.020 A 
ATOM     84  C   UNL A   1      50.503  25.947  31.575  1.00  0.00     0.054 A 
BRANCH  84  85
ATOM     85  S   UNL A   1      52.225  25.639  32.053  1.00  0.00     0.124 S 
ATOM     86  O   UNL A   1      52.210  24.210  32.353  1.00  0.00    -0.237 OA
ATOM     87  O   UNL A   1      52.968  26.022  30.855  1.00  0.00    -0.237 OA
ATOM     88  O   UNL A   1      52.422  26.516  33.205  1.00  0.00    -0.744 OA
ENDBRANCH  84  85
ENDBRANCH  58  79
ENDBRANCH  32  33
ENDBRANCH  24  27
ENDBRANCH  22  23
ENDBRANCH  21  22
ENDBRANCH   1  21
TORSDOF 18
ENDMDL
MODEL 3
REMARK VINA RESULT:     -10.2      2.795      8.637
REMARK SMILES CCOc1ccc2c(c1)=N[C@H](SCC(=O)NCCCCNC(=O)c1ccc(-c3c4nc(c(-c5ccc(S(=O)(=O)[O-])cc5)c5ccc([nH]5)c(-c5ccc(S(=O)(=O)[O-])cc5)c5nc(c(-c6ccc(S(=O)(=O)[O-])cc6)c6ccc3[nH]6)C=C5)C=C4)cc1)N=2
REMARK SMILES IDX 18 1 17 2 16 3 14 4 15 5 13 7 12 8 11 9 4 10 5 11 9 12 6 13
REMARK SMILES IDX 8 14 7 15 10 16 84 17 3 18 2 19 1 20 19 21 20 22 21 23 22 24
REMARK SMILES IDX 23 26 24 27 25 28 83 29 26 30 82 31 27 32 28 33 29 34 76 35
REMARK SMILES IDX 30 36 81 37 75 38 77 39 31 40 80 41 74 42 73 43 32 45 62 46
REMARK SMILES IDX 43 47 61 48 44 49 47 50 60 51 78 52 45 53 46 54 59 56 79 57
REMARK SMILES IDX 48 58 33 59 34 60 42 61 35 62 41 63 36 64 37 65 38 66 39 67
REMARK SMILES IDX 40 68 63 69 64 70 72 71 65 72 71 73 66 74 67 75 68 76 69 77
REMARK SMILES IDX 70 78 49 79 50 80 58 81 51 82 57 83 52 84 53 85 54 86 55 87
REMARK SMILES IDX 56 88
REMARK H PARENT 16 6 21 25 77 44 47 55
REMARK Flexibility Score: inf
ROOT
ATOM      1  C   UNL A   1      32.987  29.681  25.052  1.00  0.00     0.023 C 
ENDROOT
BRANCH   1   2
ATOM      2  C   UNL A   1      31.460  29.644  25.172  1.00  0.00     0.116 C 
BRANCH   2   3
ATOM      3  N   UNL A   1      30.817  29.513  23.876  1.00  0.00    -0.355 N 
ATOM      4  C   UNL A   1      30.799  28.448  23.023  1.00  0.00     0.230 C 
ATOM      5  O   UNL A   1      30.241  28.586  21.932  1.00  0.00    -0.274 OA
ATOM      6  H   UNL A   1      30.324  30.307  23.570  1.00  0.00     0.163 HD
BRANCH   4   7
ATOM      7  C   UNL A   1      31.388  27.110  23.432  1.00  0.00     0.173 C 
BRANCH   7   8
ATOM      8  S   UNL A   1      31.427  25.895  22.091  1.00  0.00    -0.102 SA
BRANCH   8   9
ATOM      9  C   UNL A   1      31.783  24.366  23.062  1.00  0.00     0.281 C 
ATOM     10  C   UNL A   1      35.981  23.487  24.410  1.00  0.00     0.121 A 
ATOM     11  C   UNL A   1      35.488  24.185  25.584  1.00  0.00     0.049 A 
ATOM     12  C   UNL A   1      35.220  23.240  23.333  1.00  0.00     0.076 A 
ATOM     13  C   UNL A   1      34.216  24.586  25.725  1.00  0.00     0.034 A 
ATOM     14  C   UNL A   1      33.831  23.701  23.377  1.00  0.00     0.090 A 
ATOM     15  C   UNL A   1      33.319  24.366  24.591  1.00  0.00     0.087 A 
ATOM     16  N   UNL A   1      32.931  23.620  22.464  1.00  0.00    -0.246 NA
ATOM     17  N   UNL A   1      32.083  24.702  24.481  1.00  0.00    -0.246 NA
BRANCH  10  18
ATOM     18  O   UNL A   1      37.332  23.226  24.396  1.00  0.00    -0.494 OA
BRANCH  18  19
ATOM     19  C   UNL A   1      37.675  21.923  24.882  1.00  0.00     0.226 C 
ATOM     20  C   UNL A   1      38.651  22.038  26.040  1.00  0.00     0.049 C 
ENDBRANCH  18  19
ENDBRANCH  10  18
ENDBRANCH   8   9
ENDBRANCH   7   8
ENDBRANCH   4   7
ENDBRANCH   2   3
ENDBRANCH   1   2
BRANCH   1  21
ATOM     21  C   UNL A   1      33.717  28.557  25.788  1.00  0.00     0.023 C 
BRANCH  21  22
ATOM     22  C   UNL A   1      33.718  28.668  27.307  1.00  0.00     0.116 C 
BRANCH  22  23
ATOM     23  N   UNL A   1      33.704  30.042  27.788  1.00  0.00    -0.352 N 
ATOM     24  C   UNL A   1      34.722  30.753  28.380  1.00  0.00     0.251 C 
ATOM     25  H   UNL A   1      32.855  30.527  27.672  1.00  0.00     0.163 HD
ATOM     26  O   UNL A   1      34.515  31.881  28.821  1.00  0.00    -0.269 OA
BRANCH  24  27
ATOM     27  C   UNL A   1      36.053  30.125  28.527  1.00  0.00     0.039 A 
ATOM     28  C   UNL A   1      36.437  29.553  29.741  1.00  0.00     0.014 A 
ATOM     29  C   UNL A   1      36.946  30.165  27.453  1.00  0.00     0.014 A 
ATOM     30  C   UNL A   1      37.763  29.182  29.935  1.00  0.00     0.010 A 
ATOM     31  C   UNL A   1      38.259  29.719  27.627  1.00  0.00     0.010 A 
ATOM     32  C   UNL A   1      38.693  29.276  28.886  1.00  0.00    -0.014 A 
BRANCH  32  33
ATOM     33  C   UNL A   1      40.115  28.925  29.139  1.00  0.00     0.031 A 
ATOM     34  C   UNL A   1      40.655  27.576  28.743  1.00  0.00     0.074 A 
ATOM     35  C   UNL A   1      40.941  29.854  29.660  1.00  0.00     0.049 A 
ATOM     36  N   UNL A   1      41.877  27.119  28.850  1.00  0.00    -0.248 NA
ATOM     37  C   UNL A   1      39.709  26.616  28.149  1.00  0.00     0.031 C 
ATOM     38  C   UNL A   1      40.539  31.205  30.056  1.00  0.00     0.029 A 
ATOM     39  N   UNL A   1      42.289  29.819  29.911  1.00  0.00    -0.354 N 
ATOM     40  C   UNL A   1      41.845  25.822  28.349  1.00  0.00     0.074 A 
ATOM     41  C   UNL A   1      40.478  25.550  27.966  1.00  0.00     0.031 C 
ATOM     42  C   UNL A   1      41.627  31.890  30.438  1.00  0.00     0.029 A 
ATOM     43  C   UNL A   1      42.791  31.011  30.378  1.00  0.00     0.049 A 
ATOM     44  H   UNL A   1      42.843  29.018  29.771  1.00  0.00     0.167 HD
ATOM     45  C   UNL A   1      42.866  24.944  28.208  1.00  0.00     0.031 A 
ATOM     46  C   UNL A   1      44.045  31.364  30.722  1.00  0.00     0.031 A 
ATOM     47  C   UNL A   1      44.230  25.223  28.579  1.00  0.00     0.049 A 
ATOM     48  C   UNL A   1      45.152  30.359  30.603  1.00  0.00     0.074 A 
ATOM     49  C   UNL A   1      45.332  24.391  28.470  1.00  0.00     0.029 A 
ATOM     50  N   UNL A   1      44.680  26.417  29.118  1.00  0.00    -0.354 N 
ATOM     51  N   UNL A   1      45.097  29.132  30.143  1.00  0.00    -0.248 NA
ATOM     52  C   UNL A   1      46.487  30.777  31.052  1.00  0.00     0.031 C 
ATOM     53  C   UNL A   1      46.439  25.066  28.990  1.00  0.00     0.029 A 
ATOM     54  C   UNL A   1      46.040  26.338  29.367  1.00  0.00     0.049 A 
ATOM     55  H   UNL A   1      44.118  27.205  29.296  1.00  0.00     0.167 HD
ATOM     56  C   UNL A   1      46.388  28.631  30.246  1.00  0.00     0.074 A 
ATOM     57  C   UNL A   1      47.209  29.693  30.790  1.00  0.00     0.031 C 
ATOM     58  C   UNL A   1      46.846  27.398  29.921  1.00  0.00     0.031 A 
BRANCH  45  59
ATOM     59  C   UNL A   1      42.565  23.588  27.627  1.00  0.00    -0.014 A 
ATOM     60  C   UNL A   1      42.196  22.529  28.479  1.00  0.00     0.010 A 
ATOM     61  C   UNL A   1      42.751  23.330  26.258  1.00  0.00     0.010 A 
ATOM     62  C   UNL A   1      42.041  21.234  27.976  1.00  0.00     0.020 A 
ATOM     63  C   UNL A   1      42.574  22.041  25.748  1.00  0.00     0.020 A 
ATOM     64  C   UNL A   1      42.240  20.997  26.614  1.00  0.00     0.054 A 
BRANCH  64  65
ATOM     65  S   UNL A   1      42.043  19.309  25.978  1.00  0.00     0.124 S 
ATOM     66  O   UNL A   1      42.883  19.327  24.785  1.00  0.00    -0.237 OA
ATOM     67  O   UNL A   1      42.532  18.489  27.084  1.00  0.00    -0.237 OA
ATOM     68  O   UNL A   1      40.606  19.205  25.731  1.00  0.00    -0.744 OA
ENDBRANCH  64  65
ENDBRANCH  45  59
BRANCH  46  69
ATOM     69  C   UNL A   1      44.294  32.752  31.198  1.00  0.00    -0.014 A 
ATOM     70  C   UNL A   1      44.690  33.753  30.289  1.00  0.00     0.010 A 
ATOM     71  C   UNL A   1      44.243  33.054  32.569  1.00  0.00     0.010 A 
ATOM     72  C   UNL A   1      45.092  35.009  30.748  1.00  0.00     0.020 A 
ATOM     73  C   UNL A   1      44.619  34.319  33.030  1.00  0.00     0.020 A 
ATOM     74  C   UNL A   1      45.073  35.276  32.119  1.00  0.00     0.054 A 
BRANCH  74  75
ATOM     75  S   UNL A   1      45.664  36.889  32.703  1.00  0.00     0.124 S 
ATOM     76  O   UNL A   1      44.424  37.514  33.156  1.00  0.00    -0.237 OA
ATOM     77  O   UNL A   1      46.607  36.525  33.758  1.00  0.00    -0.237 OA
ATOM     78  O   UNL A   1      46.266  37.482  31.512  1.00  0.00    -0.744 OA
ENDBRANCH  74  75
ENDBRANCH  46  69
BRANCH  58  79
ATOM     79  C   UNL A   1      48.303  27.100  30.150  1.00  0.00    -0.014 A 
ATOM     80  C   UNL A   1      48.724  26.580  31.387  1.00  0.00     0.010 A 
ATOM     81  C   UNL A   1      49.267  27.464  29.193  1.00  0.00     0.010 A 
ATOM     82  C   UNL A   1      50.085  26.460  31.679  1.00  0.00     0.020 A 
ATOM     83  C   UNL A   1      50.629  27.323  29.472  1.00  0.00     0.020 A 
ATOM     84  C   UNL A   1      51.029  26.845  30.724  1.00  0.00     0.054 A 
BRANCH  84  85
ATOM     85  S   UNL A   1      52.792  26.719  31.131  1.00  0.00     0.124 S 
ATOM     86  O   UNL A   1      53.370  26.287  29.862  1.00  0.00    -0.237 OA
ATOM     87  O   UNL A   1      53.128  28.081  31.544  1.00  0.00    -0.237 OA
ATOM     88  O   UNL A   1      52.825  25.726  32.203  1.00  0.00    -0.744 OA
ENDBRANCH  84  85
ENDBRANCH  58  79
ENDBRANCH  32  33
ENDBRANCH  24  27
ENDBRANCH  22  23
ENDBRANCH  21  22
ENDBRANCH   1  21
TORSDOF 18
ENDMDL
