MODEL 1
REMARK VINA RESULT:     -13.5      0.000      0.000
REMARK SMILES Cc1ccc(C)c([C@H]2[NH2+][C@@H](C(=O)NCCCCNC(=O)c3ccc(-c4c5nc(c(-c6ccc(S(=O)(=O)[O-])cc6)c6ccc([nH]6)c(-c6ccc(S(=O)(=O)[O-])cc6)c6nc(c(-c7ccc(S(=O)(=O)[O-])cc7)c7ccc4[nH]7)C=C6)C=C5)cc3)Cc3c2[nH]c2ccccc32)c1
REMARK SMILES IDX 16 1 15 2 14 3 13 4 11 5 12 6 10 8 8 9 9 10 83 11 82 14
REMARK SMILES IDX 84 15 81 16 90 17 85 18 89 20 86 21 88 22 87 23 7 24 1 25
REMARK SMILES IDX 2 26 3 27 91 28 4 29 5 30 6 31 17 32 18 33 19 34 20 36 21 37
REMARK SMILES IDX 22 38 80 39 23 40 79 41 24 42 25 43 26 44 73 45 27 46 78 47
REMARK SMILES IDX 72 48 74 49 28 50 77 51 71 52 70 53 29 55 59 56 40 57 58 58
REMARK SMILES IDX 41 59 44 60 57 61 75 62 42 63 43 64 56 66 76 67 45 68 30 69
REMARK SMILES IDX 31 70 39 71 32 72 38 73 33 74 34 75 35 76 36 77 37 78 60 79
REMARK SMILES IDX 61 80 69 81 62 82 68 83 63 84 64 85 65 86 66 87 67 88 46 89
REMARK SMILES IDX 47 90 55 91 48 92 54 93 49 94 50 95 51 96 52 97 53 98
REMARK H PARENT 13 7 9 12 9 13 84 19 18 35 74 54 44 65
REMARK Flexibility Score: inf
ROOT
ATOM      1  C   UNL A   1      32.386  29.487  25.860  1.00  0.00     0.023 C 
ENDROOT
BRANCH   1   2
ATOM      2  C   UNL A   1      33.404  29.331  24.720  1.00  0.00     0.023 C 
BRANCH   2   3
ATOM      3  C   UNL A   1      33.812  27.884  24.435  1.00  0.00     0.116 C 
BRANCH   3   4
ATOM      4  N   UNL A   1      32.800  26.920  24.787  1.00  0.00    -0.351 N 
ATOM      5  C   UNL A   1      32.769  25.576  24.925  1.00  0.00     0.278 C 
ATOM      6  O   UNL A   1      31.667  25.114  25.262  1.00  0.00    -0.268 OA
ATOM      7  H   UNL A   1      31.928  27.338  24.969  1.00  0.00     0.163 HD
BRANCH   5   8
ATOM      8  C   UNL A   1      33.961  24.611  24.765  1.00  0.00     0.277 C 
ATOM      9  C   UNL A   1      34.359  22.180  24.292  1.00  0.00     0.262 C 
ATOM     10  N   UNL A   1      33.404  23.244  24.678  1.00  0.00    -0.325 N 
ATOM     11  C   UNL A   1      35.715  22.453  24.924  1.00  0.00     0.083 A 
ATOM     12  H   UNL A   1      33.020  23.003  25.592  1.00  0.00     0.347 HD
ATOM     13  H   UNL A   1      32.710  23.276  23.930  1.00  0.00     0.347 HD
ATOM     14  C   UNL A   1      36.062  23.620  25.575  1.00  0.00    -0.006 A 
ATOM     15  N   UNL A   1      36.833  21.653  24.927  1.00  0.00    -0.353 N 
ATOM     16  C   UNL A   1      35.053  24.668  25.827  1.00  0.00     0.114 C 
ATOM     17  C   UNL A   1      37.400  23.541  26.002  1.00  0.00     0.003 A 
ATOM     18  C   UNL A   1      37.869  22.290  25.603  1.00  0.00     0.046 A 
ATOM     19  H   UNL A   1      36.894  20.763  24.511  1.00  0.00     0.166 HD
ATOM     20  C   UNL A   1      38.236  24.411  26.726  1.00  0.00     0.010 A 
ATOM     21  C   UNL A   1      39.168  21.867  25.918  1.00  0.00     0.026 A 
ATOM     22  C   UNL A   1      39.530  24.002  27.044  1.00  0.00     0.001 A 
ATOM     23  C   UNL A   1      39.985  22.747  26.647  1.00  0.00     0.002 A 
BRANCH   9  24
ATOM     24  C   UNL A   1      33.674  20.851  24.629  1.00  0.00     0.019 A 
ATOM     25  C   UNL A   1      32.860  17.527  22.893  1.00  0.00     0.044 C 
ATOM     26  C   UNL A   1      32.996  18.583  23.949  1.00  0.00    -0.051 A 
ATOM     27  C   UNL A   1      32.748  18.258  25.281  1.00  0.00     0.004 A 
ATOM     28  C   UNL A   1      33.468  19.868  23.635  1.00  0.00     0.014 A 
ATOM     29  C   UNL A   1      32.938  19.207  26.280  1.00  0.00     0.004 A 
ATOM     30  C   UNL A   1      33.404  20.497  25.980  1.00  0.00    -0.042 A 
ATOM     31  C   UNL A   1      33.742  21.371  27.166  1.00  0.00     0.045 C 
ENDBRANCH   9  24
ENDBRANCH   5   8
ENDBRANCH   3   4
ENDBRANCH   2   3
ENDBRANCH   1   2
BRANCH   1  32
ATOM     32  C   UNL A   1      32.951  29.852  27.244  1.00  0.00     0.116 C 
BRANCH  32  33
ATOM     33  N   UNL A   1      33.400  31.250  27.373  1.00  0.00    -0.352 N 
ATOM     34  C   UNL A   1      34.527  31.791  28.004  1.00  0.00     0.251 C 
ATOM     35  H   UNL A   1      32.811  31.912  26.946  1.00  0.00     0.163 HD
ATOM     36  O   UNL A   1      34.519  32.943  28.396  1.00  0.00    -0.269 OA
BRANCH  34  37
ATOM     37  C   UNL A   1      35.757  30.974  28.128  1.00  0.00     0.039 A 
ATOM     38  C   UNL A   1      35.961  29.678  27.659  1.00  0.00     0.014 A 
ATOM     39  C   UNL A   1      36.747  31.535  28.885  1.00  0.00     0.014 A 
ATOM     40  C   UNL A   1      37.167  29.029  27.983  1.00  0.00     0.010 A 
ATOM     41  C   UNL A   1      38.021  31.116  28.704  1.00  0.00     0.010 A 
ATOM     42  C   UNL A   1      38.201  29.771  28.561  1.00  0.00    -0.014 A 
BRANCH  42  43
ATOM     43  C   UNL A   1      39.538  29.297  28.875  1.00  0.00     0.031 A 
ATOM     44  C   UNL A   1      39.774  29.173  30.325  1.00  0.00     0.074 A 
ATOM     45  C   UNL A   1      40.358  28.704  27.974  1.00  0.00     0.049 A 
ATOM     46  N   UNL A   1      40.365  30.027  31.089  1.00  0.00    -0.248 NA
ATOM     47  C   UNL A   1      39.078  28.096  31.051  1.00  0.00     0.031 C 
ATOM     48  C   UNL A   1      40.096  28.349  26.570  1.00  0.00     0.029 A 
ATOM     49  N   UNL A   1      41.596  28.178  28.176  1.00  0.00    -0.354 N 
ATOM     50  C   UNL A   1      40.361  29.442  32.346  1.00  0.00     0.074 A 
ATOM     51  C   UNL A   1      39.318  28.450  32.315  1.00  0.00     0.031 C 
ATOM     52  C   UNL A   1      41.041  27.480  26.134  1.00  0.00     0.029 A 
ATOM     53  C   UNL A   1      42.058  27.341  27.164  1.00  0.00     0.049 A 
ATOM     54  H   UNL A   1      42.128  28.374  28.981  1.00  0.00     0.167 HD
ATOM     55  C   UNL A   1      41.424  29.571  33.187  1.00  0.00     0.031 A 
ATOM     56  C   UNL A   1      43.166  26.552  27.209  1.00  0.00     0.031 A 
ATOM     57  C   UNL A   1      42.372  30.543  32.690  1.00  0.00     0.049 A 
ATOM     58  C   UNL A   1      44.037  27.088  28.288  1.00  0.00     0.074 A 
ATOM     59  C   UNL A   1      42.290  31.867  32.302  1.00  0.00     0.029 A 
ATOM     60  N   UNL A   1      43.518  30.051  32.102  1.00  0.00    -0.354 N 
ATOM     61  N   UNL A   1      44.589  28.269  28.242  1.00  0.00    -0.248 NA
ATOM     62  C   UNL A   1      43.884  26.525  29.621  1.00  0.00     0.031 C 
ATOM     63  C   UNL A   1      43.090  31.955  31.124  1.00  0.00     0.029 A 
ATOM     64  C   UNL A   1      43.695  30.713  30.914  1.00  0.00     0.049 A 
ATOM     65  H   UNL A   1      44.105  29.351  32.470  1.00  0.00     0.167 HD
ATOM     66  C   UNL A   1      44.431  28.783  29.523  1.00  0.00     0.074 A 
ATOM     67  C   UNL A   1      44.073  27.629  30.350  1.00  0.00     0.031 C 
ATOM     68  C   UNL A   1      44.308  30.126  29.739  1.00  0.00     0.031 A 
BRANCH  55  69
ATOM     69  C   UNL A   1      41.819  28.527  34.205  1.00  0.00    -0.014 A 
ATOM     70  C   UNL A   1      41.883  28.905  35.559  1.00  0.00     0.010 A 
ATOM     71  C   UNL A   1      42.363  27.269  33.868  1.00  0.00     0.010 A 
ATOM     72  C   UNL A   1      42.516  28.097  36.511  1.00  0.00     0.020 A 
ATOM     73  C   UNL A   1      42.953  26.434  34.816  1.00  0.00     0.020 A 
ATOM     74  C   UNL A   1      43.055  26.869  36.128  1.00  0.00     0.054 A 
BRANCH  74  75
ATOM     75  S   UNL A   1      43.943  25.872  37.346  1.00  0.00     0.124 S 
ATOM     76  O   UNL A   1      45.333  26.194  37.040  1.00  0.00    -0.237 OA
ATOM     77  O   UNL A   1      43.430  26.400  38.607  1.00  0.00    -0.237 OA
ATOM     78  O   UNL A   1      43.530  24.505  37.036  1.00  0.00    -0.744 OA
ENDBRANCH  74  75
ENDBRANCH  55  69
BRANCH  56  79
ATOM     79  C   UNL A   1      43.304  25.165  26.692  1.00  0.00    -0.014 A 
ATOM     80  C   UNL A   1      43.290  24.883  25.311  1.00  0.00     0.010 A 
ATOM     81  C   UNL A   1      43.737  24.143  27.561  1.00  0.00     0.010 A 
ATOM     82  C   UNL A   1      43.720  23.634  24.822  1.00  0.00     0.020 A 
ATOM     83  C   UNL A   1      44.177  22.905  27.081  1.00  0.00     0.020 A 
ATOM     84  C   UNL A   1      44.179  22.659  25.712  1.00  0.00     0.054 A 
BRANCH  84  85
ATOM     85  S   UNL A   1      44.763  21.060  25.076  1.00  0.00     0.124 S 
ATOM     86  O   UNL A   1      44.613  21.225  23.633  1.00  0.00    -0.237 OA
ATOM     87  O   UNL A   1      46.136  21.008  25.568  1.00  0.00    -0.237 OA
ATOM     88  O   UNL A   1      43.849  20.091  25.679  1.00  0.00    -0.744 OA
ENDBRANCH  84  85
ENDBRANCH  56  79
BRANCH  68  89
ATOM     89  C   UNL A   1      44.623  31.077  28.602  1.00  0.00    -0.014 A 
ATOM     90  C   UNL A   1      43.818  31.236  27.455  1.00  0.00     0.010 A 
ATOM     91  C   UNL A   1      45.702  31.958  28.784  1.00  0.00     0.010 A 
ATOM     92  C   UNL A   1      44.105  32.235  26.508  1.00  0.00     0.020 A 
ATOM     93  C   UNL A   1      45.983  32.964  27.857  1.00  0.00     0.020 A 
ATOM     94  C   UNL A   1      45.188  33.094  26.717  1.00  0.00     0.054 A 
BRANCH  94  95
ATOM     95  S   UNL A   1      45.539  34.408  25.515  1.00  0.00     0.124 S 
ATOM     96  O   UNL A   1      46.983  34.299  25.337  1.00  0.00    -0.237 OA
ATOM     97  O   UNL A   1      44.731  34.019  24.361  1.00  0.00    -0.237 OA
ATOM     98  O   UNL A   1      45.090  35.626  26.190  1.00  0.00    -0.744 OA
ENDBRANCH  94  95
ENDBRANCH  68  89
ENDBRANCH  42  43
ENDBRANCH  34  37
ENDBRANCH  32  33
ENDBRANCH   1  32
TORSDOF 15
ENDMDL
MODEL 2
REMARK VINA RESULT:     -13.0      3.284      7.917
REMARK SMILES Cc1ccc(C)c([C@H]2[NH2+][C@@H](C(=O)NCCCCNC(=O)c3ccc(-c4c5nc(c(-c6ccc(S(=O)(=O)[O-])cc6)c6ccc([nH]6)c(-c6ccc(S(=O)(=O)[O-])cc6)c6nc(c(-c7ccc(S(=O)(=O)[O-])cc7)c7ccc4[nH]7)C=C6)C=C5)cc3)Cc3c2[nH]c2ccccc32)c1
REMARK SMILES IDX 16 1 15 2 14 3 13 4 11 5 12 6 10 8 8 9 9 10 83 11 82 14
REMARK SMILES IDX 84 15 81 16 90 17 85 18 89 20 86 21 88 22 87 23 7 24 1 25
REMARK SMILES IDX 2 26 3 27 91 28 4 29 5 30 6 31 17 32 18 33 19 34 20 36 21 37
REMARK SMILES IDX 22 38 80 39 23 40 79 41 24 42 25 43 26 44 73 45 27 46 78 47
REMARK SMILES IDX 72 48 74 49 28 50 77 51 71 52 70 53 29 55 59 56 40 57 58 58
REMARK SMILES IDX 41 59 44 60 57 61 75 62 42 63 43 64 56 66 76 67 45 68 30 69
REMARK SMILES IDX 31 70 39 71 32 72 38 73 33 74 34 75 35 76 36 77 37 78 60 79
REMARK SMILES IDX 61 80 69 81 62 82 68 83 63 84 64 85 65 86 66 87 67 88 46 89
REMARK SMILES IDX 47 90 55 91 48 92 54 93 49 94 50 95 51 96 52 97 53 98
REMARK H PARENT 13 7 9 12 9 13 84 19 18 35 74 54 44 65
REMARK Flexibility Score: inf
ROOT
ATOM      1  C   UNL A   1      31.273  27.140  26.994  1.00  0.00     0.023 C 
ENDROOT
BRANCH   1   2
ATOM      2  C   UNL A   1      30.891  26.914  25.523  1.00  0.00     0.023 C 
BRANCH   2   3
ATOM      3  C   UNL A   1      29.802  25.860  25.311  1.00  0.00     0.116 C 
BRANCH   3   4
ATOM      4  N   UNL A   1      29.854  24.780  26.263  1.00  0.00    -0.351 N 
ATOM      5  C   UNL A   1      30.712  23.765  26.510  1.00  0.00     0.278 C 
ATOM      6  O   UNL A   1      30.390  23.032  27.457  1.00  0.00    -0.268 OA
ATOM      7  H   UNL A   1      29.084  24.780  26.876  1.00  0.00     0.163 HD
BRANCH   5   8
ATOM      8  C   UNL A   1      32.042  23.492  25.778  1.00  0.00     0.277 C 
ATOM      9  C   UNL A   1      32.989  21.822  24.164  1.00  0.00     0.262 C 
ATOM     10  N   UNL A   1      31.909  22.178  25.114  1.00  0.00    -0.325 N 
ATOM     11  C   UNL A   1      34.324  22.321  24.694  1.00  0.00     0.083 A 
ATOM     12  H   UNL A   1      31.883  21.462  25.840  1.00  0.00     0.347 HD
ATOM     13  H   UNL A   1      31.058  22.236  24.554  1.00  0.00     0.347 HD
ATOM     14  C   UNL A   1      34.479  23.161  25.778  1.00  0.00    -0.006 A 
ATOM     15  N   UNL A   1      35.583  22.091  24.190  1.00  0.00    -0.353 N 
ATOM     16  C   UNL A   1      33.319  23.537  26.609  1.00  0.00     0.114 C 
ATOM     17  C   UNL A   1      35.845  23.444  25.963  1.00  0.00     0.003 A 
ATOM     18  C   UNL A   1      36.530  22.749  24.967  1.00  0.00     0.046 A 
ATOM     19  H   UNL A   1      35.784  21.543  23.397  1.00  0.00     0.166 HD
ATOM     20  C   UNL A   1      36.555  24.198  26.915  1.00  0.00     0.010 A 
ATOM     21  C   UNL A   1      37.931  22.777  24.895  1.00  0.00     0.026 A 
ATOM     22  C   UNL A   1      37.947  24.234  26.853  1.00  0.00     0.001 A 
ATOM     23  C   UNL A   1      38.622  23.530  25.859  1.00  0.00     0.002 A 
BRANCH   9  24
ATOM     24  C   UNL A   1      32.846  20.319  23.902  1.00  0.00     0.019 A 
ATOM     25  C   UNL A   1      32.912  17.044  25.901  1.00  0.00     0.044 C 
ATOM     26  C   UNL A   1      32.766  18.014  24.767  1.00  0.00    -0.051 A 
ATOM     27  C   UNL A   1      32.242  17.577  23.552  1.00  0.00     0.004 A 
ATOM     28  C   UNL A   1      33.051  19.378  24.937  1.00  0.00     0.014 A 
ATOM     29  C   UNL A   1      32.034  18.479  22.515  1.00  0.00     0.004 A 
ATOM     30  C   UNL A   1      32.320  19.845  22.668  1.00  0.00    -0.042 A 
ATOM     31  C   UNL A   1      31.880  20.745  21.537  1.00  0.00     0.045 C 
ENDBRANCH   9  24
ENDBRANCH   5   8
ENDBRANCH   3   4
ENDBRANCH   2   3
ENDBRANCH   1   2
BRANCH   1  32
ATOM     32  C   UNL A   1      32.132  28.379  27.301  1.00  0.00     0.116 C 
BRANCH  32  33
ATOM     33  N   UNL A   1      31.779  29.580  26.524  1.00  0.00    -0.352 N 
ATOM     34  C   UNL A   1      32.136  30.921  26.705  1.00  0.00     0.251 C 
ATOM     35  H   UNL A   1      31.194  29.411  25.750  1.00  0.00     0.163 HD
ATOM     36  O   UNL A   1      31.429  31.811  26.269  1.00  0.00    -0.269 OA
BRANCH  34  37
ATOM     37  C   UNL A   1      33.419  31.252  27.369  1.00  0.00     0.039 A 
ATOM     38  C   UNL A   1      33.777  32.464  27.956  1.00  0.00     0.014 A 
ATOM     39  C   UNL A   1      34.378  30.282  27.287  1.00  0.00     0.014 A 
ATOM     40  C   UNL A   1      35.093  32.616  28.432  1.00  0.00     0.010 A 
ATOM     41  C   UNL A   1      35.379  30.277  28.197  1.00  0.00     0.010 A 
ATOM     42  C   UNL A   1      35.919  31.492  28.509  1.00  0.00    -0.014 A 
BRANCH  42  43
ATOM     43  C   UNL A   1      37.264  31.438  29.056  1.00  0.00     0.031 A 
ATOM     44  C   UNL A   1      37.931  30.147  28.810  1.00  0.00     0.074 A 
ATOM     45  C   UNL A   1      37.967  32.534  29.434  1.00  0.00     0.049 A 
ATOM     46  N   UNL A   1      38.024  29.155  29.628  1.00  0.00    -0.248 NA
ATOM     47  C   UNL A   1      38.337  29.829  27.429  1.00  0.00     0.031 C 
ATOM     48  C   UNL A   1      37.602  33.956  29.329  1.00  0.00     0.029 A 
ATOM     49  N   UNL A   1      39.242  32.600  29.902  1.00  0.00    -0.354 N 
ATOM     50  C   UNL A   1      38.760  28.199  28.946  1.00  0.00     0.074 A 
ATOM     51  C   UNL A   1      38.646  28.536  27.551  1.00  0.00     0.031 C 
ATOM     52  C   UNL A   1      38.705  34.724  29.504  1.00  0.00     0.029 A 
ATOM     53  C   UNL A   1      39.814  33.868  29.890  1.00  0.00     0.049 A 
ATOM     54  H   UNL A   1      39.727  31.806  30.226  1.00  0.00     0.167 HD
ATOM     55  C   UNL A   1      39.676  27.423  29.589  1.00  0.00     0.031 A 
ATOM     56  C   UNL A   1      41.121  34.169  30.124  1.00  0.00     0.031 A 
ATOM     57  C   UNL A   1      39.582  27.579  31.023  1.00  0.00     0.049 A 
ATOM     58  C   UNL A   1      41.708  33.014  30.853  1.00  0.00     0.074 A 
ATOM     59  C   UNL A   1      38.562  27.455  31.948  1.00  0.00     0.029 A 
ATOM     60  N   UNL A   1      40.542  28.363  31.628  1.00  0.00    -0.354 N 
ATOM     61  N   UNL A   1      41.330  32.655  32.049  1.00  0.00    -0.248 NA
ATOM     62  C   UNL A   1      42.347  31.972  30.064  1.00  0.00     0.031 C 
ATOM     63  C   UNL A   1      38.734  28.559  32.835  1.00  0.00     0.029 A 
ATOM     64  C   UNL A   1      39.900  29.236  32.468  1.00  0.00     0.049 A 
ATOM     65  H   UNL A   1      41.515  28.305  31.483  1.00  0.00     0.167 HD
ATOM     66  C   UNL A   1      41.258  31.269  31.995  1.00  0.00     0.074 A 
ATOM     67  C   UNL A   1      41.983  30.901  30.777  1.00  0.00     0.031 C 
ATOM     68  C   UNL A   1      40.372  30.573  32.768  1.00  0.00     0.031 A 
BRANCH  55  69
ATOM     69  C   UNL A   1      40.921  26.876  28.930  1.00  0.00    -0.014 A 
ATOM     70  C   UNL A   1      41.957  27.774  28.611  1.00  0.00     0.010 A 
ATOM     71  C   UNL A   1      41.017  25.575  28.394  1.00  0.00     0.010 A 
ATOM     72  C   UNL A   1      42.997  27.407  27.748  1.00  0.00     0.020 A 
ATOM     73  C   UNL A   1      42.073  25.183  27.572  1.00  0.00     0.020 A 
ATOM     74  C   UNL A   1      43.041  26.114  27.227  1.00  0.00     0.054 A 
BRANCH  74  75
ATOM     75  S   UNL A   1      44.340  25.676  26.049  1.00  0.00     0.124 S 
ATOM     76  O   UNL A   1      44.942  26.975  25.772  1.00  0.00    -0.237 OA
ATOM     77  O   UNL A   1      45.157  24.748  26.826  1.00  0.00    -0.237 OA
ATOM     78  O   UNL A   1      43.605  25.072  24.940  1.00  0.00    -0.744 OA
ENDBRANCH  74  75
ENDBRANCH  55  69
BRANCH  56  79
ATOM     79  C   UNL A   1      41.959  35.162  29.402  1.00  0.00    -0.014 A 
ATOM     80  C   UNL A   1      41.561  35.712  28.167  1.00  0.00     0.010 A 
ATOM     81  C   UNL A   1      43.030  35.782  30.076  1.00  0.00     0.010 A 
ATOM     82  C   UNL A   1      42.195  36.856  27.644  1.00  0.00     0.020 A 
ATOM     83  C   UNL A   1      43.656  36.927  29.569  1.00  0.00     0.020 A 
ATOM     84  C   UNL A   1      43.228  37.467  28.361  1.00  0.00     0.054 A 
BRANCH  84  85
ATOM     85  S   UNL A   1      44.023  38.961  27.701  1.00  0.00     0.124 S 
ATOM     86  O   UNL A   1      42.907  39.649  27.055  1.00  0.00    -0.237 OA
ATOM     87  O   UNL A   1      44.548  39.598  28.905  1.00  0.00    -0.237 OA
ATOM     88  O   UNL A   1      45.033  38.440  26.781  1.00  0.00    -0.744 OA
ENDBRANCH  84  85
ENDBRANCH  56  79
BRANCH  68  89
ATOM     89  C   UNL A   1      39.657  31.300  33.888  1.00  0.00    -0.014 A 
ATOM     90  C   UNL A   1      38.455  32.020  33.727  1.00  0.00     0.010 A 
ATOM     91  C   UNL A   1      40.149  31.111  35.191  1.00  0.00     0.010 A 
ATOM     92  C   UNL A   1      37.782  32.554  34.839  1.00  0.00     0.020 A 
ATOM     93  C   UNL A   1      39.477  31.624  36.303  1.00  0.00     0.020 A 
ATOM     94  C   UNL A   1      38.300  32.351  36.122  1.00  0.00     0.054 A 
BRANCH  94  95
ATOM     95  S   UNL A   1      37.413  33.008  37.564  1.00  0.00     0.124 S 
ATOM     96  O   UNL A   1      38.361  33.975  38.108  1.00  0.00    -0.237 OA
ATOM     97  O   UNL A   1      36.203  33.577  36.972  1.00  0.00    -0.237 OA
ATOM     98  O   UNL A   1      37.185  31.829  38.400  1.00  0.00    -0.744 OA
ENDBRANCH  94  95
ENDBRANCH  68  89
ENDBRANCH  42  43
ENDBRANCH  34  37
ENDBRANCH  32  33
ENDBRANCH   1  32
TORSDOF 15
ENDMDL
MODEL 3
REMARK VINA RESULT:     -12.6      2.353      4.726
REMARK SMILES Cc1ccc(C)c([C@H]2[NH2+][C@@H](C(=O)NCCCCNC(=O)c3ccc(-c4c5nc(c(-c6ccc(S(=O)(=O)[O-])cc6)c6ccc([nH]6)c(-c6ccc(S(=O)(=O)[O-])cc6)c6nc(c(-c7ccc(S(=O)(=O)[O-])cc7)c7ccc4[nH]7)C=C6)C=C5)cc3)Cc3c2[nH]c2ccccc32)c1
REMARK SMILES IDX 16 1 15 2 14 3 13 4 11 5 12 6 10 8 8 9 9 10 83 11 82 14
REMARK SMILES IDX 84 15 81 16 90 17 85 18 89 20 86 21 88 22 87 23 7 24 1 25
REMARK SMILES IDX 2 26 3 27 91 28 4 29 5 30 6 31 17 32 18 33 19 34 20 36 21 37
REMARK SMILES IDX 22 38 80 39 23 40 79 41 24 42 25 43 26 44 73 45 27 46 78 47
REMARK SMILES IDX 72 48 74 49 28 50 77 51 71 52 70 53 29 55 59 56 40 57 58 58
REMARK SMILES IDX 41 59 44 60 57 61 75 62 42 63 43 64 56 66 76 67 45 68 30 69
REMARK SMILES IDX 31 70 39 71 32 72 38 73 33 74 34 75 35 76 36 77 37 78 60 79
REMARK SMILES IDX 61 80 69 81 62 82 68 83 63 84 64 85 65 86 66 87 67 88 46 89
REMARK SMILES IDX 47 90 55 91 48 92 54 93 49 94 50 95 51 96 52 97 53 98
REMARK H PARENT 13 7 9 12 9 13 84 19 18 35 74 54 44 65
REMARK Flexibility Score: inf
ROOT
ATOM      1  C   UNL A   1      34.422  33.714  29.574  1.00  0.00     0.023 C 
ENDROOT
BRANCH   1   2
ATOM      2  C   UNL A   1      34.542  33.345  28.088  1.00  0.00     0.023 C 
BRANCH   2   3
ATOM      3  C   UNL A   1      33.859  32.029  27.710  1.00  0.00     0.116 C 
BRANCH   3   4
ATOM      4  N   UNL A   1      34.773  30.923  27.577  1.00  0.00    -0.351 N 
ATOM      5  C   UNL A   1      34.660  29.632  27.190  1.00  0.00     0.278 C 
ATOM      6  O   UNL A   1      35.723  28.992  27.207  1.00  0.00    -0.268 OA
ATOM      7  H   UNL A   1      35.694  31.163  27.827  1.00  0.00     0.163 HD
BRANCH   5   8
ATOM      8  C   UNL A   1      33.380  28.935  26.687  1.00  0.00     0.277 C 
ATOM      9  C   UNL A   1      32.529  26.603  26.327  1.00  0.00     0.262 C 
ATOM     10  N   UNL A   1      33.687  27.494  26.576  1.00  0.00    -0.325 N 
ATOM     11  C   UNL A   1      31.546  27.288  25.391  1.00  0.00     0.083 A 
ATOM     12  H   UNL A   1      34.345  27.372  25.806  1.00  0.00     0.347 HD
ATOM     13  H   UNL A   1      34.056  27.218  27.486  1.00  0.00     0.347 HD
ATOM     14  C   UNL A   1      31.614  28.612  25.006  1.00  0.00    -0.006 A 
ATOM     15  N   UNL A   1      30.415  26.766  24.810  1.00  0.00    -0.353 N 
ATOM     16  C   UNL A   1      32.770  29.447  25.387  1.00  0.00     0.114 C 
ATOM     17  C   UNL A   1      30.528  28.914  24.165  1.00  0.00     0.003 A 
ATOM     18  C   UNL A   1      29.790  27.738  24.035  1.00  0.00     0.046 A 
ATOM     19  H   UNL A   1      30.093  25.843  24.926  1.00  0.00     0.166 HD
ATOM     20  C   UNL A   1      30.134  30.075  23.474  1.00  0.00     0.010 A 
ATOM     21  C   UNL A   1      28.653  27.680  23.215  1.00  0.00     0.026 A 
ATOM     22  C   UNL A   1      29.006  30.030  22.657  1.00  0.00     0.001 A 
ATOM     23  C   UNL A   1      28.280  28.848  22.529  1.00  0.00     0.002 A 
BRANCH   9  24
ATOM     24  C   UNL A   1      33.114  25.258  25.883  1.00  0.00     0.019 A 
ATOM     25  C   UNL A   1      36.526  23.803  24.901  1.00  0.00     0.044 C 
ATOM     26  C   UNL A   1      35.069  23.905  25.238  1.00  0.00    -0.051 A 
ATOM     27  C   UNL A   1      34.319  22.743  25.406  1.00  0.00     0.004 A 
ATOM     28  C   UNL A   1      34.467  25.149  25.490  1.00  0.00     0.014 A 
ATOM     29  C   UNL A   1      32.985  22.820  25.788  1.00  0.00     0.004 A 
ATOM     30  C   UNL A   1      32.368  24.057  26.037  1.00  0.00    -0.042 A 
ATOM     31  C   UNL A   1      30.975  23.997  26.620  1.00  0.00     0.045 C 
ENDBRANCH   9  24
ENDBRANCH   5   8
ENDBRANCH   3   4
ENDBRANCH   2   3
ENDBRANCH   1   2
BRANCH   1  32
ATOM     32  C   UNL A   1      34.704  32.593  30.589  1.00  0.00     0.116 C 
BRANCH  32  33
ATOM     33  N   UNL A   1      35.144  33.062  31.915  1.00  0.00    -0.352 N 
ATOM     34  C   UNL A   1      35.919  32.431  32.895  1.00  0.00     0.251 C 
ATOM     35  H   UNL A   1      34.842  33.969  32.151  1.00  0.00     0.163 HD
ATOM     36  O   UNL A   1      35.818  32.756  34.064  1.00  0.00    -0.269 OA
BRANCH  34  37
ATOM     37  C   UNL A   1      36.918  31.413  32.493  1.00  0.00     0.039 A 
ATOM     38  C   UNL A   1      36.728  30.036  32.396  1.00  0.00     0.014 A 
ATOM     39  C   UNL A   1      38.185  31.890  32.308  1.00  0.00     0.014 A 
ATOM     40  C   UNL A   1      37.841  29.224  32.109  1.00  0.00     0.010 A 
ATOM     41  C   UNL A   1      39.042  31.182  31.536  1.00  0.00     0.010 A 
ATOM     42  C   UNL A   1      39.036  29.828  31.712  1.00  0.00    -0.014 A 
BRANCH  42  43
ATOM     43  C   UNL A   1      40.252  29.154  31.289  1.00  0.00     0.031 A 
ATOM     44  C   UNL A   1      41.149  28.834  32.415  1.00  0.00     0.074 A 
ATOM     45  C   UNL A   1      40.404  28.567  30.077  1.00  0.00     0.049 A 
ATOM     46  N   UNL A   1      42.174  29.512  32.803  1.00  0.00    -0.248 NA
ATOM     47  C   UNL A   1      40.732  27.779  33.355  1.00  0.00     0.031 C 
ATOM     48  C   UNL A   1      39.427  28.413  28.988  1.00  0.00     0.029 A 
ATOM     49  N   UNL A   1      41.471  27.867  29.606  1.00  0.00    -0.354 N 
ATOM     50  C   UNL A   1      42.694  28.792  33.867  1.00  0.00     0.074 A 
ATOM     51  C   UNL A   1      41.621  27.952  34.335  1.00  0.00     0.031 C 
ATOM     52  C   UNL A   1      39.870  27.486  28.104  1.00  0.00     0.029 A 
ATOM     53  C   UNL A   1      41.223  27.100  28.471  1.00  0.00     0.049 A 
ATOM     54  H   UNL A   1      42.355  27.900  30.036  1.00  0.00     0.167 HD
ATOM     55  C   UNL A   1      44.038  28.684  34.058  1.00  0.00     0.031 A 
ATOM     56  C   UNL A   1      42.056  26.175  27.922  1.00  0.00     0.031 A 
ATOM     57  C   UNL A   1      44.765  29.578  33.183  1.00  0.00     0.049 A 
ATOM     58  C   UNL A   1      43.423  26.466  28.429  1.00  0.00     0.074 A 
ATOM     59  C   UNL A   1      44.727  30.937  32.936  1.00  0.00     0.029 A 
ATOM     60  N   UNL A   1      45.368  29.013  32.079  1.00  0.00    -0.354 N 
ATOM     61  N   UNL A   1      44.071  27.564  28.149  1.00  0.00    -0.248 NA
ATOM     62  C   UNL A   1      43.857  25.778  29.635  1.00  0.00     0.031 C 
ATOM     63  C   UNL A   1      44.841  31.056  31.518  1.00  0.00     0.029 A 
ATOM     64  C   UNL A   1      45.043  29.779  30.989  1.00  0.00     0.049 A 
ATOM     65  H   UNL A   1      45.932  28.206  32.075  1.00  0.00     0.167 HD
ATOM     66  C   UNL A   1      44.656  27.943  29.351  1.00  0.00     0.074 A 
ATOM     67  C   UNL A   1      44.565  26.758  30.205  1.00  0.00     0.031 C 
ATOM     68  C   UNL A   1      44.886  29.257  29.645  1.00  0.00     0.031 A 
BRANCH  55  69
ATOM     69  C   UNL A   1      44.702  27.489  34.699  1.00  0.00    -0.014 A 
ATOM     70  C   UNL A   1      44.735  26.278  33.980  1.00  0.00     0.010 A 
ATOM     71  C   UNL A   1      45.073  27.432  36.059  1.00  0.00     0.010 A 
ATOM     72  C   UNL A   1      45.058  25.069  34.607  1.00  0.00     0.020 A 
ATOM     73  C   UNL A   1      45.443  26.242  36.682  1.00  0.00     0.020 A 
ATOM     74  C   UNL A   1      45.401  25.060  35.959  1.00  0.00     0.054 A 
BRANCH  74  75
ATOM     75  S   UNL A   1      45.735  23.484  36.779  1.00  0.00     0.124 S 
ATOM     76  O   UNL A   1      47.178  23.358  36.606  1.00  0.00    -0.237 OA
ATOM     77  O   UNL A   1      45.278  23.745  38.141  1.00  0.00    -0.237 OA
ATOM     78  O   UNL A   1      44.924  22.529  36.028  1.00  0.00    -0.744 OA
ENDBRANCH  74  75
ENDBRANCH  55  69
BRANCH  56  79
ATOM     79  C   UNL A   1      41.684  24.850  27.358  1.00  0.00    -0.014 A 
ATOM     80  C   UNL A   1      42.564  24.120  26.534  1.00  0.00     0.010 A 
ATOM     81  C   UNL A   1      40.557  24.174  27.867  1.00  0.00     0.010 A 
ATOM     82  C   UNL A   1      42.335  22.758  26.258  1.00  0.00     0.020 A 
ATOM     83  C   UNL A   1      40.331  22.819  27.608  1.00  0.00     0.020 A 
ATOM     84  C   UNL A   1      41.227  22.111  26.813  1.00  0.00     0.054 A 
BRANCH  84  85
ATOM     85  S   UNL A   1      40.953  20.346  26.481  1.00  0.00     0.124 S 
ATOM     86  O   UNL A   1      41.058  19.758  27.814  1.00  0.00    -0.237 OA
ATOM     87  O   UNL A   1      39.619  20.341  25.889  1.00  0.00    -0.237 OA
ATOM     88  O   UNL A   1      42.039  19.991  25.569  1.00  0.00    -0.744 OA
ENDBRANCH  84  85
ENDBRANCH  56  79
BRANCH  68  89
ATOM     89  C   UNL A   1      44.753  30.284  28.540  1.00  0.00    -0.014 A 
ATOM     90  C   UNL A   1      43.582  31.027  28.283  1.00  0.00     0.010 A 
ATOM     91  C   UNL A   1      45.919  30.617  27.831  1.00  0.00     0.010 A 
ATOM     92  C   UNL A   1      43.578  32.057  27.327  1.00  0.00     0.020 A 
ATOM     93  C   UNL A   1      45.929  31.650  26.892  1.00  0.00     0.020 A 
ATOM     94  C   UNL A   1      44.755  32.361  26.636  1.00  0.00     0.054 A 
BRANCH  94  95
ATOM     95  S   UNL A   1      44.764  33.715  25.427  1.00  0.00     0.124 S 
ATOM     96  O   UNL A   1      44.309  33.056  24.207  1.00  0.00    -0.237 OA
ATOM     97  O   UNL A   1      43.830  34.678  26.008  1.00  0.00    -0.237 OA
ATOM     98  O   UNL A   1      46.159  34.157  25.406  1.00  0.00    -0.744 OA
ENDBRANCH  94  95
ENDBRANCH  68  89
ENDBRANCH  42  43
ENDBRANCH  34  37
ENDBRANCH  32  33
ENDBRANCH   1  32
TORSDOF 15
ENDMDL
