MODEL 1
REMARK VINA RESULT:     -11.4      0.000      0.000
REMARK SMILES CCc1cc(C)c2c(c1)C=C(C(=O)NCCCCNC(=O)c1ccc(-c3c4nc(c(-c5ccc(S(=O)(=O)[O-])cc5)c5ccc([nH]5)c(-c5ccc(S(=O)(=O)[O-])cc5)c5nc(c(-c6ccc(S(=O)(=O)[O-])cc6)c6ccc3[nH]6)C=C5)C=C4)cc1)[C@@H](C(F)(F)F)O2
REMARK SMILES IDX 17 1 16 2 15 3 14 4 12 5 13 6 11 8 3 9 4 10 9 11 5 12 8 13
REMARK SMILES IDX 6 14 7 15 10 16 87 17 82 18 2 19 1 20 83 21 84 22 85 23
REMARK SMILES IDX 86 24 18 25 19 26 20 27 21 29 22 30 23 31 81 32 24 33 80 34
REMARK SMILES IDX 25 35 26 36 27 37 74 38 28 39 79 40 73 41 75 42 29 43 78 44
REMARK SMILES IDX 72 45 71 46 30 48 60 49 41 50 59 51 42 52 45 53 58 54 76 55
REMARK SMILES IDX 43 56 44 57 57 59 77 60 46 61 31 62 32 63 40 64 33 65 39 66
REMARK SMILES IDX 34 67 35 68 36 69 37 70 38 71 61 72 62 73 70 74 63 75 69 76
REMARK SMILES IDX 64 77 65 78 66 79 67 80 68 81 47 82 48 83 56 84 49 85 55 86
REMARK SMILES IDX 50 87 51 88 52 89 53 90 54 91
REMARK H PARENT 14 7 19 28 75 47 45 58
REMARK Flexibility Score: inf
ROOT
ATOM      1  C   UNL A   1      33.370  28.815  24.774  1.00  0.00     0.023 C 
ENDROOT
BRANCH   1   2
ATOM      2  C   UNL A   1      33.599  27.522  23.987  1.00  0.00     0.023 C 
BRANCH   2   3
ATOM      3  C   UNL A   1      32.336  26.692  23.775  1.00  0.00     0.116 C 
BRANCH   3   4
ATOM      4  N   UNL A   1      31.734  26.292  25.035  1.00  0.00    -0.352 N 
ATOM      5  C   UNL A   1      31.724  25.188  25.816  1.00  0.00     0.251 C 
ATOM      6  O   UNL A   1      31.042  25.274  26.842  1.00  0.00    -0.270 OA
ATOM      7  H   UNL A   1      31.190  27.014  25.422  1.00  0.00     0.163 HD
BRANCH   5   8
ATOM      8  C   UNL A   1      32.462  23.920  25.531  1.00  0.00     0.067 C 
ATOM      9  C   UNL A   1      36.730  21.628  25.413  1.00  0.00    -0.047 A 
ATOM     10  C   UNL A   1      36.064  20.442  25.051  1.00  0.00     0.011 A 
ATOM     11  C   UNL A   1      35.964  22.771  25.676  1.00  0.00     0.015 A 
ATOM     12  C   UNL A   1      34.667  20.389  24.953  1.00  0.00    -0.008 A 
ATOM     13  C   UNL A   1      34.568  22.737  25.572  1.00  0.00     0.018 A 
ATOM     14  C   UNL A   1      33.979  19.113  24.560  1.00  0.00     0.048 C 
ATOM     15  C   UNL A   1      33.931  21.550  25.208  1.00  0.00     0.130 A 
ATOM     16  C   UNL A   1      33.764  23.919  25.866  1.00  0.00     0.025 C 
ATOM     17  O   UNL A   1      32.567  21.464  25.125  1.00  0.00    -0.475 OA
ATOM     18  C   UNL A   1      31.863  22.711  24.870  1.00  0.00     0.314 C 
BRANCH   9  19
ATOM     19  C   UNL A   1      38.239  21.595  25.491  1.00  0.00     0.032 C 
ATOM     20  C   UNL A   1      38.917  22.717  26.268  1.00  0.00     0.009 C 
ENDBRANCH   9  19
BRANCH  18  21
ATOM     21  C   UNL A   1      31.682  22.890  23.351  1.00  0.00     0.429 C 
ATOM     22  F   UNL A   1      31.678  21.683  22.730  1.00  0.00    -0.167 F 
ATOM     23  F   UNL A   1      30.510  23.488  23.033  1.00  0.00    -0.167 F 
ATOM     24  F   UNL A   1      32.665  23.628  22.787  1.00  0.00    -0.167 F 
ENDBRANCH  18  21
ENDBRANCH   5   8
ENDBRANCH   3   4
ENDBRANCH   2   3
ENDBRANCH   1   2
BRANCH   1  25
ATOM     25  C   UNL A   1      34.036  28.871  26.149  1.00  0.00     0.116 C 
BRANCH  25  26
ATOM     26  N   UNL A   1      33.761  30.100  26.881  1.00  0.00    -0.352 N 
ATOM     27  C   UNL A   1      34.554  30.704  27.825  1.00  0.00     0.251 C 
ATOM     28  H   UNL A   1      32.908  30.548  26.675  1.00  0.00     0.163 HD
ATOM     29  O   UNL A   1      34.178  31.706  28.422  1.00  0.00    -0.269 OA
BRANCH  27  30
ATOM     30  C   UNL A   1      35.858  30.089  28.127  1.00  0.00     0.039 A 
ATOM     31  C   UNL A   1      36.870  30.156  27.167  1.00  0.00     0.014 A 
ATOM     32  C   UNL A   1      36.092  29.543  29.391  1.00  0.00     0.014 A 
ATOM     33  C   UNL A   1      38.152  29.723  27.502  1.00  0.00     0.010 A 
ATOM     34  C   UNL A   1      37.381  29.148  29.733  1.00  0.00     0.010 A 
ATOM     35  C   UNL A   1      38.420  29.244  28.794  1.00  0.00    -0.014 A 
BRANCH  35  36
ATOM     36  C   UNL A   1      39.784  28.823  29.182  1.00  0.00     0.031 A 
ATOM     37  C   UNL A   1      40.670  29.779  29.924  1.00  0.00     0.074 A 
ATOM     38  C   UNL A   1      40.238  27.608  28.819  1.00  0.00     0.049 A 
ATOM     39  N   UNL A   1      41.915  29.629  30.289  1.00  0.00    -0.248 NA
ATOM     40  C   UNL A   1      40.084  31.079  30.286  1.00  0.00     0.031 C 
ATOM     41  C   UNL A   1      39.474  26.604  28.077  1.00  0.00     0.029 A 
ATOM     42  N   UNL A   1      41.459  27.017  29.022  1.00  0.00    -0.354 N 
ATOM     43  C   UNL A   1      42.268  30.818  30.912  1.00  0.00     0.074 A 
ATOM     44  C   UNL A   1      41.117  31.692  30.848  1.00  0.00     0.031 C 
ATOM     45  C   UNL A   1      40.239  25.513  27.901  1.00  0.00     0.029 A 
ATOM     46  C   UNL A   1      41.552  25.751  28.494  1.00  0.00     0.049 A 
ATOM     47  H   UNL A   1      42.198  27.457  29.499  1.00  0.00     0.167 HD
ATOM     48  C   UNL A   1      43.443  31.146  31.498  1.00  0.00     0.031 A 
ATOM     49  C   UNL A   1      42.580  24.881  28.489  1.00  0.00     0.031 A 
ATOM     50  C   UNL A   1      44.580  30.272  31.573  1.00  0.00     0.049 A 
ATOM     51  C   UNL A   1      43.873  25.266  29.148  1.00  0.00     0.074 A 
ATOM     52  C   UNL A   1      45.804  30.505  32.174  1.00  0.00     0.029 A 
ATOM     53  N   UNL A   1      44.630  28.996  31.036  1.00  0.00    -0.354 N 
ATOM     54  N   UNL A   1      44.184  26.390  29.749  1.00  0.00    -0.248 NA
ATOM     55  C   UNL A   1      44.952  24.268  29.136  1.00  0.00     0.031 C 
ATOM     56  C   UNL A   1      46.605  29.374  31.979  1.00  0.00     0.029 A 
ATOM     57  C   UNL A   1      45.865  28.427  31.286  1.00  0.00     0.049 A 
ATOM     58  H   UNL A   1      43.895  28.559  30.548  1.00  0.00     0.167 HD
ATOM     59  C   UNL A   1      45.488  26.228  30.202  1.00  0.00     0.074 A 
ATOM     60  C   UNL A   1      45.907  24.898  29.809  1.00  0.00     0.031 C 
ATOM     61  C   UNL A   1      46.263  27.103  30.886  1.00  0.00     0.031 A 
BRANCH  48  62
ATOM     62  C   UNL A   1      43.547  32.515  32.106  1.00  0.00    -0.014 A 
ATOM     63  C   UNL A   1      44.078  33.588  31.368  1.00  0.00     0.010 A 
ATOM     64  C   UNL A   1      43.086  32.738  33.415  1.00  0.00     0.010 A 
ATOM     65  C   UNL A   1      44.170  34.858  31.941  1.00  0.00     0.020 A 
ATOM     66  C   UNL A   1      43.160  34.012  33.984  1.00  0.00     0.020 A 
ATOM     67  C   UNL A   1      43.711  35.062  33.246  1.00  0.00     0.054 A 
BRANCH  67  68
ATOM     68  S   UNL A   1      43.837  36.727  33.954  1.00  0.00     0.124 S 
ATOM     69  O   UNL A   1      45.211  36.742  34.449  1.00  0.00    -0.237 OA
ATOM     70  O   UNL A   1      43.575  37.582  32.800  1.00  0.00    -0.237 OA
ATOM     71  O   UNL A   1      42.805  36.744  34.989  1.00  0.00    -0.744 OA
ENDBRANCH  67  68
ENDBRANCH  48  62
BRANCH  49  72
ATOM     72  C   UNL A   1      42.404  23.547  27.860  1.00  0.00    -0.014 A 
ATOM     73  C   UNL A   1      42.823  23.331  26.537  1.00  0.00     0.010 A 
ATOM     74  C   UNL A   1      41.875  22.474  28.599  1.00  0.00     0.010 A 
ATOM     75  C   UNL A   1      42.725  22.060  25.964  1.00  0.00     0.020 A 
ATOM     76  C   UNL A   1      41.788  21.199  28.034  1.00  0.00     0.020 A 
ATOM     77  C   UNL A   1      42.218  21.000  26.721  1.00  0.00     0.054 A 
BRANCH  77  78
ATOM     78  S   UNL A   1      42.178  19.345  25.975  1.00  0.00     0.124 S 
ATOM     79  O   UNL A   1      42.696  18.509  27.054  1.00  0.00    -0.237 OA
ATOM     80  O   UNL A   1      40.758  19.179  25.672  1.00  0.00    -0.237 OA
ATOM     81  O   UNL A   1      43.048  19.471  24.809  1.00  0.00    -0.744 OA
ENDBRANCH  77  78
ENDBRANCH  49  72
BRANCH  61  82
ATOM     82  C   UNL A   1      47.642  26.653  31.276  1.00  0.00    -0.014 A 
ATOM     83  C   UNL A   1      48.745  26.912  30.445  1.00  0.00     0.010 A 
ATOM     84  C   UNL A   1      47.847  26.058  32.533  1.00  0.00     0.010 A 
ATOM     85  C   UNL A   1      50.034  26.577  30.865  1.00  0.00     0.020 A 
ATOM     86  C   UNL A   1      49.137  25.736  32.963  1.00  0.00     0.020 A 
ATOM     87  C   UNL A   1      50.223  25.997  32.125  1.00  0.00     0.054 A 
BRANCH  87  88
ATOM     88  S   UNL A   1      51.914  25.632  32.666  1.00  0.00     0.124 S 
ATOM     89  O   UNL A   1      52.153  24.323  32.063  1.00  0.00    -0.237 OA
ATOM     90  O   UNL A   1      52.675  26.737  32.091  1.00  0.00    -0.237 OA
ATOM     91  O   UNL A   1      51.823  25.635  34.125  1.00  0.00    -0.744 OA
ENDBRANCH  87  88
ENDBRANCH  61  82
ENDBRANCH  35  36
ENDBRANCH  27  30
ENDBRANCH  25  26
ENDBRANCH   1  25
TORSDOF 16
ENDMDL
MODEL 2
REMARK VINA RESULT:     -11.2      2.096      4.129
REMARK SMILES CCc1cc(C)c2c(c1)C=C(C(=O)NCCCCNC(=O)c1ccc(-c3c4nc(c(-c5ccc(S(=O)(=O)[O-])cc5)c5ccc([nH]5)c(-c5ccc(S(=O)(=O)[O-])cc5)c5nc(c(-c6ccc(S(=O)(=O)[O-])cc6)c6ccc3[nH]6)C=C5)C=C4)cc1)[C@@H](C(F)(F)F)O2
REMARK SMILES IDX 17 1 16 2 15 3 14 4 12 5 13 6 11 8 3 9 4 10 9 11 5 12 8 13
REMARK SMILES IDX 6 14 7 15 10 16 87 17 82 18 2 19 1 20 83 21 84 22 85 23
REMARK SMILES IDX 86 24 18 25 19 26 20 27 21 29 22 30 23 31 81 32 24 33 80 34
REMARK SMILES IDX 25 35 26 36 27 37 74 38 28 39 79 40 73 41 75 42 29 43 78 44
REMARK SMILES IDX 72 45 71 46 30 48 60 49 41 50 59 51 42 52 45 53 58 54 76 55
REMARK SMILES IDX 43 56 44 57 57 59 77 60 46 61 31 62 32 63 40 64 33 65 39 66
REMARK SMILES IDX 34 67 35 68 36 69 37 70 38 71 61 72 62 73 70 74 63 75 69 76
REMARK SMILES IDX 64 77 65 78 66 79 67 80 68 81 47 82 48 83 56 84 49 85 55 86
REMARK SMILES IDX 50 87 51 88 52 89 53 90 54 91
REMARK H PARENT 14 7 19 28 75 47 45 58
REMARK Flexibility Score: inf
ROOT
ATOM      1  C   UNL A   1      33.483  28.195  25.776  1.00  0.00     0.023 C 
ENDROOT
BRANCH   1   2
ATOM      2  C   UNL A   1      33.926  26.798  25.332  1.00  0.00     0.023 C 
BRANCH   2   3
ATOM      3  C   UNL A   1      34.140  26.663  23.827  1.00  0.00     0.116 C 
BRANCH   3   4
ATOM      4  N   UNL A   1      33.481  25.487  23.290  1.00  0.00    -0.352 N 
ATOM      5  C   UNL A   1      32.217  25.121  22.978  1.00  0.00     0.251 C 
ATOM      6  O   UNL A   1      32.094  23.973  22.539  1.00  0.00    -0.270 OA
ATOM      7  H   UNL A   1      34.123  24.765  23.102  1.00  0.00     0.163 HD
BRANCH   5   8
ATOM      8  C   UNL A   1      31.007  25.985  23.121  1.00  0.00     0.067 C 
ATOM      9  C   UNL A   1      28.938  30.277  22.238  1.00  0.00    -0.047 A 
ATOM     10  C   UNL A   1      27.745  29.802  22.814  1.00  0.00     0.011 A 
ATOM     11  C   UNL A   1      30.024  29.399  22.130  1.00  0.00     0.015 A 
ATOM     12  C   UNL A   1      27.629  28.482  23.270  1.00  0.00    -0.008 A 
ATOM     13  C   UNL A   1      29.928  28.081  22.591  1.00  0.00     0.018 A 
ATOM     14  C   UNL A   1      26.347  27.999  23.885  1.00  0.00     0.048 C 
ATOM     15  C   UNL A   1      28.735  27.633  23.162  1.00  0.00     0.130 A 
ATOM     16  C   UNL A   1      31.049  27.156  22.461  1.00  0.00     0.025 C 
ATOM     17  O   UNL A   1      28.588  26.345  23.597  1.00  0.00    -0.475 OA
ATOM     18  C   UNL A   1      29.811  25.651  23.968  1.00  0.00     0.314 C 
BRANCH   9  19
ATOM     19  C   UNL A   1      28.975  31.716  21.775  1.00  0.00     0.032 C 
ATOM     20  C   UNL A   1      28.209  32.732  22.612  1.00  0.00     0.009 C 
ENDBRANCH   9  19
BRANCH  18  21
ATOM     21  C   UNL A   1      30.072  25.853  25.473  1.00  0.00     0.429 C 
ATOM     22  F   UNL A   1      30.459  27.130  25.719  1.00  0.00    -0.167 F 
ATOM     23  F   UNL A   1      28.968  25.636  26.226  1.00  0.00    -0.167 F 
ATOM     24  F   UNL A   1      31.040  25.041  25.953  1.00  0.00    -0.167 F 
ENDBRANCH  18  21
ENDBRANCH   5   8
ENDBRANCH   3   4
ENDBRANCH   2   3
ENDBRANCH   1   2
BRANCH   1  25
ATOM     25  C   UNL A   1      33.577  28.465  27.278  1.00  0.00     0.116 C 
BRANCH  25  26
ATOM     26  N   UNL A   1      33.475  29.876  27.623  1.00  0.00    -0.352 N 
ATOM     27  C   UNL A   1      34.458  30.680  28.147  1.00  0.00     0.251 C 
ATOM     28  H   UNL A   1      32.601  30.302  27.463  1.00  0.00     0.163 HD
ATOM     29  O   UNL A   1      34.227  31.842  28.460  1.00  0.00    -0.269 OA
BRANCH  27  30
ATOM     30  C   UNL A   1      35.791  30.091  28.358  1.00  0.00     0.039 A 
ATOM     31  C   UNL A   1      36.710  30.115  27.307  1.00  0.00     0.014 A 
ATOM     32  C   UNL A   1      36.147  29.613  29.621  1.00  0.00     0.014 A 
ATOM     33  C   UNL A   1      38.023  29.710  27.543  1.00  0.00     0.010 A 
ATOM     34  C   UNL A   1      37.467  29.246  29.862  1.00  0.00     0.010 A 
ATOM     35  C   UNL A   1      38.414  29.300  28.827  1.00  0.00    -0.014 A 
BRANCH  35  36
ATOM     36  C   UNL A   1      39.812  28.910  29.109  1.00  0.00     0.031 A 
ATOM     37  C   UNL A   1      40.743  29.899  29.745  1.00  0.00     0.074 A 
ATOM     38  C   UNL A   1      40.255  27.692  28.741  1.00  0.00     0.049 A 
ATOM     39  N   UNL A   1      42.017  29.777  30.006  1.00  0.00    -0.248 NA
ATOM     40  C   UNL A   1      40.169  31.201  30.121  1.00  0.00     0.031 C 
ATOM     41  C   UNL A   1      39.446  26.656  28.095  1.00  0.00     0.029 A 
ATOM     42  N   UNL A   1      41.497  27.124  28.855  1.00  0.00    -0.354 N 
ATOM     43  C   UNL A   1      42.402  30.989  30.564  1.00  0.00     0.074 A 
ATOM     44  C   UNL A   1      41.236  31.844  30.575  1.00  0.00     0.031 C 
ATOM     45  C   UNL A   1      40.211  25.571  27.885  1.00  0.00     0.029 A 
ATOM     46  C   UNL A   1      41.566  25.845  28.356  1.00  0.00     0.049 A 
ATOM     47  H   UNL A   1      42.267  27.588  29.255  1.00  0.00     0.167 HD
ATOM     48  C   UNL A   1      43.617  31.350  31.038  1.00  0.00     0.031 A 
ATOM     49  C   UNL A   1      42.604  24.990  28.287  1.00  0.00     0.031 A 
ATOM     50  C   UNL A   1      44.770  30.495  31.039  1.00  0.00     0.049 A 
ATOM     51  C   UNL A   1      43.942  25.411  28.822  1.00  0.00     0.074 A 
ATOM     52  C   UNL A   1      46.037  30.762  31.527  1.00  0.00     0.029 A 
ATOM     53  N   UNL A   1      44.796  29.204  30.535  1.00  0.00    -0.354 N 
ATOM     54  N   UNL A   1      44.285  26.556  29.363  1.00  0.00    -0.248 NA
ATOM     55  C   UNL A   1      45.032  24.428  28.745  1.00  0.00     0.031 C 
ATOM     56  C   UNL A   1      46.837  29.638  31.294  1.00  0.00     0.029 A 
ATOM     57  C   UNL A   1      46.057  28.661  30.694  1.00  0.00     0.049 A 
ATOM     58  H   UNL A   1      44.029  28.743  30.124  1.00  0.00     0.167 HD
ATOM     59  C   UNL A   1      45.625  26.425  29.707  1.00  0.00     0.074 A 
ATOM     60  C   UNL A   1      46.031  25.091  29.316  1.00  0.00     0.031 C 
ATOM     61  C   UNL A   1      46.441  27.331  30.297  1.00  0.00     0.031 A 
BRANCH  48  62
ATOM     62  C   UNL A   1      43.750  32.737  31.597  1.00  0.00    -0.014 A 
ATOM     63  C   UNL A   1      43.947  33.838  30.744  1.00  0.00     0.010 A 
ATOM     64  C   UNL A   1      43.650  32.948  32.982  1.00  0.00     0.010 A 
ATOM     65  C   UNL A   1      44.069  35.124  31.271  1.00  0.00     0.020 A 
ATOM     66  C   UNL A   1      43.753  34.236  33.512  1.00  0.00     0.020 A 
ATOM     67  C   UNL A   1      43.971  35.315  32.653  1.00  0.00     0.054 A 
BRANCH  67  68
ATOM     68  S   UNL A   1      44.124  37.002  33.303  1.00  0.00     0.124 S 
ATOM     69  O   UNL A   1      44.529  37.749  32.116  1.00  0.00    -0.237 OA
ATOM     70  O   UNL A   1      42.775  37.276  33.789  1.00  0.00    -0.237 OA
ATOM     71  O   UNL A   1      45.147  36.884  34.340  1.00  0.00    -0.744 OA
ENDBRANCH  67  68
ENDBRANCH  48  62
BRANCH  49  72
ATOM     72  C   UNL A   1      42.397  23.636  27.712  1.00  0.00    -0.014 A 
ATOM     73  C   UNL A   1      42.739  23.378  26.374  1.00  0.00     0.010 A 
ATOM     74  C   UNL A   1      41.916  22.586  28.515  1.00  0.00     0.010 A 
ATOM     75  C   UNL A   1      42.613  22.089  25.849  1.00  0.00     0.020 A 
ATOM     76  C   UNL A   1      41.802  21.293  27.998  1.00  0.00     0.020 A 
ATOM     77  C   UNL A   1      42.156  21.052  26.668  1.00  0.00     0.054 A 
BRANCH  77  78
ATOM     78  S   UNL A   1      42.078  19.375  25.980  1.00  0.00     0.124 S 
ATOM     79  O   UNL A   1      42.638  18.571  27.063  1.00  0.00    -0.237 OA
ATOM     80  O   UNL A   1      40.647  19.206  25.740  1.00  0.00    -0.237 OA
ATOM     81  O   UNL A   1      42.900  19.459  24.775  1.00  0.00    -0.744 OA
ENDBRANCH  77  78
ENDBRANCH  49  72
BRANCH  61  82
ATOM     82  C   UNL A   1      47.856  26.912  30.580  1.00  0.00    -0.014 A 
ATOM     83  C   UNL A   1      48.907  27.314  29.738  1.00  0.00     0.010 A 
ATOM     84  C   UNL A   1      48.145  26.197  31.755  1.00  0.00     0.010 A 
ATOM     85  C   UNL A   1      50.227  27.001  30.068  1.00  0.00     0.020 A 
ATOM     86  C   UNL A   1      49.465  25.896  32.095  1.00  0.00     0.020 A 
ATOM     87  C   UNL A   1      50.499  26.300  31.248  1.00  0.00     0.054 A 
BRANCH  87  88
ATOM     88  S   UNL A   1      52.229  25.964  31.677  1.00  0.00     0.124 S 
ATOM     89  O   UNL A   1      52.878  25.980  30.369  1.00  0.00    -0.237 OA
ATOM     90  O   UNL A   1      52.558  27.083  32.556  1.00  0.00    -0.237 OA
ATOM     91  O   UNL A   1      52.179  24.657  32.329  1.00  0.00    -0.744 OA
ENDBRANCH  87  88
ENDBRANCH  61  82
ENDBRANCH  35  36
ENDBRANCH  27  30
ENDBRANCH  25  26
ENDBRANCH   1  25
TORSDOF 16
ENDMDL
MODEL 3
REMARK VINA RESULT:     -10.8      1.199      2.208
REMARK SMILES CCc1cc(C)c2c(c1)C=C(C(=O)NCCCCNC(=O)c1ccc(-c3c4nc(c(-c5ccc(S(=O)(=O)[O-])cc5)c5ccc([nH]5)c(-c5ccc(S(=O)(=O)[O-])cc5)c5nc(c(-c6ccc(S(=O)(=O)[O-])cc6)c6ccc3[nH]6)C=C5)C=C4)cc1)[C@@H](C(F)(F)F)O2
REMARK SMILES IDX 17 1 16 2 15 3 14 4 12 5 13 6 11 8 3 9 4 10 9 11 5 12 8 13
REMARK SMILES IDX 6 14 7 15 10 16 87 17 82 18 2 19 1 20 83 21 84 22 85 23
REMARK SMILES IDX 86 24 18 25 19 26 20 27 21 29 22 30 23 31 81 32 24 33 80 34
REMARK SMILES IDX 25 35 26 36 27 37 74 38 28 39 79 40 73 41 75 42 29 43 78 44
REMARK SMILES IDX 72 45 71 46 30 48 60 49 41 50 59 51 42 52 45 53 58 54 76 55
REMARK SMILES IDX 43 56 44 57 57 59 77 60 46 61 31 62 32 63 40 64 33 65 39 66
REMARK SMILES IDX 34 67 35 68 36 69 37 70 38 71 61 72 62 73 70 74 63 75 69 76
REMARK SMILES IDX 64 77 65 78 66 79 67 80 68 81 47 82 48 83 56 84 49 85 55 86
REMARK SMILES IDX 50 87 51 88 52 89 53 90 54 91
REMARK H PARENT 14 7 19 28 75 47 45 58
REMARK Flexibility Score: inf
ROOT
ATOM      1  C   UNL A   1      34.036  28.302  25.773  1.00  0.00     0.023 C 
ENDROOT
BRANCH   1   2
ATOM      2  C   UNL A   1      33.055  28.735  24.679  1.00  0.00     0.023 C 
BRANCH   2   3
ATOM      3  C   UNL A   1      33.088  27.856  23.432  1.00  0.00     0.116 C 
BRANCH   3   4
ATOM      4  N   UNL A   1      31.794  27.257  23.158  1.00  0.00    -0.352 N 
ATOM      5  C   UNL A   1      31.227  26.035  23.285  1.00  0.00     0.251 C 
ATOM      6  O   UNL A   1      30.055  25.957  22.903  1.00  0.00    -0.270 OA
ATOM      7  H   UNL A   1      31.164  27.911  22.782  1.00  0.00     0.163 HD
BRANCH   5   8
ATOM      8  C   UNL A   1      31.899  24.823  23.841  1.00  0.00     0.067 C 
ATOM      9  C   UNL A   1      32.626  20.044  23.486  1.00  0.00    -0.047 A 
ATOM     10  C   UNL A   1      33.529  20.119  24.562  1.00  0.00     0.011 A 
ATOM     11  C   UNL A   1      32.047  21.231  23.015  1.00  0.00     0.015 A 
ATOM     12  C   UNL A   1      33.855  21.344  25.160  1.00  0.00    -0.008 A 
ATOM     13  C   UNL A   1      32.354  22.461  23.608  1.00  0.00     0.018 A 
ATOM     14  C   UNL A   1      34.818  21.398  26.310  1.00  0.00     0.048 C 
ATOM     15  C   UNL A   1      33.250  22.509  24.677  1.00  0.00     0.130 A 
ATOM     16  C   UNL A   1      31.771  23.702  23.108  1.00  0.00     0.025 C 
ATOM     17  O   UNL A   1      33.603  23.693  25.265  1.00  0.00    -0.475 OA
ATOM     18  C   UNL A   1      32.639  24.777  25.148  1.00  0.00     0.314 C 
BRANCH   9  19
ATOM     19  C   UNL A   1      32.330  18.680  22.904  1.00  0.00     0.032 C 
ATOM     20  C   UNL A   1      33.098  17.500  23.484  1.00  0.00     0.009 C 
ENDBRANCH   9  19
BRANCH  18  21
ATOM     21  C   UNL A   1      31.697  24.752  26.366  1.00  0.00     0.429 C 
ATOM     22  F   UNL A   1      31.592  25.992  26.908  1.00  0.00    -0.167 F 
ATOM     23  F   UNL A   1      30.439  24.367  26.044  1.00  0.00    -0.167 F 
ATOM     24  F   UNL A   1      32.123  23.921  27.344  1.00  0.00    -0.167 F 
ENDBRANCH  18  21
ENDBRANCH   5   8
ENDBRANCH   3   4
ENDBRANCH   2   3
ENDBRANCH   1   2
BRANCH   1  25
ATOM     25  C   UNL A   1      33.581  28.577  27.207  1.00  0.00     0.116 C 
BRANCH  25  26
ATOM     26  N   UNL A   1      33.497  29.995  27.529  1.00  0.00    -0.352 N 
ATOM     27  C   UNL A   1      34.480  30.787  28.070  1.00  0.00     0.251 C 
ATOM     28  H   UNL A   1      32.637  30.436  27.338  1.00  0.00     0.163 HD
ATOM     29  O   UNL A   1      34.264  31.958  28.359  1.00  0.00    -0.269 OA
BRANCH  27  30
ATOM     30  C   UNL A   1      35.795  30.175  28.326  1.00  0.00     0.039 A 
ATOM     31  C   UNL A   1      36.765  30.221  27.323  1.00  0.00     0.014 A 
ATOM     32  C   UNL A   1      36.084  29.653  29.590  1.00  0.00     0.014 A 
ATOM     33  C   UNL A   1      38.060  29.792  27.610  1.00  0.00     0.010 A 
ATOM     34  C   UNL A   1      37.386  29.262  29.883  1.00  0.00     0.010 A 
ATOM     35  C   UNL A   1      38.383  29.337  28.897  1.00  0.00    -0.014 A 
BRANCH  35  36
ATOM     36  C   UNL A   1      39.762  28.921  29.234  1.00  0.00     0.031 A 
ATOM     37  C   UNL A   1      40.676  29.884  29.931  1.00  0.00     0.074 A 
ATOM     38  C   UNL A   1      40.203  27.704  28.864  1.00  0.00     0.049 A 
ATOM     39  N   UNL A   1      41.935  29.738  30.247  1.00  0.00    -0.248 NA
ATOM     40  C   UNL A   1      40.103  31.187  30.306  1.00  0.00     0.031 C 
ATOM     41  C   UNL A   1      39.410  26.692  28.161  1.00  0.00     0.029 A 
ATOM     42  N   UNL A   1      41.431  27.115  29.022  1.00  0.00    -0.354 N 
ATOM     43  C   UNL A   1      42.311  30.933  30.845  1.00  0.00     0.074 A 
ATOM     44  C   UNL A   1      41.158  31.805  30.820  1.00  0.00     0.031 C 
ATOM     45  C   UNL A   1      40.169  25.600  27.965  1.00  0.00     0.029 A 
ATOM     46  C   UNL A   1      41.504  25.845  28.502  1.00  0.00     0.049 A 
ATOM     47  H   UNL A   1      42.189  27.560  29.465  1.00  0.00     0.167 HD
ATOM     48  C   UNL A   1      43.509  31.267  31.380  1.00  0.00     0.031 A 
ATOM     49  C   UNL A   1      42.533  24.976  28.463  1.00  0.00     0.031 A 
ATOM     50  C   UNL A   1      44.648  30.395  31.417  1.00  0.00     0.049 A 
ATOM     51  C   UNL A   1      43.851  25.367  29.066  1.00  0.00     0.074 A 
ATOM     52  C   UNL A   1      45.895  30.634  31.967  1.00  0.00     0.029 A 
ATOM     53  N   UNL A   1      44.678  29.114  30.889  1.00  0.00    -0.354 N 
ATOM     54  N   UNL A   1      44.184  26.497  29.644  1.00  0.00    -0.248 NA
ATOM     55  C   UNL A   1      44.929  24.370  29.019  1.00  0.00     0.031 C 
ATOM     56  C   UNL A   1      46.689  29.503  31.749  1.00  0.00     0.029 A 
ATOM     57  C   UNL A   1      45.924  28.549  31.095  1.00  0.00     0.049 A 
ATOM     58  H   UNL A   1      43.925  28.672  30.435  1.00  0.00     0.167 HD
ATOM     59  C   UNL A   1      45.505  26.339  30.046  1.00  0.00     0.074 A 
ATOM     60  C   UNL A   1      45.910  25.006  29.648  1.00  0.00     0.031 C 
ATOM     61  C   UNL A   1      46.307  27.221  30.690  1.00  0.00     0.031 A 
BRANCH  48  62
ATOM     62  C   UNL A   1      43.636  32.642  31.972  1.00  0.00    -0.014 A 
ATOM     63  C   UNL A   1      43.389  32.859  33.339  1.00  0.00     0.010 A 
ATOM     64  C   UNL A   1      44.032  33.719  31.162  1.00  0.00     0.010 A 
ATOM     65  C   UNL A   1      43.511  34.139  33.881  1.00  0.00     0.020 A 
ATOM     66  C   UNL A   1      44.172  34.999  31.705  1.00  0.00     0.020 A 
ATOM     67  C   UNL A   1      43.902  35.202  33.060  1.00  0.00     0.054 A 
BRANCH  67  68
ATOM     68  S   UNL A   1      44.059  36.851  33.800  1.00  0.00     0.124 S 
ATOM     69  O   UNL A   1      43.582  37.714  32.723  1.00  0.00    -0.237 OA
ATOM     70  O   UNL A   1      43.184  36.758  34.966  1.00  0.00    -0.237 OA
ATOM     71  O   UNL A   1      45.485  36.964  34.099  1.00  0.00    -0.744 OA
ENDBRANCH  67  68
ENDBRANCH  48  62
BRANCH  49  72
ATOM     72  C   UNL A   1      42.333  23.636  27.853  1.00  0.00    -0.014 A 
ATOM     73  C   UNL A   1      42.657  23.421  26.504  1.00  0.00     0.010 A 
ATOM     74  C   UNL A   1      41.877  22.558  28.633  1.00  0.00     0.010 A 
ATOM     75  C   UNL A   1      42.538  22.145  25.944  1.00  0.00     0.020 A 
ATOM     76  C   UNL A   1      41.770  21.279  28.081  1.00  0.00     0.020 A 
ATOM     77  C   UNL A   1      42.106  21.080  26.740  1.00  0.00     0.054 A 
BRANCH  77  78
ATOM     78  S   UNL A   1      42.039  19.422  26.005  1.00  0.00     0.124 S 
ATOM     79  O   UNL A   1      42.936  19.556  24.861  1.00  0.00    -0.237 OA
ATOM     80  O   UNL A   1      42.526  18.582  27.096  1.00  0.00    -0.237 OA
ATOM     81  O   UNL A   1      40.626  19.248  25.676  1.00  0.00    -0.744 OA
ENDBRANCH  77  78
ENDBRANCH  49  72
BRANCH  61  82
ATOM     82  C   UNL A   1      47.701  26.776  31.028  1.00  0.00    -0.014 A 
ATOM     83  C   UNL A   1      48.759  26.979  30.126  1.00  0.00     0.010 A 
ATOM     84  C   UNL A   1      47.969  26.244  32.302  1.00  0.00     0.010 A 
ATOM     85  C   UNL A   1      50.066  26.651  30.494  1.00  0.00     0.020 A 
ATOM     86  C   UNL A   1      49.276  25.930  32.678  1.00  0.00     0.020 A 
ATOM     87  C   UNL A   1      50.318  26.135  31.770  1.00  0.00     0.054 A 
BRANCH  87  88
ATOM     88  S   UNL A   1      52.033  25.778  32.237  1.00  0.00     0.124 S 
ATOM     89  O   UNL A   1      52.078  26.247  33.619  1.00  0.00    -0.237 OA
ATOM     90  O   UNL A   1      52.112  24.330  32.062  1.00  0.00    -0.237 OA
ATOM     91  O   UNL A   1      52.823  26.561  31.290  1.00  0.00    -0.744 OA
ENDBRANCH  87  88
ENDBRANCH  61  82
ENDBRANCH  35  36
ENDBRANCH  27  30
ENDBRANCH  25  26
ENDBRANCH   1  25
TORSDOF 16
ENDMDL
