MODEL 1
REMARK VINA RESULT:     -11.1      0.000      0.000
REMARK SMILES CC1(C)CCC[C@H]1NS(=O)(=O)c1ccc(O)c(C(=O)NCCCCNC(=O)c2ccc(-c3c4nc(c(-c5ccc(S(=O)(=O)[O-])cc5)c5ccc([nH]5)c(-c5ccc(S(=O)(=O)[O-])cc5)c5nc(c(-c6ccc(S(=O)(=O)[O-])cc6)c6ccc3[nH]6)C=C5)C=C4)cc2)c1
REMARK SMILES IDX 22 1 21 2 20 3 18 4 19 5 17 7 12 8 13 9 88 10 14 11 15 12
REMARK SMILES IDX 9 13 10 14 11 15 8 16 7 18 1 19 2 20 3 21 4 22 5 23 6 24
REMARK SMILES IDX 16 25 23 27 24 28 25 29 26 30 27 32 28 33 29 34 87 35 30 36
REMARK SMILES IDX 86 37 31 38 32 39 33 40 80 41 34 42 85 43 79 44 81 45 35 46
REMARK SMILES IDX 84 47 78 48 77 49 36 51 66 52 47 53 65 54 48 55 51 56 64 57
REMARK SMILES IDX 82 58 49 59 50 60 63 62 83 63 52 64 37 65 38 66 46 67 39 68
REMARK SMILES IDX 45 69 40 70 41 71 42 72 43 73 44 74 67 75 68 76 76 77 69 78
REMARK SMILES IDX 75 79 70 80 71 81 72 82 73 83 74 84 53 85 54 86 62 87 55 88
REMARK SMILES IDX 61 89 56 90 57 91 58 92 59 93 60 94
REMARK H PARENT 20 6 8 17 16 26 25 31 81 50 51 61
REMARK Flexibility Score: inf
ROOT
ATOM      1  C   UNL A   1      35.619  21.637  24.479  1.00  0.00     0.023 C 
ENDROOT
BRANCH   1   2
ATOM      2  C   UNL A   1      34.951  20.843  25.607  1.00  0.00     0.116 C 
BRANCH   2   3
ATOM      3  N   UNL A   1      34.011  19.898  25.047  1.00  0.00    -0.352 N 
ATOM      4  C   UNL A   1      32.758  20.050  24.518  1.00  0.00     0.255 C 
ATOM      5  O   UNL A   1      32.160  19.003  24.250  1.00  0.00    -0.269 OA
ATOM      6  H   UNL A   1      34.334  18.968  25.048  1.00  0.00     0.163 HD
BRANCH   4   7
ATOM      7  C   UNL A   1      32.105  21.351  24.155  1.00  0.00     0.082 A 
ATOM      8  C   UNL A   1      31.255  23.448  25.103  1.00  0.00     0.083 A 
ATOM      9  C   UNL A   1      30.755  23.832  23.866  1.00  0.00     0.025 A 
ATOM     10  C   UNL A   1      31.865  22.196  25.257  1.00  0.00     0.039 A 
ATOM     11  C   UNL A   1      31.045  23.050  22.755  1.00  0.00     0.048 A 
ATOM     12  C   UNL A   1      31.772  21.859  22.893  1.00  0.00     0.128 A 
BRANCH   8  13
ATOM     13  S   UNL A   1      31.320  24.547  26.486  1.00  0.00     0.240 S 
ATOM     14  O   UNL A   1      31.764  23.771  27.625  1.00  0.00    -0.207 OA
ATOM     15  O   UNL A   1      30.082  25.286  26.502  1.00  0.00    -0.207 OA
BRANCH  13  16
ATOM     16  N   UNL A   1      32.494  25.697  26.146  1.00  0.00    -0.208 NA
ATOM     17  H   UNL A   1      32.639  26.214  27.013  1.00  0.00     0.141 HD
BRANCH  16  18
ATOM     18  C   UNL A   1      32.351  26.711  25.090  1.00  0.00     0.075 C 
ATOM     19  C   UNL A   1      31.970  28.217  27.213  1.00  0.00     0.013 C 
ATOM     20  C   UNL A   1      32.272  28.148  25.706  1.00  0.00    -0.019 C 
ATOM     21  C   UNL A   1      31.178  28.964  24.985  1.00  0.00     0.013 C 
ATOM     22  C   UNL A   1      33.663  28.734  25.413  1.00  0.00     0.008 C 
ATOM     23  C   UNL A   1      34.020  28.172  24.049  1.00  0.00     0.002 C 
ATOM     24  C   UNL A   1      33.549  26.728  24.128  1.00  0.00     0.020 C 
ENDBRANCH  16  18
ENDBRANCH  13  16
ENDBRANCH   8  13
BRANCH  12  25
ATOM     25  O   UNL A   1      32.199  21.288  21.733  1.00  0.00    -0.507 OA
ATOM     26  H   UNL A   1      31.991  20.393  21.547  1.00  0.00     0.293 HD
ENDBRANCH  12  25
ENDBRANCH   4   7
ENDBRANCH   2   3
ENDBRANCH   1   2
BRANCH   1  27
ATOM     27  C   UNL A   1      35.604  23.152  24.673  1.00  0.00     0.023 C 
BRANCH  27  28
ATOM     28  C   UNL A   1      36.963  23.748  25.015  1.00  0.00     0.116 C 
BRANCH  28  29
ATOM     29  N   UNL A   1      37.956  22.749  25.380  1.00  0.00    -0.352 N 
ATOM     30  C   UNL A   1      39.067  22.901  26.171  1.00  0.00     0.251 C 
ATOM     31  H   UNL A   1      37.813  21.846  25.012  1.00  0.00     0.163 HD
ATOM     32  O   UNL A   1      39.857  21.974  26.317  1.00  0.00    -0.269 OA
BRANCH  30  33
ATOM     33  C   UNL A   1      39.327  24.215  26.792  1.00  0.00     0.039 A 
ATOM     34  C   UNL A   1      38.889  24.432  28.099  1.00  0.00     0.014 A 
ATOM     35  C   UNL A   1      40.047  25.200  26.110  1.00  0.00     0.014 A 
ATOM     36  C   UNL A   1      39.233  25.616  28.749  1.00  0.00     0.010 A 
ATOM     37  C   UNL A   1      40.449  26.348  26.783  1.00  0.00     0.010 A 
ATOM     38  C   UNL A   1      40.045  26.566  28.107  1.00  0.00    -0.014 A 
BRANCH  38  39
ATOM     39  C   UNL A   1      40.485  27.790  28.816  1.00  0.00     0.031 A 
ATOM     40  C   UNL A   1      41.857  27.860  29.423  1.00  0.00     0.074 A 
ATOM     41  C   UNL A   1      39.623  28.817  28.957  1.00  0.00     0.049 A 
ATOM     42  N   UNL A   1      42.415  28.841  30.083  1.00  0.00    -0.248 NA
ATOM     43  C   UNL A   1      42.703  26.661  29.295  1.00  0.00     0.031 C 
ATOM     44  C   UNL A   1      38.242  28.840  28.468  1.00  0.00     0.029 A 
ATOM     45  N   UNL A   1      39.784  30.041  29.554  1.00  0.00    -0.354 N 
ATOM     46  C   UNL A   1      43.667  28.375  30.463  1.00  0.00     0.074 A 
ATOM     47  C   UNL A   1      43.770  27.008  30.001  1.00  0.00     0.031 C 
ATOM     48  C   UNL A   1      37.693  30.032  28.758  1.00  0.00     0.029 A 
ATOM     49  C   UNL A   1      38.673  30.845  29.469  1.00  0.00     0.049 A 
ATOM     50  H   UNL A   1      40.616  30.317  30.003  1.00  0.00     0.167 HD
ATOM     51  C   UNL A   1      44.652  29.032  31.119  1.00  0.00     0.031 A 
ATOM     52  C   UNL A   1      38.473  32.104  29.904  1.00  0.00     0.031 A 
ATOM     53  C   UNL A   1      44.556  30.397  31.558  1.00  0.00     0.049 A 
ATOM     54  C   UNL A   1      39.597  32.829  30.587  1.00  0.00     0.074 A 
ATOM     55  C   UNL A   1      45.519  31.175  32.178  1.00  0.00     0.029 A 
ATOM     56  N   UNL A   1      43.428  31.192  31.417  1.00  0.00    -0.354 N 
ATOM     57  N   UNL A   1      40.801  32.397  30.874  1.00  0.00    -0.248 NA
ATOM     58  C   UNL A   1      39.342  34.220  30.985  1.00  0.00     0.031 C 
ATOM     59  C   UNL A   1      44.963  32.432  32.436  1.00  0.00     0.029 A 
ATOM     60  C   UNL A   1      43.668  32.449  31.944  1.00  0.00     0.049 A 
ATOM     61  H   UNL A   1      42.583  30.904  31.003  1.00  0.00     0.167 HD
ATOM     62  C   UNL A   1      41.456  33.468  31.468  1.00  0.00     0.074 A 
ATOM     63  C   UNL A   1      40.518  34.573  31.486  1.00  0.00     0.031 C 
ATOM     64  C   UNL A   1      42.720  33.533  31.953  1.00  0.00     0.031 A 
BRANCH  51  65
ATOM     65  C   UNL A   1      45.921  28.272  31.392  1.00  0.00    -0.014 A 
ATOM     66  C   UNL A   1      46.078  27.533  32.579  1.00  0.00     0.010 A 
ATOM     67  C   UNL A   1      46.965  28.286  30.451  1.00  0.00     0.010 A 
ATOM     68  C   UNL A   1      47.274  26.862  32.843  1.00  0.00     0.020 A 
ATOM     69  C   UNL A   1      48.155  27.596  30.700  1.00  0.00     0.020 A 
ATOM     70  C   UNL A   1      48.310  26.905  31.904  1.00  0.00     0.054 A 
BRANCH  70  71
ATOM     71  S   UNL A   1      49.852  26.022  32.264  1.00  0.00     0.124 S 
ATOM     72  O   UNL A   1      50.373  25.771  30.922  1.00  0.00    -0.237 OA
ATOM     73  O   UNL A   1      50.604  26.991  33.057  1.00  0.00    -0.237 OA
ATOM     74  O   UNL A   1      49.409  24.836  32.994  1.00  0.00    -0.744 OA
ENDBRANCH  70  71
ENDBRANCH  51  65
BRANCH  52  75
ATOM     75  C   UNL A   1      37.167  32.770  29.661  1.00  0.00    -0.014 A 
ATOM     76  C   UNL A   1      36.226  32.882  30.699  1.00  0.00     0.010 A 
ATOM     77  C   UNL A   1      36.868  33.318  28.401  1.00  0.00     0.010 A 
ATOM     78  C   UNL A   1      35.001  33.519  30.479  1.00  0.00     0.020 A 
ATOM     79  C   UNL A   1      35.652  33.973  28.183  1.00  0.00     0.020 A 
ATOM     80  C   UNL A   1      34.722  34.060  29.221  1.00  0.00     0.054 A 
BRANCH  80  81
ATOM     81  S   UNL A   1      33.152  34.935  28.971  1.00  0.00     0.124 S 
ATOM     82  O   UNL A   1      32.477  34.078  28.004  1.00  0.00    -0.237 OA
ATOM     83  O   UNL A   1      32.576  34.950  30.314  1.00  0.00    -0.237 OA
ATOM     84  O   UNL A   1      33.569  36.243  28.468  1.00  0.00    -0.744 OA
ENDBRANCH  80  81
ENDBRANCH  52  75
BRANCH  64  85
ATOM     85  C   UNL A   1      43.168  34.850  32.521  1.00  0.00    -0.014 A 
ATOM     86  C   UNL A   1      43.025  35.135  33.890  1.00  0.00     0.010 A 
ATOM     87  C   UNL A   1      43.774  35.799  31.678  1.00  0.00     0.010 A 
ATOM     88  C   UNL A   1      43.455  36.362  34.402  1.00  0.00     0.020 A 
ATOM     89  C   UNL A   1      44.223  37.018  32.191  1.00  0.00     0.020 A 
ATOM     90  C   UNL A   1      44.046  37.297  33.548  1.00  0.00     0.054 A 
BRANCH  90  91
ATOM     91  S   UNL A   1      44.628  38.870  34.237  1.00  0.00     0.124 S 
ATOM     92  O   UNL A   1      44.182  38.778  35.624  1.00  0.00    -0.237 OA
ATOM     93  O   UNL A   1      46.074  38.798  34.037  1.00  0.00    -0.237 OA
ATOM     94  O   UNL A   1      43.945  39.875  33.426  1.00  0.00    -0.744 OA
ENDBRANCH  90  91
ENDBRANCH  64  85
ENDBRANCH  38  39
ENDBRANCH  30  33
ENDBRANCH  28  29
ENDBRANCH  27  28
ENDBRANCH   1  27
TORSDOF 18
ENDMDL
MODEL 2
REMARK VINA RESULT:     -10.7      3.865      5.166
REMARK SMILES CC1(C)CCC[C@H]1NS(=O)(=O)c1ccc(O)c(C(=O)NCCCCNC(=O)c2ccc(-c3c4nc(c(-c5ccc(S(=O)(=O)[O-])cc5)c5ccc([nH]5)c(-c5ccc(S(=O)(=O)[O-])cc5)c5nc(c(-c6ccc(S(=O)(=O)[O-])cc6)c6ccc3[nH]6)C=C5)C=C4)cc2)c1
REMARK SMILES IDX 22 1 21 2 20 3 18 4 19 5 17 7 12 8 13 9 88 10 14 11 15 12
REMARK SMILES IDX 9 13 10 14 11 15 8 16 7 18 1 19 2 20 3 21 4 22 5 23 6 24
REMARK SMILES IDX 16 25 23 27 24 28 25 29 26 30 27 32 28 33 29 34 87 35 30 36
REMARK SMILES IDX 86 37 31 38 32 39 33 40 80 41 34 42 85 43 79 44 81 45 35 46
REMARK SMILES IDX 84 47 78 48 77 49 36 51 66 52 47 53 65 54 48 55 51 56 64 57
REMARK SMILES IDX 82 58 49 59 50 60 63 62 83 63 52 64 37 65 38 66 46 67 39 68
REMARK SMILES IDX 45 69 40 70 41 71 42 72 43 73 44 74 67 75 68 76 76 77 69 78
REMARK SMILES IDX 75 79 70 80 71 81 72 82 73 83 74 84 53 85 54 86 62 87 55 88
REMARK SMILES IDX 61 89 56 90 57 91 58 92 59 93 60 94
REMARK H PARENT 20 6 8 17 16 26 25 31 81 50 51 61
REMARK Flexibility Score: inf
ROOT
ATOM      1  C   UNL A   1      39.307  23.449  26.503  1.00  0.00     0.023 C 
ENDROOT
BRANCH   1   2
ATOM      2  C   UNL A   1      37.913  23.985  26.155  1.00  0.00     0.116 C 
BRANCH   2   3
ATOM      3  N   UNL A   1      37.571  23.611  24.802  1.00  0.00    -0.352 N 
ATOM      4  C   UNL A   1      36.556  22.852  24.285  1.00  0.00     0.255 C 
ATOM      5  O   UNL A   1      36.632  22.609  23.076  1.00  0.00    -0.269 OA
ATOM      6  H   UNL A   1      38.186  23.970  24.122  1.00  0.00     0.163 HD
BRANCH   4   7
ATOM      7  C   UNL A   1      35.339  22.383  25.026  1.00  0.00     0.082 A 
ATOM      8  C   UNL A   1      33.198  23.137  25.955  1.00  0.00     0.083 A 
ATOM      9  C   UNL A   1      32.980  21.892  26.528  1.00  0.00     0.025 A 
ATOM     10  C   UNL A   1      34.391  23.397  25.269  1.00  0.00     0.039 A 
ATOM     11  C   UNL A   1      33.864  20.859  26.241  1.00  0.00     0.048 A 
ATOM     12  C   UNL A   1      34.992  21.090  25.441  1.00  0.00     0.128 A 
BRANCH   8  13
ATOM     13  S   UNL A   1      31.950  24.389  25.895  1.00  0.00     0.240 S 
ATOM     14  O   UNL A   1      31.358  24.464  27.214  1.00  0.00    -0.207 OA
ATOM     15  O   UNL A   1      31.158  24.143  24.715  1.00  0.00    -0.207 OA
BRANCH  13  16
ATOM     16  N   UNL A   1      32.728  25.843  25.585  1.00  0.00    -0.208 NA
ATOM     17  H   UNL A   1      32.610  26.407  26.428  1.00  0.00     0.141 HD
BRANCH  16  18
ATOM     18  C   UNL A   1      32.379  26.723  24.459  1.00  0.00     0.075 C 
ATOM     19  C   UNL A   1      31.762  28.304  26.469  1.00  0.00     0.013 C 
ATOM     20  C   UNL A   1      32.045  28.166  24.964  1.00  0.00    -0.019 C 
ATOM     21  C   UNL A   1      30.806  28.705  24.218  1.00  0.00     0.013 C 
ATOM     22  C   UNL A   1      33.298  28.973  24.580  1.00  0.00     0.008 C 
ATOM     23  C   UNL A   1      33.729  28.375  23.253  1.00  0.00     0.002 C 
ATOM     24  C   UNL A   1      33.536  26.881  23.459  1.00  0.00     0.020 C 
ENDBRANCH  16  18
ENDBRANCH  13  16
ENDBRANCH   8  13
BRANCH  12  25
ATOM     25  O   UNL A   1      35.666  19.980  25.032  1.00  0.00    -0.507 OA
ATOM     26  H   UNL A   1      36.419  20.065  24.481  1.00  0.00     0.293 HD
ENDBRANCH  12  25
ENDBRANCH   4   7
ENDBRANCH   2   3
ENDBRANCH   1   2
BRANCH   1  27
ATOM     27  C   UNL A   1      39.338  21.976  26.906  1.00  0.00     0.023 C 
BRANCH  27  28
ATOM     28  C   UNL A   1      39.533  21.017  25.739  1.00  0.00     0.116 C 
BRANCH  28  29
ATOM     29  N   UNL A   1      40.384  19.881  26.062  1.00  0.00    -0.352 N 
ATOM     30  C   UNL A   1      41.686  19.888  26.497  1.00  0.00     0.251 C 
ATOM     31  H   UNL A   1      39.973  18.992  25.955  1.00  0.00     0.163 HD
ATOM     32  O   UNL A   1      42.295  18.835  26.648  1.00  0.00    -0.269 OA
BRANCH  30  33
ATOM     33  C   UNL A   1      42.356  21.184  26.720  1.00  0.00     0.039 A 
ATOM     34  C   UNL A   1      42.660  21.976  25.611  1.00  0.00     0.014 A 
ATOM     35  C   UNL A   1      42.628  21.637  28.014  1.00  0.00     0.014 A 
ATOM     36  C   UNL A   1      43.176  23.257  25.805  1.00  0.00     0.010 A 
ATOM     37  C   UNL A   1      43.076  22.938  28.208  1.00  0.00     0.010 A 
ATOM     38  C   UNL A   1      43.354  23.759  27.106  1.00  0.00    -0.014 A 
BRANCH  38  39
ATOM     39  C   UNL A   1      43.826  25.146  27.324  1.00  0.00     0.031 A 
ATOM     40  C   UNL A   1      45.263  25.504  27.069  1.00  0.00     0.074 A 
ATOM     41  C   UNL A   1      42.968  26.067  27.806  1.00  0.00     0.049 A 
ATOM     42  N   UNL A   1      45.858  26.659  27.208  1.00  0.00    -0.248 NA
ATOM     43  C   UNL A   1      46.150  24.416  26.625  1.00  0.00     0.031 C 
ATOM     44  C   UNL A   1      41.566  25.822  28.155  1.00  0.00     0.029 A 
ATOM     45  N   UNL A   1      43.152  27.397  28.084  1.00  0.00    -0.354 N 
ATOM     46  C   UNL A   1      47.191  26.436  26.886  1.00  0.00     0.074 A 
ATOM     47  C   UNL A   1      47.327  25.026  26.591  1.00  0.00     0.031 C 
ATOM     48  C   UNL A   1      41.009  26.972  28.570  1.00  0.00     0.029 A 
ATOM     49  C   UNL A   1      42.017  28.026  28.538  1.00  0.00     0.049 A 
ATOM     50  H   UNL A   1      44.015  27.858  27.972  1.00  0.00     0.167 HD
ATOM     51  C   UNL A   1      48.208  27.327  26.822  1.00  0.00     0.031 A 
ATOM     52  C   UNL A   1      41.810  29.313  28.877  1.00  0.00     0.031 A 
ATOM     53  C   UNL A   1      48.067  28.731  27.095  1.00  0.00     0.049 A 
ATOM     54  C   UNL A   1      42.941  30.293  28.751  1.00  0.00     0.074 A 
ATOM     55  C   UNL A   1      49.020  29.730  27.000  1.00  0.00     0.029 A 
ATOM     56  N   UNL A   1      46.891  29.337  27.513  1.00  0.00    -0.354 N 
ATOM     57  N   UNL A   1      44.178  30.078  28.375  1.00  0.00    -0.248 NA
ATOM     58  C   UNL A   1      42.641  31.694  29.075  1.00  0.00     0.031 C 
ATOM     59  C   UNL A   1      48.427  30.936  27.387  1.00  0.00     0.029 A 
ATOM     60  C   UNL A   1      47.096  30.695  27.687  1.00  0.00     0.049 A 
ATOM     61  H   UNL A   1      46.037  28.871  27.663  1.00  0.00     0.167 HD
ATOM     62  C   UNL A   1      44.802  31.319  28.396  1.00  0.00     0.074 A 
ATOM     63  C   UNL A   1      43.800  32.283  28.810  1.00  0.00     0.031 C 
ATOM     64  C   UNL A   1      46.086  31.635  28.100  1.00  0.00     0.031 A 
BRANCH  51  65
ATOM     65  C   UNL A   1      49.561  26.798  26.433  1.00  0.00    -0.014 A 
ATOM     66  C   UNL A   1      50.024  26.905  25.109  1.00  0.00     0.010 A 
ATOM     67  C   UNL A   1      50.385  26.196  27.402  1.00  0.00     0.010 A 
ATOM     68  C   UNL A   1      51.266  26.377  24.749  1.00  0.00     0.020 A 
ATOM     69  C   UNL A   1      51.639  25.687  27.049  1.00  0.00     0.020 A 
ATOM     70  C   UNL A   1      52.062  25.763  25.720  1.00  0.00     0.054 A 
BRANCH  70  71
ATOM     71  S   UNL A   1      53.673  25.089  25.231  1.00  0.00     0.124 S 
ATOM     72  O   UNL A   1      54.564  25.702  26.214  1.00  0.00    -0.237 OA
ATOM     73  O   UNL A   1      53.479  23.648  25.373  1.00  0.00    -0.237 OA
ATOM     74  O   UNL A   1      53.841  25.558  23.858  1.00  0.00    -0.744 OA
ENDBRANCH  70  71
ENDBRANCH  51  65
BRANCH  52  75
ATOM     75  C   UNL A   1      40.461  29.752  29.320  1.00  0.00    -0.014 A 
ATOM     76  C   UNL A   1      40.203  29.974  30.685  1.00  0.00     0.010 A 
ATOM     77  C   UNL A   1      39.438  29.976  28.382  1.00  0.00     0.010 A 
ATOM     78  C   UNL A   1      38.940  30.399  31.106  1.00  0.00     0.020 A 
ATOM     79  C   UNL A   1      38.179  30.420  28.798  1.00  0.00     0.020 A 
ATOM     80  C   UNL A   1      37.935  30.618  30.160  1.00  0.00     0.054 A 
BRANCH  80  81
ATOM     81  S   UNL A   1      36.320  31.227  30.719  1.00  0.00     0.124 S 
ATOM     82  O   UNL A   1      35.539  31.193  29.487  1.00  0.00    -0.237 OA
ATOM     83  O   UNL A   1      35.943  30.246  31.734  1.00  0.00    -0.237 OA
ATOM     84  O   UNL A   1      36.621  32.561  31.236  1.00  0.00    -0.744 OA
ENDBRANCH  80  81
ENDBRANCH  52  75
BRANCH  64  85
ATOM     85  C   UNL A   1      46.472  33.084  28.187  1.00  0.00    -0.014 A 
ATOM     86  C   UNL A   1      46.985  33.626  29.378  1.00  0.00     0.010 A 
ATOM     87  C   UNL A   1      46.354  33.903  27.050  1.00  0.00     0.010 A 
ATOM     88  C   UNL A   1      47.347  34.975  29.439  1.00  0.00     0.020 A 
ATOM     89  C   UNL A   1      46.734  35.247  27.102  1.00  0.00     0.020 A 
ATOM     90  C   UNL A   1      47.214  35.777  28.302  1.00  0.00     0.054 A 
BRANCH  90  91
ATOM     91  S   UNL A   1      47.720  37.516  28.390  1.00  0.00     0.124 S 
ATOM     92  O   UNL A   1      48.808  37.566  27.419  1.00  0.00    -0.237 OA
ATOM     93  O   UNL A   1      46.504  38.229  28.007  1.00  0.00    -0.237 OA
ATOM     94  O   UNL A   1      48.119  37.688  29.785  1.00  0.00    -0.744 OA
ENDBRANCH  90  91
ENDBRANCH  64  85
ENDBRANCH  38  39
ENDBRANCH  30  33
ENDBRANCH  28  29
ENDBRANCH  27  28
ENDBRANCH   1  27
TORSDOF 18
ENDMDL
MODEL 3
REMARK VINA RESULT:     -10.7      3.518      4.388
REMARK SMILES CC1(C)CCC[C@H]1NS(=O)(=O)c1ccc(O)c(C(=O)NCCCCNC(=O)c2ccc(-c3c4nc(c(-c5ccc(S(=O)(=O)[O-])cc5)c5ccc([nH]5)c(-c5ccc(S(=O)(=O)[O-])cc5)c5nc(c(-c6ccc(S(=O)(=O)[O-])cc6)c6ccc3[nH]6)C=C5)C=C4)cc2)c1
REMARK SMILES IDX 22 1 21 2 20 3 18 4 19 5 17 7 12 8 13 9 88 10 14 11 15 12
REMARK SMILES IDX 9 13 10 14 11 15 8 16 7 18 1 19 2 20 3 21 4 22 5 23 6 24
REMARK SMILES IDX 16 25 23 27 24 28 25 29 26 30 27 32 28 33 29 34 87 35 30 36
REMARK SMILES IDX 86 37 31 38 32 39 33 40 80 41 34 42 85 43 79 44 81 45 35 46
REMARK SMILES IDX 84 47 78 48 77 49 36 51 66 52 47 53 65 54 48 55 51 56 64 57
REMARK SMILES IDX 82 58 49 59 50 60 63 62 83 63 52 64 37 65 38 66 46 67 39 68
REMARK SMILES IDX 45 69 40 70 41 71 42 72 43 73 44 74 67 75 68 76 76 77 69 78
REMARK SMILES IDX 75 79 70 80 71 81 72 82 73 83 74 84 53 85 54 86 62 87 55 88
REMARK SMILES IDX 61 89 56 90 57 91 58 92 59 93 60 94
REMARK H PARENT 20 6 8 17 16 26 25 31 81 50 51 61
REMARK Flexibility Score: inf
ROOT
ATOM      1  C   UNL A   1      38.526  23.312  26.469  1.00  0.00     0.023 C 
ENDROOT
BRANCH   1   2
ATOM      2  C   UNL A   1      37.546  22.362  25.770  1.00  0.00     0.116 C 
BRANCH   2   3
ATOM      3  N   UNL A   1      37.423  22.728  24.377  1.00  0.00    -0.352 N 
ATOM      4  C   UNL A   1      36.348  22.789  23.533  1.00  0.00     0.255 C 
ATOM      5  O   UNL A   1      36.612  23.011  22.346  1.00  0.00    -0.269 OA
ATOM      6  H   UNL A   1      38.276  22.982  23.956  1.00  0.00     0.163 HD
BRANCH   4   7
ATOM      7  C   UNL A   1      34.905  22.706  23.934  1.00  0.00     0.082 A 
ATOM      8  C   UNL A   1      32.774  23.918  23.848  1.00  0.00     0.083 A 
ATOM      9  C   UNL A   1      32.168  22.959  24.648  1.00  0.00     0.025 A 
ATOM     10  C   UNL A   1      34.139  23.824  23.548  1.00  0.00     0.039 A 
ATOM     11  C   UNL A   1      32.883  21.814  24.977  1.00  0.00     0.048 A 
ATOM     12  C   UNL A   1      34.214  21.662  24.563  1.00  0.00     0.128 A 
BRANCH   8  13
ATOM     13  S   UNL A   1      31.858  25.186  23.023  1.00  0.00     0.240 S 
ATOM     14  O   UNL A   1      30.461  24.978  23.342  1.00  0.00    -0.207 OA
ATOM     15  O   UNL A   1      32.330  25.235  21.661  1.00  0.00    -0.207 OA
BRANCH  13  16
ATOM     16  N   UNL A   1      32.335  26.650  23.689  1.00  0.00    -0.208 NA
ATOM     17  H   UNL A   1      33.225  26.468  24.154  1.00  0.00     0.141 HD
BRANCH  16  18
ATOM     18  C   UNL A   1      31.521  27.403  24.655  1.00  0.00     0.075 C 
ATOM     19  C   UNL A   1      33.720  27.097  26.066  1.00  0.00     0.013 C 
ATOM     20  C   UNL A   1      32.379  27.830  25.892  1.00  0.00    -0.019 C 
ATOM     21  C   UNL A   1      31.570  27.611  27.188  1.00  0.00     0.013 C 
ATOM     22  C   UNL A   1      32.619  29.331  25.653  1.00  0.00     0.008 C 
ATOM     23  C   UNL A   1      31.323  29.816  25.029  1.00  0.00     0.002 C 
ATOM     24  C   UNL A   1      30.960  28.704  24.059  1.00  0.00     0.020 C 
ENDBRANCH  16  18
ENDBRANCH  13  16
ENDBRANCH   8  13
BRANCH  12  25
ATOM     25  O   UNL A   1      34.750  20.423  24.735  1.00  0.00    -0.507 OA
ATOM     26  H   UNL A   1      35.002  20.136  25.591  1.00  0.00     0.293 HD
ENDBRANCH  12  25
ENDBRANCH   4   7
ENDBRANCH   2   3
ENDBRANCH   1   2
BRANCH   1  27
ATOM     27  C   UNL A   1      39.944  22.764  26.616  1.00  0.00     0.023 C 
BRANCH  27  28
ATOM     28  C   UNL A   1      40.972  23.807  27.040  1.00  0.00     0.116 C 
BRANCH  28  29
ATOM     29  N   UNL A   1      41.585  24.501  25.918  1.00  0.00    -0.352 N 
ATOM     30  C   UNL A   1      41.812  25.847  25.770  1.00  0.00     0.251 C 
ATOM     31  H   UNL A   1      41.875  23.933  25.167  1.00  0.00     0.163 HD
ATOM     32  O   UNL A   1      42.268  26.287  24.721  1.00  0.00    -0.269 OA
BRANCH  30  33
ATOM     33  C   UNL A   1      41.441  26.758  26.871  1.00  0.00     0.039 A 
ATOM     34  C   UNL A   1      40.454  26.350  27.769  1.00  0.00     0.014 A 
ATOM     35  C   UNL A   1      42.105  27.976  27.047  1.00  0.00     0.014 A 
ATOM     36  C   UNL A   1      40.178  27.136  28.887  1.00  0.00     0.010 A 
ATOM     37  C   UNL A   1      41.878  28.722  28.198  1.00  0.00     0.010 A 
ATOM     38  C   UNL A   1      40.914  28.309  29.127  1.00  0.00    -0.014 A 
BRANCH  38  39
ATOM     39  C   UNL A   1      40.685  29.109  30.352  1.00  0.00     0.031 A 
ATOM     40  C   UNL A   1      41.527  28.875  31.575  1.00  0.00     0.074 A 
ATOM     41  C   UNL A   1      39.682  30.009  30.376  1.00  0.00     0.049 A 
ATOM     42  N   UNL A   1      41.472  29.472  32.736  1.00  0.00    -0.248 NA
ATOM     43  C   UNL A   1      42.545  27.815  31.488  1.00  0.00     0.031 C 
ATOM     44  C   UNL A   1      38.756  30.277  29.273  1.00  0.00     0.029 A 
ATOM     45  N   UNL A   1      39.275  30.864  31.368  1.00  0.00    -0.354 N 
ATOM     46  C   UNL A   1      42.432  28.850  33.525  1.00  0.00     0.074 A 
ATOM     47  C   UNL A   1      43.024  27.800  32.724  1.00  0.00     0.031 C 
ATOM     48  C   UNL A   1      37.909  31.255  29.639  1.00  0.00     0.029 A 
ATOM     49  C   UNL A   1      38.218  31.664  31.004  1.00  0.00     0.049 A 
ATOM     50  H   UNL A   1      39.698  30.901  32.257  1.00  0.00     0.167 HD
ATOM     51  C   UNL A   1      42.805  29.141  34.793  1.00  0.00     0.031 A 
ATOM     52  C   UNL A   1      37.580  32.631  31.691  1.00  0.00     0.031 A 
ATOM     53  C   UNL A   1      42.231  30.199  35.579  1.00  0.00     0.049 A 
ATOM     54  C   UNL A   1      38.042  32.968  33.080  1.00  0.00     0.074 A 
ATOM     55  C   UNL A   1      42.579  30.615  36.852  1.00  0.00     0.029 A 
ATOM     56  N   UNL A   1      41.190  31.014  35.160  1.00  0.00    -0.354 N 
ATOM     57  N   UNL A   1      39.002  32.417  33.784  1.00  0.00    -0.248 NA
ATOM     58  C   UNL A   1      37.350  34.071  33.759  1.00  0.00     0.031 C 
ATOM     59  C   UNL A   1      41.728  31.665  37.214  1.00  0.00     0.029 A 
ATOM     60  C   UNL A   1      40.877  31.927  36.153  1.00  0.00     0.049 A 
ATOM     61  H   UNL A   1      40.740  30.953  34.287  1.00  0.00     0.167 HD
ATOM     62  C   UNL A   1      39.044  33.120  34.981  1.00  0.00     0.074 A 
ATOM     63  C   UNL A   1      38.021  34.145  34.901  1.00  0.00     0.031 C 
ATOM     64  C   UNL A   1      39.855  32.937  36.052  1.00  0.00     0.031 A 
BRANCH  51  65
ATOM     65  C   UNL A   1      43.892  28.297  35.400  1.00  0.00    -0.014 A 
ATOM     66  C   UNL A   1      45.248  28.610  35.194  1.00  0.00     0.010 A 
ATOM     67  C   UNL A   1      43.557  27.184  36.191  1.00  0.00     0.010 A 
ATOM     68  C   UNL A   1      46.251  27.799  35.729  1.00  0.00     0.020 A 
ATOM     69  C   UNL A   1      44.559  26.383  36.748  1.00  0.00     0.020 A 
ATOM     70  C   UNL A   1      45.900  26.684  36.497  1.00  0.00     0.054 A 
BRANCH  70  71
ATOM     71  S   UNL A   1      47.218  25.647  37.186  1.00  0.00     0.124 S 
ATOM     72  O   UNL A   1      48.277  26.628  37.422  1.00  0.00    -0.237 OA
ATOM     73  O   UNL A   1      46.600  25.092  38.387  1.00  0.00    -0.237 OA
ATOM     74  O   UNL A   1      47.488  24.680  36.125  1.00  0.00    -0.744 OA
ENDBRANCH  70  71
ENDBRANCH  51  65
BRANCH  52  75
ATOM     75  C   UNL A   1      36.465  33.378  31.053  1.00  0.00    -0.014 A 
ATOM     76  C   UNL A   1      36.613  33.895  29.754  1.00  0.00     0.010 A 
ATOM     77  C   UNL A   1      35.244  33.554  31.727  1.00  0.00     0.010 A 
ATOM     78  C   UNL A   1      35.564  34.588  29.144  1.00  0.00     0.020 A 
ATOM     79  C   UNL A   1      34.185  34.229  31.113  1.00  0.00     0.020 A 
ATOM     80  C   UNL A   1      34.356  34.752  29.828  1.00  0.00     0.054 A 
BRANCH  80  81
ATOM     81  S   UNL A   1      32.984  35.602  28.998  1.00  0.00     0.124 S 
ATOM     82  O   UNL A   1      32.424  34.540  28.172  1.00  0.00    -0.237 OA
ATOM     83  O   UNL A   1      32.154  36.038  30.119  1.00  0.00    -0.237 OA
ATOM     84  O   UNL A   1      33.647  36.682  28.270  1.00  0.00    -0.744 OA
ENDBRANCH  80  81
ENDBRANCH  52  75
BRANCH  64  85
ATOM     85  C   UNL A   1      39.686  33.880  37.209  1.00  0.00    -0.014 A 
ATOM     86  C   UNL A   1      40.293  35.147  37.205  1.00  0.00     0.010 A 
ATOM     87  C   UNL A   1      38.876  33.505  38.296  1.00  0.00     0.010 A 
ATOM     88  C   UNL A   1      40.119  36.015  38.286  1.00  0.00     0.020 A 
ATOM     89  C   UNL A   1      38.682  34.379  39.369  1.00  0.00     0.020 A 
ATOM     90  C   UNL A   1      39.318  35.622  39.364  1.00  0.00     0.054 A 
BRANCH  90  91
ATOM     91  S   UNL A   1      39.075  36.775  40.742  1.00  0.00     0.124 S 
ATOM     92  O   UNL A   1      38.128  36.049  41.582  1.00  0.00    -0.237 OA
ATOM     93  O   UNL A   1      40.422  36.915  41.291  1.00  0.00    -0.237 OA
ATOM     94  O   UNL A   1      38.547  37.975  40.098  1.00  0.00    -0.744 OA
ENDBRANCH  90  91
ENDBRANCH  64  85
ENDBRANCH  38  39
ENDBRANCH  30  33
ENDBRANCH  28  29
ENDBRANCH  27  28
ENDBRANCH   1  27
TORSDOF 18
ENDMDL
