MODEL 1
REMARK VINA RESULT:     -11.6      0.000      0.000
REMARK SMILES O=C(C[C@H](C(=O)NCCCCNC(=O)c1ccc(-c2c3nc(c(-c4ccc(S(=O)(=O)[O-])cc4)c4ccc([nH]4)c(-c4ccc(S(=O)(=O)[O-])cc4)c4nc(c(-c5ccc(S(=O)(=O)[O-])cc5)c5ccc2[nH]5)C=C4)C=C3)cc1)c1ccccc1)Nc1ccc(Cl)cc1Cl
REMARK SMILES IDX 9 1 8 2 7 3 5 4 6 5 4 7 3 8 2 9 1 10 81 11 82 13 83 14 88 15
REMARK SMILES IDX 84 16 87 17 89 18 85 19 86 20 75 21 76 22 80 23 77 24 79 25
REMARK SMILES IDX 78 26 10 27 11 28 12 29 13 30 14 32 15 33 16 34 74 35 17 36
REMARK SMILES IDX 73 37 18 38 19 39 20 40 67 41 21 42 72 43 66 44 68 45 22 46
REMARK SMILES IDX 71 47 65 48 64 49 23 51 53 52 34 53 52 54 35 55 38 56 51 57
REMARK SMILES IDX 69 58 36 59 37 60 50 62 70 63 39 64 24 65 25 66 33 67 26 68
REMARK SMILES IDX 32 69 27 70 28 71 29 72 30 73 31 74 54 75 55 76 63 77 56 78
REMARK SMILES IDX 62 79 57 80 58 81 59 82 60 83 61 84 40 85 41 86 49 87 42 88
REMARK SMILES IDX 48 89 43 90 44 91 45 92 46 93 47 94
REMARK H PARENT 7 6 81 12 12 31 68 50 38 61
REMARK Flexibility Score: inf
ROOT
ATOM      1  C   UNL A   1      35.113  22.203  26.004  1.00  0.00     0.023 C 
ENDROOT
BRANCH   1   2
ATOM      2  C   UNL A   1      33.696  22.205  25.427  1.00  0.00     0.116 C 
BRANCH   2   3
ATOM      3  N   UNL A   1      32.699  22.537  26.428  1.00  0.00    -0.356 N 
ATOM      4  C   UNL A   1      31.943  23.669  26.567  1.00  0.00     0.228 C 
ATOM      5  O   UNL A   1      31.262  23.777  27.585  1.00  0.00    -0.274 OA
ATOM      6  H   UNL A   1      32.543  21.843  27.109  1.00  0.00     0.163 HD
BRANCH   4   7
ATOM      7  C   UNL A   1      31.945  24.735  25.459  1.00  0.00     0.118 C 
BRANCH   7   8
ATOM      8  C   UNL A   1      30.569  24.865  24.788  1.00  0.00     0.118 C 
BRANCH   8   9
ATOM      9  C   UNL A   1      30.490  25.950  23.727  1.00  0.00     0.225 C 
ATOM     10  O   UNL A   1      30.941  25.775  22.600  1.00  0.00    -0.275 OA
ATOM     11  N   UNL A   1      29.866  27.113  24.151  1.00  0.00    -0.325 N 
ATOM     12  H   UNL A   1      29.660  27.201  25.110  1.00  0.00     0.169 HD
BRANCH  11  13
ATOM     13  C   UNL A   1      29.506  28.182  23.296  1.00  0.00     0.060 A 
ATOM     14  C   UNL A   1      28.137  28.316  23.021  1.00  0.00     0.029 A 
ATOM     15  C   UNL A   1      30.409  29.080  22.690  1.00  0.00     0.066 A 
ATOM     16  C   UNL A   1      27.667  29.371  22.233  1.00  0.00     0.023 A 
ATOM     17  C   UNL A   1      29.933  30.137  21.904  1.00  0.00     0.043 A 
ATOM     18  Cl  UNL A   1      32.124  28.832  22.666  1.00  0.00    -0.082 Cl
ATOM     19  C   UNL A   1      28.567  30.285  21.692  1.00  0.00     0.042 A 
ATOM     20  Cl  UNL A   1      27.987  31.577  20.715  1.00  0.00    -0.084 Cl
ENDBRANCH  11  13
ENDBRANCH   8   9
ENDBRANCH   7   8
BRANCH   7  21
ATOM     21  C   UNL A   1      32.370  26.101  25.992  1.00  0.00    -0.035 A 
ATOM     22  C   UNL A   1      33.612  26.647  25.629  1.00  0.00     0.004 A 
ATOM     23  C   UNL A   1      31.556  26.809  26.892  1.00  0.00     0.004 A 
ATOM     24  C   UNL A   1      34.055  27.839  26.204  1.00  0.00     0.000 A 
ATOM     25  C   UNL A   1      32.001  28.005  27.459  1.00  0.00     0.000 A 
ATOM     26  C   UNL A   1      33.255  28.512  27.124  1.00  0.00     0.000 A 
ENDBRANCH   7  21
ENDBRANCH   4   7
ENDBRANCH   2   3
ENDBRANCH   1   2
BRANCH   1  27
ATOM     27  C   UNL A   1      35.795  23.571  26.052  1.00  0.00     0.023 C 
BRANCH  27  28
ATOM     28  C   UNL A   1      37.015  23.713  25.154  1.00  0.00     0.116 C 
BRANCH  28  29
ATOM     29  N   UNL A   1      38.061  22.745  25.452  1.00  0.00    -0.352 N 
ATOM     30  C   UNL A   1      39.224  22.940  26.159  1.00  0.00     0.251 C 
ATOM     31  H   UNL A   1      37.917  21.836  25.103  1.00  0.00     0.163 HD
ATOM     32  O   UNL A   1      40.061  22.045  26.230  1.00  0.00    -0.269 OA
BRANCH  30  33
ATOM     33  C   UNL A   1      39.471  24.251  26.795  1.00  0.00     0.039 A 
ATOM     34  C   UNL A   1      38.997  24.476  28.090  1.00  0.00     0.014 A 
ATOM     35  C   UNL A   1      40.208  25.235  26.132  1.00  0.00     0.014 A 
ATOM     36  C   UNL A   1      39.322  25.664  28.748  1.00  0.00     0.010 A 
ATOM     37  C   UNL A   1      40.586  26.387  26.812  1.00  0.00     0.010 A 
ATOM     38  C   UNL A   1      40.150  26.613  28.127  1.00  0.00    -0.014 A 
BRANCH  38  39
ATOM     39  C   UNL A   1      40.573  27.854  28.822  1.00  0.00     0.031 A 
ATOM     40  C   UNL A   1      41.917  27.909  29.498  1.00  0.00     0.074 A 
ATOM     41  C   UNL A   1      39.718  28.892  28.928  1.00  0.00     0.049 A 
ATOM     42  N   UNL A   1      42.415  28.841  30.268  1.00  0.00    -0.248 NA
ATOM     43  C   UNL A   1      42.805  26.749  29.308  1.00  0.00     0.031 C 
ATOM     44  C   UNL A   1      38.373  28.949  28.350  1.00  0.00     0.029 A 
ATOM     45  N   UNL A   1      39.849  30.095  29.576  1.00  0.00    -0.354 N 
ATOM     46  C   UNL A   1      43.655  28.368  30.681  1.00  0.00     0.074 A 
ATOM     47  C   UNL A   1      43.822  27.053  30.101  1.00  0.00     0.031 C 
ATOM     48  C   UNL A   1      37.808  30.128  28.662  1.00  0.00     0.029 A 
ATOM     49  C   UNL A   1      38.732  30.894  29.492  1.00  0.00     0.049 A 
ATOM     50  H   UNL A   1      40.665  30.361  30.058  1.00  0.00     0.167 HD
ATOM     51  C   UNL A   1      44.576  28.979  31.461  1.00  0.00     0.031 A 
ATOM     52  C   UNL A   1      38.475  32.100  30.034  1.00  0.00     0.031 A 
ATOM     53  C   UNL A   1      44.427  30.303  32.002  1.00  0.00     0.049 A 
ATOM     54  C   UNL A   1      39.528  32.766  30.881  1.00  0.00     0.074 A 
ATOM     55  C   UNL A   1      45.336  31.034  32.744  1.00  0.00     0.029 A 
ATOM     56  N   UNL A   1      43.300  31.096  31.852  1.00  0.00    -0.354 N 
ATOM     57  N   UNL A   1      40.720  32.325  31.208  1.00  0.00    -0.248 NA
ATOM     58  C   UNL A   1      39.205  34.093  31.423  1.00  0.00     0.031 C 
ATOM     59  C   UNL A   1      44.746  32.258  33.074  1.00  0.00     0.029 A 
ATOM     60  C   UNL A   1      43.487  32.305  32.497  1.00  0.00     0.049 A 
ATOM     61  H   UNL A   1      42.488  30.837  31.358  1.00  0.00     0.167 HD
ATOM     62  C   UNL A   1      41.300  33.338  31.963  1.00  0.00     0.074 A 
ATOM     63  C   UNL A   1      40.334  34.415  32.040  1.00  0.00     0.031 C 
ATOM     64  C   UNL A   1      42.525  33.374  32.541  1.00  0.00     0.031 A 
BRANCH  51  65
ATOM     65  C   UNL A   1      45.840  28.226  31.777  1.00  0.00    -0.014 A 
ATOM     66  C   UNL A   1      46.985  28.363  30.973  1.00  0.00     0.010 A 
ATOM     67  C   UNL A   1      45.903  27.426  32.933  1.00  0.00     0.010 A 
ATOM     68  C   UNL A   1      48.165  27.695  31.307  1.00  0.00     0.020 A 
ATOM     69  C   UNL A   1      47.089  26.775  33.283  1.00  0.00     0.020 A 
ATOM     70  C   UNL A   1      48.209  26.904  32.460  1.00  0.00     0.054 A 
BRANCH  70  71
ATOM     71  S   UNL A   1      49.770  26.087  32.896  1.00  0.00     0.124 S 
ATOM     72  O   UNL A   1      50.732  27.176  32.738  1.00  0.00    -0.237 OA
ATOM     73  O   UNL A   1      49.533  25.653  34.270  1.00  0.00    -0.237 OA
ATOM     74  O   UNL A   1      49.882  25.010  31.916  1.00  0.00    -0.744 OA
ENDBRANCH  70  71
ENDBRANCH  51  65
BRANCH  52  75
ATOM     75  C   UNL A   1      37.167  32.771  29.796  1.00  0.00    -0.014 A 
ATOM     76  C   UNL A   1      36.931  33.463  28.595  1.00  0.00     0.010 A 
ATOM     77  C   UNL A   1      36.162  32.741  30.779  1.00  0.00     0.010 A 
ATOM     78  C   UNL A   1      35.728  34.146  28.397  1.00  0.00     0.020 A 
ATOM     79  C   UNL A   1      34.946  33.400  30.572  1.00  0.00     0.020 A 
ATOM     80  C   UNL A   1      34.745  34.115  29.389  1.00  0.00     0.054 A 
BRANCH  80  81
ATOM     81  S   UNL A   1      33.183  34.993  29.106  1.00  0.00     0.124 S 
ATOM     82  O   UNL A   1      32.556  34.169  28.078  1.00  0.00    -0.237 OA
ATOM     83  O   UNL A   1      32.551  34.953  30.423  1.00  0.00    -0.237 OA
ATOM     84  O   UNL A   1      33.614  36.321  28.671  1.00  0.00    -0.744 OA
ENDBRANCH  80  81
ENDBRANCH  52  75
BRANCH  64  85
ATOM     85  C   UNL A   1      42.923  34.635  33.257  1.00  0.00    -0.014 A 
ATOM     86  C   UNL A   1      42.733  34.778  34.642  1.00  0.00     0.010 A 
ATOM     87  C   UNL A   1      43.569  35.659  32.541  1.00  0.00     0.010 A 
ATOM     88  C   UNL A   1      43.167  35.934  35.297  1.00  0.00     0.020 A 
ATOM     89  C   UNL A   1      44.025  36.805  33.195  1.00  0.00     0.020 A 
ATOM     90  C   UNL A   1      43.812  36.940  34.569  1.00  0.00     0.054 A 
BRANCH  90  91
ATOM     91  S   UNL A   1      44.426  38.401  35.450  1.00  0.00     0.124 S 
ATOM     92  O   UNL A   1      43.828  39.491  34.683  1.00  0.00    -0.237 OA
ATOM     93  O   UNL A   1      43.892  38.213  36.796  1.00  0.00    -0.237 OA
ATOM     94  O   UNL A   1      45.878  38.286  35.341  1.00  0.00    -0.744 OA
ENDBRANCH  90  91
ENDBRANCH  64  85
ENDBRANCH  38  39
ENDBRANCH  30  33
ENDBRANCH  28  29
ENDBRANCH  27  28
ENDBRANCH   1  27
TORSDOF 18
ENDMDL
MODEL 2
REMARK VINA RESULT:     -11.3      4.645      7.611
REMARK SMILES O=C(C[C@H](C(=O)NCCCCNC(=O)c1ccc(-c2c3nc(c(-c4ccc(S(=O)(=O)[O-])cc4)c4ccc([nH]4)c(-c4ccc(S(=O)(=O)[O-])cc4)c4nc(c(-c5ccc(S(=O)(=O)[O-])cc5)c5ccc2[nH]5)C=C4)C=C3)cc1)c1ccccc1)Nc1ccc(Cl)cc1Cl
REMARK SMILES IDX 9 1 8 2 7 3 5 4 6 5 4 7 3 8 2 9 1 10 81 11 82 13 83 14 88 15
REMARK SMILES IDX 84 16 87 17 89 18 85 19 86 20 75 21 76 22 80 23 77 24 79 25
REMARK SMILES IDX 78 26 10 27 11 28 12 29 13 30 14 32 15 33 16 34 74 35 17 36
REMARK SMILES IDX 73 37 18 38 19 39 20 40 67 41 21 42 72 43 66 44 68 45 22 46
REMARK SMILES IDX 71 47 65 48 64 49 23 51 53 52 34 53 52 54 35 55 38 56 51 57
REMARK SMILES IDX 69 58 36 59 37 60 50 62 70 63 39 64 24 65 25 66 33 67 26 68
REMARK SMILES IDX 32 69 27 70 28 71 29 72 30 73 31 74 54 75 55 76 63 77 56 78
REMARK SMILES IDX 62 79 57 80 58 81 59 82 60 83 61 84 40 85 41 86 49 87 42 88
REMARK SMILES IDX 48 89 43 90 44 91 45 92 46 93 47 94
REMARK H PARENT 7 6 81 12 12 31 68 50 38 61
REMARK Flexibility Score: inf
ROOT
ATOM      1  C   UNL A   1      41.838  21.663  28.382  1.00  0.00     0.023 C 
ENDROOT
BRANCH   1   2
ATOM      2  C   UNL A   1      42.183  23.141  28.194  1.00  0.00     0.116 C 
BRANCH   2   3
ATOM      3  N   UNL A   1      43.610  23.385  28.286  1.00  0.00    -0.356 N 
ATOM      4  C   UNL A   1      44.587  23.223  27.343  1.00  0.00     0.228 C 
ATOM      5  O   UNL A   1      45.755  23.363  27.703  1.00  0.00    -0.274 OA
ATOM      6  H   UNL A   1      43.922  23.717  29.159  1.00  0.00     0.163 HD
BRANCH   4   7
ATOM      7  C   UNL A   1      44.205  22.907  25.887  1.00  0.00     0.118 C 
BRANCH   7   8
ATOM      8  C   UNL A   1      44.749  23.961  24.911  1.00  0.00     0.118 C 
BRANCH   8   9
ATOM      9  C   UNL A   1      44.321  25.384  25.226  1.00  0.00     0.225 C 
ATOM     10  O   UNL A   1      43.231  25.818  24.867  1.00  0.00    -0.275 OA
ATOM     11  N   UNL A   1      45.256  26.111  25.947  1.00  0.00    -0.325 N 
ATOM     12  H   UNL A   1      46.150  25.717  26.069  1.00  0.00     0.169 HD
BRANCH  11  13
ATOM     13  C   UNL A   1      45.010  27.382  26.518  1.00  0.00     0.060 A 
ATOM     14  C   UNL A   1      43.780  27.975  26.197  1.00  0.00     0.029 A 
ATOM     15  C   UNL A   1      45.908  28.092  27.342  1.00  0.00     0.066 A 
ATOM     16  C   UNL A   1      43.413  29.205  26.751  1.00  0.00     0.023 A 
ATOM     17  C   UNL A   1      45.534  29.322  27.898  1.00  0.00     0.043 A 
ATOM     18  Cl  UNL A   1      47.570  27.646  27.543  1.00  0.00    -0.082 Cl
ATOM     19  C   UNL A   1      44.286  29.864  27.612  1.00  0.00     0.042 A 
ATOM     20  Cl  UNL A   1      43.836  31.381  28.287  1.00  0.00    -0.084 Cl
ENDBRANCH  11  13
ENDBRANCH   8   9
ENDBRANCH   7   8
BRANCH   7  21
ATOM     21  C   UNL A   1      44.705  21.529  25.460  1.00  0.00    -0.035 A 
ATOM     22  C   UNL A   1      46.043  21.351  25.073  1.00  0.00     0.004 A 
ATOM     23  C   UNL A   1      43.830  20.432  25.396  1.00  0.00     0.004 A 
ATOM     24  C   UNL A   1      46.477  20.122  24.573  1.00  0.00     0.000 A 
ATOM     25  C   UNL A   1      44.270  19.203  24.901  1.00  0.00     0.000 A 
ATOM     26  C   UNL A   1      45.589  19.053  24.477  1.00  0.00     0.000 A 
ENDBRANCH   7  21
ENDBRANCH   4   7
ENDBRANCH   2   3
ENDBRANCH   1   2
BRANCH   1  27
ATOM     27  C   UNL A   1      40.812  21.106  27.393  1.00  0.00     0.023 C 
BRANCH  27  28
ATOM     28  C   UNL A   1      40.664  21.898  26.103  1.00  0.00     0.116 C 
BRANCH  28  29
ATOM     29  N   UNL A   1      39.277  22.158  25.747  1.00  0.00    -0.352 N 
ATOM     30  C   UNL A   1      38.498  23.237  26.091  1.00  0.00     0.251 C 
ATOM     31  H   UNL A   1      38.841  21.474  25.190  1.00  0.00     0.163 HD
ATOM     32  O   UNL A   1      37.306  23.257  25.801  1.00  0.00    -0.269 OA
BRANCH  30  33
ATOM     33  C   UNL A   1      39.105  24.353  26.849  1.00  0.00     0.039 A 
ATOM     34  C   UNL A   1      39.915  25.268  26.174  1.00  0.00     0.014 A 
ATOM     35  C   UNL A   1      38.835  24.517  28.209  1.00  0.00     0.014 A 
ATOM     36  C   UNL A   1      40.399  26.391  26.849  1.00  0.00     0.010 A 
ATOM     37  C   UNL A   1      39.262  25.667  28.862  1.00  0.00     0.010 A 
ATOM     38  C   UNL A   1      40.046  26.618  28.189  1.00  0.00    -0.014 A 
BRANCH  38  39
ATOM     39  C   UNL A   1      40.484  27.835  28.917  1.00  0.00     0.031 A 
ATOM     40  C   UNL A   1      41.823  27.851  29.604  1.00  0.00     0.074 A 
ATOM     41  C   UNL A   1      39.646  28.884  29.041  1.00  0.00     0.049 A 
ATOM     42  N   UNL A   1      42.331  28.756  30.399  1.00  0.00    -0.248 NA
ATOM     43  C   UNL A   1      42.694  26.681  29.393  1.00  0.00     0.031 C 
ATOM     44  C   UNL A   1      38.307  28.977  28.454  1.00  0.00     0.029 A 
ATOM     45  N   UNL A   1      39.792  30.069  29.718  1.00  0.00    -0.354 N 
ATOM     46  C   UNL A   1      43.560  28.252  30.810  1.00  0.00     0.074 A 
ATOM     47  C   UNL A   1      43.710  26.949  30.200  1.00  0.00     0.031 C 
ATOM     48  C   UNL A   1      37.759  30.158  28.790  1.00  0.00     0.029 A 
ATOM     49  C   UNL A   1      38.689  30.888  29.645  1.00  0.00     0.049 A 
ATOM     50  H   UNL A   1      40.609  30.310  30.213  1.00  0.00     0.167 HD
ATOM     51  C   UNL A   1      44.485  28.829  31.611  1.00  0.00     0.031 A 
ATOM     52  C   UNL A   1      38.448  32.086  30.213  1.00  0.00     0.031 A 
ATOM     53  C   UNL A   1      44.354  30.142  32.182  1.00  0.00     0.049 A 
ATOM     54  C   UNL A   1      39.505  32.713  31.084  1.00  0.00     0.074 A 
ATOM     55  C   UNL A   1      45.269  30.840  32.948  1.00  0.00     0.029 A 
ATOM     56  N   UNL A   1      43.242  30.957  32.043  1.00  0.00    -0.354 N 
ATOM     57  N   UNL A   1      40.687  32.245  31.409  1.00  0.00    -0.248 NA
ATOM     58  C   UNL A   1      39.201  34.033  31.655  1.00  0.00     0.031 C 
ATOM     59  C   UNL A   1      44.697  32.066  33.303  1.00  0.00     0.029 A 
ATOM     60  C   UNL A   1      43.443  32.147  32.718  1.00  0.00     0.049 A 
ATOM     61  H   UNL A   1      42.429  30.724  31.537  1.00  0.00     0.167 HD
ATOM     62  C   UNL A   1      41.278  33.230  32.192  1.00  0.00     0.074 A 
ATOM     63  C   UNL A   1      40.330  34.320  32.288  1.00  0.00     0.031 C 
ATOM     64  C   UNL A   1      42.499  33.231  32.780  1.00  0.00     0.031 A 
BRANCH  51  65
ATOM     65  C   UNL A   1      45.733  28.047  31.918  1.00  0.00    -0.014 A 
ATOM     66  C   UNL A   1      45.765  27.121  32.975  1.00  0.00     0.010 A 
ATOM     67  C   UNL A   1      46.865  28.190  31.094  1.00  0.00     0.010 A 
ATOM     68  C   UNL A   1      46.916  26.368  33.219  1.00  0.00     0.020 A 
ATOM     69  C   UNL A   1      48.010  27.421  31.320  1.00  0.00     0.020 A 
ATOM     70  C   UNL A   1      48.032  26.523  32.389  1.00  0.00     0.054 A 
BRANCH  70  71
ATOM     71  S   UNL A   1      49.495  25.496  32.698  1.00  0.00     0.124 S 
ATOM     72  O   UNL A   1      49.813  25.015  31.356  1.00  0.00    -0.237 OA
ATOM     73  O   UNL A   1      50.445  26.451  33.264  1.00  0.00    -0.237 OA
ATOM     74  O   UNL A   1      49.013  24.478  33.627  1.00  0.00    -0.744 OA
ENDBRANCH  70  71
ENDBRANCH  51  65
BRANCH  52  75
ATOM     75  C   UNL A   1      37.154  32.784  29.982  1.00  0.00    -0.014 A 
ATOM     76  C   UNL A   1      36.968  33.576  28.835  1.00  0.00     0.010 A 
ATOM     77  C   UNL A   1      36.110  32.680  30.919  1.00  0.00     0.010 A 
ATOM     78  C   UNL A   1      35.776  34.282  28.648  1.00  0.00     0.020 A 
ATOM     79  C   UNL A   1      34.907  33.363  30.721  1.00  0.00     0.020 A 
ATOM     80  C   UNL A   1      34.756  34.176  29.595  1.00  0.00     0.054 A 
BRANCH  80  81
ATOM     81  S   UNL A   1      33.209  35.087  29.326  1.00  0.00     0.124 S 
ATOM     82  O   UNL A   1      33.699  36.388  28.883  1.00  0.00    -0.237 OA
ATOM     83  O   UNL A   1      32.538  34.281  28.308  1.00  0.00    -0.237 OA
ATOM     84  O   UNL A   1      32.572  35.069  30.641  1.00  0.00    -0.744 OA
ENDBRANCH  80  81
ENDBRANCH  52  75
BRANCH  64  85
ATOM     85  C   UNL A   1      42.913  34.468  33.529  1.00  0.00    -0.014 A 
ATOM     86  C   UNL A   1      42.821  34.537  34.930  1.00  0.00     0.010 A 
ATOM     87  C   UNL A   1      43.475  35.546  32.821  1.00  0.00     0.010 A 
ATOM     88  C   UNL A   1      43.268  35.673  35.609  1.00  0.00     0.020 A 
ATOM     89  C   UNL A   1      43.945  36.673  33.498  1.00  0.00     0.020 A 
ATOM     90  C   UNL A   1      43.830  36.733  34.889  1.00  0.00     0.054 A 
BRANCH  90  91
ATOM     91  S   UNL A   1      44.464  38.170  35.797  1.00  0.00     0.124 S 
ATOM     92  O   UNL A   1      43.669  38.132  37.020  1.00  0.00    -0.237 OA
ATOM     93  O   UNL A   1      45.880  37.848  35.958  1.00  0.00    -0.237 OA
ATOM     94  O   UNL A   1      44.185  39.293  34.905  1.00  0.00    -0.744 OA
ENDBRANCH  90  91
ENDBRANCH  64  85
ENDBRANCH  38  39
ENDBRANCH  30  33
ENDBRANCH  28  29
ENDBRANCH  27  28
ENDBRANCH   1  27
TORSDOF 18
ENDMDL
MODEL 3
REMARK VINA RESULT:     -11.2      3.353      9.653
REMARK SMILES O=C(C[C@H](C(=O)NCCCCNC(=O)c1ccc(-c2c3nc(c(-c4ccc(S(=O)(=O)[O-])cc4)c4ccc([nH]4)c(-c4ccc(S(=O)(=O)[O-])cc4)c4nc(c(-c5ccc(S(=O)(=O)[O-])cc5)c5ccc2[nH]5)C=C4)C=C3)cc1)c1ccccc1)Nc1ccc(Cl)cc1Cl
REMARK SMILES IDX 9 1 8 2 7 3 5 4 6 5 4 7 3 8 2 9 1 10 81 11 82 13 83 14 88 15
REMARK SMILES IDX 84 16 87 17 89 18 85 19 86 20 75 21 76 22 80 23 77 24 79 25
REMARK SMILES IDX 78 26 10 27 11 28 12 29 13 30 14 32 15 33 16 34 74 35 17 36
REMARK SMILES IDX 73 37 18 38 19 39 20 40 67 41 21 42 72 43 66 44 68 45 22 46
REMARK SMILES IDX 71 47 65 48 64 49 23 51 53 52 34 53 52 54 35 55 38 56 51 57
REMARK SMILES IDX 69 58 36 59 37 60 50 62 70 63 39 64 24 65 25 66 33 67 26 68
REMARK SMILES IDX 32 69 27 70 28 71 29 72 30 73 31 74 54 75 55 76 63 77 56 78
REMARK SMILES IDX 62 79 57 80 58 81 59 82 60 83 61 84 40 85 41 86 49 87 42 88
REMARK SMILES IDX 48 89 43 90 44 91 45 92 46 93 47 94
REMARK H PARENT 7 6 81 12 12 31 68 50 38 61
REMARK Flexibility Score: inf
ROOT
ATOM      1  C   UNL A   1      31.725  27.753  25.484  1.00  0.00     0.023 C 
ENDROOT
BRANCH   1   2
ATOM      2  C   UNL A   1      31.902  26.366  24.863  1.00  0.00     0.116 C 
BRANCH   2   3
ATOM      3  N   UNL A   1      32.527  26.429  23.555  1.00  0.00    -0.356 N 
ATOM      4  C   UNL A   1      33.306  25.506  22.914  1.00  0.00     0.228 C 
ATOM      5  O   UNL A   1      33.842  25.846  21.861  1.00  0.00    -0.274 OA
ATOM      6  H   UNL A   1      32.367  27.261  23.055  1.00  0.00     0.163 HD
BRANCH   4   7
ATOM      7  C   UNL A   1      33.463  24.092  23.500  1.00  0.00     0.118 C 
BRANCH   7   8
ATOM      8  C   UNL A   1      33.201  23.004  22.446  1.00  0.00     0.118 C 
BRANCH   8   9
ATOM      9  C   UNL A   1      32.584  21.732  23.000  1.00  0.00     0.225 C 
ATOM     10  O   UNL A   1      31.411  21.444  22.783  1.00  0.00    -0.275 OA
ATOM     11  N   UNL A   1      33.459  20.954  23.742  1.00  0.00    -0.325 N 
ATOM     12  H   UNL A   1      34.337  21.337  23.968  1.00  0.00     0.169 HD
BRANCH  11  13
ATOM     13  C   UNL A   1      33.173  19.643  24.195  1.00  0.00     0.060 A 
ATOM     14  C   UNL A   1      32.959  18.680  23.198  1.00  0.00     0.029 A 
ATOM     15  C   UNL A   1      33.060  19.255  25.546  1.00  0.00     0.066 A 
ATOM     16  C   UNL A   1      32.723  17.344  23.536  1.00  0.00     0.023 A 
ATOM     17  C   UNL A   1      32.828  17.915  25.879  1.00  0.00     0.043 A 
ATOM     18  Cl  UNL A   1      32.964  20.387  26.855  1.00  0.00    -0.082 Cl
ATOM     19  C   UNL A   1      32.675  16.966  24.874  1.00  0.00     0.042 A 
ATOM     20  Cl  UNL A   1      32.378  15.323  25.287  1.00  0.00    -0.084 Cl
ENDBRANCH  11  13
ENDBRANCH   8   9
ENDBRANCH   7   8
BRANCH   7  21
ATOM     21  C   UNL A   1      34.851  23.881  24.099  1.00  0.00    -0.035 A 
ATOM     22  C   UNL A   1      35.867  23.283  23.336  1.00  0.00     0.004 A 
ATOM     23  C   UNL A   1      35.122  24.229  25.432  1.00  0.00     0.004 A 
ATOM     24  C   UNL A   1      37.101  22.982  23.914  1.00  0.00     0.000 A 
ATOM     25  C   UNL A   1      36.360  23.933  26.004  1.00  0.00     0.000 A 
ATOM     26  C   UNL A   1      37.344  23.298  25.249  1.00  0.00     0.000 A 
ENDBRANCH   7  21
ENDBRANCH   4   7
ENDBRANCH   2   3
ENDBRANCH   1   2
BRANCH   1  27
ATOM     27  C   UNL A   1      32.105  27.855  26.962  1.00  0.00     0.023 C 
BRANCH  27  28
ATOM     28  C   UNL A   1      33.467  28.475  27.235  1.00  0.00     0.116 C 
BRANCH  28  29
ATOM     29  N   UNL A   1      33.397  29.896  27.545  1.00  0.00    -0.352 N 
ATOM     30  C   UNL A   1      34.378  30.700  28.077  1.00  0.00     0.251 C 
ATOM     31  H   UNL A   1      32.539  30.336  27.351  1.00  0.00     0.163 HD
ATOM     32  O   UNL A   1      34.126  31.861  28.383  1.00  0.00    -0.269 OA
BRANCH  30  33
ATOM     33  C   UNL A   1      35.724  30.137  28.310  1.00  0.00     0.039 A 
ATOM     34  C   UNL A   1      36.661  30.167  27.274  1.00  0.00     0.014 A 
ATOM     35  C   UNL A   1      36.073  29.625  29.562  1.00  0.00     0.014 A 
ATOM     36  C   UNL A   1      37.971  29.747  27.515  1.00  0.00     0.010 A 
ATOM     37  C   UNL A   1      37.392  29.269  29.818  1.00  0.00     0.010 A 
ATOM     38  C   UNL A   1      38.355  29.329  28.799  1.00  0.00    -0.014 A 
BRANCH  38  39
ATOM     39  C   UNL A   1      39.755  28.942  29.108  1.00  0.00     0.031 A 
ATOM     40  C   UNL A   1      40.697  29.959  29.692  1.00  0.00     0.074 A 
ATOM     41  C   UNL A   1      40.202  27.713  28.777  1.00  0.00     0.049 A 
ATOM     42  N   UNL A   1      41.985  29.863  29.905  1.00  0.00    -0.248 NA
ATOM     43  C   UNL A   1      40.124  31.267  30.056  1.00  0.00     0.031 C 
ATOM     44  C   UNL A   1      39.399  26.649  28.171  1.00  0.00     0.029 A 
ATOM     45  N   UNL A   1      41.453  27.158  28.890  1.00  0.00    -0.354 N 
ATOM     46  C   UNL A   1      42.380  31.104  30.394  1.00  0.00     0.074 A 
ATOM     47  C   UNL A   1      41.203  31.945  30.418  1.00  0.00     0.031 C 
ATOM     48  C   UNL A   1      40.173  25.569  27.975  1.00  0.00     0.029 A 
ATOM     49  C   UNL A   1      41.534  25.874  28.403  1.00  0.00     0.049 A 
ATOM     50  H   UNL A   1      42.221  27.634  29.281  1.00  0.00     0.167 HD
ATOM     51  C   UNL A   1      43.608  31.500  30.799  1.00  0.00     0.031 A 
ATOM     52  C   UNL A   1      42.588  25.041  28.301  1.00  0.00     0.031 A 
ATOM     53  C   UNL A   1      44.768  30.650  30.814  1.00  0.00     0.049 A 
ATOM     54  C   UNL A   1      43.940  25.503  28.779  1.00  0.00     0.074 A 
ATOM     55  C   UNL A   1      46.039  30.941  31.274  1.00  0.00     0.029 A 
ATOM     56  N   UNL A   1      44.794  29.342  30.358  1.00  0.00    -0.354 N 
ATOM     57  N   UNL A   1      44.278  26.660  29.296  1.00  0.00    -0.248 NA
ATOM     58  C   UNL A   1      45.048  24.543  28.670  1.00  0.00     0.031 C 
ATOM     59  C   UNL A   1      46.847  29.819  31.063  1.00  0.00     0.029 A 
ATOM     60  C   UNL A   1      46.064  28.815  30.515  1.00  0.00     0.049 A 
ATOM     61  H   UNL A   1      44.024  28.859  29.980  1.00  0.00     0.167 HD
ATOM     62  C   UNL A   1      45.629  26.553  29.604  1.00  0.00     0.074 A 
ATOM     63  C   UNL A   1      46.046  25.219  29.224  1.00  0.00     0.031 C 
ATOM     64  C   UNL A   1      46.453  27.477  30.155  1.00  0.00     0.031 A 
BRANCH  51  65
ATOM     65  C   UNL A   1      43.769  32.921  31.267  1.00  0.00    -0.014 A 
ATOM     66  C   UNL A   1      43.616  33.257  32.624  1.00  0.00     0.010 A 
ATOM     67  C   UNL A   1      44.146  33.919  30.349  1.00  0.00     0.010 A 
ATOM     68  C   UNL A   1      43.815  34.573  33.051  1.00  0.00     0.020 A 
ATOM     69  C   UNL A   1      44.370  35.230  30.777  1.00  0.00     0.020 A 
ATOM     70  C   UNL A   1      44.191  35.551  32.124  1.00  0.00     0.054 A 
BRANCH  70  71
ATOM     71  S   UNL A   1      44.491  37.240  32.715  1.00  0.00     0.124 S 
ATOM     72  O   UNL A   1      45.945  37.252  32.863  1.00  0.00    -0.237 OA
ATOM     73  O   UNL A   1      43.963  38.060  31.628  1.00  0.00    -0.237 OA
ATOM     74  O   UNL A   1      43.738  37.308  33.964  1.00  0.00    -0.744 OA
ENDBRANCH  70  71
ENDBRANCH  51  65
BRANCH  52  75
ATOM     75  C   UNL A   1      42.420  23.679  27.725  1.00  0.00    -0.014 A 
ATOM     76  C   UNL A   1      42.064  22.597  28.550  1.00  0.00     0.010 A 
ATOM     77  C   UNL A   1      42.638  23.452  26.354  1.00  0.00     0.010 A 
ATOM     78  C   UNL A   1      41.968  21.306  28.023  1.00  0.00     0.020 A 
ATOM     79  C   UNL A   1      42.515  22.166  25.818  1.00  0.00     0.020 A 
ATOM     80  C   UNL A   1      42.200  21.098  26.661  1.00  0.00     0.054 A 
BRANCH  80  81
ATOM     81  S   UNL A   1      42.052  19.418  25.991  1.00  0.00     0.124 S 
ATOM     82  O   UNL A   1      42.891  19.494  24.800  1.00  0.00    -0.237 OA
ATOM     83  O   UNL A   1      42.570  18.594  27.081  1.00  0.00    -0.237 OA
ATOM     84  O   UNL A   1      40.619  19.277  25.743  1.00  0.00    -0.744 OA
ENDBRANCH  80  81
ENDBRANCH  52  75
BRANCH  64  85
ATOM     85  C   UNL A   1      47.872  27.068  30.440  1.00  0.00    -0.014 A 
ATOM     86  C   UNL A   1      48.909  27.356  29.537  1.00  0.00     0.010 A 
ATOM     87  C   UNL A   1      48.178  26.455  31.669  1.00  0.00     0.010 A 
ATOM     88  C   UNL A   1      50.229  27.021  29.850  1.00  0.00     0.020 A 
ATOM     89  C   UNL A   1      49.498  26.141  31.997  1.00  0.00     0.020 A 
ATOM     90  C   UNL A   1      50.515  26.417  31.080  1.00  0.00     0.054 A 
BRANCH  90  91
ATOM     91  S   UNL A   1      52.243  26.051  31.494  1.00  0.00     0.124 S 
ATOM     92  O   UNL A   1      52.141  24.712  32.066  1.00  0.00    -0.237 OA
ATOM     93  O   UNL A   1      52.909  26.132  30.197  1.00  0.00    -0.237 OA
ATOM     94  O   UNL A   1      52.603  27.107  32.438  1.00  0.00    -0.744 OA
ENDBRANCH  90  91
ENDBRANCH  64  85
ENDBRANCH  38  39
ENDBRANCH  30  33
ENDBRANCH  28  29
ENDBRANCH  27  28
ENDBRANCH   1  27
TORSDOF 18
ENDMDL
