MODEL 1
REMARK VINA RESULT:     -11.7      0.000      0.000
REMARK SMILES C[N@H+]1C[C@@H](Oc2cccc3cccnc23)C[C@H]1C(=O)NCCCCNC(=O)c1ccc(-c2c3nc(c(-c4ccc(S(=O)(=O)[O-])cc4)c4ccc([nH]4)c(-c4ccc(S(=O)(=O)[O-])cc4)c4nc(c(-c5ccc(S(=O)(=O)[O-])cc5)c5ccc2[nH]5)C=C4)C=C3)cc1
REMARK SMILES IDX 23 1 22 2 21 3 20 4 18 5 19 6 17 8 1 9 2 10 3 11 4 13 16 14
REMARK SMILES IDX 5 15 6 16 7 17 15 18 8 19 10 20 14 21 9 22 11 23 13 24 12 25
REMARK SMILES IDX 24 26 25 27 26 28 27 30 28 31 29 32 87 33 30 34 86 35 31 36
REMARK SMILES IDX 32 37 33 38 80 39 34 40 85 41 79 42 81 43 35 44 84 45 78 46
REMARK SMILES IDX 77 47 36 49 66 50 47 51 65 52 48 53 51 54 64 55 82 56 49 57
REMARK SMILES IDX 50 58 63 60 83 61 52 62 37 63 38 64 46 65 39 66 45 67 40 68
REMARK SMILES IDX 41 69 42 70 43 71 44 72 67 73 68 74 76 75 69 76 75 77 70 78
REMARK SMILES IDX 71 79 72 80 73 81 74 82 53 83 54 84 62 85 55 86 61 87 56 88
REMARK SMILES IDX 57 89 58 90 59 91 60 92
REMARK H PARENT 20 7 2 12 25 29 81 48 51 59
REMARK Flexibility Score: inf
ROOT
ATOM      1  C   UNL A   1      33.408  28.760  25.565  1.00  0.00     0.023 C 
ENDROOT
BRANCH   1   2
ATOM      2  C   UNL A   1      32.174  29.367  24.896  1.00  0.00     0.023 C 
BRANCH   2   3
ATOM      3  C   UNL A   1      31.136  28.360  24.404  1.00  0.00     0.116 C 
BRANCH   3   4
ATOM      4  N   UNL A   1      31.026  27.129  25.157  1.00  0.00    -0.351 N 
ATOM      5  C   UNL A   1      31.408  25.863  24.820  1.00  0.00     0.278 C 
ATOM      6  O   UNL A   1      31.858  25.182  25.756  1.00  0.00    -0.268 OA
ATOM      7  H   UNL A   1      30.612  27.218  26.046  1.00  0.00     0.163 HD
BRANCH   5   8
ATOM      8  C   UNL A   1      31.293  25.191  23.430  1.00  0.00     0.278 C 
ATOM      9  C   UNL A   1      33.283  26.189  22.324  1.00  0.00     0.333 C 
ATOM     10  N   UNL A   1      32.483  25.032  22.608  1.00  0.00    -0.324 N 
ATOM     11  C   UNL A   1      33.056  23.706  22.770  1.00  0.00     0.308 C 
ATOM     12  H   UNL A   1      32.208  25.027  21.626  1.00  0.00     0.348 HD
ATOM     13  C   UNL A   1      31.883  22.835  23.300  1.00  0.00     0.234 C 
ATOM     14  C   UNL A   1      30.695  23.793  23.374  1.00  0.00     0.126 C 
BRANCH  13  15
ATOM     15  O   UNL A   1      32.214  21.945  24.372  1.00  0.00    -0.482 OA
BRANCH  15  16
ATOM     16  C   UNL A   1      33.399  21.293  24.589  1.00  0.00     0.146 A 
ATOM     17  C   UNL A   1      34.503  21.873  25.219  1.00  0.00     0.049 A 
ATOM     18  C   UNL A   1      33.433  19.920  24.250  1.00  0.00     0.112 A 
ATOM     19  C   UNL A   1      35.683  21.161  25.418  1.00  0.00     0.005 A 
ATOM     20  C   UNL A   1      34.619  19.193  24.528  1.00  0.00     0.004 A 
ATOM     21  N   UNL A   1      32.379  19.305  23.662  1.00  0.00    -0.252 NA
ATOM     22  C   UNL A   1      35.743  19.822  25.073  1.00  0.00     0.010 A 
ATOM     23  C   UNL A   1      34.660  17.823  24.251  1.00  0.00     0.012 A 
ATOM     24  C   UNL A   1      32.460  17.980  23.394  1.00  0.00     0.112 A 
ATOM     25  C   UNL A   1      33.561  17.201  23.681  1.00  0.00     0.021 A 
ENDBRANCH  15  16
ENDBRANCH  13  15
ENDBRANCH   5   8
ENDBRANCH   3   4
ENDBRANCH   2   3
ENDBRANCH   1   2
BRANCH   1  26
ATOM     26  C   UNL A   1      33.436  28.827  27.091  1.00  0.00     0.116 C 
BRANCH  26  27
ATOM     27  N   UNL A   1      33.466  30.173  27.640  1.00  0.00    -0.352 N 
ATOM     28  C   UNL A   1      34.502  30.820  28.281  1.00  0.00     0.251 C 
ATOM     29  H   UNL A   1      32.635  30.693  27.541  1.00  0.00     0.163 HD
ATOM     30  O   UNL A   1      34.337  31.951  28.724  1.00  0.00    -0.269 OA
BRANCH  28  31
ATOM     31  C   UNL A   1      35.815  30.147  28.458  1.00  0.00     0.039 A 
ATOM     32  C   UNL A   1      36.710  30.125  27.384  1.00  0.00     0.014 A 
ATOM     33  C   UNL A   1      36.174  29.547  29.668  1.00  0.00     0.014 A 
ATOM     34  C   UNL A   1      37.994  29.600  27.562  1.00  0.00     0.010 A 
ATOM     35  C   UNL A   1      37.467  29.072  29.863  1.00  0.00     0.010 A 
ATOM     36  C   UNL A   1      38.397  29.124  28.821  1.00  0.00    -0.014 A 
BRANCH  36  37
ATOM     37  C   UNL A   1      39.822  28.829  29.106  1.00  0.00     0.031 A 
ATOM     38  C   UNL A   1      40.736  29.865  29.693  1.00  0.00     0.074 A 
ATOM     39  C   UNL A   1      40.304  27.632  28.720  1.00  0.00     0.049 A 
ATOM     40  N   UNL A   1      41.996  29.751  30.022  1.00  0.00    -0.248 NA
ATOM     41  C   UNL A   1      40.176  31.208  29.910  1.00  0.00     0.031 C 
ATOM     42  C   UNL A   1      39.525  26.592  28.038  1.00  0.00     0.029 A 
ATOM     43  N   UNL A   1      41.555  27.085  28.833  1.00  0.00    -0.354 N 
ATOM     44  C   UNL A   1      42.383  31.003  30.488  1.00  0.00     0.074 A 
ATOM     45  C   UNL A   1      41.236  31.875  30.349  1.00  0.00     0.031 C 
ATOM     46  C   UNL A   1      40.306  25.522  27.829  1.00  0.00     0.029 A 
ATOM     47  C   UNL A   1      41.642  25.805  28.339  1.00  0.00     0.049 A 
ATOM     48  H   UNL A   1      42.318  27.564  29.231  1.00  0.00     0.167 HD
ATOM     49  C   UNL A   1      43.580  31.380  31.001  1.00  0.00     0.031 A 
ATOM     50  C   UNL A   1      42.678  24.947  28.312  1.00  0.00     0.031 A 
ATOM     51  C   UNL A   1      44.714  30.498  31.117  1.00  0.00     0.049 A 
ATOM     52  C   UNL A   1      43.979  25.370  28.930  1.00  0.00     0.074 A 
ATOM     53  C   UNL A   1      45.950  30.752  31.687  1.00  0.00     0.029 A 
ATOM     54  N   UNL A   1      44.753  29.192  30.647  1.00  0.00    -0.354 N 
ATOM     55  N   UNL A   1      44.291  26.521  29.477  1.00  0.00    -0.248 NA
ATOM     56  C   UNL A   1      45.056  24.374  28.954  1.00  0.00     0.031 C 
ATOM     57  C   UNL A   1      46.751  29.617  31.518  1.00  0.00     0.029 A 
ATOM     58  C   UNL A   1      45.997  28.636  30.894  1.00  0.00     0.049 A 
ATOM     59  H   UNL A   1      44.006  28.730  30.203  1.00  0.00     0.167 HD
ATOM     60  C   UNL A   1      45.597  26.381  29.930  1.00  0.00     0.074 A 
ATOM     61  C   UNL A   1      46.005  25.026  29.612  1.00  0.00     0.031 C 
ATOM     62  C   UNL A   1      46.386  27.289  30.555  1.00  0.00     0.031 A 
BRANCH  49  63
ATOM     63  C   UNL A   1      43.722  32.802  31.481  1.00  0.00    -0.014 A 
ATOM     64  C   UNL A   1      44.236  33.804  30.634  1.00  0.00     0.010 A 
ATOM     65  C   UNL A   1      43.293  33.159  32.772  1.00  0.00     0.010 A 
ATOM     66  C   UNL A   1      44.356  35.122  31.084  1.00  0.00     0.020 A 
ATOM     67  C   UNL A   1      43.386  34.483  33.216  1.00  0.00     0.020 A 
ATOM     68  C   UNL A   1      43.933  35.452  32.375  1.00  0.00     0.054 A 
BRANCH  68  69
ATOM     69  S   UNL A   1      44.084  37.175  32.923  1.00  0.00     0.124 S 
ATOM     70  O   UNL A   1      43.046  37.257  33.948  1.00  0.00    -0.237 OA
ATOM     71  O   UNL A   1      45.458  37.235  33.417  1.00  0.00    -0.237 OA
ATOM     72  O   UNL A   1      43.827  37.950  31.712  1.00  0.00    -0.744 OA
ENDBRANCH  68  69
ENDBRANCH  49  63
BRANCH  50  73
ATOM     73  C   UNL A   1      42.495  23.588  27.735  1.00  0.00    -0.014 A 
ATOM     74  C   UNL A   1      42.799  23.343  26.384  1.00  0.00     0.010 A 
ATOM     75  C   UNL A   1      42.062  22.521  28.544  1.00  0.00     0.010 A 
ATOM     76  C   UNL A   1      42.661  22.059  25.849  1.00  0.00     0.020 A 
ATOM     77  C   UNL A   1      41.948  21.231  28.018  1.00  0.00     0.020 A 
ATOM     78  C   UNL A   1      42.239  21.010  26.671  1.00  0.00     0.054 A 
BRANCH  78  79
ATOM     79  S   UNL A   1      42.130  19.340  25.970  1.00  0.00     0.124 S 
ATOM     80  O   UNL A   1      42.992  19.447  24.797  1.00  0.00    -0.237 OA
ATOM     81  O   UNL A   1      42.639  18.506  27.057  1.00  0.00    -0.237 OA
ATOM     82  O   UNL A   1      40.705  19.181  25.688  1.00  0.00    -0.744 OA
ENDBRANCH  78  79
ENDBRANCH  50  73
BRANCH  62  83
ATOM     83  C   UNL A   1      47.766  26.835  30.950  1.00  0.00    -0.014 A 
ATOM     84  C   UNL A   1      48.001  26.216  32.190  1.00  0.00     0.010 A 
ATOM     85  C   UNL A   1      48.835  27.004  30.051  1.00  0.00     0.010 A 
ATOM     86  C   UNL A   1      49.290  25.809  32.541  1.00  0.00     0.020 A 
ATOM     87  C   UNL A   1      50.119  26.573  30.388  1.00  0.00     0.020 A 
ATOM     88  C   UNL A   1      50.342  25.993  31.638  1.00  0.00     0.054 A 
BRANCH  88  89
ATOM     89  S   UNL A   1      52.001  25.430  32.105  1.00  0.00     0.124 S 
ATOM     90  O   UNL A   1      52.790  25.809  30.935  1.00  0.00    -0.237 OA
ATOM     91  O   UNL A   1      52.271  26.195  33.320  1.00  0.00    -0.237 OA
ATOM     92  O   UNL A   1      51.835  23.992  32.306  1.00  0.00    -0.744 OA
ENDBRANCH  88  89
ENDBRANCH  62  83
ENDBRANCH  36  37
ENDBRANCH  28  31
ENDBRANCH  26  27
ENDBRANCH   1  26
TORSDOF 16
ENDMDL
MODEL 2
REMARK VINA RESULT:     -11.5      1.290      8.380
REMARK SMILES C[N@H+]1C[C@@H](Oc2cccc3cccnc23)C[C@H]1C(=O)NCCCCNC(=O)c1ccc(-c2c3nc(c(-c4ccc(S(=O)(=O)[O-])cc4)c4ccc([nH]4)c(-c4ccc(S(=O)(=O)[O-])cc4)c4nc(c(-c5ccc(S(=O)(=O)[O-])cc5)c5ccc2[nH]5)C=C4)C=C3)cc1
REMARK SMILES IDX 23 1 22 2 21 3 20 4 18 5 19 6 17 8 1 9 2 10 3 11 4 13 16 14
REMARK SMILES IDX 5 15 6 16 7 17 15 18 8 19 10 20 14 21 9 22 11 23 13 24 12 25
REMARK SMILES IDX 24 26 25 27 26 28 27 30 28 31 29 32 87 33 30 34 86 35 31 36
REMARK SMILES IDX 32 37 33 38 80 39 34 40 85 41 79 42 81 43 35 44 84 45 78 46
REMARK SMILES IDX 77 47 36 49 66 50 47 51 65 52 48 53 51 54 64 55 82 56 49 57
REMARK SMILES IDX 50 58 63 60 83 61 52 62 37 63 38 64 46 65 39 66 45 67 40 68
REMARK SMILES IDX 41 69 42 70 43 71 44 72 67 73 68 74 76 75 69 76 75 77 70 78
REMARK SMILES IDX 71 79 72 80 73 81 74 82 53 83 54 84 62 85 55 86 61 87 56 88
REMARK SMILES IDX 57 89 58 90 59 91 60 92
REMARK H PARENT 20 7 2 12 25 29 81 48 51 59
REMARK Flexibility Score: inf
ROOT
ATOM      1  C   UNL A   1      33.753  28.616  25.809  1.00  0.00     0.023 C 
ENDROOT
BRANCH   1   2
ATOM      2  C   UNL A   1      33.742  27.168  25.315  1.00  0.00     0.023 C 
BRANCH   2   3
ATOM      3  C   UNL A   1      33.012  26.176  26.218  1.00  0.00     0.116 C 
BRANCH   3   4
ATOM      4  N   UNL A   1      31.569  26.292  26.268  1.00  0.00    -0.351 N 
ATOM      5  C   UNL A   1      30.609  25.427  25.827  1.00  0.00     0.278 C 
ATOM      6  O   UNL A   1      29.593  25.363  26.537  1.00  0.00    -0.268 OA
ATOM      7  H   UNL A   1      31.230  27.118  26.681  1.00  0.00     0.163 HD
BRANCH   5   8
ATOM      8  C   UNL A   1      30.641  24.576  24.534  1.00  0.00     0.278 C 
ATOM      9  C   UNL A   1      30.760  26.397  22.846  1.00  0.00     0.333 C 
ATOM     10  N   UNL A   1      31.231  25.130  23.324  1.00  0.00    -0.324 N 
ATOM     11  C   UNL A   1      32.613  24.702  23.175  1.00  0.00     0.308 C 
ATOM     12  H   UNL A   1      30.786  24.699  22.513  1.00  0.00     0.348 HD
ATOM     13  C   UNL A   1      32.719  23.414  24.038  1.00  0.00     0.234 C 
ATOM     14  C   UNL A   1      31.315  23.214  24.607  1.00  0.00     0.126 C 
BRANCH  13  15
ATOM     15  O   UNL A   1      33.893  23.315  24.851  1.00  0.00    -0.482 OA
BRANCH  15  16
ATOM     16  C   UNL A   1      34.750  22.252  24.965  1.00  0.00     0.146 A 
ATOM     17  C   UNL A   1      34.426  20.946  24.589  1.00  0.00     0.049 A 
ATOM     18  C   UNL A   1      36.070  22.549  25.379  1.00  0.00     0.112 A 
ATOM     19  C   UNL A   1      35.339  19.903  24.721  1.00  0.00     0.005 A 
ATOM     20  C   UNL A   1      37.007  21.485  25.438  1.00  0.00     0.004 A 
ATOM     21  N   UNL A   1      36.441  23.804  25.729  1.00  0.00    -0.252 NA
ATOM     22  C   UNL A   1      36.629  20.171  25.146  1.00  0.00     0.010 A 
ATOM     23  C   UNL A   1      38.331  21.762  25.794  1.00  0.00     0.012 A 
ATOM     24  C   UNL A   1      37.728  24.031  26.084  1.00  0.00     0.112 A 
ATOM     25  C   UNL A   1      38.703  23.056  26.115  1.00  0.00     0.021 A 
ENDBRANCH  15  16
ENDBRANCH  13  15
ENDBRANCH   5   8
ENDBRANCH   3   4
ENDBRANCH   2   3
ENDBRANCH   1   2
BRANCH   1  26
ATOM     26  C   UNL A   1      33.600  28.804  27.317  1.00  0.00     0.116 C 
BRANCH  26  27
ATOM     27  N   UNL A   1      33.674  30.184  27.767  1.00  0.00    -0.352 N 
ATOM     28  C   UNL A   1      34.750  30.858  28.306  1.00  0.00     0.251 C 
ATOM     29  H   UNL A   1      32.845  30.708  27.676  1.00  0.00     0.163 HD
ATOM     30  O   UNL A   1      34.622  32.020  28.678  1.00  0.00    -0.269 OA
BRANCH  28  31
ATOM     31  C   UNL A   1      36.062  30.180  28.461  1.00  0.00     0.039 A 
ATOM     32  C   UNL A   1      36.950  30.177  27.381  1.00  0.00     0.014 A 
ATOM     33  C   UNL A   1      36.429  29.556  29.657  1.00  0.00     0.014 A 
ATOM     34  C   UNL A   1      38.235  29.647  27.540  1.00  0.00     0.010 A 
ATOM     35  C   UNL A   1      37.722  29.075  29.834  1.00  0.00     0.010 A 
ATOM     36  C   UNL A   1      38.646  29.145  28.787  1.00  0.00    -0.014 A 
BRANCH  36  37
ATOM     37  C   UNL A   1      40.072  28.843  29.056  1.00  0.00     0.031 A 
ATOM     38  C   UNL A   1      40.673  27.513  28.705  1.00  0.00     0.074 A 
ATOM     39  C   UNL A   1      40.791  29.762  29.729  1.00  0.00     0.049 A 
ATOM     40  N   UNL A   1      41.907  27.108  28.854  1.00  0.00    -0.248 NA
ATOM     41  C   UNL A   1      39.769  26.496  28.145  1.00  0.00     0.031 C 
ATOM     42  C   UNL A   1      40.271  31.045  30.216  1.00  0.00     0.029 A 
ATOM     43  N   UNL A   1      42.102  29.765  30.128  1.00  0.00    -0.354 N 
ATOM     44  C   UNL A   1      41.934  25.793  28.404  1.00  0.00     0.074 A 
ATOM     45  C   UNL A   1      40.579  25.451  28.027  1.00  0.00     0.031 C 
ATOM     46  C   UNL A   1      41.262  31.724  30.813  1.00  0.00     0.029 A 
ATOM     47  C   UNL A   1      42.477  30.920  30.773  1.00  0.00     0.049 A 
ATOM     48  H   UNL A   1      42.716  29.012  29.967  1.00  0.00     0.167 HD
ATOM     49  C   UNL A   1      42.997  24.958  28.302  1.00  0.00     0.031 A 
ATOM     50  C   UNL A   1      43.672  31.298  31.264  1.00  0.00     0.031 A 
ATOM     51  C   UNL A   1      44.336  25.315  28.697  1.00  0.00     0.049 A 
ATOM     52  C   UNL A   1      44.844  30.377  31.093  1.00  0.00     0.074 A 
ATOM     53  C   UNL A   1      45.500  24.576  28.569  1.00  0.00     0.029 A 
ATOM     54  N   UNL A   1      44.690  26.512  29.306  1.00  0.00    -0.354 N 
ATOM     55  N   UNL A   1      44.876  29.180  30.555  1.00  0.00    -0.248 NA
ATOM     56  C   UNL A   1      46.144  30.864  31.569  1.00  0.00     0.031 C 
ATOM     57  C   UNL A   1      46.547  25.305  29.145  1.00  0.00     0.029 A 
ATOM     58  C   UNL A   1      46.048  26.522  29.579  1.00  0.00     0.049 A 
ATOM     59  H   UNL A   1      44.067  27.244  29.513  1.00  0.00     0.167 HD
ATOM     60  C   UNL A   1      46.204  28.779  30.608  1.00  0.00     0.074 A 
ATOM     61  C   UNL A   1      46.945  29.870  31.211  1.00  0.00     0.031 C 
ATOM     62  C   UNL A   1      46.762  27.614  30.193  1.00  0.00     0.031 A 
BRANCH  49  63
ATOM     63  C   UNL A   1      42.757  23.582  27.733  1.00  0.00    -0.014 A 
ATOM     64  C   UNL A   1      42.965  23.317  26.366  1.00  0.00     0.010 A 
ATOM     65  C   UNL A   1      42.369  22.526  28.578  1.00  0.00     0.010 A 
ATOM     66  C   UNL A   1      42.750  22.036  25.849  1.00  0.00     0.020 A 
ATOM     67  C   UNL A   1      42.179  21.236  28.069  1.00  0.00     0.020 A 
ATOM     68  C   UNL A   1      42.355  21.004  26.704  1.00  0.00     0.054 A 
BRANCH  68  69
ATOM     69  S   UNL A   1      42.101  19.348  26.007  1.00  0.00     0.124 S 
ATOM     70  O   UNL A   1      42.592  18.491  27.083  1.00  0.00    -0.237 OA
ATOM     71  O   UNL A   1      40.657  19.312  25.785  1.00  0.00    -0.237 OA
ATOM     72  O   UNL A   1      42.915  19.353  24.795  1.00  0.00    -0.744 OA
ENDBRANCH  68  69
ENDBRANCH  49  63
BRANCH  50  73
ATOM     73  C   UNL A   1      43.816  32.635  31.901  1.00  0.00    -0.014 A 
ATOM     74  C   UNL A   1      43.773  32.764  33.300  1.00  0.00     0.010 A 
ATOM     75  C   UNL A   1      44.048  33.779  31.114  1.00  0.00     0.010 A 
ATOM     76  C   UNL A   1      43.944  34.013  33.902  1.00  0.00     0.020 A 
ATOM     77  C   UNL A   1      44.245  35.026  31.714  1.00  0.00     0.020 A 
ATOM     78  C   UNL A   1      44.183  35.137  33.105  1.00  0.00     0.054 A 
BRANCH  78  79
ATOM     79  S   UNL A   1      44.466  36.737  33.911  1.00  0.00     0.124 S 
ATOM     80  O   UNL A   1      45.749  37.139  33.343  1.00  0.00    -0.237 OA
ATOM     81  O   UNL A   1      43.310  37.519  33.480  1.00  0.00    -0.237 OA
ATOM     82  O   UNL A   1      44.488  36.403  35.334  1.00  0.00    -0.744 OA
ENDBRANCH  78  79
ENDBRANCH  50  73
BRANCH  62  83
ATOM     83  C   UNL A   1      48.251  27.473  30.364  1.00  0.00    -0.014 A 
ATOM     84  C   UNL A   1      48.799  26.923  31.535  1.00  0.00     0.010 A 
ATOM     85  C   UNL A   1      49.109  27.867  29.322  1.00  0.00     0.010 A 
ATOM     86  C   UNL A   1      50.184  26.808  31.678  1.00  0.00     0.020 A 
ATOM     87  C   UNL A   1      50.492  27.726  29.450  1.00  0.00     0.020 A 
ATOM     88  C   UNL A   1      51.022  27.214  30.635  1.00  0.00     0.054 A 
BRANCH  88  89
ATOM     89  S   UNL A   1      52.814  27.026  30.832  1.00  0.00     0.124 S 
ATOM     90  O   UNL A   1      53.194  28.319  31.396  1.00  0.00    -0.237 OA
ATOM     91  O   UNL A   1      52.921  25.888  31.741  1.00  0.00    -0.237 OA
ATOM     92  O   UNL A   1      53.288  26.775  29.472  1.00  0.00    -0.744 OA
ENDBRANCH  88  89
ENDBRANCH  62  83
ENDBRANCH  36  37
ENDBRANCH  28  31
ENDBRANCH  26  27
ENDBRANCH   1  26
TORSDOF 16
ENDMDL
MODEL 3
REMARK VINA RESULT:     -11.5      1.196      1.865
REMARK SMILES C[N@H+]1C[C@@H](Oc2cccc3cccnc23)C[C@H]1C(=O)NCCCCNC(=O)c1ccc(-c2c3nc(c(-c4ccc(S(=O)(=O)[O-])cc4)c4ccc([nH]4)c(-c4ccc(S(=O)(=O)[O-])cc4)c4nc(c(-c5ccc(S(=O)(=O)[O-])cc5)c5ccc2[nH]5)C=C4)C=C3)cc1
REMARK SMILES IDX 23 1 22 2 21 3 20 4 18 5 19 6 17 8 1 9 2 10 3 11 4 13 16 14
REMARK SMILES IDX 5 15 6 16 7 17 15 18 8 19 10 20 14 21 9 22 11 23 13 24 12 25
REMARK SMILES IDX 24 26 25 27 26 28 27 30 28 31 29 32 87 33 30 34 86 35 31 36
REMARK SMILES IDX 32 37 33 38 80 39 34 40 85 41 79 42 81 43 35 44 84 45 78 46
REMARK SMILES IDX 77 47 36 49 66 50 47 51 65 52 48 53 51 54 64 55 82 56 49 57
REMARK SMILES IDX 50 58 63 60 83 61 52 62 37 63 38 64 46 65 39 66 45 67 40 68
REMARK SMILES IDX 41 69 42 70 43 71 44 72 67 73 68 74 76 75 69 76 75 77 70 78
REMARK SMILES IDX 71 79 72 80 73 81 74 82 53 83 54 84 62 85 55 86 61 87 56 88
REMARK SMILES IDX 57 89 58 90 59 91 60 92
REMARK H PARENT 20 7 2 12 25 29 81 48 51 59
REMARK Flexibility Score: inf
ROOT
ATOM      1  C   UNL A   1      33.320  28.274  27.258  1.00  0.00     0.023 C 
ENDROOT
BRANCH   1   2
ATOM      2  C   UNL A   1      31.838  28.183  27.624  1.00  0.00     0.023 C 
BRANCH   2   3
ATOM      3  C   UNL A   1      30.997  27.280  26.724  1.00  0.00     0.116 C 
BRANCH   3   4
ATOM      4  N   UNL A   1      31.636  26.074  26.243  1.00  0.00    -0.351 N 
ATOM      5  C   UNL A   1      32.287  25.841  25.066  1.00  0.00     0.278 C 
ATOM      6  O   UNL A   1      33.275  25.093  25.150  1.00  0.00    -0.268 OA
ATOM      7  H   UNL A   1      31.595  25.305  26.857  1.00  0.00     0.163 HD
BRANCH   5   8
ATOM      8  C   UNL A   1      31.896  26.365  23.663  1.00  0.00     0.278 C 
ATOM      9  C   UNL A   1      33.603  28.152  23.400  1.00  0.00     0.333 C 
ATOM     10  N   UNL A   1      32.893  27.037  22.844  1.00  0.00    -0.324 N 
ATOM     11  C   UNL A   1      33.504  26.113  21.901  1.00  0.00     0.308 C 
ATOM     12  H   UNL A   1      32.421  27.694  22.222  1.00  0.00     0.348 HD
ATOM     13  C   UNL A   1      32.476  24.954  21.767  1.00  0.00     0.234 C 
ATOM     14  C   UNL A   1      31.317  25.361  22.676  1.00  0.00     0.126 C 
BRANCH  13  15
ATOM     15  O   UNL A   1      33.032  23.635  21.783  1.00  0.00    -0.482 OA
BRANCH  15  16
ATOM     16  C   UNL A   1      33.154  22.787  22.853  1.00  0.00     0.146 A 
ATOM     17  C   UNL A   1      32.097  22.043  23.382  1.00  0.00     0.049 A 
ATOM     18  C   UNL A   1      34.464  22.587  23.349  1.00  0.00     0.112 A 
ATOM     19  C   UNL A   1      32.280  21.191  24.468  1.00  0.00     0.005 A 
ATOM     20  C   UNL A   1      34.642  21.660  24.409  1.00  0.00     0.004 A 
ATOM     21  N   UNL A   1      35.526  23.265  22.853  1.00  0.00    -0.252 NA
ATOM     22  C   UNL A   1      33.551  20.999  24.983  1.00  0.00     0.010 A 
ATOM     23  C   UNL A   1      35.933  21.406  24.883  1.00  0.00     0.012 A 
ATOM     24  C   UNL A   1      36.759  23.004  23.347  1.00  0.00     0.112 A 
ATOM     25  C   UNL A   1      37.012  22.082  24.341  1.00  0.00     0.021 A 
ENDBRANCH  15  16
ENDBRANCH  13  15
ENDBRANCH   5   8
ENDBRANCH   3   4
ENDBRANCH   2   3
ENDBRANCH   1   2
BRANCH   1  26
ATOM     26  C   UNL A   1      33.775  29.601  26.655  1.00  0.00     0.116 C 
BRANCH  26  27
ATOM     27  N   UNL A   1      33.699  30.737  27.559  1.00  0.00    -0.352 N 
ATOM     28  C   UNL A   1      34.624  31.158  28.492  1.00  0.00     0.251 C 
ATOM     29  H   UNL A   1      32.878  31.277  27.499  1.00  0.00     0.163 HD
ATOM     30  O   UNL A   1      34.374  32.120  29.210  1.00  0.00    -0.269 OA
BRANCH  28  31
ATOM     31  C   UNL A   1      35.915  30.441  28.650  1.00  0.00     0.039 A 
ATOM     32  C   UNL A   1      36.838  30.479  27.602  1.00  0.00     0.014 A 
ATOM     33  C   UNL A   1      36.227  29.740  29.819  1.00  0.00     0.014 A 
ATOM     34  C   UNL A   1      38.105  29.909  27.771  1.00  0.00     0.010 A 
ATOM     35  C   UNL A   1      37.502  29.219  30.010  1.00  0.00     0.010 A 
ATOM     36  C   UNL A   1      38.462  29.327  28.999  1.00  0.00    -0.014 A 
BRANCH  36  37
ATOM     37  C   UNL A   1      39.871  28.975  29.297  1.00  0.00     0.031 A 
ATOM     38  C   UNL A   1      40.815  29.967  29.913  1.00  0.00     0.074 A 
ATOM     39  C   UNL A   1      40.313  27.768  28.895  1.00  0.00     0.049 A 
ATOM     40  N   UNL A   1      42.065  29.801  30.256  1.00  0.00    -0.248 NA
ATOM     41  C   UNL A   1      40.301  31.326  30.147  1.00  0.00     0.031 C 
ATOM     42  C   UNL A   1      39.506  26.769  28.186  1.00  0.00     0.029 A 
ATOM     43  N   UNL A   1      41.543  27.174  29.015  1.00  0.00    -0.354 N 
ATOM     44  C   UNL A   1      42.491  31.029  30.749  1.00  0.00     0.074 A 
ATOM     45  C   UNL A   1      41.379  31.945  30.610  1.00  0.00     0.031 C 
ATOM     46  C   UNL A   1      40.250  25.674  27.968  1.00  0.00     0.029 A 
ATOM     47  C   UNL A   1      41.589  25.900  28.499  1.00  0.00     0.049 A 
ATOM     48  H   UNL A   1      42.317  27.617  29.431  1.00  0.00     0.167 HD
ATOM     49  C   UNL A   1      43.694  31.353  31.283  1.00  0.00     0.031 A 
ATOM     50  C   UNL A   1      42.593  25.004  28.471  1.00  0.00     0.031 A 
ATOM     51  C   UNL A   1      44.794  30.428  31.398  1.00  0.00     0.049 A 
ATOM     52  C   UNL A   1      43.900  25.369  29.112  1.00  0.00     0.074 A 
ATOM     53  C   UNL A   1      46.030  30.626  31.988  1.00  0.00     0.029 A 
ATOM     54  N   UNL A   1      44.792  29.130  30.905  1.00  0.00    -0.354 N 
ATOM     55  N   UNL A   1      44.247  26.498  29.683  1.00  0.00    -0.248 NA
ATOM     56  C   UNL A   1      44.940  24.333  29.132  1.00  0.00     0.031 C 
ATOM     57  C   UNL A   1      46.792  29.466  31.809  1.00  0.00     0.029 A 
ATOM     58  C   UNL A   1      46.011  28.524  31.159  1.00  0.00     0.049 A 
ATOM     59  H   UNL A   1      44.034  28.703  30.444  1.00  0.00     0.167 HD
ATOM     60  C   UNL A   1      45.541  26.302  30.150  1.00  0.00     0.074 A 
ATOM     61  C   UNL A   1      45.903  24.939  29.813  1.00  0.00     0.031 C 
ATOM     62  C   UNL A   1      46.354  27.170  30.801  1.00  0.00     0.031 A 
BRANCH  49  63
ATOM     63  C   UNL A   1      43.882  32.761  31.789  1.00  0.00    -0.014 A 
ATOM     64  C   UNL A   1      43.588  33.095  33.125  1.00  0.00     0.010 A 
ATOM     65  C   UNL A   1      44.407  33.753  30.941  1.00  0.00     0.010 A 
ATOM     66  C   UNL A   1      43.774  34.401  33.589  1.00  0.00     0.020 A 
ATOM     67  C   UNL A   1      44.621  35.054  31.410  1.00  0.00     0.020 A 
ATOM     68  C   UNL A   1      44.287  35.373  32.726  1.00  0.00     0.054 A 
BRANCH  68  69
ATOM     69  S   UNL A   1      44.535  37.054  33.363  1.00  0.00     0.124 S 
ATOM     70  O   UNL A   1      44.081  37.871  32.240  1.00  0.00    -0.237 OA
ATOM     71  O   UNL A   1      43.675  37.079  34.545  1.00  0.00    -0.237 OA
ATOM     72  O   UNL A   1      45.968  37.114  33.638  1.00  0.00    -0.744 OA
ENDBRANCH  68  69
ENDBRANCH  49  63
BRANCH  50  73
ATOM     73  C   UNL A   1      42.368  23.664  27.867  1.00  0.00    -0.014 A 
ATOM     74  C   UNL A   1      42.778  23.399  26.549  1.00  0.00     0.010 A 
ATOM     75  C   UNL A   1      41.786  22.629  28.624  1.00  0.00     0.010 A 
ATOM     76  C   UNL A   1      42.599  22.130  25.992  1.00  0.00     0.020 A 
ATOM     77  C   UNL A   1      41.630  21.351  28.079  1.00  0.00     0.020 A 
ATOM     78  C   UNL A   1      42.029  21.113  26.763  1.00  0.00     0.054 A 
BRANCH  78  79
ATOM     79  S   UNL A   1      41.866  19.456  26.040  1.00  0.00     0.124 S 
ATOM     80  O   UNL A   1      42.766  19.536  24.895  1.00  0.00    -0.237 OA
ATOM     81  O   UNL A   1      42.305  18.590  27.132  1.00  0.00    -0.237 OA
ATOM     82  O   UNL A   1      40.444  19.364  25.715  1.00  0.00    -0.744 OA
ENDBRANCH  78  79
ENDBRANCH  50  73
BRANCH  62  83
ATOM     83  C   UNL A   1      47.711  26.659  31.205  1.00  0.00    -0.014 A 
ATOM     84  C   UNL A   1      47.938  26.133  32.489  1.00  0.00     0.010 A 
ATOM     85  C   UNL A   1      48.765  26.678  30.274  1.00  0.00     0.010 A 
ATOM     86  C   UNL A   1      49.206  25.671  32.847  1.00  0.00     0.020 A 
ATOM     87  C   UNL A   1      50.027  26.190  30.619  1.00  0.00     0.020 A 
ATOM     88  C   UNL A   1      50.244  25.706  31.910  1.00  0.00     0.054 A 
BRANCH  88  89
ATOM     89  S   UNL A   1      51.874  25.073  32.390  1.00  0.00     0.124 S 
ATOM     90  O   UNL A   1      51.979  25.524  33.775  1.00  0.00    -0.237 OA
ATOM     91  O   UNL A   1      51.725  23.631  32.208  1.00  0.00    -0.237 OA
ATOM     92  O   UNL A   1      52.787  25.721  31.451  1.00  0.00    -0.744 OA
ENDBRANCH  88  89
ENDBRANCH  62  83
ENDBRANCH  36  37
ENDBRANCH  28  31
ENDBRANCH  26  27
ENDBRANCH   1  26
TORSDOF 16
ENDMDL
