MODEL 1
REMARK VINA RESULT:     -11.5      0.000      0.000
REMARK SMILES CC[C@](C)(NC(=O)[C@H]1CNc2ccccc2O1)C(=O)NCCCCNC(=O)c1ccc(-c2c3nc(c(-c4ccc(S(=O)(=O)[O-])cc4)c4ccc([nH]4)c(-c4ccc(S(=O)(=O)[O-])cc4)c4nc(c(-c5ccc(S(=O)(=O)[O-])cc5)c5ccc2[nH]5)C=C4)C=C3)cc1
REMARK SMILES IDX 23 1 22 2 21 3 20 4 18 5 19 6 3 8 4 9 2 10 1 11 5 12 6 13
REMARK SMILES IDX 7 15 8 16 9 17 17 18 10 19 16 20 11 21 15 23 12 24 14 25
REMARK SMILES IDX 13 26 24 27 25 28 26 29 27 31 28 32 29 33 87 34 30 35 86 36
REMARK SMILES IDX 31 37 32 38 33 39 80 40 34 41 85 42 79 43 81 44 35 45 84 46
REMARK SMILES IDX 78 47 77 48 36 50 66 51 47 52 65 53 48 54 51 55 64 56 82 57
REMARK SMILES IDX 49 58 50 59 63 61 83 62 52 63 37 64 38 65 46 66 39 67 45 68
REMARK SMILES IDX 40 69 41 70 42 71 43 72 44 73 67 74 68 75 76 76 69 77 75 78
REMARK SMILES IDX 70 79 71 80 72 81 73 82 74 83 53 84 54 85 62 86 55 87 61 88
REMARK SMILES IDX 56 89 57 90 58 91 59 92 60 93
REMARK H PARENT 20 7 5 14 10 22 25 30 81 49 51 60
REMARK Flexibility Score: inf
ROOT
ATOM      1  C   UNL A   1      38.211  19.972  25.048  1.00  0.00     0.023 C 
ENDROOT
BRANCH   1   2
ATOM      2  C   UNL A   1      37.136  21.025  24.765  1.00  0.00     0.023 C 
BRANCH   2   3
ATOM      3  C   UNL A   1      35.671  20.642  24.992  1.00  0.00     0.116 C 
BRANCH   3   4
ATOM      4  N   UNL A   1      35.049  21.131  26.215  1.00  0.00    -0.354 N 
ATOM      5  C   UNL A   1      33.765  21.478  26.551  1.00  0.00     0.245 C 
ATOM      6  O   UNL A   1      33.571  21.748  27.740  1.00  0.00    -0.272 OA
ATOM      7  H   UNL A   1      35.686  21.235  26.959  1.00  0.00     0.163 HD
BRANCH   5   8
ATOM      8  C   UNL A   1      32.589  21.505  25.520  1.00  0.00     0.116 C 
ATOM      9  C   UNL A   1      32.304  20.077  25.012  1.00  0.00     0.045 C 
BRANCH   8  10
ATOM     10  C   UNL A   1      33.084  22.424  24.340  1.00  0.00     0.035 C 
ATOM     11  C   UNL A   1      32.458  22.244  22.962  1.00  0.00     0.007 C 
ENDBRANCH   8  10
BRANCH   8  12
ATOM     12  N   UNL A   1      31.314  22.052  26.086  1.00  0.00    -0.339 N 
ATOM     13  C   UNL A   1      30.919  23.307  26.500  1.00  0.00     0.263 C 
ATOM     14  H   UNL A   1      30.608  21.371  26.181  1.00  0.00     0.164 HD
ATOM     15  O   UNL A   1      29.957  23.319  27.277  1.00  0.00    -0.271 OA
BRANCH  13  16
ATOM     16  C   UNL A   1      31.561  24.622  25.982  1.00  0.00     0.281 C 
ATOM     17  C   UNL A   1      30.612  25.158  24.933  1.00  0.00     0.168 C 
ATOM     18  O   UNL A   1      31.726  25.641  27.004  1.00  0.00    -0.477 OA
ATOM     19  N   UNL A   1      31.213  26.270  24.244  1.00  0.00    -0.378 N 
ATOM     20  C   UNL A   1      31.718  26.947  26.524  1.00  0.00     0.143 A 
ATOM     21  C   UNL A   1      31.506  27.273  25.165  1.00  0.00     0.077 A 
ATOM     22  H   UNL A   1      31.390  26.314  23.276  1.00  0.00     0.160 HD
ATOM     23  C   UNL A   1      31.832  27.973  27.458  1.00  0.00     0.049 A 
ATOM     24  C   UNL A   1      31.491  28.605  24.748  1.00  0.00     0.029 A 
ATOM     25  C   UNL A   1      31.754  29.309  27.039  1.00  0.00     0.004 A 
ATOM     26  C   UNL A   1      31.598  29.624  25.688  1.00  0.00     0.002 A 
ENDBRANCH  13  16
ENDBRANCH   8  12
ENDBRANCH   5   8
ENDBRANCH   3   4
ENDBRANCH   2   3
ENDBRANCH   1   2
BRANCH   1  27
ATOM     27  C   UNL A   1      39.316  20.344  26.015  1.00  0.00     0.116 C 
BRANCH  27  28
ATOM     28  N   UNL A   1      40.379  19.365  26.036  1.00  0.00    -0.352 N 
ATOM     29  C   UNL A   1      41.735  19.573  26.098  1.00  0.00     0.251 C 
ATOM     30  H   UNL A   1      40.093  18.424  26.003  1.00  0.00     0.163 HD
ATOM     31  O   UNL A   1      42.496  18.627  25.888  1.00  0.00    -0.269 OA
BRANCH  29  32
ATOM     32  C   UNL A   1      42.289  20.918  26.395  1.00  0.00     0.039 A 
ATOM     33  C   UNL A   1      42.563  21.785  25.332  1.00  0.00     0.014 A 
ATOM     34  C   UNL A   1      42.583  21.317  27.704  1.00  0.00     0.014 A 
ATOM     35  C   UNL A   1      43.099  23.052  25.583  1.00  0.00     0.010 A 
ATOM     36  C   UNL A   1      43.037  22.610  27.958  1.00  0.00     0.010 A 
ATOM     37  C   UNL A   1      43.329  23.483  26.899  1.00  0.00    -0.014 A 
BRANCH  37  38
ATOM     38  C   UNL A   1      43.935  24.810  27.186  1.00  0.00     0.031 A 
ATOM     39  C   UNL A   1      43.069  25.936  27.694  1.00  0.00     0.074 A 
ATOM     40  C   UNL A   1      45.246  25.022  26.959  1.00  0.00     0.049 A 
ATOM     41  N   UNL A   1      43.391  27.180  27.941  1.00  0.00    -0.248 NA
ATOM     42  C   UNL A   1      41.649  25.627  27.930  1.00  0.00     0.031 C 
ATOM     43  C   UNL A   1      46.189  24.031  26.438  1.00  0.00     0.029 A 
ATOM     44  N   UNL A   1      46.012  26.148  27.134  1.00  0.00    -0.354 N 
ATOM     45  C   UNL A   1      42.215  27.804  28.341  1.00  0.00     0.074 A 
ATOM     46  C   UNL A   1      41.162  26.816  28.251  1.00  0.00     0.031 C 
ATOM     47  C   UNL A   1      47.411  24.585  26.359  1.00  0.00     0.029 A 
ATOM     48  C   UNL A   1      47.331  25.979  26.790  1.00  0.00     0.049 A 
ATOM     49  H   UNL A   1      45.649  26.999  27.475  1.00  0.00     0.167 HD
ATOM     50  C   UNL A   1      42.027  29.075  28.768  1.00  0.00     0.031 A 
ATOM     51  C   UNL A   1      48.364  26.846  26.814  1.00  0.00     0.031 A 
ATOM     52  C   UNL A   1      43.074  30.053  28.879  1.00  0.00     0.049 A 
ATOM     53  C   UNL A   1      48.137  28.249  27.304  1.00  0.00     0.074 A 
ATOM     54  C   UNL A   1      42.992  31.357  29.335  1.00  0.00     0.029 A 
ATOM     55  N   UNL A   1      44.401  29.830  28.542  1.00  0.00    -0.354 N 
ATOM     56  N   UNL A   1      47.022  28.809  27.708  1.00  0.00    -0.248 NA
ATOM     57  C   UNL A   1      49.309  29.133  27.355  1.00  0.00     0.031 C 
ATOM     58  C   UNL A   1      44.262  31.934  29.241  1.00  0.00     0.029 A 
ATOM     59  C   UNL A   1      45.145  30.974  28.772  1.00  0.00     0.049 A 
ATOM     60  H   UNL A   1      44.760  28.984  28.191  1.00  0.00     0.167 HD
ATOM     61  C   UNL A   1      47.362  30.104  28.080  1.00  0.00     0.074 A 
ATOM     62  C   UNL A   1      48.789  30.241  27.868  1.00  0.00     0.031 C 
ATOM     63  C   UNL A   1      46.564  31.093  28.555  1.00  0.00     0.031 A 
BRANCH  50  64
ATOM     64  C   UNL A   1      40.627  29.474  29.156  1.00  0.00    -0.014 A 
ATOM     65  C   UNL A   1      40.292  29.719  30.500  1.00  0.00     0.010 A 
ATOM     66  C   UNL A   1      39.640  29.631  28.165  1.00  0.00     0.010 A 
ATOM     67  C   UNL A   1      38.986  30.067  30.852  1.00  0.00     0.020 A 
ATOM     68  C   UNL A   1      38.338  30.005  28.511  1.00  0.00     0.020 A 
ATOM     69  C   UNL A   1      38.015  30.203  29.856  1.00  0.00     0.054 A 
BRANCH  69  70
ATOM     70  S   UNL A   1      36.330  30.668  30.341  1.00  0.00     0.124 S 
ATOM     71  O   UNL A   1      35.634  30.652  29.056  1.00  0.00    -0.237 OA
ATOM     72  O   UNL A   1      35.956  29.606  31.270  1.00  0.00    -0.237 OA
ATOM     73  O   UNL A   1      36.496  31.989  30.942  1.00  0.00    -0.744 OA
ENDBRANCH  69  70
ENDBRANCH  50  64
BRANCH  51  74
ATOM     74  C   UNL A   1      49.714  26.396  26.378  1.00  0.00    -0.014 A 
ATOM     75  C   UNL A   1      50.136  26.587  25.052  1.00  0.00     0.010 A 
ATOM     76  C   UNL A   1      50.597  25.803  27.300  1.00  0.00     0.010 A 
ATOM     77  C   UNL A   1      51.413  26.185  24.650  1.00  0.00     0.020 A 
ATOM     78  C   UNL A   1      51.883  25.423  26.908  1.00  0.00     0.020 A 
ATOM     79  C   UNL A   1      52.281  25.609  25.583  1.00  0.00     0.054 A 
BRANCH  79  80
ATOM     80  S   UNL A   1      53.959  25.159  25.059  1.00  0.00     0.124 S 
ATOM     81  O   UNL A   1      53.841  23.719  24.862  1.00  0.00    -0.237 OA
ATOM     82  O   UNL A   1      54.135  25.954  23.845  1.00  0.00    -0.237 OA
ATOM     83  O   UNL A   1      54.790  25.571  26.188  1.00  0.00    -0.744 OA
ENDBRANCH  79  80
ENDBRANCH  51  74
BRANCH  63  84
ATOM     84  C   UNL A   1      47.217  32.402  28.904  1.00  0.00    -0.014 A 
ATOM     85  C   UNL A   1      47.750  32.630  30.184  1.00  0.00     0.010 A 
ATOM     86  C   UNL A   1      47.352  33.396  27.917  1.00  0.00     0.010 A 
ATOM     87  C   UNL A   1      48.382  33.840  30.480  1.00  0.00     0.020 A 
ATOM     88  C   UNL A   1      48.004  34.598  28.202  1.00  0.00     0.020 A 
ATOM     89  C   UNL A   1      48.505  34.817  29.487  1.00  0.00     0.054 A 
BRANCH  89  90
ATOM     90  S   UNL A   1      49.371  36.361  29.880  1.00  0.00     0.124 S 
ATOM     91  O   UNL A   1      50.528  36.296  28.991  1.00  0.00    -0.237 OA
ATOM     92  O   UNL A   1      48.380  37.381  29.547  1.00  0.00    -0.237 OA
ATOM     93  O   UNL A   1      49.672  36.236  31.305  1.00  0.00    -0.744 OA
ENDBRANCH  89  90
ENDBRANCH  63  84
ENDBRANCH  37  38
ENDBRANCH  29  32
ENDBRANCH  27  28
ENDBRANCH   1  27
TORSDOF 17
ENDMDL
MODEL 2
REMARK VINA RESULT:     -11.5      4.785     10.281
REMARK SMILES CC[C@](C)(NC(=O)[C@H]1CNc2ccccc2O1)C(=O)NCCCCNC(=O)c1ccc(-c2c3nc(c(-c4ccc(S(=O)(=O)[O-])cc4)c4ccc([nH]4)c(-c4ccc(S(=O)(=O)[O-])cc4)c4nc(c(-c5ccc(S(=O)(=O)[O-])cc5)c5ccc2[nH]5)C=C4)C=C3)cc1
REMARK SMILES IDX 23 1 22 2 21 3 20 4 18 5 19 6 3 8 4 9 2 10 1 11 5 12 6 13
REMARK SMILES IDX 7 15 8 16 9 17 17 18 10 19 16 20 11 21 15 23 12 24 14 25
REMARK SMILES IDX 13 26 24 27 25 28 26 29 27 31 28 32 29 33 87 34 30 35 86 36
REMARK SMILES IDX 31 37 32 38 33 39 80 40 34 41 85 42 79 43 81 44 35 45 84 46
REMARK SMILES IDX 78 47 77 48 36 50 66 51 47 52 65 53 48 54 51 55 64 56 82 57
REMARK SMILES IDX 49 58 50 59 63 61 83 62 52 63 37 64 38 65 46 66 39 67 45 68
REMARK SMILES IDX 40 69 41 70 42 71 43 72 44 73 67 74 68 75 76 76 69 77 75 78
REMARK SMILES IDX 70 79 71 80 72 81 73 82 74 83 53 84 54 85 62 86 55 87 61 88
REMARK SMILES IDX 56 89 57 90 58 91 59 92 60 93
REMARK H PARENT 20 7 5 14 10 22 25 30 81 49 51 60
REMARK Flexibility Score: inf
ROOT
ATOM      1  C   UNL A   1      33.612  33.898  27.992  1.00  0.00     0.023 C 
ENDROOT
BRANCH   1   2
ATOM      2  C   UNL A   1      33.315  34.835  29.165  1.00  0.00     0.023 C 
BRANCH   2   3
ATOM      3  C   UNL A   1      34.251  34.798  30.377  1.00  0.00     0.116 C 
BRANCH   3   4
ATOM      4  N   UNL A   1      33.727  34.187  31.590  1.00  0.00    -0.354 N 
ATOM      5  C   UNL A   1      34.310  33.704  32.734  1.00  0.00     0.245 C 
ATOM      6  O   UNL A   1      33.535  33.352  33.629  1.00  0.00    -0.272 OA
ATOM      7  H   UNL A   1      32.747  34.100  31.589  1.00  0.00     0.163 HD
BRANCH   5   8
ATOM      8  C   UNL A   1      35.859  33.626  32.938  1.00  0.00     0.116 C 
ATOM      9  C   UNL A   1      36.515  34.946  32.484  1.00  0.00     0.045 C 
BRANCH   8  10
ATOM     10  C   UNL A   1      36.343  32.429  32.035  1.00  0.00     0.035 C 
ATOM     11  C   UNL A   1      37.151  32.740  30.781  1.00  0.00     0.007 C 
ENDBRANCH   8  10
BRANCH   8  12
ATOM     12  N   UNL A   1      36.261  33.381  34.360  1.00  0.00    -0.339 N 
ATOM     13  C   UNL A   1      37.238  32.607  34.952  1.00  0.00     0.263 C 
ATOM     14  H   UNL A   1      35.714  33.880  35.010  1.00  0.00     0.164 HD
ATOM     15  O   UNL A   1      37.030  32.327  36.139  1.00  0.00    -0.271 OA
BRANCH  13  16
ATOM     16  C   UNL A   1      38.545  32.177  34.233  1.00  0.00     0.281 C 
ATOM     17  C   UNL A   1      39.606  32.116  35.309  1.00  0.00     0.168 C 
ATOM     18  O   UNL A   1      38.469  30.873  33.599  1.00  0.00    -0.477 OA
ATOM     19  N   UNL A   1      40.903  31.924  34.715  1.00  0.00    -0.378 N 
ATOM     20  C   UNL A   1      39.689  30.215  33.483  1.00  0.00     0.143 A 
ATOM     21  C   UNL A   1      40.902  30.734  33.992  1.00  0.00     0.077 A 
ATOM     22  H   UNL A   1      41.668  32.537  34.805  1.00  0.00     0.160 HD
ATOM     23  C   UNL A   1      39.679  28.941  32.920  1.00  0.00     0.049 A 
ATOM     24  C   UNL A   1      42.092  30.016  33.860  1.00  0.00     0.029 A 
ATOM     25  C   UNL A   1      40.868  28.202  32.848  1.00  0.00     0.004 A 
ATOM     26  C   UNL A   1      42.072  28.742  33.303  1.00  0.00     0.002 A 
ENDBRANCH  13  16
ENDBRANCH   8  12
ENDBRANCH   5   8
ENDBRANCH   3   4
ENDBRANCH   2   3
ENDBRANCH   1   2
BRANCH   1  27
ATOM     27  C   UNL A   1      34.469  32.681  28.270  1.00  0.00     0.116 C 
BRANCH  27  28
ATOM     28  N   UNL A   1      33.744  31.444  28.084  1.00  0.00    -0.352 N 
ATOM     29  C   UNL A   1      34.238  30.169  27.967  1.00  0.00     0.251 C 
ATOM     30  H   UNL A   1      32.764  31.528  28.035  1.00  0.00     0.163 HD
ATOM     31  O   UNL A   1      33.485  29.266  27.596  1.00  0.00    -0.269 OA
BRANCH  29  32
ATOM     32  C   UNL A   1      35.663  29.871  28.262  1.00  0.00     0.039 A 
ATOM     33  C   UNL A   1      36.612  30.047  27.250  1.00  0.00     0.014 A 
ATOM     34  C   UNL A   1      36.065  29.380  29.509  1.00  0.00     0.014 A 
ATOM     35  C   UNL A   1      37.959  29.760  27.497  1.00  0.00     0.010 A 
ATOM     36  C   UNL A   1      37.417  29.175  29.779  1.00  0.00     0.010 A 
ATOM     37  C   UNL A   1      38.377  29.335  28.768  1.00  0.00    -0.014 A 
BRANCH  37  38
ATOM     38  C   UNL A   1      39.797  28.987  29.041  1.00  0.00     0.031 A 
ATOM     39  C   UNL A   1      40.717  30.014  29.651  1.00  0.00     0.074 A 
ATOM     40  C   UNL A   1      40.274  27.770  28.711  1.00  0.00     0.049 A 
ATOM     41  N   UNL A   1      41.998  29.929  29.904  1.00  0.00    -0.248 NA
ATOM     42  C   UNL A   1      40.123  31.317  29.995  1.00  0.00     0.031 C 
ATOM     43  C   UNL A   1      39.501  26.695  28.085  1.00  0.00     0.029 A 
ATOM     44  N   UNL A   1      41.531  27.235  28.854  1.00  0.00    -0.354 N 
ATOM     45  C   UNL A   1      42.365  31.168  30.419  1.00  0.00     0.074 A 
ATOM     46  C   UNL A   1      41.184  32.003  30.390  1.00  0.00     0.031 C 
ATOM     47  C   UNL A   1      40.294  25.623  27.920  1.00  0.00     0.029 A 
ATOM     48  C   UNL A   1      41.637  25.944  28.395  1.00  0.00     0.049 A 
ATOM     49  H   UNL A   1      42.285  27.731  29.247  1.00  0.00     0.167 HD
ATOM     50  C   UNL A   1      43.567  31.571  30.896  1.00  0.00     0.031 A 
ATOM     51  C   UNL A   1      42.695  25.110  28.358  1.00  0.00     0.031 A 
ATOM     52  C   UNL A   1      44.736  30.737  30.946  1.00  0.00     0.049 A 
ATOM     53  C   UNL A   1      44.018  25.572  28.904  1.00  0.00     0.074 A 
ATOM     54  C   UNL A   1      45.991  31.041  31.444  1.00  0.00     0.029 A 
ATOM     55  N   UNL A   1      44.792  29.427  30.494  1.00  0.00    -0.354 N 
ATOM     56  N   UNL A   1      44.335  26.738  29.415  1.00  0.00    -0.248 NA
ATOM     57  C   UNL A   1      45.122  24.602  28.882  1.00  0.00     0.031 C 
ATOM     58  C   UNL A   1      46.816  29.927  31.261  1.00  0.00     0.029 A 
ATOM     59  C   UNL A   1      46.061  28.912  30.694  1.00  0.00     0.049 A 
ATOM     60  H   UNL A   1      44.040  28.937  30.091  1.00  0.00     0.167 HD
ATOM     61  C   UNL A   1      45.668  26.635  29.794  1.00  0.00     0.074 A 
ATOM     62  C   UNL A   1      46.095  25.289  29.468  1.00  0.00     0.031 C 
ATOM     63  C   UNL A   1      46.468  27.571  30.362  1.00  0.00     0.031 A 
BRANCH  50  64
ATOM     64  C   UNL A   1      43.668  32.983  31.410  1.00  0.00    -0.014 A 
ATOM     65  C   UNL A   1      43.856  34.062  30.527  1.00  0.00     0.010 A 
ATOM     66  C   UNL A   1      43.549  33.240  32.788  1.00  0.00     0.010 A 
ATOM     67  C   UNL A   1      43.971  35.366  31.015  1.00  0.00     0.020 A 
ATOM     68  C   UNL A   1      43.637  34.547  33.279  1.00  0.00     0.020 A 
ATOM     69  C   UNL A   1      43.866  35.600  32.390  1.00  0.00     0.054 A 
BRANCH  69  70
ATOM     70  S   UNL A   1      44.005  37.303  32.995  1.00  0.00     0.124 S 
ATOM     71  O   UNL A   1      42.879  37.384  33.923  1.00  0.00    -0.237 OA
ATOM     72  O   UNL A   1      45.329  37.320  33.612  1.00  0.00    -0.237 OA
ATOM     73  O   UNL A   1      43.875  38.112  31.785  1.00  0.00    -0.744 OA
ENDBRANCH  69  70
ENDBRANCH  50  64
BRANCH  51  74
ATOM     74  C   UNL A   1      42.535  23.740  27.799  1.00  0.00    -0.014 A 
ATOM     75  C   UNL A   1      42.815  23.484  26.446  1.00  0.00     0.010 A 
ATOM     76  C   UNL A   1      42.131  22.677  28.628  1.00  0.00     0.010 A 
ATOM     77  C   UNL A   1      42.686  22.192  25.928  1.00  0.00     0.020 A 
ATOM     78  C   UNL A   1      42.025  21.380  28.119  1.00  0.00     0.020 A 
ATOM     79  C   UNL A   1      42.296  21.146  26.770  1.00  0.00     0.054 A 
BRANCH  79  80
ATOM     80  S   UNL A   1      42.203  19.465  26.095  1.00  0.00     0.124 S 
ATOM     81  O   UNL A   1      42.655  18.658  27.224  1.00  0.00    -0.237 OA
ATOM     82  O   UNL A   1      40.789  19.339  25.752  1.00  0.00    -0.237 OA
ATOM     83  O   UNL A   1      43.111  19.507  24.951  1.00  0.00    -0.744 OA
ENDBRANCH  79  80
ENDBRANCH  51  74
BRANCH  63  84
ATOM     84  C   UNL A   1      47.880  27.169  30.692  1.00  0.00    -0.014 A 
ATOM     85  C   UNL A   1      48.201  26.601  31.937  1.00  0.00     0.010 A 
ATOM     86  C   UNL A   1      48.887  27.304  29.719  1.00  0.00     0.010 A 
ATOM     87  C   UNL A   1      49.512  26.203  32.214  1.00  0.00     0.020 A 
ATOM     88  C   UNL A   1      50.193  26.884  29.983  1.00  0.00     0.020 A 
ATOM     89  C   UNL A   1      50.499  26.347  31.234  1.00  0.00     0.054 A 
BRANCH  89  90
ATOM     90  S   UNL A   1      52.183  25.779  31.599  1.00  0.00     0.124 S 
ATOM     91  O   UNL A   1      51.954  24.395  32.006  1.00  0.00    -0.237 OA
ATOM     92  O   UNL A   1      52.866  25.953  30.319  1.00  0.00    -0.237 OA
ATOM     93  O   UNL A   1      52.628  26.677  32.663  1.00  0.00    -0.744 OA
ENDBRANCH  89  90
ENDBRANCH  63  84
ENDBRANCH  37  38
ENDBRANCH  29  32
ENDBRANCH  27  28
ENDBRANCH   1  27
TORSDOF 17
ENDMDL
MODEL 3
REMARK VINA RESULT:     -11.5      2.407      8.690
REMARK SMILES CC[C@](C)(NC(=O)[C@H]1CNc2ccccc2O1)C(=O)NCCCCNC(=O)c1ccc(-c2c3nc(c(-c4ccc(S(=O)(=O)[O-])cc4)c4ccc([nH]4)c(-c4ccc(S(=O)(=O)[O-])cc4)c4nc(c(-c5ccc(S(=O)(=O)[O-])cc5)c5ccc2[nH]5)C=C4)C=C3)cc1
REMARK SMILES IDX 23 1 22 2 21 3 20 4 18 5 19 6 3 8 4 9 2 10 1 11 5 12 6 13
REMARK SMILES IDX 7 15 8 16 9 17 17 18 10 19 16 20 11 21 15 23 12 24 14 25
REMARK SMILES IDX 13 26 24 27 25 28 26 29 27 31 28 32 29 33 87 34 30 35 86 36
REMARK SMILES IDX 31 37 32 38 33 39 80 40 34 41 85 42 79 43 81 44 35 45 84 46
REMARK SMILES IDX 78 47 77 48 36 50 66 51 47 52 65 53 48 54 51 55 64 56 82 57
REMARK SMILES IDX 49 58 50 59 63 61 83 62 52 63 37 64 38 65 46 66 39 67 45 68
REMARK SMILES IDX 40 69 41 70 42 71 43 72 44 73 67 74 68 75 76 76 69 77 75 78
REMARK SMILES IDX 70 79 71 80 72 81 73 82 74 83 53 84 54 85 62 86 55 87 61 88
REMARK SMILES IDX 56 89 57 90 58 91 59 92 60 93
REMARK H PARENT 20 7 5 14 10 22 25 30 81 49 51 60
REMARK Flexibility Score: inf
ROOT
ATOM      1  C   UNL A   1      34.121  30.929  27.394  1.00  0.00     0.023 C 
ENDROOT
BRANCH   1   2
ATOM      2  C   UNL A   1      33.133  29.842  26.963  1.00  0.00     0.023 C 
BRANCH   2   3
ATOM      3  C   UNL A   1      32.559  29.906  25.544  1.00  0.00     0.116 C 
BRANCH   3   4
ATOM      4  N   UNL A   1      33.456  29.532  24.459  1.00  0.00    -0.354 N 
ATOM      5  C   UNL A   1      33.310  28.760  23.335  1.00  0.00     0.245 C 
ATOM      6  O   UNL A   1      34.267  28.752  22.555  1.00  0.00    -0.272 OA
ATOM      7  H   UNL A   1      34.358  29.914  24.552  1.00  0.00     0.163 HD
BRANCH   5   8
ATOM      8  C   UNL A   1      32.008  27.953  23.013  1.00  0.00     0.116 C 
ATOM      9  C   UNL A   1      30.884  28.920  22.588  1.00  0.00     0.045 C 
BRANCH   8  10
ATOM     10  C   UNL A   1      31.627  27.217  24.353  1.00  0.00     0.035 C 
ATOM     11  C   UNL A   1      30.217  26.658  24.504  1.00  0.00     0.007 C 
ENDBRANCH   8  10
BRANCH   8  12
ATOM     12  N   UNL A   1      32.185  26.948  21.917  1.00  0.00    -0.339 N 
ATOM     13  C   UNL A   1      32.953  25.809  21.787  1.00  0.00     0.263 C 
ATOM     14  H   UNL A   1      31.637  27.140  21.122  1.00  0.00     0.164 HD
ATOM     15  O   UNL A   1      33.162  25.454  20.621  1.00  0.00    -0.271 OA
BRANCH  13  16
ATOM     16  C   UNL A   1      33.458  24.973  22.994  1.00  0.00     0.281 C 
ATOM     17  C   UNL A   1      32.624  23.711  22.998  1.00  0.00     0.168 C 
ATOM     18  O   UNL A   1      34.856  24.590  22.903  1.00  0.00    -0.477 OA
ATOM     19  N   UNL A   1      32.873  22.957  24.199  1.00  0.00    -0.378 N 
ATOM     20  C   UNL A   1      35.179  23.419  23.582  1.00  0.00     0.143 A 
ATOM     21  C   UNL A   1      34.224  22.624  24.256  1.00  0.00     0.077 A 
ATOM     22  H   UNL A   1      32.196  22.717  24.873  1.00  0.00     0.160 HD
ATOM     23  C   UNL A   1      36.496  22.974  23.501  1.00  0.00     0.049 A 
ATOM     24  C   UNL A   1      34.608  21.449  24.904  1.00  0.00     0.029 A 
ATOM     25  C   UNL A   1      36.861  21.761  24.102  1.00  0.00     0.004 A 
ATOM     26  C   UNL A   1      35.924  21.009  24.813  1.00  0.00     0.002 A 
ENDBRANCH  13  16
ENDBRANCH   8  12
ENDBRANCH   5   8
ENDBRANCH   3   4
ENDBRANCH   2   3
ENDBRANCH   1   2
BRANCH   1  27
ATOM     27  C   UNL A   1      35.386  30.484  28.097  1.00  0.00     0.116 C 
BRANCH  27  28
ATOM     28  N   UNL A   1      35.333  30.715  29.523  1.00  0.00    -0.352 N 
ATOM     29  C   UNL A   1      36.290  30.453  30.471  1.00  0.00     0.251 C 
ATOM     30  H   UNL A   1      34.498  31.115  29.860  1.00  0.00     0.163 HD
ATOM     31  O   UNL A   1      35.985  30.515  31.664  1.00  0.00    -0.269 OA
BRANCH  29  32
ATOM     32  C   UNL A   1      37.673  30.080  30.078  1.00  0.00     0.039 A 
ATOM     33  C   UNL A   1      38.009  30.073  28.721  1.00  0.00     0.014 A 
ATOM     34  C   UNL A   1      38.625  29.695  31.028  1.00  0.00     0.014 A 
ATOM     35  C   UNL A   1      39.301  29.712  28.322  1.00  0.00     0.010 A 
ATOM     36  C   UNL A   1      39.934  29.418  30.636  1.00  0.00     0.010 A 
ATOM     37  C   UNL A   1      40.280  29.394  29.277  1.00  0.00    -0.014 A 
BRANCH  37  38
ATOM     38  C   UNL A   1      41.647  28.969  28.874  1.00  0.00     0.031 A 
ATOM     39  C   UNL A   1      42.774  29.971  28.873  1.00  0.00     0.074 A 
ATOM     40  C   UNL A   1      41.874  27.702  28.473  1.00  0.00     0.049 A 
ATOM     41  N   UNL A   1      44.017  29.816  28.494  1.00  0.00    -0.248 NA
ATOM     42  C   UNL A   1      42.453  31.332  29.334  1.00  0.00     0.031 C 
ATOM     43  C   UNL A   1      40.868  26.642  28.394  1.00  0.00     0.029 A 
ATOM     44  N   UNL A   1      43.031  27.094  28.051  1.00  0.00    -0.354 N 
ATOM     45  C   UNL A   1      44.619  31.060  28.653  1.00  0.00     0.074 A 
ATOM     46  C   UNL A   1      43.592  31.970  29.110  1.00  0.00     0.031 C 
ATOM     47  C   UNL A   1      41.455  25.509  27.974  1.00  0.00     0.029 A 
ATOM     48  C   UNL A   1      42.870  25.770  27.721  1.00  0.00     0.049 A 
ATOM     49  H   UNL A   1      43.895  27.563  27.990  1.00  0.00     0.167 HD
ATOM     50  C   UNL A   1      45.912  31.412  28.461  1.00  0.00     0.031 A 
ATOM     51  C   UNL A   1      43.758  24.864  27.263  1.00  0.00     0.031 A 
ATOM     52  C   UNL A   1      46.940  30.505  28.028  1.00  0.00     0.049 A 
ATOM     53  C   UNL A   1      45.192  25.271  27.069  1.00  0.00     0.074 A 
ATOM     54  C   UNL A   1      48.288  30.756  27.839  1.00  0.00     0.029 A 
ATOM     55  N   UNL A   1      46.737  29.166  27.729  1.00  0.00    -0.354 N 
ATOM     56  N   UNL A   1      45.747  26.445  27.256  1.00  0.00    -0.248 NA
ATOM     57  C   UNL A   1      46.124  24.229  26.617  1.00  0.00     0.031 C 
ATOM     58  C   UNL A   1      48.893  29.578  27.392  1.00  0.00     0.029 A 
ATOM     59  C   UNL A   1      47.932  28.580  27.349  1.00  0.00     0.049 A 
ATOM     60  H   UNL A   1      45.871  28.701  27.780  1.00  0.00     0.167 HD
ATOM     61  C   UNL A   1      47.095  26.278  26.964  1.00  0.00     0.074 A 
ATOM     62  C   UNL A   1      47.276  24.887  26.602  1.00  0.00     0.031 C 
ATOM     63  C   UNL A   1      48.094  27.194  26.992  1.00  0.00     0.031 A 
BRANCH  50  64
ATOM     64  C   UNL A   1      46.286  32.846  28.730  1.00  0.00    -0.014 A 
ATOM     65  C   UNL A   1      46.721  33.252  30.005  1.00  0.00     0.010 A 
ATOM     66  C   UNL A   1      46.225  33.795  27.693  1.00  0.00     0.010 A 
ATOM     67  C   UNL A   1      47.045  34.589  30.250  1.00  0.00     0.020 A 
ATOM     68  C   UNL A   1      46.574  35.129  27.929  1.00  0.00     0.020 A 
ATOM     69  C   UNL A   1      46.963  35.521  29.211  1.00  0.00     0.054 A 
BRANCH  69  70
ATOM     70  S   UNL A   1      47.402  37.246  29.555  1.00  0.00     0.124 S 
ATOM     71  O   UNL A   1      47.790  37.726  28.230  1.00  0.00    -0.237 OA
ATOM     72  O   UNL A   1      46.156  37.798  30.081  1.00  0.00    -0.237 OA
ATOM     73  O   UNL A   1      48.491  37.140  30.523  1.00  0.00    -0.744 OA
ENDBRANCH  69  70
ENDBRANCH  50  64
BRANCH  51  74
ATOM     74  C   UNL A   1      43.312  23.473  26.979  1.00  0.00    -0.014 A 
ATOM     75  C   UNL A   1      43.098  23.048  25.657  1.00  0.00     0.010 A 
ATOM     76  C   UNL A   1      43.131  22.556  28.032  1.00  0.00     0.010 A 
ATOM     77  C   UNL A   1      42.701  21.734  25.391  1.00  0.00     0.020 A 
ATOM     78  C   UNL A   1      42.759  21.236  27.767  1.00  0.00     0.020 A 
ATOM     79  C   UNL A   1      42.539  20.834  26.448  1.00  0.00     0.054 A 
BRANCH  79  80
ATOM     80  S   UNL A   1      42.093  19.115  26.076  1.00  0.00     0.124 S 
ATOM     81  O   UNL A   1      42.911  18.836  24.901  1.00  0.00    -0.237 OA
ATOM     82  O   UNL A   1      42.481  18.416  27.299  1.00  0.00    -0.237 OA
ATOM     83  O   UNL A   1      40.654  19.181  25.837  1.00  0.00    -0.744 OA
ENDBRANCH  79  80
ENDBRANCH  51  74
BRANCH  63  84
ATOM     84  C   UNL A   1      49.480  26.720  26.648  1.00  0.00    -0.014 A 
ATOM     85  C   UNL A   1      50.365  26.278  27.646  1.00  0.00     0.010 A 
ATOM     86  C   UNL A   1      49.878  26.658  25.300  1.00  0.00     0.010 A 
ATOM     87  C   UNL A   1      51.636  25.810  27.304  1.00  0.00     0.020 A 
ATOM     88  C   UNL A   1      51.139  26.168  24.952  1.00  0.00     0.020 A 
ATOM     89  C   UNL A   1      52.015  25.758  25.959  1.00  0.00     0.054 A 
BRANCH  89  90
ATOM     90  S   UNL A   1      53.652  25.101  25.536  1.00  0.00     0.124 S 
ATOM     91  O   UNL A   1      53.356  23.697  25.265  1.00  0.00    -0.237 OA
ATOM     92  O   UNL A   1      54.029  25.900  24.372  1.00  0.00    -0.237 OA
ATOM     93  O   UNL A   1      54.446  25.350  26.738  1.00  0.00    -0.744 OA
ENDBRANCH  89  90
ENDBRANCH  63  84
ENDBRANCH  37  38
ENDBRANCH  29  32
ENDBRANCH  27  28
ENDBRANCH   1  27
TORSDOF 17
ENDMDL
