MODEL 1
REMARK VINA RESULT:     -12.0      0.000      0.000
REMARK SMILES O=C(NCCCCNC(=O)[C@@]1([NH2+]C2CC2)CC[C@@H]([N@@H+]2CC[N@@H+]3CCC[C@@H]3C2)C1)c1ccc(-c2c3nc(c(-c4ccc(S(=O)(=O)[O-])cc4)c4ccc([nH]4)c(-c4ccc(S(=O)(=O)[O-])cc4)c4nc(c(-c5ccc(S(=O)(=O)[O-])cc5)c5ccc2[nH]5)C=C4)C=C3)cc1
REMARK SMILES IDX 5 1 4 2 3 3 1 4 2 5 29 7 30 8 88 9 31 10 87 11 32 12 33 13
REMARK SMILES IDX 34 14 81 15 35 16 86 17 80 18 82 19 36 20 85 21 79 22 78 23
REMARK SMILES IDX 37 25 67 26 48 27 66 28 49 29 52 30 65 31 83 32 50 33 51 34
REMARK SMILES IDX 64 36 84 37 53 38 38 39 39 40 47 41 40 42 46 43 41 44 42 45
REMARK SMILES IDX 43 46 44 47 45 48 68 49 69 50 77 51 70 52 76 53 71 54 72 55
REMARK SMILES IDX 73 56 74 57 75 58 54 59 55 60 63 61 56 62 62 63 57 64 58 65
REMARK SMILES IDX 59 66 60 67 61 68 6 69 7 70 8 71 9 72 10 74 11 75 16 76
REMARK SMILES IDX 28 77 17 78 18 79 12 80 13 83 14 84 15 85 19 86 20 87 27 88
REMARK SMILES IDX 21 90 26 91 22 92 25 93 23 94 24 96
REMARK H PARENT 3 6 82 24 52 35 8 73 12 81 12 82 19 89 22 95
REMARK Flexibility Score: inf
ROOT
ATOM      1  C   UNL A   1      40.408  21.586  27.097  1.00  0.00     0.023 C 
ENDROOT
BRANCH   1   2
ATOM      2  C   UNL A   1      40.458  23.076  27.419  1.00  0.00     0.116 C 
BRANCH   2   3
ATOM      3  N   UNL A   1      40.804  23.902  26.271  1.00  0.00    -0.352 N 
ATOM      4  O   UNL A   1      41.115  25.777  25.061  1.00  0.00    -0.269 OA
ATOM      5  C   UNL A   1      40.955  25.266  26.168  1.00  0.00     0.251 C 
ATOM      6  H   UNL A   1      40.952  23.406  25.434  1.00  0.00     0.163 HD
BRANCH   5   7
ATOM      7  C   UNL A   1      40.895  26.124  27.373  1.00  0.00     0.039 A 
ATOM      8  C   UNL A   1      39.851  26.001  28.291  1.00  0.00     0.014 A 
ATOM      9  C   UNL A   1      41.910  27.061  27.597  1.00  0.00     0.014 A 
ATOM     10  C   UNL A   1      39.727  26.924  29.326  1.00  0.00     0.010 A 
ATOM     11  C   UNL A   1      41.832  27.927  28.695  1.00  0.00     0.010 A 
ATOM     12  C   UNL A   1      40.717  27.894  29.545  1.00  0.00    -0.014 A 
BRANCH  12  13
ATOM     13  C   UNL A   1      40.583  28.825  30.698  1.00  0.00     0.031 A 
ATOM     14  C   UNL A   1      41.521  28.755  31.874  1.00  0.00     0.074 A 
ATOM     15  C   UNL A   1      39.624  29.770  30.659  1.00  0.00     0.049 A 
ATOM     16  N   UNL A   1      41.561  29.517  32.939  1.00  0.00    -0.248 NA
ATOM     17  C   UNL A   1      42.539  27.692  31.863  1.00  0.00     0.031 C 
ATOM     18  C   UNL A   1      38.647  29.935  29.579  1.00  0.00     0.029 A 
ATOM     19  N   UNL A   1      39.323  30.784  31.534  1.00  0.00    -0.354 N 
ATOM     20  C   UNL A   1      42.587  29.016  33.732  1.00  0.00     0.074 A 
ATOM     21  C   UNL A   1      43.133  27.871  33.036  1.00  0.00     0.031 C 
ATOM     22  C   UNL A   1      37.892  31.014  29.828  1.00  0.00     0.029 A 
ATOM     23  C   UNL A   1      38.286  31.582  31.112  1.00  0.00     0.049 A 
ATOM     24  H   UNL A   1      39.803  30.926  32.380  1.00  0.00     0.167 HD
ATOM     25  C   UNL A   1      43.034  29.469  34.929  1.00  0.00     0.031 A 
ATOM     26  C   UNL A   1      37.700  32.644  31.696  1.00  0.00     0.031 A 
ATOM     27  C   UNL A   1      42.492  30.614  35.615  1.00  0.00     0.049 A 
ATOM     28  C   UNL A   1      38.207  33.120  33.026  1.00  0.00     0.074 A 
ATOM     29  C   UNL A   1      42.903  31.171  36.815  1.00  0.00     0.029 A 
ATOM     30  N   UNL A   1      41.422  31.376  35.170  1.00  0.00    -0.354 N 
ATOM     31  N   UNL A   1      39.198  32.648  33.742  1.00  0.00    -0.248 NA
ATOM     32  C   UNL A   1      37.517  34.269  33.624  1.00  0.00     0.031 C 
ATOM     33  C   UNL A   1      42.051  32.239  37.118  1.00  0.00     0.029 A 
ATOM     34  C   UNL A   1      41.143  32.381  36.080  1.00  0.00     0.049 A 
ATOM     35  H   UNL A   1      40.934  31.224  34.329  1.00  0.00     0.167 HD
ATOM     36  C   UNL A   1      39.257  33.449  34.875  1.00  0.00     0.074 A 
ATOM     37  C   UNL A   1      38.217  34.449  34.736  1.00  0.00     0.031 C 
ATOM     38  C   UNL A   1      40.096  33.361  35.936  1.00  0.00     0.031 A 
BRANCH  25  39
ATOM     39  C   UNL A   1      44.150  28.708  35.595  1.00  0.00    -0.014 A 
ATOM     40  C   UNL A   1      45.496  29.078  35.418  1.00  0.00     0.010 A 
ATOM     41  C   UNL A   1      43.844  27.642  36.461  1.00  0.00     0.010 A 
ATOM     42  C   UNL A   1      46.516  28.372  36.064  1.00  0.00     0.020 A 
ATOM     43  C   UNL A   1      44.859  26.948  37.127  1.00  0.00     0.020 A 
ATOM     44  C   UNL A   1      46.191  27.308  36.912  1.00  0.00     0.054 A 
BRANCH  44  45
ATOM     45  S   UNL A   1      47.532  26.423  37.756  1.00  0.00     0.124 S 
ATOM     46  O   UNL A   1      48.713  27.121  37.255  1.00  0.00    -0.237 OA
ATOM     47  O   UNL A   1      47.225  26.644  39.167  1.00  0.00    -0.237 OA
ATOM     48  O   UNL A   1      47.381  25.045  37.297  1.00  0.00    -0.744 OA
ENDBRANCH  44  45
ENDBRANCH  25  39
BRANCH  26  49
ATOM     49  C   UNL A   1      36.556  33.311  31.019  1.00  0.00    -0.014 A 
ATOM     50  C   UNL A   1      35.363  33.571  31.714  1.00  0.00     0.010 A 
ATOM     51  C   UNL A   1      36.679  33.736  29.683  1.00  0.00     0.010 A 
ATOM     52  C   UNL A   1      34.311  34.242  31.083  1.00  0.00     0.020 A 
ATOM     53  C   UNL A   1      35.641  34.431  29.058  1.00  0.00     0.020 A 
ATOM     54  C   UNL A   1      34.459  34.672  29.761  1.00  0.00     0.054 A 
BRANCH  54  55
ATOM     55  S   UNL A   1      33.114  35.609  28.985  1.00  0.00     0.124 S 
ATOM     56  O   UNL A   1      33.846  36.606  28.211  1.00  0.00    -0.237 OA
ATOM     57  O   UNL A   1      32.421  34.585  28.206  1.00  0.00    -0.237 OA
ATOM     58  O   UNL A   1      32.359  36.128  30.125  1.00  0.00    -0.744 OA
ENDBRANCH  54  55
ENDBRANCH  26  49
BRANCH  38  59
ATOM     59  C   UNL A   1      39.932  34.385  37.026  1.00  0.00    -0.014 A 
ATOM     60  C   UNL A   1      39.101  34.138  38.133  1.00  0.00     0.010 A 
ATOM     61  C   UNL A   1      40.647  35.593  36.958  1.00  0.00     0.010 A 
ATOM     62  C   UNL A   1      38.963  35.097  39.139  1.00  0.00     0.020 A 
ATOM     63  C   UNL A   1      40.530  36.546  37.975  1.00  0.00     0.020 A 
ATOM     64  C   UNL A   1      39.676  36.297  39.051  1.00  0.00     0.054 A 
BRANCH  64  65
ATOM     65  S   UNL A   1      39.508  37.514  40.386  1.00  0.00     0.124 S 
ATOM     66  O   UNL A   1      38.213  38.118  40.084  1.00  0.00    -0.237 OA
ATOM     67  O   UNL A   1      39.550  36.684  41.587  1.00  0.00    -0.237 OA
ATOM     68  O   UNL A   1      40.663  38.390  40.202  1.00  0.00    -0.744 OA
ENDBRANCH  64  65
ENDBRANCH  38  59
ENDBRANCH  12  13
ENDBRANCH   5   7
ENDBRANCH   2   3
ENDBRANCH   1   2
BRANCH   1  69
ATOM     69  C   UNL A   1      39.521  21.186  25.916  1.00  0.00     0.023 C 
BRANCH  69  70
ATOM     70  C   UNL A   1      38.182  21.912  25.807  1.00  0.00     0.116 C 
BRANCH  70  71
ATOM     71  N   UNL A   1      37.759  22.188  24.448  1.00  0.00    -0.351 N 
ATOM     72  C   UNL A   1      36.528  22.605  24.009  1.00  0.00     0.281 C 
ATOM     73  H   UNL A   1      38.442  22.062  23.752  1.00  0.00     0.163 HD
ATOM     74  O   UNL A   1      36.458  22.989  22.836  1.00  0.00    -0.268 OA
BRANCH  72  75
ATOM     75  C   UNL A   1      35.257  22.490  24.898  1.00  0.00     0.181 C 
ATOM     76  C   UNL A   1      35.292  23.405  26.139  1.00  0.00     0.085 C 
ATOM     77  C   UNL A   1      34.083  23.143  24.112  1.00  0.00     0.144 C 
ATOM     78  C   UNL A   1      33.824  23.590  26.505  1.00  0.00     0.072 C 
ATOM     79  C   UNL A   1      33.120  23.772  25.150  1.00  0.00     0.191 C 
BRANCH  75  80
ATOM     80  N   UNL A   1      34.920  21.096  25.275  1.00  0.00    -0.331 N 
ATOM     81  H   UNL A   1      34.624  21.121  26.250  1.00  0.00     0.347 HD
ATOM     82  H   UNL A   1      35.775  20.586  25.048  1.00  0.00     0.347 HD
BRANCH  80  83
ATOM     83  C   UNL A   1      33.891  20.348  24.544  1.00  0.00     0.183 C 
ATOM     84  C   UNL A   1      33.766  18.854  24.486  1.00  0.00     0.071 C 
ATOM     85  C   UNL A   1      32.780  19.656  25.284  1.00  0.00     0.071 C 
ENDBRANCH  80  83
ENDBRANCH  75  80
BRANCH  79  86
ATOM     86  N   UNL A   1      32.721  25.163  24.909  1.00  0.00    -0.323 N 
ATOM     87  C   UNL A   1      33.390  25.816  23.768  1.00  0.00     0.324 C 
ATOM     88  C   UNL A   1      32.623  26.054  26.069  1.00  0.00     0.328 C 
ATOM     89  H   UNL A   1      31.749  25.011  24.640  1.00  0.00     0.348 HD
ATOM     90  C   UNL A   1      33.587  27.358  23.898  1.00  0.00     0.324 C 
ATOM     91  C   UNL A   1      31.893  27.353  25.666  1.00  0.00     0.240 C 
ATOM     92  N   UNL A   1      32.454  28.072  24.501  1.00  0.00    -0.323 N 
ATOM     93  C   UNL A   1      31.825  28.366  26.806  1.00  0.00     0.077 C 
ATOM     94  C   UNL A   1      32.797  29.431  24.933  1.00  0.00     0.263 C 
ATOM     95  H   UNL A   1      31.758  28.122  23.757  1.00  0.00     0.348 HD
ATOM     96  C   UNL A   1      31.848  29.700  26.088  1.00  0.00     0.068 C 
ENDBRANCH  79  86
ENDBRANCH  72  75
ENDBRANCH  70  71
ENDBRANCH  69  70
ENDBRANCH   1  69
TORSDOF 17
ENDMDL
MODEL 2
REMARK VINA RESULT:     -11.8      6.415     12.188
REMARK SMILES O=C(NCCCCNC(=O)[C@@]1([NH2+]C2CC2)CC[C@@H]([N@@H+]2CC[N@@H+]3CCC[C@@H]3C2)C1)c1ccc(-c2c3nc(c(-c4ccc(S(=O)(=O)[O-])cc4)c4ccc([nH]4)c(-c4ccc(S(=O)(=O)[O-])cc4)c4nc(c(-c5ccc(S(=O)(=O)[O-])cc5)c5ccc2[nH]5)C=C4)C=C3)cc1
REMARK SMILES IDX 5 1 4 2 3 3 1 4 2 5 29 7 30 8 88 9 31 10 87 11 32 12 33 13
REMARK SMILES IDX 34 14 81 15 35 16 86 17 80 18 82 19 36 20 85 21 79 22 78 23
REMARK SMILES IDX 37 25 67 26 48 27 66 28 49 29 52 30 65 31 83 32 50 33 51 34
REMARK SMILES IDX 64 36 84 37 53 38 38 39 39 40 47 41 40 42 46 43 41 44 42 45
REMARK SMILES IDX 43 46 44 47 45 48 68 49 69 50 77 51 70 52 76 53 71 54 72 55
REMARK SMILES IDX 73 56 74 57 75 58 54 59 55 60 63 61 56 62 62 63 57 64 58 65
REMARK SMILES IDX 59 66 60 67 61 68 6 69 7 70 8 71 9 72 10 74 11 75 16 76
REMARK SMILES IDX 28 77 17 78 18 79 12 80 13 83 14 84 15 85 19 86 20 87 27 88
REMARK SMILES IDX 21 90 26 91 22 92 25 93 23 94 24 96
REMARK H PARENT 3 6 82 24 52 35 8 73 12 81 12 82 19 89 22 95
REMARK Flexibility Score: inf
ROOT
ATOM      1  C   UNL A   1      34.450  29.158  27.084  1.00  0.00     0.023 C 
ENDROOT
BRANCH   1   2
ATOM      2  C   UNL A   1      35.450  30.124  27.713  1.00  0.00     0.116 C 
BRANCH   2   3
ATOM      3  N   UNL A   1      35.385  30.152  29.167  1.00  0.00    -0.352 N 
ATOM      4  O   UNL A   1      36.053  29.841  31.296  1.00  0.00    -0.269 OA
ATOM      5  C   UNL A   1      36.359  29.899  30.106  1.00  0.00     0.251 C 
ATOM      6  H   UNL A   1      34.505  30.388  29.538  1.00  0.00     0.163 HD
BRANCH   5   7
ATOM      7  C   UNL A   1      37.761  29.664  29.695  1.00  0.00     0.039 A 
ATOM      8  C   UNL A   1      38.151  29.801  28.362  1.00  0.00     0.014 A 
ATOM      9  C   UNL A   1      38.709  29.315  30.663  1.00  0.00     0.014 A 
ATOM     10  C   UNL A   1      39.431  29.419  27.972  1.00  0.00     0.010 A 
ATOM     11  C   UNL A   1      40.024  29.022  30.281  1.00  0.00     0.010 A 
ATOM     12  C   UNL A   1      40.386  29.030  28.926  1.00  0.00    -0.014 A 
BRANCH  12  13
ATOM     13  C   UNL A   1      41.763  28.688  28.480  1.00  0.00     0.031 A 
ATOM     14  C   UNL A   1      42.868  29.712  28.493  1.00  0.00     0.074 A 
ATOM     15  C   UNL A   1      42.025  27.423  28.096  1.00  0.00     0.049 A 
ATOM     16  N   UNL A   1      44.129  29.562  28.173  1.00  0.00    -0.248 NA
ATOM     17  C   UNL A   1      42.516  31.079  28.910  1.00  0.00     0.031 C 
ATOM     18  C   UNL A   1      41.037  26.342  28.031  1.00  0.00     0.029 A 
ATOM     19  N   UNL A   1      43.197  26.822  27.711  1.00  0.00    -0.354 N 
ATOM     20  C   UNL A   1      44.715  30.813  28.325  1.00  0.00     0.074 A 
ATOM     21  C   UNL A   1      43.667  31.718  28.750  1.00  0.00     0.031 C 
ATOM     22  C   UNL A   1      41.652  25.203  27.682  1.00  0.00     0.029 A 
ATOM     23  C   UNL A   1      43.062  25.482  27.438  1.00  0.00     0.049 A 
ATOM     24  H   UNL A   1      44.051  27.305  27.639  1.00  0.00     0.167 HD
ATOM     25  C   UNL A   1      46.008  31.176  28.132  1.00  0.00     0.031 A 
ATOM     26  C   UNL A   1      43.965  24.575  27.021  1.00  0.00     0.031 A 
ATOM     27  C   UNL A   1      47.049  30.271  27.717  1.00  0.00     0.049 A 
ATOM     28  C   UNL A   1      45.386  25.003  26.804  1.00  0.00     0.074 A 
ATOM     29  C   UNL A   1      48.395  30.538  27.530  1.00  0.00     0.029 A 
ATOM     30  N   UNL A   1      46.865  28.929  27.420  1.00  0.00    -0.354 N 
ATOM     31  N   UNL A   1      45.923  26.185  26.985  1.00  0.00    -0.248 NA
ATOM     32  C   UNL A   1      46.322  23.977  26.330  1.00  0.00     0.031 C 
ATOM     33  C   UNL A   1      49.015  29.369  27.074  1.00  0.00     0.029 A 
ATOM     34  C   UNL A   1      48.065  28.360  27.028  1.00  0.00     0.049 A 
ATOM     35  H   UNL A   1      46.006  28.451  27.481  1.00  0.00     0.167 HD
ATOM     36  C   UNL A   1      47.264  26.044  26.653  1.00  0.00     0.074 A 
ATOM     37  C   UNL A   1      47.460  24.656  26.284  1.00  0.00     0.031 C 
ATOM     38  C   UNL A   1      48.243  26.981  26.651  1.00  0.00     0.031 A 
BRANCH  25  39
ATOM     39  C   UNL A   1      46.369  32.623  28.339  1.00  0.00    -0.014 A 
ATOM     40  C   UNL A   1      46.825  33.093  29.583  1.00  0.00     0.010 A 
ATOM     41  C   UNL A   1      46.307  33.517  27.253  1.00  0.00     0.010 A 
ATOM     42  C   UNL A   1      47.178  34.437  29.747  1.00  0.00     0.020 A 
ATOM     43  C   UNL A   1      46.681  34.855  27.406  1.00  0.00     0.020 A 
ATOM     44  C   UNL A   1      47.100  35.311  28.658  1.00  0.00     0.054 A 
BRANCH  44  45
ATOM     45  S   UNL A   1      47.584  37.044  28.892  1.00  0.00     0.124 S 
ATOM     46  O   UNL A   1      48.060  37.038  30.272  1.00  0.00    -0.237 OA
ATOM     47  O   UNL A   1      48.615  37.230  27.874  1.00  0.00    -0.237 OA
ATOM     48  O   UNL A   1      46.346  37.785  28.663  1.00  0.00    -0.744 OA
ENDBRANCH  44  45
ENDBRANCH  25  39
BRANCH  26  49
ATOM     49  C   UNL A   1      43.531  23.175  26.768  1.00  0.00    -0.014 A 
ATOM     50  C   UNL A   1      43.723  22.579  25.510  1.00  0.00     0.010 A 
ATOM     51  C   UNL A   1      42.966  22.414  27.809  1.00  0.00     0.010 A 
ATOM     52  C   UNL A   1      43.355  21.247  25.297  1.00  0.00     0.020 A 
ATOM     53  C   UNL A   1      42.624  21.075  27.608  1.00  0.00     0.020 A 
ATOM     54  C   UNL A   1      42.813  20.502  26.349  1.00  0.00     0.054 A 
BRANCH  54  55
ATOM     55  S   UNL A   1      42.416  18.754  26.075  1.00  0.00     0.124 S 
ATOM     56  O   UNL A   1      43.354  18.392  25.018  1.00  0.00    -0.237 OA
ATOM     57  O   UNL A   1      42.676  18.159  27.384  1.00  0.00    -0.237 OA
ATOM     58  O   UNL A   1      41.008  18.782  25.683  1.00  0.00    -0.744 OA
ENDBRANCH  54  55
ENDBRANCH  26  49
BRANCH  38  59
ATOM     59  C   UNL A   1      49.621  26.531  26.249  1.00  0.00    -0.014 A 
ATOM     60  C   UNL A   1      50.108  26.757  24.950  1.00  0.00     0.010 A 
ATOM     61  C   UNL A   1      50.452  25.907  27.196  1.00  0.00     0.010 A 
ATOM     62  C   UNL A   1      51.392  26.336  24.594  1.00  0.00     0.020 A 
ATOM     63  C   UNL A   1      51.747  25.507  26.852  1.00  0.00     0.020 A 
ATOM     64  C   UNL A   1      52.202  25.710  25.548  1.00  0.00     0.054 A 
BRANCH  64  65
ATOM     65  S   UNL A   1      53.878  25.204  25.074  1.00  0.00     0.124 S 
ATOM     66  O   UNL A   1      54.078  25.945  23.832  1.00  0.00    -0.237 OA
ATOM     67  O   UNL A   1      54.683  25.650  26.208  1.00  0.00    -0.237 OA
ATOM     68  O   UNL A   1      53.772  23.754  24.926  1.00  0.00    -0.744 OA
ENDBRANCH  64  65
ENDBRANCH  38  59
ENDBRANCH  12  13
ENDBRANCH   5   7
ENDBRANCH   2   3
ENDBRANCH   1   2
BRANCH   1  69
ATOM     69  C   UNL A   1      32.992  29.621  27.069  1.00  0.00     0.023 C 
BRANCH  69  70
ATOM     70  C   UNL A   1      32.154  29.158  25.879  1.00  0.00     0.116 C 
BRANCH  70  71
ATOM     71  N   UNL A   1      32.928  28.768  24.716  1.00  0.00    -0.351 N 
ATOM     72  C   UNL A   1      32.568  27.919  23.700  1.00  0.00     0.281 C 
ATOM     73  H   UNL A   1      33.826  29.164  24.646  1.00  0.00     0.163 HD
ATOM     74  O   UNL A   1      33.299  27.907  22.703  1.00  0.00    -0.268 OA
BRANCH  72  75
ATOM     75  C   UNL A   1      31.373  26.934  23.839  1.00  0.00     0.181 C 
ATOM     76  C   UNL A   1      31.410  25.778  22.818  1.00  0.00     0.085 C 
ATOM     77  C   UNL A   1      31.583  26.136  25.159  1.00  0.00     0.144 C 
ATOM     78  C   UNL A   1      30.574  24.682  23.468  1.00  0.00     0.072 C 
ATOM     79  C   UNL A   1      30.991  24.721  24.947  1.00  0.00     0.191 C 
BRANCH  75  80
ATOM     80  N   UNL A   1      30.049  27.602  23.838  1.00  0.00    -0.331 N 
ATOM     81  H   UNL A   1      29.930  28.013  24.764  1.00  0.00     0.347 HD
ATOM     82  H   UNL A   1      29.415  26.851  23.563  1.00  0.00     0.347 HD
BRANCH  80  83
ATOM     83  C   UNL A   1      29.743  28.659  22.867  1.00  0.00     0.183 C 
ATOM     84  C   UNL A   1      28.399  29.291  22.653  1.00  0.00     0.071 C 
ATOM     85  C   UNL A   1      29.491  30.068  23.329  1.00  0.00     0.071 C 
ENDBRANCH  80  83
ENDBRANCH  75  80
BRANCH  79  86
ATOM     86  N   UNL A   1      31.853  23.592  25.315  1.00  0.00    -0.323 N 
ATOM     87  C   UNL A   1      33.213  23.962  25.752  1.00  0.00     0.324 C 
ATOM     88  C   UNL A   1      31.862  22.425  24.429  1.00  0.00     0.328 C 
ATOM     89  H   UNL A   1      31.351  23.264  26.140  1.00  0.00     0.348 HD
ATOM     90  C   UNL A   1      34.324  22.909  25.451  1.00  0.00     0.324 C 
ATOM     91  C   UNL A   1      32.559  21.241  25.135  1.00  0.00     0.240 C 
ATOM     92  N   UNL A   1      33.917  21.512  25.654  1.00  0.00    -0.323 N 
ATOM     93  C   UNL A   1      32.677  20.011  24.239  1.00  0.00     0.077 C 
ATOM     94  C   UNL A   1      34.836  20.552  25.036  1.00  0.00     0.263 C 
ATOM     95  H   UNL A   1      33.932  21.387  26.667  1.00  0.00     0.348 HD
ATOM     96  C   UNL A   1      33.958  19.355  24.717  1.00  0.00     0.068 C 
ENDBRANCH  79  86
ENDBRANCH  72  75
ENDBRANCH  70  71
ENDBRANCH  69  70
ENDBRANCH   1  69
TORSDOF 17
ENDMDL
MODEL 3
REMARK VINA RESULT:     -11.6      5.916      7.947
REMARK SMILES O=C(NCCCCNC(=O)[C@@]1([NH2+]C2CC2)CC[C@@H]([N@@H+]2CC[N@@H+]3CCC[C@@H]3C2)C1)c1ccc(-c2c3nc(c(-c4ccc(S(=O)(=O)[O-])cc4)c4ccc([nH]4)c(-c4ccc(S(=O)(=O)[O-])cc4)c4nc(c(-c5ccc(S(=O)(=O)[O-])cc5)c5ccc2[nH]5)C=C4)C=C3)cc1
REMARK SMILES IDX 5 1 4 2 3 3 1 4 2 5 29 7 30 8 88 9 31 10 87 11 32 12 33 13
REMARK SMILES IDX 34 14 81 15 35 16 86 17 80 18 82 19 36 20 85 21 79 22 78 23
REMARK SMILES IDX 37 25 67 26 48 27 66 28 49 29 52 30 65 31 83 32 50 33 51 34
REMARK SMILES IDX 64 36 84 37 53 38 38 39 39 40 47 41 40 42 46 43 41 44 42 45
REMARK SMILES IDX 43 46 44 47 45 48 68 49 69 50 77 51 70 52 76 53 71 54 72 55
REMARK SMILES IDX 73 56 74 57 75 58 54 59 55 60 63 61 56 62 62 63 57 64 58 65
REMARK SMILES IDX 59 66 60 67 61 68 6 69 7 70 8 71 9 72 10 74 11 75 16 76
REMARK SMILES IDX 28 77 17 78 18 79 12 80 13 83 14 84 15 85 19 86 20 87 27 88
REMARK SMILES IDX 21 90 26 91 22 92 25 93 23 94 24 96
REMARK H PARENT 3 6 82 24 52 35 8 73 12 81 12 82 19 89 22 95
REMARK Flexibility Score: inf
ROOT
ATOM      1  C   UNL A   1      37.837  20.549  25.035  1.00  0.00     0.023 C 
ENDROOT
BRANCH   1   2
ATOM      2  C   UNL A   1      39.087  20.998  25.784  1.00  0.00     0.116 C 
BRANCH   2   3
ATOM      3  N   UNL A   1      40.055  19.928  25.981  1.00  0.00    -0.352 N 
ATOM      4  O   UNL A   1      42.068  18.954  26.251  1.00  0.00    -0.269 OA
ATOM      5  C   UNL A   1      41.401  19.986  26.264  1.00  0.00     0.251 C 
ATOM      6  H   UNL A   1      39.689  19.018  25.896  1.00  0.00     0.163 HD
BRANCH   5   7
ATOM      7  C   UNL A   1      42.056  21.282  26.552  1.00  0.00     0.039 A 
ATOM      8  C   UNL A   1      42.427  21.626  27.852  1.00  0.00     0.014 A 
ATOM      9  C   UNL A   1      42.316  22.165  25.498  1.00  0.00     0.014 A 
ATOM     10  C   UNL A   1      42.891  22.910  28.123  1.00  0.00     0.010 A 
ATOM     11  C   UNL A   1      42.872  23.423  25.762  1.00  0.00     0.010 A 
ATOM     12  C   UNL A   1      43.125  23.823  27.083  1.00  0.00    -0.014 A 
BRANCH  12  13
ATOM     13  C   UNL A   1      43.679  25.166  27.403  1.00  0.00     0.031 A 
ATOM     14  C   UNL A   1      45.117  25.509  27.114  1.00  0.00     0.074 A 
ATOM     15  C   UNL A   1      42.858  26.098  27.925  1.00  0.00     0.049 A 
ATOM     16  N   UNL A   1      45.743  26.645  27.298  1.00  0.00    -0.248 NA
ATOM     17  C   UNL A   1      45.966  24.444  26.556  1.00  0.00     0.031 C 
ATOM     18  C   UNL A   1      41.447  25.886  28.258  1.00  0.00     0.029 A 
ATOM     19  N   UNL A   1      43.079  27.414  28.246  1.00  0.00    -0.354 N 
ATOM     20  C   UNL A   1      47.058  26.427  26.904  1.00  0.00     0.074 A 
ATOM     21  C   UNL A   1      47.147  25.044  26.486  1.00  0.00     0.031 C 
ATOM     22  C   UNL A   1      40.916  27.040  28.686  1.00  0.00     0.029 A 
ATOM     23  C   UNL A   1      41.960  28.058  28.718  1.00  0.00     0.049 A 
ATOM     24  H   UNL A   1      43.953  27.854  28.147  1.00  0.00     0.167 HD
ATOM     25  C   UNL A   1      48.096  27.300  26.887  1.00  0.00     0.031 A 
ATOM     26  C   UNL A   1      41.788  29.323  29.146  1.00  0.00     0.031 A 
ATOM     27  C   UNL A   1      48.001  28.678  27.296  1.00  0.00     0.049 A 
ATOM     28  C   UNL A   1      42.954  30.266  29.128  1.00  0.00     0.074 A 
ATOM     29  C   UNL A   1      48.989  29.649  27.281  1.00  0.00     0.029 A 
ATOM     30  N   UNL A   1      46.858  29.283  27.797  1.00  0.00    -0.354 N 
ATOM     31  N   UNL A   1      44.181  30.046  28.720  1.00  0.00    -0.248 NA
ATOM     32  C   UNL A   1      42.713  31.626  29.625  1.00  0.00     0.031 C 
ATOM     33  C   UNL A   1      48.456  30.827  27.818  1.00  0.00     0.029 A 
ATOM     34  C   UNL A   1      47.121  30.604  28.117  1.00  0.00     0.049 A 
ATOM     35  H   UNL A   1      45.987  28.837  27.908  1.00  0.00     0.167 HD
ATOM     36  C   UNL A   1      44.858  31.244  28.906  1.00  0.00     0.074 A 
ATOM     37  C   UNL A   1      43.899  32.190  29.438  1.00  0.00     0.031 C 
ATOM     38  C   UNL A   1      46.160  31.531  28.659  1.00  0.00     0.031 A 
BRANCH  25  39
ATOM     39  C   UNL A   1      49.439  26.786  26.439  1.00  0.00    -0.014 A 
ATOM     40  C   UNL A   1      50.217  25.954  27.265  1.00  0.00     0.010 A 
ATOM     41  C   UNL A   1      49.903  27.090  25.146  1.00  0.00     0.010 A 
ATOM     42  C   UNL A   1      51.450  25.468  26.819  1.00  0.00     0.020 A 
ATOM     43  C   UNL A   1      51.125  26.587  24.688  1.00  0.00     0.020 A 
ATOM     44  C   UNL A   1      51.899  25.791  25.535  1.00  0.00     0.054 A 
BRANCH  44  45
ATOM     45  S   UNL A   1      53.492  25.130  24.974  1.00  0.00     0.124 S 
ATOM     46  O   UNL A   1      53.355  23.710  25.289  1.00  0.00    -0.237 OA
ATOM     47  O   UNL A   1      53.494  25.458  23.550  1.00  0.00    -0.237 OA
ATOM     48  O   UNL A   1      54.472  25.855  25.777  1.00  0.00    -0.744 OA
ENDBRANCH  44  45
ENDBRANCH  25  39
BRANCH  26  49
ATOM     49  C   UNL A   1      40.453  29.751  29.641  1.00  0.00    -0.014 A 
ATOM     50  C   UNL A   1      40.177  29.792  31.019  1.00  0.00     0.010 A 
ATOM     51  C   UNL A   1      39.465  30.171  28.730  1.00  0.00     0.010 A 
ATOM     52  C   UNL A   1      38.934  30.242  31.476  1.00  0.00     0.020 A 
ATOM     53  C   UNL A   1      38.233  30.647  29.185  1.00  0.00     0.020 A 
ATOM     54  C   UNL A   1      37.973  30.672  30.556  1.00  0.00     0.054 A 
BRANCH  54  55
ATOM     55  S   UNL A   1      36.397  31.326  31.173  1.00  0.00     0.124 S 
ATOM     56  O   UNL A   1      36.802  32.610  31.734  1.00  0.00    -0.237 OA
ATOM     57  O   UNL A   1      35.584  31.392  29.961  1.00  0.00    -0.237 OA
ATOM     58  O   UNL A   1      35.969  30.322  32.145  1.00  0.00    -0.744 OA
ENDBRANCH  54  55
ENDBRANCH  26  49
BRANCH  38  59
ATOM     59  C   UNL A   1      46.619  32.934  28.951  1.00  0.00    -0.014 A 
ATOM     60  C   UNL A   1      47.186  33.268  30.193  1.00  0.00     0.010 A 
ATOM     61  C   UNL A   1      46.513  33.921  27.955  1.00  0.00     0.010 A 
ATOM     62  C   UNL A   1      47.611  34.574  30.447  1.00  0.00     0.020 A 
ATOM     63  C   UNL A   1      46.960  35.224  28.196  1.00  0.00     0.020 A 
ATOM     64  C   UNL A   1      47.492  35.545  29.446  1.00  0.00     0.054 A 
BRANCH  64  65
ATOM     65  S   UNL A   1      48.082  37.226  29.785  1.00  0.00     0.124 S 
ATOM     66  O   UNL A   1      48.554  37.652  28.471  1.00  0.00    -0.237 OA
ATOM     67  O   UNL A   1      46.879  37.900  30.269  1.00  0.00    -0.237 OA
ATOM     68  O   UNL A   1      49.124  37.030  30.790  1.00  0.00    -0.744 OA
ENDBRANCH  64  65
ENDBRANCH  38  59
ENDBRANCH  12  13
ENDBRANCH   5   7
ENDBRANCH   2   3
ENDBRANCH   1   2
BRANCH   1  69
ATOM     69  C   UNL A   1      36.987  21.664  24.422  1.00  0.00     0.023 C 
BRANCH  69  70
ATOM     70  C   UNL A   1      36.601  22.805  25.360  1.00  0.00     0.116 C 
BRANCH  70  71
ATOM     71  N   UNL A   1      35.885  22.386  26.550  1.00  0.00    -0.351 N 
ATOM     72  C   UNL A   1      34.552  22.092  26.681  1.00  0.00     0.281 C 
ATOM     73  H   UNL A   1      36.425  22.302  27.368  1.00  0.00     0.163 HD
ATOM     74  O   UNL A   1      34.206  21.545  27.735  1.00  0.00    -0.268 OA
BRANCH  72  75
ATOM     75  C   UNL A   1      33.506  22.529  25.616  1.00  0.00     0.181 C 
ATOM     76  C   UNL A   1      32.089  22.722  26.192  1.00  0.00     0.085 C 
ATOM     77  C   UNL A   1      33.839  23.996  25.216  1.00  0.00     0.144 C 
ATOM     78  C   UNL A   1      31.413  23.667  25.206  1.00  0.00     0.072 C 
ATOM     79  C   UNL A   1      32.503  24.698  24.869  1.00  0.00     0.191 C 
BRANCH  75  80
ATOM     80  N   UNL A   1      33.479  21.655  24.418  1.00  0.00    -0.331 N 
ATOM     81  H   UNL A   1      34.241  21.963  23.815  1.00  0.00     0.347 HD
ATOM     82  H   UNL A   1      32.524  21.767  24.076  1.00  0.00     0.347 HD
BRANCH  80  83
ATOM     83  C   UNL A   1      33.609  20.199  24.548  1.00  0.00     0.183 C 
ATOM     84  C   UNL A   1      32.687  19.301  25.320  1.00  0.00     0.071 C 
ATOM     85  C   UNL A   1      32.667  19.281  23.819  1.00  0.00     0.071 C 
ENDBRANCH  80  83
ENDBRANCH  75  80
BRANCH  79  86
ATOM     86  N   UNL A   1      32.263  25.995  25.512  1.00  0.00    -0.323 N 
ATOM     87  C   UNL A   1      31.170  26.791  24.923  1.00  0.00     0.324 C 
ATOM     88  C   UNL A   1      33.431  26.822  25.832  1.00  0.00     0.328 C 
ATOM     89  H   UNL A   1      31.941  25.670  26.424  1.00  0.00     0.348 HD
ATOM     90  C   UNL A   1      31.334  28.339  25.027  1.00  0.00     0.324 C 
ATOM     91  C   UNL A   1      33.011  27.972  26.774  1.00  0.00     0.240 C 
ATOM     92  N   UNL A   1      31.889  28.813  26.303  1.00  0.00    -0.323 N 
ATOM     93  C   UNL A   1      34.162  28.924  27.087  1.00  0.00     0.077 C 
ATOM     94  C   UNL A   1      32.359  30.200  26.243  1.00  0.00     0.263 C 
ATOM     95  H   UNL A   1      31.110  28.750  26.958  1.00  0.00     0.348 HD
ATOM     96  C   UNL A   1      33.467  30.257  27.281  1.00  0.00     0.068 C 
ENDBRANCH  79  86
ENDBRANCH  72  75
ENDBRANCH  70  71
ENDBRANCH  69  70
ENDBRANCH   1  69
TORSDOF 17
ENDMDL
