MODEL 1
REMARK VINA RESULT:     -10.4      0.000      0.000
REMARK SMILES COc1ccc(CNC(=O)[C@H]2CC(C)=C(C)C[C@@H]2C(=O)NCCCCNC(=O)c2ccc(-c3c4nc(c(-c5ccc(S(=O)(=O)[O-])cc5)c5ccc([nH]5)c(-c5ccc(S(=O)(=O)[O-])cc5)c5nc(c(-c6ccc(S(=O)(=O)[O-])cc6)c6ccc3[nH]6)C=C5)C=C4)cc2)cc1OC
REMARK SMILES IDX 23 1 22 2 21 3 19 4 20 5 18 7 11 8 12 9 13 10 17 11 14 12
REMARK SMILES IDX 15 13 16 14 9 15 8 16 10 18 7 19 6 20 3 21 4 22 90 23 5 24
REMARK SMILES IDX 89 25 2 26 1 27 91 28 92 29 24 30 25 31 26 32 27 33 28 35
REMARK SMILES IDX 29 36 30 37 88 38 31 39 87 40 32 41 33 42 34 43 81 44 35 45
REMARK SMILES IDX 86 46 80 47 82 48 36 49 85 50 79 51 78 52 37 54 67 55 48 56
REMARK SMILES IDX 66 57 49 58 52 59 65 60 83 61 50 62 51 63 64 65 84 66 53 67
REMARK SMILES IDX 38 68 39 69 47 70 40 71 46 72 41 73 42 74 43 75 44 76 45 77
REMARK SMILES IDX 68 78 69 79 77 80 70 81 76 82 71 83 72 84 73 85 74 86 75 87
REMARK SMILES IDX 54 88 55 89 63 90 56 91 62 92 57 93 58 94 59 95 60 96 61 97
REMARK H PARENT 21 6 8 17 26 34 82 53 52 64
REMARK Flexibility Score: inf
ROOT
ATOM      1  C   UNL A   1      35.051  23.882  24.380  1.00  0.00     0.023 C 
ENDROOT
BRANCH   1   2
ATOM      2  C   UNL A   1      34.589  25.107  25.160  1.00  0.00     0.116 C 
BRANCH   2   3
ATOM      3  N   UNL A   1      34.129  26.187  24.305  1.00  0.00    -0.356 N 
ATOM      4  C   UNL A   1      33.723  27.447  24.643  1.00  0.00     0.224 C 
ATOM      5  O   UNL A   1      33.459  28.222  23.724  1.00  0.00    -0.275 OA
ATOM      6  H   UNL A   1      34.108  25.982  23.342  1.00  0.00     0.163 HD
BRANCH   4   7
ATOM      7  C   UNL A   1      33.583  27.820  26.124  1.00  0.00     0.095 C 
ATOM      8  C   UNL A   1      32.287  28.627  26.367  1.00  0.00     0.095 C 
ATOM      9  C   UNL A   1      32.394  29.987  27.073  1.00  0.00     0.045 C 
ATOM     10  C   UNL A   1      33.759  30.533  27.389  1.00  0.00    -0.074 C 
ATOM     11  C   UNL A   1      34.892  28.442  26.629  1.00  0.00     0.045 C 
ATOM     12  C   UNL A   1      33.736  31.929  27.961  1.00  0.00     0.039 C 
ATOM     13  C   UNL A   1      34.887  29.828  27.196  1.00  0.00    -0.074 C 
ATOM     14  C   UNL A   1      36.258  30.348  27.555  1.00  0.00     0.039 C 
BRANCH   8  15
ATOM     15  C   UNL A   1      31.344  27.732  27.168  1.00  0.00     0.224 C 
ATOM     16  N   UNL A   1      30.618  26.757  26.559  1.00  0.00    -0.352 N 
ATOM     17  H   UNL A   1      30.162  26.140  27.176  1.00  0.00     0.163 HD
ATOM     18  O   UNL A   1      31.243  27.848  28.392  1.00  0.00    -0.275 OA
BRANCH  16  19
ATOM     19  C   UNL A   1      30.402  26.475  25.154  1.00  0.00     0.151 C 
BRANCH  19  20
ATOM     20  C   UNL A   1      30.901  25.110  24.764  1.00  0.00    -0.025 A 
ATOM     21  C   UNL A   1      31.687  22.495  24.074  1.00  0.00     0.160 A 
ATOM     22  C   UNL A   1      31.416  23.443  23.079  1.00  0.00     0.051 A 
ATOM     23  C   UNL A   1      31.607  22.855  25.424  1.00  0.00     0.161 A 
ATOM     24  C   UNL A   1      31.014  24.737  23.420  1.00  0.00     0.009 A 
ATOM     25  C   UNL A   1      31.214  24.163  25.750  1.00  0.00     0.056 A 
BRANCH  21  26
ATOM     26  O   UNL A   1      32.122  21.254  23.692  1.00  0.00    -0.493 OA
ATOM     27  C   UNL A   1      31.977  21.031  22.288  1.00  0.00     0.278 C 
ENDBRANCH  21  26
BRANCH  23  28
ATOM     28  O   UNL A   1      31.877  22.093  26.529  1.00  0.00    -0.493 OA
ATOM     29  C   UNL A   1      33.098  22.320  27.215  1.00  0.00     0.278 C 
ENDBRANCH  23  28
ENDBRANCH  19  20
ENDBRANCH  16  19
ENDBRANCH   8  15
ENDBRANCH   4   7
ENDBRANCH   2   3
ENDBRANCH   1   2
BRANCH   1  30
ATOM     30  C   UNL A   1      36.521  23.506  24.557  1.00  0.00     0.023 C 
BRANCH  30  31
ATOM     31  C   UNL A   1      36.921  23.054  25.957  1.00  0.00     0.116 C 
BRANCH  31  32
ATOM     32  N   UNL A   1      37.967  22.042  25.954  1.00  0.00    -0.352 N 
ATOM     33  C   UNL A   1      39.297  22.159  26.286  1.00  0.00     0.251 C 
ATOM     34  H   UNL A   1      37.681  21.143  25.674  1.00  0.00     0.163 HD
ATOM     35  O   UNL A   1      40.061  21.221  26.099  1.00  0.00    -0.269 OA
BRANCH  33  36
ATOM     36  C   UNL A   1      39.805  23.436  26.833  1.00  0.00     0.039 A 
ATOM     37  C   UNL A   1      40.421  23.437  28.087  1.00  0.00     0.014 A 
ATOM     38  C   UNL A   1      39.708  24.618  26.094  1.00  0.00     0.014 A 
ATOM     39  C   UNL A   1      41.023  24.606  28.559  1.00  0.00     0.010 A 
ATOM     40  C   UNL A   1      40.370  25.761  26.533  1.00  0.00     0.010 A 
ATOM     41  C   UNL A   1      41.046  25.763  27.763  1.00  0.00    -0.014 A 
BRANCH  41  42
ATOM     42  C   UNL A   1      41.794  26.978  28.179  1.00  0.00     0.031 A 
ATOM     43  C   UNL A   1      41.058  28.165  28.737  1.00  0.00     0.074 A 
ATOM     44  C   UNL A   1      43.126  27.043  27.978  1.00  0.00     0.049 A 
ATOM     45  N   UNL A   1      41.520  29.349  29.048  1.00  0.00    -0.248 NA
ATOM     46  C   UNL A   1      39.610  28.007  28.952  1.00  0.00     0.031 C 
ATOM     47  C   UNL A   1      43.955  25.971  27.419  1.00  0.00     0.029 A 
ATOM     48  N   UNL A   1      44.018  28.061  28.208  1.00  0.00    -0.354 N 
ATOM     49  C   UNL A   1      40.420  30.080  29.484  1.00  0.00     0.074 A 
ATOM     50  C   UNL A   1      39.262  29.222  29.352  1.00  0.00     0.031 C 
ATOM     51  C   UNL A   1      45.233  26.380  27.371  1.00  0.00     0.029 A 
ATOM     52  C   UNL A   1      45.310  27.757  27.847  1.00  0.00     0.049 A 
ATOM     53  H   UNL A   1      43.757  28.926  28.597  1.00  0.00     0.167 HD
ATOM     54  C   UNL A   1      40.381  31.344  29.967  1.00  0.00     0.031 A 
ATOM     55  C   UNL A   1      46.430  28.507  27.878  1.00  0.00     0.031 A 
ATOM     56  C   UNL A   1      41.534  32.195  30.104  1.00  0.00     0.049 A 
ATOM     57  C   UNL A   1      46.350  29.924  28.378  1.00  0.00     0.074 A 
ATOM     58  C   UNL A   1      41.601  33.477  30.622  1.00  0.00     0.029 A 
ATOM     59  N   UNL A   1      42.822  31.851  29.722  1.00  0.00    -0.354 N 
ATOM     60  N   UNL A   1      45.309  30.580  28.830  1.00  0.00    -0.248 NA
ATOM     61  C   UNL A   1      47.600  30.700  28.376  1.00  0.00     0.031 C 
ATOM     62  C   UNL A   1      42.919  33.927  30.507  1.00  0.00     0.029 A 
ATOM     63  C   UNL A   1      43.685  32.905  29.968  1.00  0.00     0.049 A 
ATOM     64  H   UNL A   1      43.083  30.985  29.332  1.00  0.00     0.167 HD
ATOM     65  C   UNL A   1      45.782  31.839  29.186  1.00  0.00     0.074 A 
ATOM     66  C   UNL A   1      47.204  31.844  28.916  1.00  0.00     0.031 C 
ATOM     67  C   UNL A   1      45.099  32.896  29.691  1.00  0.00     0.031 A 
BRANCH  54  68
ATOM     68  C   UNL A   1      39.040  31.888  30.386  1.00  0.00    -0.014 A 
ATOM     69  C   UNL A   1      38.562  31.701  31.696  1.00  0.00     0.010 A 
ATOM     70  C   UNL A   1      38.271  32.637  29.478  1.00  0.00     0.010 A 
ATOM     71  C   UNL A   1      37.325  32.222  32.080  1.00  0.00     0.020 A 
ATOM     72  C   UNL A   1      37.043  33.183  29.864  1.00  0.00     0.020 A 
ATOM     73  C   UNL A   1      36.572  32.959  31.159  1.00  0.00     0.054 A 
BRANCH  73  74
ATOM     74  S   UNL A   1      34.982  33.649  31.696  1.00  0.00     0.124 S 
ATOM     75  O   UNL A   1      34.617  34.483  30.553  1.00  0.00    -0.237 OA
ATOM     76  O   UNL A   1      34.163  32.456  31.889  1.00  0.00    -0.237 OA
ATOM     77  O   UNL A   1      35.315  34.378  32.917  1.00  0.00    -0.744 OA
ENDBRANCH  73  74
ENDBRANCH  54  68
BRANCH  55  78
ATOM     78  C   UNL A   1      47.725  27.940  27.414  1.00  0.00    -0.014 A 
ATOM     79  C   UNL A   1      48.539  27.205  28.295  1.00  0.00     0.010 A 
ATOM     80  C   UNL A   1      48.159  28.140  26.089  1.00  0.00     0.010 A 
ATOM     81  C   UNL A   1      49.773  26.704  27.870  1.00  0.00     0.020 A 
ATOM     82  C   UNL A   1      49.379  27.616  25.653  1.00  0.00     0.020 A 
ATOM     83  C   UNL A   1      50.186  26.914  26.551  1.00  0.00     0.054 A 
BRANCH  83  84
ATOM     84  S   UNL A   1      51.776  26.228  26.010  1.00  0.00     0.124 S 
ATOM     85  O   UNL A   1      51.723  24.875  26.552  1.00  0.00    -0.237 OA
ATOM     86  O   UNL A   1      51.686  26.332  24.556  1.00  0.00    -0.237 OA
ATOM     87  O   UNL A   1      52.758  27.115  26.631  1.00  0.00    -0.744 OA
ENDBRANCH  83  84
ENDBRANCH  55  78
BRANCH  67  88
ATOM     88  C   UNL A   1      45.884  34.139  30.009  1.00  0.00    -0.014 A 
ATOM     89  C   UNL A   1      46.468  34.326  31.274  1.00  0.00     0.010 A 
ATOM     90  C   UNL A   1      46.086  35.109  29.010  1.00  0.00     0.010 A 
ATOM     91  C   UNL A   1      47.218  35.474  31.542  1.00  0.00     0.020 A 
ATOM     92  C   UNL A   1      46.859  36.245  29.267  1.00  0.00     0.020 A 
ATOM     93  C   UNL A   1      47.410  36.425  30.536  1.00  0.00     0.054 A 
BRANCH  93  94
ATOM     94  S   UNL A   1      48.431  37.881  30.895  1.00  0.00     0.124 S 
ATOM     95  O   UNL A   1      49.414  37.340  31.830  1.00  0.00    -0.237 OA
ATOM     96  O   UNL A   1      48.949  38.241  29.577  1.00  0.00    -0.237 OA
ATOM     97  O   UNL A   1      47.486  38.835  31.469  1.00  0.00    -0.744 OA
ENDBRANCH  93  94
ENDBRANCH  67  88
ENDBRANCH  41  42
ENDBRANCH  33  36
ENDBRANCH  31  32
ENDBRANCH  30  31
ENDBRANCH   1  30
TORSDOF 19
ENDMDL
MODEL 2
REMARK VINA RESULT:     -10.4      0.842      7.966
REMARK SMILES COc1ccc(CNC(=O)[C@H]2CC(C)=C(C)C[C@@H]2C(=O)NCCCCNC(=O)c2ccc(-c3c4nc(c(-c5ccc(S(=O)(=O)[O-])cc5)c5ccc([nH]5)c(-c5ccc(S(=O)(=O)[O-])cc5)c5nc(c(-c6ccc(S(=O)(=O)[O-])cc6)c6ccc3[nH]6)C=C5)C=C4)cc2)cc1OC
REMARK SMILES IDX 23 1 22 2 21 3 19 4 20 5 18 7 11 8 12 9 13 10 17 11 14 12
REMARK SMILES IDX 15 13 16 14 9 15 8 16 10 18 7 19 6 20 3 21 4 22 90 23 5 24
REMARK SMILES IDX 89 25 2 26 1 27 91 28 92 29 24 30 25 31 26 32 27 33 28 35
REMARK SMILES IDX 29 36 30 37 88 38 31 39 87 40 32 41 33 42 34 43 81 44 35 45
REMARK SMILES IDX 86 46 80 47 82 48 36 49 85 50 79 51 78 52 37 54 67 55 48 56
REMARK SMILES IDX 66 57 49 58 52 59 65 60 83 61 50 62 51 63 64 65 84 66 53 67
REMARK SMILES IDX 38 68 39 69 47 70 40 71 46 72 41 73 42 74 43 75 44 76 45 77
REMARK SMILES IDX 68 78 69 79 77 80 70 81 76 82 71 83 72 84 73 85 74 86 75 87
REMARK SMILES IDX 54 88 55 89 63 90 56 91 62 92 57 93 58 94 59 95 60 96 61 97
REMARK H PARENT 21 6 8 17 26 34 82 53 52 64
REMARK Flexibility Score: inf
ROOT
ATOM      1  C   UNL A   1      35.152  23.920  24.559  1.00  0.00     0.023 C 
ENDROOT
BRANCH   1   2
ATOM      2  C   UNL A   1      34.695  25.186  25.274  1.00  0.00     0.116 C 
BRANCH   2   3
ATOM      3  N   UNL A   1      34.233  26.218  24.364  1.00  0.00    -0.356 N 
ATOM      4  C   UNL A   1      33.762  27.470  24.642  1.00  0.00     0.224 C 
ATOM      5  O   UNL A   1      33.509  28.205  23.686  1.00  0.00    -0.275 OA
ATOM      6  H   UNL A   1      34.263  25.982  23.408  1.00  0.00     0.163 HD
BRANCH   4   7
ATOM      7  C   UNL A   1      33.541  27.885  26.101  1.00  0.00     0.095 C 
ATOM      8  C   UNL A   1      32.188  28.615  26.266  1.00  0.00     0.095 C 
ATOM      9  C   UNL A   1      32.182  30.002  26.925  1.00  0.00     0.045 C 
ATOM     10  C   UNL A   1      33.497  30.645  27.272  1.00  0.00    -0.074 C 
ATOM     11  C   UNL A   1      34.788  28.606  26.631  1.00  0.00     0.045 C 
ATOM     12  C   UNL A   1      33.365  32.055  27.790  1.00  0.00     0.039 C 
ATOM     13  C   UNL A   1      34.673  30.007  27.147  1.00  0.00    -0.074 C 
ATOM     14  C   UNL A   1      35.994  30.626  27.536  1.00  0.00     0.039 C 
BRANCH   8  15
ATOM     15  C   UNL A   1      31.273  27.689  27.064  1.00  0.00     0.224 C 
ATOM     16  N   UNL A   1      30.557  26.711  26.448  1.00  0.00    -0.352 N 
ATOM     17  H   UNL A   1      30.120  26.075  27.060  1.00  0.00     0.163 HD
ATOM     18  O   UNL A   1      31.184  27.784  28.291  1.00  0.00    -0.275 OA
BRANCH  16  19
ATOM     19  C   UNL A   1      30.329  26.448  25.041  1.00  0.00     0.151 C 
BRANCH  19  20
ATOM     20  C   UNL A   1      30.950  25.151  24.597  1.00  0.00    -0.025 A 
ATOM     21  C   UNL A   1      31.966  22.653  23.784  1.00  0.00     0.160 A 
ATOM     22  C   UNL A   1      31.731  23.667  22.845  1.00  0.00     0.051 A 
ATOM     23  C   UNL A   1      31.734  22.892  25.143  1.00  0.00     0.161 A 
ATOM     24  C   UNL A   1      31.216  24.902  23.245  1.00  0.00     0.009 A 
ATOM     25  C   UNL A   1      31.227  24.142  25.531  1.00  0.00     0.056 A 
BRANCH  21  26
ATOM     26  O   UNL A   1      32.515  21.476  23.351  1.00  0.00    -0.493 OA
ATOM     27  C   UNL A   1      31.874  20.972  22.177  1.00  0.00     0.278 C 
ENDBRANCH  21  26
BRANCH  23  28
ATOM     28  O   UNL A   1      31.944  22.054  26.205  1.00  0.00    -0.493 OA
ATOM     29  C   UNL A   1      32.695  22.546  27.305  1.00  0.00     0.278 C 
ENDBRANCH  23  28
ENDBRANCH  19  20
ENDBRANCH  16  19
ENDBRANCH   8  15
ENDBRANCH   4   7
ENDBRANCH   2   3
ENDBRANCH   1   2
BRANCH   1  30
ATOM     30  C   UNL A   1      36.622  23.550  24.752  1.00  0.00     0.023 C 
BRANCH  30  31
ATOM     31  C   UNL A   1      36.975  22.935  26.103  1.00  0.00     0.116 C 
BRANCH  31  32
ATOM     32  N   UNL A   1      38.142  22.069  26.049  1.00  0.00    -0.352 N 
ATOM     33  C   UNL A   1      39.464  22.367  26.292  1.00  0.00     0.251 C 
ATOM     34  H   UNL A   1      37.960  21.134  25.804  1.00  0.00     0.163 HD
ATOM     35  O   UNL A   1      40.332  21.533  26.072  1.00  0.00    -0.269 OA
BRANCH  33  36
ATOM     36  C   UNL A   1      39.832  23.713  26.782  1.00  0.00     0.039 A 
ATOM     37  C   UNL A   1      40.142  23.878  28.135  1.00  0.00     0.014 A 
ATOM     38  C   UNL A   1      39.908  24.797  25.904  1.00  0.00     0.014 A 
ATOM     39  C   UNL A   1      40.618  25.111  28.588  1.00  0.00     0.010 A 
ATOM     40  C   UNL A   1      40.450  26.002  26.342  1.00  0.00     0.010 A 
ATOM     41  C   UNL A   1      40.825  26.167  27.686  1.00  0.00    -0.014 A 
BRANCH  41  42
ATOM     42  C   UNL A   1      41.456  27.443  28.112  1.00  0.00     0.031 A 
ATOM     43  C   UNL A   1      42.953  27.593  28.078  1.00  0.00     0.074 A 
ATOM     44  C   UNL A   1      40.689  28.435  28.605  1.00  0.00     0.049 A 
ATOM     45  N   UNL A   1      43.691  28.582  28.513  1.00  0.00    -0.248 NA
ATOM     46  C   UNL A   1      43.720  26.476  27.501  1.00  0.00     0.031 C 
ATOM     47  C   UNL A   1      39.228  28.404  28.716  1.00  0.00     0.029 A 
ATOM     48  N   UNL A   1      41.032  29.662  29.118  1.00  0.00    -0.354 N 
ATOM     49  C   UNL A   1      45.007  28.203  28.274  1.00  0.00     0.074 A 
ATOM     50  C   UNL A   1      44.969  26.876  27.699  1.00  0.00     0.031 C 
ATOM     51  C   UNL A   1      38.800  29.564  29.242  1.00  0.00     0.029 A 
ATOM     52  C   UNL A   1      39.955  30.401  29.552  1.00  0.00     0.049 A 
ATOM     53  H   UNL A   1      41.960  29.982  29.170  1.00  0.00     0.167 HD
ATOM     54  C   UNL A   1      46.145  28.905  28.495  1.00  0.00     0.031 A 
ATOM     55  C   UNL A   1      39.902  31.608  30.148  1.00  0.00     0.031 A 
ATOM     56  C   UNL A   1      46.182  30.228  29.060  1.00  0.00     0.049 A 
ATOM     57  C   UNL A   1      41.184  32.348  30.423  1.00  0.00     0.074 A 
ATOM     58  C   UNL A   1      47.283  31.037  29.284  1.00  0.00     0.029 A 
ATOM     59  N   UNL A   1      45.071  30.938  29.490  1.00  0.00    -0.354 N 
ATOM     60  N   UNL A   1      42.415  31.992  30.145  1.00  0.00    -0.248 NA
ATOM     61  C   UNL A   1      41.067  33.654  31.088  1.00  0.00     0.031 C 
ATOM     62  C   UNL A   1      46.843  32.214  29.896  1.00  0.00     0.029 A 
ATOM     63  C   UNL A   1      45.462  32.163  30.002  1.00  0.00     0.049 A 
ATOM     64  H   UNL A   1      44.141  30.616  29.439  1.00  0.00     0.167 HD
ATOM     65  C   UNL A   1      43.218  33.040  30.582  1.00  0.00     0.074 A 
ATOM     66  C   UNL A   1      42.332  34.050  31.123  1.00  0.00     0.031 C 
ATOM     67  C   UNL A   1      44.568  33.157  30.540  1.00  0.00     0.031 A 
BRANCH  54  68
ATOM     68  C   UNL A   1      47.450  28.251  28.123  1.00  0.00    -0.014 A 
ATOM     69  C   UNL A   1      47.989  28.400  26.832  1.00  0.00     0.010 A 
ATOM     70  C   UNL A   1      48.170  27.523  29.086  1.00  0.00     0.010 A 
ATOM     71  C   UNL A   1      49.207  27.802  26.500  1.00  0.00     0.020 A 
ATOM     72  C   UNL A   1      49.402  26.945  28.767  1.00  0.00     0.020 A 
ATOM     73  C   UNL A   1      49.906  27.076  27.471  1.00  0.00     0.054 A 
BRANCH  73  74
ATOM     74  S   UNL A   1      51.499  26.337  27.020  1.00  0.00     0.124 S 
ATOM     75  O   UNL A   1      51.164  24.917  26.955  1.00  0.00    -0.237 OA
ATOM     76  O   UNL A   1      51.796  26.971  25.739  1.00  0.00    -0.237 OA
ATOM     77  O   UNL A   1      52.382  26.718  28.120  1.00  0.00    -0.744 OA
ENDBRANCH  73  74
ENDBRANCH  54  68
BRANCH  55  78
ATOM     78  C   UNL A   1      38.591  32.196  30.537  1.00  0.00    -0.014 A 
ATOM     79  C   UNL A   1      38.044  31.942  31.807  1.00  0.00     0.010 A 
ATOM     80  C   UNL A   1      37.876  33.006  29.634  1.00  0.00     0.010 A 
ATOM     81  C   UNL A   1      36.795  32.462  32.159  1.00  0.00     0.020 A 
ATOM     82  C   UNL A   1      36.640  33.552  29.993  1.00  0.00     0.020 A 
ATOM     83  C   UNL A   1      36.101  33.264  31.248  1.00  0.00     0.054 A 
BRANCH  83  84
ATOM     84  S   UNL A   1      34.497  33.957  31.736  1.00  0.00     0.124 S 
ATOM     85  O   UNL A   1      33.883  34.240  30.443  1.00  0.00    -0.237 OA
ATOM     86  O   UNL A   1      33.898  32.863  32.496  1.00  0.00    -0.237 OA
ATOM     87  O   UNL A   1      34.859  35.130  32.528  1.00  0.00    -0.744 OA
ENDBRANCH  83  84
ENDBRANCH  55  78
BRANCH  67  88
ATOM     88  C   UNL A   1      45.171  34.429  31.070  1.00  0.00    -0.014 A 
ATOM     89  C   UNL A   1      45.340  35.553  30.242  1.00  0.00     0.010 A 
ATOM     90  C   UNL A   1      45.522  34.519  32.430  1.00  0.00     0.010 A 
ATOM     91  C   UNL A   1      45.874  36.736  30.759  1.00  0.00     0.020 A 
ATOM     92  C   UNL A   1      46.031  35.710  32.955  1.00  0.00     0.020 A 
ATOM     93  C   UNL A   1      46.215  36.808  32.113  1.00  0.00     0.054 A 
BRANCH  93  94
ATOM     94  S   UNL A   1      46.858  38.372  32.769  1.00  0.00     0.124 S 
ATOM     95  O   UNL A   1      48.301  38.187  32.632  1.00  0.00    -0.237 OA
ATOM     96  O   UNL A   1      46.264  39.363  31.876  1.00  0.00    -0.237 OA
ATOM     97  O   UNL A   1      46.362  38.401  34.143  1.00  0.00    -0.744 OA
ENDBRANCH  93  94
ENDBRANCH  67  88
ENDBRANCH  41  42
ENDBRANCH  33  36
ENDBRANCH  31  32
ENDBRANCH  30  31
ENDBRANCH   1  30
TORSDOF 19
ENDMDL
MODEL 3
REMARK VINA RESULT:     -10.3      2.887      8.925
REMARK SMILES COc1ccc(CNC(=O)[C@H]2CC(C)=C(C)C[C@@H]2C(=O)NCCCCNC(=O)c2ccc(-c3c4nc(c(-c5ccc(S(=O)(=O)[O-])cc5)c5ccc([nH]5)c(-c5ccc(S(=O)(=O)[O-])cc5)c5nc(c(-c6ccc(S(=O)(=O)[O-])cc6)c6ccc3[nH]6)C=C5)C=C4)cc2)cc1OC
REMARK SMILES IDX 23 1 22 2 21 3 19 4 20 5 18 7 11 8 12 9 13 10 17 11 14 12
REMARK SMILES IDX 15 13 16 14 9 15 8 16 10 18 7 19 6 20 3 21 4 22 90 23 5 24
REMARK SMILES IDX 89 25 2 26 1 27 91 28 92 29 24 30 25 31 26 32 27 33 28 35
REMARK SMILES IDX 29 36 30 37 88 38 31 39 87 40 32 41 33 42 34 43 81 44 35 45
REMARK SMILES IDX 86 46 80 47 82 48 36 49 85 50 79 51 78 52 37 54 67 55 48 56
REMARK SMILES IDX 66 57 49 58 52 59 65 60 83 61 50 62 51 63 64 65 84 66 53 67
REMARK SMILES IDX 38 68 39 69 47 70 40 71 46 72 41 73 42 74 43 75 44 76 45 77
REMARK SMILES IDX 68 78 69 79 77 80 70 81 76 82 71 83 72 84 73 85 74 86 75 87
REMARK SMILES IDX 54 88 55 89 63 90 56 91 62 92 57 93 58 94 59 95 60 96 61 97
REMARK H PARENT 21 6 8 17 26 34 82 53 52 64
REMARK Flexibility Score: inf
ROOT
ATOM      1  C   UNL A   1      35.354  23.106  23.236  1.00  0.00     0.023 C 
ENDROOT
BRANCH   1   2
ATOM      2  C   UNL A   1      34.381  24.040  23.946  1.00  0.00     0.116 C 
BRANCH   2   3
ATOM      3  N   UNL A   1      33.406  24.634  23.049  1.00  0.00    -0.356 N 
ATOM      4  C   UNL A   1      32.073  24.363  22.916  1.00  0.00     0.224 C 
ATOM      5  O   UNL A   1      31.427  25.068  22.140  1.00  0.00    -0.275 OA
ATOM      6  H   UNL A   1      33.755  25.335  22.452  1.00  0.00     0.163 HD
BRANCH   4   7
ATOM      7  C   UNL A   1      31.462  23.194  23.697  1.00  0.00     0.095 C 
ATOM      8  C   UNL A   1      32.036  23.130  25.131  1.00  0.00     0.095 C 
ATOM      9  C   UNL A   1      32.657  21.810  25.611  1.00  0.00     0.045 C 
ATOM     10  C   UNL A   1      32.792  20.675  24.634  1.00  0.00    -0.074 C 
ATOM     11  C   UNL A   1      31.544  21.910  22.859  1.00  0.00     0.045 C 
ATOM     12  C   UNL A   1      33.535  19.484  25.187  1.00  0.00     0.039 C 
ATOM     13  C   UNL A   1      32.279  20.720  23.393  1.00  0.00    -0.074 C 
ATOM     14  C   UNL A   1      32.368  19.568  22.420  1.00  0.00     0.039 C 
BRANCH   8  15
ATOM     15  C   UNL A   1      30.906  23.516  26.084  1.00  0.00     0.224 C 
ATOM     16  N   UNL A   1      30.796  24.784  26.563  1.00  0.00    -0.352 N 
ATOM     17  H   UNL A   1      29.957  24.970  27.042  1.00  0.00     0.163 HD
ATOM     18  O   UNL A   1      30.047  22.695  26.418  1.00  0.00    -0.275 OA
BRANCH  16  19
ATOM     19  C   UNL A   1      31.709  25.907  26.485  1.00  0.00     0.151 C 
BRANCH  19  20
ATOM     20  C   UNL A   1      31.176  27.014  25.614  1.00  0.00    -0.025 A 
ATOM     21  C   UNL A   1      30.324  29.085  23.907  1.00  0.00     0.160 A 
ATOM     22  C   UNL A   1      29.857  27.776  23.727  1.00  0.00     0.051 A 
ATOM     23  C   UNL A   1      31.189  29.379  24.967  1.00  0.00     0.161 A 
ATOM     24  C   UNL A   1      30.289  26.746  24.565  1.00  0.00     0.009 A 
ATOM     25  C   UNL A   1      31.604  28.335  25.808  1.00  0.00     0.056 A 
BRANCH  21  26
ATOM     26  O   UNL A   1      29.838  30.070  23.089  1.00  0.00    -0.493 OA
ATOM     27  C   UNL A   1      28.461  30.358  23.339  1.00  0.00     0.278 C 
ENDBRANCH  21  26
BRANCH  23  28
ATOM     28  O   UNL A   1      31.711  30.592  25.331  1.00  0.00    -0.493 OA
ATOM     29  C   UNL A   1      32.094  30.773  26.686  1.00  0.00     0.278 C 
ENDBRANCH  23  28
ENDBRANCH  19  20
ENDBRANCH  16  19
ENDBRANCH   8  15
ENDBRANCH   4   7
ENDBRANCH   2   3
ENDBRANCH   1   2
BRANCH   1  30
ATOM     30  C   UNL A   1      36.830  23.317  23.570  1.00  0.00     0.023 C 
BRANCH  30  31
ATOM     31  C   UNL A   1      37.150  23.502  25.050  1.00  0.00     0.116 C 
BRANCH  31  32
ATOM     32  N   UNL A   1      38.134  22.551  25.545  1.00  0.00    -0.352 N 
ATOM     33  C   UNL A   1      39.234  22.768  26.344  1.00  0.00     0.251 C 
ATOM     34  H   UNL A   1      37.992  21.618  25.268  1.00  0.00     0.163 HD
ATOM     35  O   UNL A   1      40.028  21.860  26.555  1.00  0.00    -0.269 OA
BRANCH  33  36
ATOM     36  C   UNL A   1      39.472  24.113  26.911  1.00  0.00     0.039 A 
ATOM     37  C   UNL A   1      38.962  24.412  28.177  1.00  0.00     0.014 A 
ATOM     38  C   UNL A   1      40.227  25.059  26.214  1.00  0.00     0.014 A 
ATOM     39  C   UNL A   1      39.288  25.627  28.783  1.00  0.00     0.010 A 
ATOM     40  C   UNL A   1      40.611  26.238  26.848  1.00  0.00     0.010 A 
ATOM     41  C   UNL A   1      40.157  26.527  28.145  1.00  0.00    -0.014 A 
BRANCH  41  42
ATOM     42  C   UNL A   1      40.630  27.763  28.821  1.00  0.00     0.031 A 
ATOM     43  C   UNL A   1      41.997  27.805  29.449  1.00  0.00     0.074 A 
ATOM     44  C   UNL A   1      39.800  28.819  28.938  1.00  0.00     0.049 A 
ATOM     45  N   UNL A   1      42.540  28.748  30.176  1.00  0.00    -0.248 NA
ATOM     46  C   UNL A   1      42.854  26.624  29.255  1.00  0.00     0.031 C 
ATOM     47  C   UNL A   1      38.440  28.896  28.396  1.00  0.00     0.029 A 
ATOM     48  N   UNL A   1      39.972  30.029  29.564  1.00  0.00    -0.354 N 
ATOM     49  C   UNL A   1      43.795  28.271  30.534  1.00  0.00     0.074 A 
ATOM     50  C   UNL A   1      43.914  26.937  29.986  1.00  0.00     0.031 C 
ATOM     51  C   UNL A   1      37.913  30.094  28.695  1.00  0.00     0.029 A 
ATOM     52  C   UNL A   1      38.873  30.853  29.490  1.00  0.00     0.049 A 
ATOM     53  H   UNL A   1      40.805  30.283  30.023  1.00  0.00     0.167 HD
ATOM     54  C   UNL A   1      44.769  28.894  31.241  1.00  0.00     0.031 A 
ATOM     55  C   UNL A   1      38.653  32.074  30.017  1.00  0.00     0.031 A 
ATOM     56  C   UNL A   1      44.652  30.223  31.781  1.00  0.00     0.049 A 
ATOM     57  C   UNL A   1      39.735  32.725  30.835  1.00  0.00     0.074 A 
ATOM     58  C   UNL A   1      45.600  30.955  32.475  1.00  0.00     0.029 A 
ATOM     59  N   UNL A   1      43.521  31.020  31.687  1.00  0.00    -0.354 N 
ATOM     60  N   UNL A   1      40.933  32.276  31.122  1.00  0.00    -0.248 NA
ATOM     61  C   UNL A   1      39.436  34.051  31.396  1.00  0.00     0.031 C 
ATOM     62  C   UNL A   1      45.025  32.175  32.845  1.00  0.00     0.029 A 
ATOM     63  C   UNL A   1      43.738  32.224  32.334  1.00  0.00     0.049 A 
ATOM     64  H   UNL A   1      42.687  30.765  31.230  1.00  0.00     0.167 HD
ATOM     65  C   UNL A   1      41.539  33.274  31.880  1.00  0.00     0.074 A 
ATOM     66  C   UNL A   1      40.582  34.355  31.988  1.00  0.00     0.031 C 
ATOM     67  C   UNL A   1      42.774  33.292  32.436  1.00  0.00     0.031 A 
BRANCH  54  68
ATOM     68  C   UNL A   1      46.052  28.140  31.472  1.00  0.00    -0.014 A 
ATOM     69  C   UNL A   1      47.126  28.249  30.570  1.00  0.00     0.010 A 
ATOM     70  C   UNL A   1      46.207  27.355  32.627  1.00  0.00     0.010 A 
ATOM     71  C   UNL A   1      48.317  27.558  30.800  1.00  0.00     0.020 A 
ATOM     72  C   UNL A   1      47.407  26.682  32.877  1.00  0.00     0.020 A 
ATOM     73  C   UNL A   1      48.450  26.777  31.953  1.00  0.00     0.054 A 
BRANCH  73  74
ATOM     74  S   UNL A   1      50.020  25.916  32.240  1.00  0.00     0.124 S 
ATOM     75  O   UNL A   1      50.981  27.014  32.174  1.00  0.00    -0.237 OA
ATOM     76  O   UNL A   1      49.827  25.330  33.563  1.00  0.00    -0.237 OA
ATOM     77  O   UNL A   1      50.096  24.957  31.141  1.00  0.00    -0.744 OA
ENDBRANCH  73  74
ENDBRANCH  54  68
BRANCH  55  78
ATOM     78  C   UNL A   1      37.352  32.762  29.797  1.00  0.00    -0.014 A 
ATOM     79  C   UNL A   1      36.307  32.626  30.728  1.00  0.00     0.010 A 
ATOM     80  C   UNL A   1      37.147  33.551  28.649  1.00  0.00     0.010 A 
ATOM     81  C   UNL A   1      35.072  33.242  30.503  1.00  0.00     0.020 A 
ATOM     82  C   UNL A   1      35.923  34.191  28.435  1.00  0.00     0.020 A 
ATOM     83  C   UNL A   1      34.888  34.021  29.357  1.00  0.00     0.054 A 
BRANCH  83  84
ATOM     84  S   UNL A   1      33.289  34.838  29.100  1.00  0.00     0.124 S 
ATOM     85  O   UNL A   1      32.708  34.796  30.437  1.00  0.00    -0.237 OA
ATOM     86  O   UNL A   1      33.684  36.160  28.621  1.00  0.00    -0.237 OA
ATOM     87  O   UNL A   1      32.632  33.994  28.104  1.00  0.00    -0.744 OA
ENDBRANCH  83  84
ENDBRANCH  55  78
BRANCH  67  88
ATOM     88  C   UNL A   1      43.176  34.529  33.192  1.00  0.00    -0.014 A 
ATOM     89  C   UNL A   1      42.990  34.623  34.582  1.00  0.00     0.010 A 
ATOM     90  C   UNL A   1      43.798  35.590  32.509  1.00  0.00     0.010 A 
ATOM     91  C   UNL A   1      43.396  35.768  35.272  1.00  0.00     0.020 A 
ATOM     92  C   UNL A   1      44.230  36.725  33.201  1.00  0.00     0.020 A 
ATOM     93  C   UNL A   1      44.015  36.812  34.577  1.00  0.00     0.054 A 
BRANCH  93  94
ATOM     94  S   UNL A   1      44.579  38.265  35.505  1.00  0.00     0.124 S 
ATOM     95  O   UNL A   1      44.053  37.995  36.840  1.00  0.00    -0.237 OA
ATOM     96  O   UNL A   1      46.032  38.185  35.373  1.00  0.00    -0.237 OA
ATOM     97  O   UNL A   1      43.956  39.386  34.806  1.00  0.00    -0.744 OA
ENDBRANCH  93  94
ENDBRANCH  67  88
ENDBRANCH  41  42
ENDBRANCH  33  36
ENDBRANCH  31  32
ENDBRANCH  30  31
ENDBRANCH   1  30
TORSDOF 19
ENDMDL
