MODEL 1
REMARK VINA RESULT:     -10.2      0.000      0.000
REMARK SMILES COC[C@H]1CCN(C(=O)N2CC[C@H](C(=O)NCCCCNC(=O)c3ccc(-c4c5nc(c(-c6ccc(S(=O)(=O)[O-])cc6)c6ccc([nH]6)c(-c6ccc(S(=O)(=O)[O-])cc6)c6nc(c(-c7ccc(S(=O)(=O)[O-])cc7)c7ccc4[nH]7)C=C6)C=C5)cc3)[C@@H]2C)C1
REMARK SMILES IDX 18 1 17 2 16 3 14 4 15 5 13 7 10 8 11 9 84 10 12 11 85 12
REMARK SMILES IDX 8 13 9 14 7 15 4 16 5 17 86 18 6 19 3 20 2 21 1 22 19 23
REMARK SMILES IDX 20 24 21 25 22 26 23 28 24 29 25 30 83 31 26 32 82 33 27 34
REMARK SMILES IDX 28 35 29 36 76 37 30 38 81 39 75 40 77 41 31 42 80 43 74 44
REMARK SMILES IDX 73 45 32 47 62 48 43 49 61 50 44 51 47 52 60 53 78 54 45 55
REMARK SMILES IDX 46 56 59 58 79 59 48 60 33 61 34 62 42 63 35 64 41 65 36 66
REMARK SMILES IDX 37 67 38 68 39 69 40 70 63 71 64 72 72 73 65 74 71 75 66 76
REMARK SMILES IDX 67 77 68 78 69 79 70 80 49 81 50 82 58 83 51 84 57 85 52 86
REMARK SMILES IDX 53 87 54 88 55 89 56 90
REMARK H PARENT 16 6 21 27 77 46 47 57
REMARK Flexibility Score: inf
ROOT
ATOM      1  C   UNL A   1      32.722  29.097  24.734  1.00  0.00     0.023 C 
ENDROOT
BRANCH   1   2
ATOM      2  C   UNL A   1      32.939  28.876  23.243  1.00  0.00     0.116 C 
BRANCH   2   3
ATOM      3  N   UNL A   1      33.651  27.653  22.942  1.00  0.00    -0.356 N 
ATOM      4  C   UNL A   1      33.235  26.358  22.955  1.00  0.00     0.225 C 
ATOM      5  O   UNL A   1      34.033  25.508  22.548  1.00  0.00    -0.275 OA
ATOM      6  H   UNL A   1      34.593  27.779  22.685  1.00  0.00     0.163 HD
BRANCH   4   7
ATOM      7  C   UNL A   1      31.867  25.916  23.466  1.00  0.00     0.102 C 
ATOM      8  N   UNL A   1      31.466  23.917  24.649  1.00  0.00    -0.321 N 
ATOM      9  C   UNL A   1      30.611  23.848  23.481  1.00  0.00     0.122 C 
ATOM     10  C   UNL A   1      31.791  25.321  24.888  1.00  0.00     0.096 C 
ATOM     11  C   UNL A   1      31.182  24.893  22.540  1.00  0.00     0.037 C 
ATOM     12  C   UNL A   1      32.984  25.579  25.800  1.00  0.00     0.032 C 
BRANCH   8  13
ATOM     13  C   UNL A   1      31.375  22.992  25.659  1.00  0.00     0.320 C 
ATOM     14  O   UNL A   1      30.315  22.778  26.245  1.00  0.00    -0.248 OA
BRANCH  13  15
ATOM     15  N   UNL A   1      32.544  22.355  26.011  1.00  0.00    -0.324 N 
ATOM     16  C   UNL A   1      34.335  20.803  25.798  1.00  0.00     0.036 C 
ATOM     17  C   UNL A   1      34.470  21.593  27.104  1.00  0.00     0.029 C 
ATOM     18  C   UNL A   1      33.264  21.573  25.021  1.00  0.00     0.127 C 
ATOM     19  C   UNL A   1      33.050  22.076  27.346  1.00  0.00     0.122 C 
BRANCH  16  20
ATOM     20  C   UNL A   1      35.664  20.639  25.062  1.00  0.00     0.165 C 
BRANCH  20  21
ATOM     21  O   UNL A   1      36.315  21.878  24.795  1.00  0.00    -0.384 OA
ATOM     22  C   UNL A   1      37.707  21.870  25.072  1.00  0.00     0.194 C 
ENDBRANCH  20  21
ENDBRANCH  16  20
ENDBRANCH  13  15
ENDBRANCH   8  13
ENDBRANCH   4   7
ENDBRANCH   2   3
ENDBRANCH   1   2
BRANCH   1  23
ATOM     23  C   UNL A   1      33.967  28.912  25.597  1.00  0.00     0.023 C 
BRANCH  23  24
ATOM     24  C   UNL A   1      33.728  28.891  27.104  1.00  0.00     0.116 C 
BRANCH  24  25
ATOM     25  N   UNL A   1      33.659  30.219  27.699  1.00  0.00    -0.352 N 
ATOM     26  C   UNL A   1      34.616  30.889  28.425  1.00  0.00     0.251 C 
ATOM     27  H   UNL A   1      32.812  30.702  27.564  1.00  0.00     0.163 HD
ATOM     28  O   UNL A   1      34.348  31.967  28.950  1.00  0.00    -0.269 OA
BRANCH  26  29
ATOM     29  C   UNL A   1      35.953  30.282  28.599  1.00  0.00     0.039 A 
ATOM     30  C   UNL A   1      36.883  30.383  27.562  1.00  0.00     0.014 A 
ATOM     31  C   UNL A   1      36.301  29.662  29.802  1.00  0.00     0.014 A 
ATOM     32  C   UNL A   1      38.190  29.936  27.763  1.00  0.00     0.010 A 
ATOM     33  C   UNL A   1      37.621  29.284  30.025  1.00  0.00     0.010 A 
ATOM     34  C   UNL A   1      38.581  29.423  29.012  1.00  0.00    -0.014 A 
BRANCH  34  35
ATOM     35  C   UNL A   1      39.992  29.047  29.286  1.00  0.00     0.031 A 
ATOM     36  C   UNL A   1      40.938  30.047  29.890  1.00  0.00     0.074 A 
ATOM     37  C   UNL A   1      40.441  27.830  28.918  1.00  0.00     0.049 A 
ATOM     38  N   UNL A   1      42.218  29.927  30.135  1.00  0.00    -0.248 NA
ATOM     39  C   UNL A   1      40.380  31.364  30.238  1.00  0.00     0.031 C 
ATOM     40  C   UNL A   1      39.638  26.785  28.278  1.00  0.00     0.029 A 
ATOM     41  N   UNL A   1      41.690  27.269  29.022  1.00  0.00    -0.354 N 
ATOM     42  C   UNL A   1      42.622  31.156  30.645  1.00  0.00     0.074 A 
ATOM     43  C   UNL A   1      41.461  32.021  30.631  1.00  0.00     0.031 C 
ATOM     44  C   UNL A   1      40.407  25.704  28.069  1.00  0.00     0.029 A 
ATOM     45  C   UNL A   1      41.765  25.989  28.523  1.00  0.00     0.049 A 
ATOM     46  H   UNL A   1      42.461  27.739  29.416  1.00  0.00     0.167 HD
ATOM     47  C   UNL A   1      43.841  31.527  31.102  1.00  0.00     0.031 A 
ATOM     48  C   UNL A   1      42.807  25.140  28.437  1.00  0.00     0.031 A 
ATOM     49  C   UNL A   1      44.990  30.662  31.129  1.00  0.00     0.049 A 
ATOM     50  C   UNL A   1      44.150  25.570  28.958  1.00  0.00     0.074 A 
ATOM     51  C   UNL A   1      46.254  30.925  31.629  1.00  0.00     0.029 A 
ATOM     52  N   UNL A   1      45.017  29.366  30.638  1.00  0.00    -0.354 N 
ATOM     53  N   UNL A   1      44.495  26.714  29.498  1.00  0.00    -0.248 NA
ATOM     54  C   UNL A   1      45.242  24.591  28.868  1.00  0.00     0.031 C 
ATOM     55  C   UNL A   1      47.057  29.803  31.401  1.00  0.00     0.029 A 
ATOM     56  C   UNL A   1      46.280  28.823  30.806  1.00  0.00     0.049 A 
ATOM     57  H   UNL A   1      44.251  28.900  30.231  1.00  0.00     0.167 HD
ATOM     58  C   UNL A   1      45.838  26.583  29.836  1.00  0.00     0.074 A 
ATOM     59  C   UNL A   1      46.237  25.245  29.450  1.00  0.00     0.031 C 
ATOM     60  C   UNL A   1      46.663  27.489  30.415  1.00  0.00     0.031 A 
BRANCH  47  61
ATOM     61  C   UNL A   1      43.991  32.938  31.604  1.00  0.00    -0.014 A 
ATOM     62  C   UNL A   1      43.769  33.252  32.958  1.00  0.00     0.010 A 
ATOM     63  C   UNL A   1      44.381  33.959  30.720  1.00  0.00     0.010 A 
ATOM     64  C   UNL A   1      43.885  34.570  33.407  1.00  0.00     0.020 A 
ATOM     65  C   UNL A   1      44.524  35.275  31.171  1.00  0.00     0.020 A 
ATOM     66  C   UNL A   1      44.255  35.574  32.509  1.00  0.00     0.054 A 
BRANCH  66  67
ATOM     67  S   UNL A   1      44.405  37.275  33.119  1.00  0.00     0.124 S 
ATOM     68  O   UNL A   1      45.485  37.149  34.096  1.00  0.00    -0.237 OA
ATOM     69  O   UNL A   1      44.739  38.023  31.910  1.00  0.00    -0.237 OA
ATOM     70  O   UNL A   1      43.087  37.560  33.681  1.00  0.00    -0.744 OA
ENDBRANCH  66  67
ENDBRANCH  47  61
BRANCH  48  71
ATOM     71  C   UNL A   1      42.613  23.786  27.853  1.00  0.00    -0.014 A 
ATOM     72  C   UNL A   1      42.850  23.561  26.485  1.00  0.00     0.010 A 
ATOM     73  C   UNL A   1      42.210  22.709  28.664  1.00  0.00     0.010 A 
ATOM     74  C   UNL A   1      42.678  22.286  25.937  1.00  0.00     0.020 A 
ATOM     75  C   UNL A   1      42.060  21.429  28.124  1.00  0.00     0.020 A 
ATOM     76  C   UNL A   1      42.286  21.228  26.761  1.00  0.00     0.054 A 
BRANCH  76  77
ATOM     77  S   UNL A   1      42.131  19.569  26.042  1.00  0.00     0.124 S 
ATOM     78  O   UNL A   1      40.706  19.505  25.733  1.00  0.00    -0.237 OA
ATOM     79  O   UNL A   1      43.026  19.639  24.889  1.00  0.00    -0.237 OA
ATOM     80  O   UNL A   1      42.581  18.687  27.116  1.00  0.00    -0.744 OA
ENDBRANCH  76  77
ENDBRANCH  48  71
BRANCH  60  81
ATOM     81  C   UNL A   1      48.076  27.056  30.697  1.00  0.00    -0.014 A 
ATOM     82  C   UNL A   1      49.114  27.323  29.787  1.00  0.00     0.010 A 
ATOM     83  C   UNL A   1      48.376  26.423  31.917  1.00  0.00     0.010 A 
ATOM     84  C   UNL A   1      50.426  26.937  30.082  1.00  0.00     0.020 A 
ATOM     85  C   UNL A   1      49.689  26.059  32.225  1.00  0.00     0.020 A 
ATOM     86  C   UNL A   1      50.704  26.307  31.298  1.00  0.00     0.054 A 
BRANCH  86  87
ATOM     87  S   UNL A   1      52.420  25.858  31.678  1.00  0.00     0.124 S 
ATOM     88  O   UNL A   1      53.072  26.031  30.383  1.00  0.00    -0.237 OA
ATOM     89  O   UNL A   1      52.789  26.832  32.703  1.00  0.00    -0.237 OA
ATOM     90  O   UNL A   1      52.321  24.478  32.147  1.00  0.00    -0.744 OA
ENDBRANCH  86  87
ENDBRANCH  60  81
ENDBRANCH  34  35
ENDBRANCH  26  29
ENDBRANCH  24  25
ENDBRANCH  23  24
ENDBRANCH   1  23
TORSDOF 18
ENDMDL
MODEL 2
REMARK VINA RESULT:     -10.1      2.538      8.845
REMARK SMILES COC[C@H]1CCN(C(=O)N2CC[C@H](C(=O)NCCCCNC(=O)c3ccc(-c4c5nc(c(-c6ccc(S(=O)(=O)[O-])cc6)c6ccc([nH]6)c(-c6ccc(S(=O)(=O)[O-])cc6)c6nc(c(-c7ccc(S(=O)(=O)[O-])cc7)c7ccc4[nH]7)C=C6)C=C5)cc3)[C@@H]2C)C1
REMARK SMILES IDX 18 1 17 2 16 3 14 4 15 5 13 7 10 8 11 9 84 10 12 11 85 12
REMARK SMILES IDX 8 13 9 14 7 15 4 16 5 17 86 18 6 19 3 20 2 21 1 22 19 23
REMARK SMILES IDX 20 24 21 25 22 26 23 28 24 29 25 30 83 31 26 32 82 33 27 34
REMARK SMILES IDX 28 35 29 36 76 37 30 38 81 39 75 40 77 41 31 42 80 43 74 44
REMARK SMILES IDX 73 45 32 47 62 48 43 49 61 50 44 51 47 52 60 53 78 54 45 55
REMARK SMILES IDX 46 56 59 58 79 59 48 60 33 61 34 62 42 63 35 64 41 65 36 66
REMARK SMILES IDX 37 67 38 68 39 69 40 70 63 71 64 72 72 73 65 74 71 75 66 76
REMARK SMILES IDX 67 77 68 78 69 79 70 80 49 81 50 82 58 83 51 84 57 85 52 86
REMARK SMILES IDX 53 87 54 88 55 89 56 90
REMARK H PARENT 16 6 21 27 77 46 47 57
REMARK Flexibility Score: inf
ROOT
ATOM      1  C   UNL A   1      34.714  24.376  24.681  1.00  0.00     0.023 C 
ENDROOT
BRANCH   1   2
ATOM      2  C   UNL A   1      34.041  24.801  23.382  1.00  0.00     0.116 C 
BRANCH   2   3
ATOM      3  N   UNL A   1      33.850  26.232  23.276  1.00  0.00    -0.356 N 
ATOM      4  C   UNL A   1      32.780  27.010  23.594  1.00  0.00     0.225 C 
ATOM      5  O   UNL A   1      32.928  28.232  23.499  1.00  0.00    -0.275 OA
ATOM      6  H   UNL A   1      34.622  26.723  22.914  1.00  0.00     0.163 HD
BRANCH   4   7
ATOM      7  C   UNL A   1      31.429  26.450  24.027  1.00  0.00     0.102 C 
ATOM      8  N   UNL A   1      31.144  24.502  25.323  1.00  0.00    -0.321 N 
ATOM      9  C   UNL A   1      30.407  24.258  24.099  1.00  0.00     0.122 C 
ATOM     10  C   UNL A   1      31.293  25.947  25.479  1.00  0.00     0.096 C 
ATOM     11  C   UNL A   1      30.942  25.296  23.130  1.00  0.00     0.037 C 
ATOM     12  C   UNL A   1      32.368  26.400  26.461  1.00  0.00     0.032 C 
BRANCH   8  13
ATOM     13  C   UNL A   1      31.066  23.642  26.390  1.00  0.00     0.320 C 
ATOM     14  O   UNL A   1      30.152  23.714  27.211  1.00  0.00    -0.248 OA
BRANCH  13  15
ATOM     15  N   UNL A   1      32.090  22.731  26.517  1.00  0.00    -0.324 N 
ATOM     16  C   UNL A   1      33.284  20.717  26.095  1.00  0.00     0.036 C 
ATOM     17  C   UNL A   1      34.005  21.548  27.162  1.00  0.00     0.029 C 
ATOM     18  C   UNL A   1      32.254  21.690  25.517  1.00  0.00     0.127 C 
ATOM     19  C   UNL A   1      32.894  22.438  27.693  1.00  0.00     0.122 C 
BRANCH  16  20
ATOM     20  C   UNL A   1      34.240  20.113  25.067  1.00  0.00     0.165 C 
BRANCH  20  21
ATOM     21  O   UNL A   1      33.630  19.118  24.249  1.00  0.00    -0.384 OA
ATOM     22  C   UNL A   1      34.137  17.809  24.458  1.00  0.00     0.194 C 
ENDBRANCH  20  21
ENDBRANCH  16  20
ENDBRANCH  13  15
ENDBRANCH   8  13
ENDBRANCH   4   7
ENDBRANCH   2   3
ENDBRANCH   1   2
BRANCH   1  23
ATOM     23  C   UNL A   1      35.735  23.251  24.535  1.00  0.00     0.023 C 
BRANCH  23  24
ATOM     24  C   UNL A   1      37.200  23.678  24.586  1.00  0.00     0.116 C 
BRANCH  24  25
ATOM     25  N   UNL A   1      38.082  22.657  25.134  1.00  0.00    -0.352 N 
ATOM     26  C   UNL A   1      39.091  22.796  26.059  1.00  0.00     0.251 C 
ATOM     27  H   UNL A   1      37.939  21.744  24.796  1.00  0.00     0.163 HD
ATOM     28  O   UNL A   1      39.814  21.841  26.329  1.00  0.00    -0.269 OA
BRANCH  26  29
ATOM     29  C   UNL A   1      39.319  24.112  26.693  1.00  0.00     0.039 A 
ATOM     30  C   UNL A   1      38.780  24.356  27.958  1.00  0.00     0.014 A 
ATOM     31  C   UNL A   1      40.104  25.079  26.060  1.00  0.00     0.014 A 
ATOM     32  C   UNL A   1      39.100  25.540  28.626  1.00  0.00     0.010 A 
ATOM     33  C   UNL A   1      40.480  26.224  26.757  1.00  0.00     0.010 A 
ATOM     34  C   UNL A   1      39.988  26.463  28.049  1.00  0.00    -0.014 A 
BRANCH  34  35
ATOM     35  C   UNL A   1      40.432  27.674  28.786  1.00  0.00     0.031 A 
ATOM     36  C   UNL A   1      41.775  27.698  29.463  1.00  0.00     0.074 A 
ATOM     37  C   UNL A   1      39.595  28.723  28.912  1.00  0.00     0.049 A 
ATOM     38  N   UNL A   1      42.305  28.632  30.210  1.00  0.00    -0.248 NA
ATOM     39  C   UNL A   1      42.621  26.503  29.303  1.00  0.00     0.031 C 
ATOM     40  C   UNL A   1      38.247  28.807  28.345  1.00  0.00     0.029 A 
ATOM     41  N   UNL A   1      39.751  29.919  29.568  1.00  0.00    -0.354 N 
ATOM     42  C   UNL A   1      43.534  28.133  30.625  1.00  0.00     0.074 A 
ATOM     43  C   UNL A   1      43.649  26.795  30.085  1.00  0.00     0.031 C 
ATOM     44  C   UNL A   1      37.710  29.998  28.657  1.00  0.00     0.029 A 
ATOM     45  C   UNL A   1      38.657  30.748  29.477  1.00  0.00     0.049 A 
ATOM     46  H   UNL A   1      40.571  30.161  30.059  1.00  0.00     0.167 HD
ATOM     47  C   UNL A   1      44.488  28.736  31.373  1.00  0.00     0.031 A 
ATOM     48  C   UNL A   1      38.437  31.971  29.996  1.00  0.00     0.031 A 
ATOM     49  C   UNL A   1      44.378  30.072  31.896  1.00  0.00     0.049 A 
ATOM     50  C   UNL A   1      39.515  32.626  30.816  1.00  0.00     0.074 A 
ATOM     51  C   UNL A   1      45.316  30.795  32.613  1.00  0.00     0.029 A 
ATOM     52  N   UNL A   1      43.264  30.886  31.760  1.00  0.00    -0.354 N 
ATOM     53  N   UNL A   1      40.697  32.163  31.142  1.00  0.00    -0.248 NA
ATOM     54  C   UNL A   1      39.232  33.975  31.328  1.00  0.00     0.031 C 
ATOM     55  C   UNL A   1      44.752  32.031  32.947  1.00  0.00     0.029 A 
ATOM     56  C   UNL A   1      43.483  32.097  32.395  1.00  0.00     0.049 A 
ATOM     57  H   UNL A   1      42.439  30.640  31.283  1.00  0.00     0.167 HD
ATOM     58  C   UNL A   1      41.310  33.172  31.876  1.00  0.00     0.074 A 
ATOM     59  C   UNL A   1      40.372  34.274  31.935  1.00  0.00     0.031 C 
ATOM     60  C   UNL A   1      42.539  33.185  32.447  1.00  0.00     0.031 A 
BRANCH  47  61
ATOM     61  C   UNL A   1      45.735  27.948  31.670  1.00  0.00    -0.014 A 
ATOM     62  C   UNL A   1      46.838  27.979  30.796  1.00  0.00     0.010 A 
ATOM     63  C   UNL A   1      45.817  27.184  32.847  1.00  0.00     0.010 A 
ATOM     64  C   UNL A   1      47.979  27.222  31.070  1.00  0.00     0.020 A 
ATOM     65  C   UNL A   1      46.968  26.446  33.138  1.00  0.00     0.020 A 
ATOM     66  C   UNL A   1      48.034  26.454  32.236  1.00  0.00     0.054 A 
BRANCH  66  67
ATOM     67  S   UNL A   1      49.530  25.485  32.570  1.00  0.00     0.124 S 
ATOM     68  O   UNL A   1      50.382  26.470  33.234  1.00  0.00    -0.237 OA
ATOM     69  O   UNL A   1      49.033  24.410  33.425  1.00  0.00    -0.237 OA
ATOM     70  O   UNL A   1      49.977  25.067  31.244  1.00  0.00    -0.744 OA
ENDBRANCH  66  67
ENDBRANCH  47  61
BRANCH  48  71
ATOM     71  C   UNL A   1      37.149  32.666  29.734  1.00  0.00    -0.014 A 
ATOM     72  C   UNL A   1      36.022  32.399  30.531  1.00  0.00     0.010 A 
ATOM     73  C   UNL A   1      37.046  33.614  28.700  1.00  0.00     0.010 A 
ATOM     74  C   UNL A   1      34.813  33.059  30.293  1.00  0.00     0.020 A 
ATOM     75  C   UNL A   1      35.846  34.293  28.474  1.00  0.00     0.020 A 
ATOM     76  C   UNL A   1      34.733  34.004  29.267  1.00  0.00     0.054 A 
BRANCH  76  77
ATOM     77  S   UNL A   1      33.172  34.895  29.015  1.00  0.00     0.124 S 
ATOM     78  O   UNL A   1      32.629  34.942  30.369  1.00  0.00    -0.237 OA
ATOM     79  O   UNL A   1      33.622  36.173  28.468  1.00  0.00    -0.237 OA
ATOM     80  O   UNL A   1      32.443  34.047  28.075  1.00  0.00    -0.744 OA
ENDBRANCH  76  77
ENDBRANCH  48  71
BRANCH  60  81
ATOM     81  C   UNL A   1      42.957  34.441  33.161  1.00  0.00    -0.014 A 
ATOM     82  C   UNL A   1      42.741  34.599  34.542  1.00  0.00     0.010 A 
ATOM     83  C   UNL A   1      43.626  35.453  32.449  1.00  0.00     0.010 A 
ATOM     84  C   UNL A   1      43.163  35.763  35.192  1.00  0.00     0.020 A 
ATOM     85  C   UNL A   1      44.071  36.605  33.101  1.00  0.00     0.020 A 
ATOM     86  C   UNL A   1      43.824  36.759  34.467  1.00  0.00     0.054 A 
BRANCH  86  87
ATOM     87  S   UNL A   1      44.403  38.239  35.342  1.00  0.00     0.124 S 
ATOM     88  O   UNL A   1      45.853  38.110  35.226  1.00  0.00    -0.237 OA
ATOM     89  O   UNL A   1      43.804  39.325  34.570  1.00  0.00    -0.237 OA
ATOM     90  O   UNL A   1      43.869  38.074  36.692  1.00  0.00    -0.744 OA
ENDBRANCH  86  87
ENDBRANCH  60  81
ENDBRANCH  34  35
ENDBRANCH  26  29
ENDBRANCH  24  25
ENDBRANCH  23  24
ENDBRANCH   1  23
TORSDOF 18
ENDMDL
MODEL 3
REMARK VINA RESULT:      -9.8      2.838      8.334
REMARK SMILES COC[C@H]1CCN(C(=O)N2CC[C@H](C(=O)NCCCCNC(=O)c3ccc(-c4c5nc(c(-c6ccc(S(=O)(=O)[O-])cc6)c6ccc([nH]6)c(-c6ccc(S(=O)(=O)[O-])cc6)c6nc(c(-c7ccc(S(=O)(=O)[O-])cc7)c7ccc4[nH]7)C=C6)C=C5)cc3)[C@@H]2C)C1
REMARK SMILES IDX 18 1 17 2 16 3 14 4 15 5 13 7 10 8 11 9 84 10 12 11 85 12
REMARK SMILES IDX 8 13 9 14 7 15 4 16 5 17 86 18 6 19 3 20 2 21 1 22 19 23
REMARK SMILES IDX 20 24 21 25 22 26 23 28 24 29 25 30 83 31 26 32 82 33 27 34
REMARK SMILES IDX 28 35 29 36 76 37 30 38 81 39 75 40 77 41 31 42 80 43 74 44
REMARK SMILES IDX 73 45 32 47 62 48 43 49 61 50 44 51 47 52 60 53 78 54 45 55
REMARK SMILES IDX 46 56 59 58 79 59 48 60 33 61 34 62 42 63 35 64 41 65 36 66
REMARK SMILES IDX 37 67 38 68 39 69 40 70 63 71 64 72 72 73 65 74 71 75 66 76
REMARK SMILES IDX 67 77 68 78 69 79 70 80 49 81 50 82 58 83 51 84 57 85 52 86
REMARK SMILES IDX 53 87 54 88 55 89 56 90
REMARK H PARENT 16 6 21 27 77 46 47 57
REMARK Flexibility Score: inf
ROOT
ATOM      1  C   UNL A   1      33.777  26.923  23.942  1.00  0.00     0.023 C 
ENDROOT
BRANCH   1   2
ATOM      2  C   UNL A   1      32.744  26.613  22.867  1.00  0.00     0.116 C 
BRANCH   2   3
ATOM      3  N   UNL A   1      31.576  27.465  22.931  1.00  0.00    -0.356 N 
ATOM      4  C   UNL A   1      30.359  27.260  23.503  1.00  0.00     0.225 C 
ATOM      5  O   UNL A   1      29.570  28.210  23.499  1.00  0.00    -0.275 OA
ATOM      6  H   UNL A   1      31.679  28.338  22.487  1.00  0.00     0.163 HD
BRANCH   4   7
ATOM      7  C   UNL A   1      29.925  25.930  24.111  1.00  0.00     0.102 C 
ATOM      8  N   UNL A   1      31.341  24.499  25.338  1.00  0.00    -0.321 N 
ATOM      9  C   UNL A   1      30.854  23.699  24.232  1.00  0.00     0.122 C 
ATOM     10  C   UNL A   1      30.407  25.604  25.540  1.00  0.00     0.096 C 
ATOM     11  C   UNL A   1      30.317  24.718  23.244  1.00  0.00     0.037 C 
ATOM     12  C   UNL A   1      30.932  26.773  26.365  1.00  0.00     0.032 C 
BRANCH   8  13
ATOM     13  C   UNL A   1      32.066  23.942  26.361  1.00  0.00     0.320 C 
ATOM     14  O   UNL A   1      31.559  23.700  27.456  1.00  0.00    -0.248 OA
BRANCH  13  15
ATOM     15  N   UNL A   1      33.401  23.715  26.111  1.00  0.00    -0.324 N 
ATOM     16  C   UNL A   1      35.450  22.507  26.123  1.00  0.00     0.036 C 
ATOM     17  C   UNL A   1      35.657  23.895  25.508  1.00  0.00     0.029 C 
ATOM     18  C   UNL A   1      33.928  22.364  26.185  1.00  0.00     0.127 C 
ATOM     19  C   UNL A   1      34.487  24.683  26.072  1.00  0.00     0.122 C 
BRANCH  16  20
ATOM     20  C   UNL A   1      36.165  21.401  25.348  1.00  0.00     0.165 C 
BRANCH  20  21
ATOM     21  O   UNL A   1      37.410  21.817  24.794  1.00  0.00    -0.384 OA
ATOM     22  C   UNL A   1      38.519  21.627  25.659  1.00  0.00     0.194 C 
ENDBRANCH  20  21
ENDBRANCH  16  20
ENDBRANCH  13  15
ENDBRANCH   8  13
ENDBRANCH   4   7
ENDBRANCH   2   3
ENDBRANCH   1   2
BRANCH   1  23
ATOM     23  C   UNL A   1      33.788  28.373  24.421  1.00  0.00     0.023 C 
BRANCH  23  24
ATOM     24  C   UNL A   1      34.074  28.575  25.906  1.00  0.00     0.116 C 
BRANCH  24  25
ATOM     25  N   UNL A   1      33.705  29.897  26.393  1.00  0.00    -0.352 N 
ATOM     26  C   UNL A   1      34.326  30.669  27.347  1.00  0.00     0.251 C 
ATOM     27  H   UNL A   1      32.901  30.292  25.985  1.00  0.00     0.163 HD
ATOM     28  O   UNL A   1      33.814  31.722  27.717  1.00  0.00    -0.269 OA
BRANCH  26  29
ATOM     29  C   UNL A   1      35.593  30.200  27.948  1.00  0.00     0.039 A 
ATOM     30  C   UNL A   1      36.792  30.442  27.275  1.00  0.00     0.014 A 
ATOM     31  C   UNL A   1      35.597  29.571  29.196  1.00  0.00     0.014 A 
ATOM     32  C   UNL A   1      38.005  30.128  27.892  1.00  0.00     0.010 A 
ATOM     33  C   UNL A   1      36.807  29.325  29.839  1.00  0.00     0.010 A 
ATOM     34  C   UNL A   1      38.023  29.608  29.198  1.00  0.00    -0.014 A 
BRANCH  34  35
ATOM     35  C   UNL A   1      39.300  29.371  29.919  1.00  0.00     0.031 A 
ATOM     36  C   UNL A   1      40.241  28.292  29.458  1.00  0.00     0.074 A 
ATOM     37  C   UNL A   1      39.577  30.076  31.034  1.00  0.00     0.049 A 
ATOM     38  N   UNL A   1      41.363  27.891  29.998  1.00  0.00    -0.248 NA
ATOM     39  C   UNL A   1      39.855  27.547  28.248  1.00  0.00     0.031 C 
ATOM     40  C   UNL A   1      38.725  31.117  31.615  1.00  0.00     0.029 A 
ATOM     41  N   UNL A   1      40.651  30.015  31.887  1.00  0.00    -0.354 N 
ATOM     42  C   UNL A   1      41.806  26.837  29.209  1.00  0.00     0.074 A 
ATOM     43  C   UNL A   1      40.809  26.631  28.180  1.00  0.00     0.031 C 
ATOM     44  C   UNL A   1      39.320  31.612  32.712  1.00  0.00     0.029 A 
ATOM     45  C   UNL A   1      40.575  30.901  32.937  1.00  0.00     0.049 A 
ATOM     46  H   UNL A   1      41.406  29.395  31.760  1.00  0.00     0.167 HD
ATOM     47  C   UNL A   1      42.948  26.116  29.317  1.00  0.00     0.031 A 
ATOM     48  C   UNL A   1      41.417  31.116  33.967  1.00  0.00     0.031 A 
ATOM     49  C   UNL A   1      43.945  26.332  30.330  1.00  0.00     0.049 A 
ATOM     50  C   UNL A   1      42.683  30.310  34.062  1.00  0.00     0.074 A 
ATOM     51  C   UNL A   1      45.165  25.695  30.487  1.00  0.00     0.029 A 
ATOM     52  N   UNL A   1      43.841  27.255  31.360  1.00  0.00    -0.354 N 
ATOM     53  N   UNL A   1      43.116  29.362  33.267  1.00  0.00    -0.248 NA
ATOM     54  C   UNL A   1      43.578  30.611  35.187  1.00  0.00     0.031 C 
ATOM     55  C   UNL A   1      45.779  26.204  31.636  1.00  0.00     0.029 A 
ATOM     56  C   UNL A   1      44.965  27.192  32.166  1.00  0.00     0.049 A 
ATOM     57  H   UNL A   1      43.081  27.865  31.496  1.00  0.00     0.167 HD
ATOM     58  C   UNL A   1      44.346  28.970  33.781  1.00  0.00     0.074 A 
ATOM     59  C   UNL A   1      44.593  29.793  34.947  1.00  0.00     0.031 C 
ATOM     60  C   UNL A   1      45.196  28.017  33.325  1.00  0.00     0.031 A 
BRANCH  47  61
ATOM     61  C   UNL A   1      43.172  25.021  28.309  1.00  0.00    -0.014 A 
ATOM     62  C   UNL A   1      42.628  23.737  28.501  1.00  0.00     0.010 A 
ATOM     63  C   UNL A   1      43.916  25.281  27.144  1.00  0.00     0.010 A 
ATOM     64  C   UNL A   1      42.866  22.721  27.571  1.00  0.00     0.020 A 
ATOM     65  C   UNL A   1      44.133  24.275  26.198  1.00  0.00     0.020 A 
ATOM     66  C   UNL A   1      43.623  22.996  26.430  1.00  0.00     0.054 A 
BRANCH  66  67
ATOM     67  S   UNL A   1      43.911  21.661  25.235  1.00  0.00     0.124 S 
ATOM     68  O   UNL A   1      43.755  22.360  23.962  1.00  0.00    -0.237 OA
ATOM     69  O   UNL A   1      45.271  21.233  25.553  1.00  0.00    -0.237 OA
ATOM     70  O   UNL A   1      42.866  20.688  25.544  1.00  0.00    -0.744 OA
ENDBRANCH  66  67
ENDBRANCH  47  61
BRANCH  48  71
ATOM     71  C   UNL A   1      41.097  32.159  34.978  1.00  0.00    -0.014 A 
ATOM     72  C   UNL A   1      41.564  33.475  34.814  1.00  0.00     0.010 A 
ATOM     73  C   UNL A   1      40.307  31.847  36.100  1.00  0.00     0.010 A 
ATOM     74  C   UNL A   1      41.256  34.458  35.758  1.00  0.00     0.020 A 
ATOM     75  C   UNL A   1      39.978  32.834  37.033  1.00  0.00     0.020 A 
ATOM     76  C   UNL A   1      40.462  34.132  36.860  1.00  0.00     0.054 A 
BRANCH  76  77
ATOM     77  S   UNL A   1      40.021  35.439  38.040  1.00  0.00     0.124 S 
ATOM     78  O   UNL A   1      38.825  34.889  38.669  1.00  0.00    -0.237 OA
ATOM     79  O   UNL A   1      41.208  35.512  38.889  1.00  0.00    -0.237 OA
ATOM     80  O   UNL A   1      39.803  36.607  37.189  1.00  0.00    -0.744 OA
ENDBRANCH  76  77
ENDBRANCH  48  71
BRANCH  60  81
ATOM     81  C   UNL A   1      46.489  27.829  34.071  1.00  0.00    -0.014 A 
ATOM     82  C   UNL A   1      47.634  28.578  33.745  1.00  0.00     0.010 A 
ATOM     83  C   UNL A   1      46.541  26.930  35.153  1.00  0.00     0.010 A 
ATOM     84  C   UNL A   1      48.817  28.409  34.470  1.00  0.00     0.020 A 
ATOM     85  C   UNL A   1      47.714  26.778  35.894  1.00  0.00     0.020 A 
ATOM     86  C   UNL A   1      48.850  27.509  35.539  1.00  0.00     0.054 A 
BRANCH  86  87
ATOM     87  S   UNL A   1      50.383  27.341  36.495  1.00  0.00     0.124 S 
ATOM     88  O   UNL A   1      51.226  28.373  35.898  1.00  0.00    -0.237 OA
ATOM     89  O   UNL A   1      49.941  27.603  37.862  1.00  0.00    -0.237 OA
ATOM     90  O   UNL A   1      50.803  25.966  36.235  1.00  0.00    -0.744 OA
ENDBRANCH  86  87
ENDBRANCH  60  81
ENDBRANCH  34  35
ENDBRANCH  26  29
ENDBRANCH  24  25
ENDBRANCH  23  24
ENDBRANCH   1  23
TORSDOF 18
ENDMDL
