MODEL 1
REMARK VINA RESULT:     -12.1      0.000      0.000
REMARK SMILES CC[C@H](C)N1C(=O)c2ccccc2[C@@H](C(=O)NCCCCNC(=O)c2ccc(-c3c4nc(c(-c5ccc(S(=O)(=O)[O-])cc5)c5ccc([nH]5)c(-c5ccc(S(=O)(=O)[O-])cc5)c5nc(c(-c6ccc(S(=O)(=O)[O-])cc6)c6ccc3[nH]6)C=C5)C=C4)cc2)C12CCCCC2
REMARK SMILES IDX 20 1 19 2 18 3 17 4 15 5 16 6 14 8 5 9 6 10 85 11 7 12 8 13
REMARK SMILES IDX 86 14 90 15 9 16 13 17 87 18 89 19 10 20 12 21 88 22 11 23
REMARK SMILES IDX 3 24 4 25 2 26 1 27 21 28 22 29 23 30 24 32 25 33 26 34
REMARK SMILES IDX 84 35 27 36 83 37 28 38 29 39 30 40 77 41 31 42 82 43 76 44
REMARK SMILES IDX 78 45 32 46 81 47 75 48 74 49 33 51 63 52 44 53 62 54 45 55
REMARK SMILES IDX 48 56 61 57 79 58 46 59 47 60 60 62 80 63 49 64 34 65 35 66
REMARK SMILES IDX 43 67 36 68 42 69 37 70 38 71 39 72 40 73 41 74 64 75 65 76
REMARK SMILES IDX 73 77 66 78 72 79 67 80 68 81 69 82 70 83 71 84 50 85 51 86
REMARK SMILES IDX 59 87 52 88 58 89 53 90 54 91 55 92 56 93 57 94
REMARK H PARENT 17 7 22 31 78 50 48 61
REMARK Flexibility Score: inf
ROOT
ATOM      1  C   UNL A   1      31.924  28.075  26.949  1.00  0.00     0.023 C 
ENDROOT
BRANCH   1   2
ATOM      2  C   UNL A   1      32.034  26.972  25.915  1.00  0.00     0.023 C 
BRANCH   2   3
ATOM      3  C   UNL A   1      33.205  26.004  26.114  1.00  0.00     0.116 C 
BRANCH   3   4
ATOM      4  N   UNL A   1      33.888  25.612  24.887  1.00  0.00    -0.355 N 
ATOM      5  C   UNL A   1      34.284  24.405  24.385  1.00  0.00     0.229 C 
ATOM      6  O   UNL A   1      34.739  24.413  23.235  1.00  0.00    -0.274 OA
ATOM      7  H   UNL A   1      34.108  26.372  24.301  1.00  0.00     0.163 HD
BRANCH   5   8
ATOM      8  C   UNL A   1      34.151  23.069  25.152  1.00  0.00     0.135 C 
ATOM      9  N   UNL A   1      33.533  20.590  24.886  1.00  0.00    -0.329 N 
ATOM     10  C   UNL A   1      34.891  20.257  24.687  1.00  0.00     0.254 C 
ATOM     11  C   UNL A   1      33.067  22.029  24.604  1.00  0.00     0.059 C 
ATOM     12  O   UNL A   1      35.276  19.154  24.304  1.00  0.00    -0.269 OA
ATOM     13  C   UNL A   1      35.908  21.248  25.090  1.00  0.00     0.044 A 
ATOM     14  C   UNL A   1      32.828  22.110  23.078  1.00  0.00     0.030 C 
ATOM     15  C   UNL A   1      31.697  22.343  25.273  1.00  0.00     0.030 C 
ATOM     16  C   UNL A   1      37.256  20.857  25.162  1.00  0.00     0.014 A 
ATOM     17  C   UNL A   1      35.542  22.540  25.445  1.00  0.00    -0.020 A 
ATOM     18  C   UNL A   1      32.074  23.324  22.525  1.00  0.00     0.002 C 
ATOM     19  C   UNL A   1      31.012  23.626  24.800  1.00  0.00     0.002 C 
ATOM     20  C   UNL A   1      38.229  21.739  25.635  1.00  0.00     0.001 A 
ATOM     21  C   UNL A   1      36.523  23.399  25.989  1.00  0.00     0.005 A 
ATOM     22  C   UNL A   1      30.795  23.620  23.291  1.00  0.00     0.000 C 
ATOM     23  C   UNL A   1      37.857  23.004  26.075  1.00  0.00     0.000 A 
BRANCH   9  24
ATOM     24  C   UNL A   1      32.638  19.393  25.002  1.00  0.00     0.082 C 
ATOM     25  C   UNL A   1      32.222  18.754  23.676  1.00  0.00     0.031 C 
BRANCH  24  26
ATOM     26  C   UNL A   1      32.943  18.421  26.164  1.00  0.00     0.021 C 
ATOM     27  C   UNL A   1      32.916  16.930  25.855  1.00  0.00     0.006 C 
ENDBRANCH  24  26
ENDBRANCH   9  24
ENDBRANCH   5   8
ENDBRANCH   3   4
ENDBRANCH   2   3
ENDBRANCH   1   2
BRANCH   1  28
ATOM     28  C   UNL A   1      33.273  28.569  27.411  1.00  0.00     0.116 C 
BRANCH  28  29
ATOM     29  N   UNL A   1      33.323  30.026  27.485  1.00  0.00    -0.352 N 
ATOM     30  C   UNL A   1      34.346  30.827  27.943  1.00  0.00     0.251 C 
ATOM     31  H   UNL A   1      32.520  30.498  27.166  1.00  0.00     0.163 HD
ATOM     32  O   UNL A   1      34.175  32.016  28.141  1.00  0.00    -0.269 OA
BRANCH  30  33
ATOM     33  C   UNL A   1      35.647  30.184  28.211  1.00  0.00     0.039 A 
ATOM     34  C   UNL A   1      35.910  29.704  29.495  1.00  0.00     0.014 A 
ATOM     35  C   UNL A   1      36.634  30.172  27.226  1.00  0.00     0.014 A 
ATOM     36  C   UNL A   1      37.214  29.424  29.854  1.00  0.00     0.010 A 
ATOM     37  C   UNL A   1      37.921  29.746  27.558  1.00  0.00     0.010 A 
ATOM     38  C   UNL A   1      38.232  29.413  28.886  1.00  0.00    -0.014 A 
BRANCH  38  39
ATOM     39  C   UNL A   1      39.598  29.007  29.298  1.00  0.00     0.031 A 
ATOM     40  C   UNL A   1      40.417  29.860  30.226  1.00  0.00     0.074 A 
ATOM     41  C   UNL A   1      40.059  27.812  28.873  1.00  0.00     0.049 A 
ATOM     42  N   UNL A   1      41.629  29.649  30.670  1.00  0.00    -0.248 NA
ATOM     43  C   UNL A   1      39.810  31.107  30.720  1.00  0.00     0.031 C 
ATOM     44  C   UNL A   1      39.324  26.892  27.999  1.00  0.00     0.029 A 
ATOM     45  N   UNL A   1      41.220  27.140  29.152  1.00  0.00    -0.354 N 
ATOM     46  C   UNL A   1      41.942  30.743  31.466  1.00  0.00     0.074 A 
ATOM     47  C   UNL A   1      40.801  31.630  31.434  1.00  0.00     0.031 C 
ATOM     48  C   UNL A   1      40.003  25.744  27.896  1.00  0.00     0.029 A 
ATOM     49  C   UNL A   1      41.273  25.885  28.595  1.00  0.00     0.049 A 
ATOM     50  H   UNL A   1      41.946  27.521  29.697  1.00  0.00     0.167 HD
ATOM     51  C   UNL A   1      43.078  30.976  32.164  1.00  0.00     0.031 A 
ATOM     52  C   UNL A   1      42.242  24.951  28.617  1.00  0.00     0.031 A 
ATOM     53  C   UNL A   1      44.194  30.066  32.199  1.00  0.00     0.049 A 
ATOM     54  C   UNL A   1      43.509  25.256  29.354  1.00  0.00     0.074 A 
ATOM     55  C   UNL A   1      45.396  30.210  32.870  1.00  0.00     0.029 A 
ATOM     56  N   UNL A   1      44.243  28.839  31.550  1.00  0.00    -0.354 N 
ATOM     57  N   UNL A   1      43.802  26.318  30.068  1.00  0.00    -0.248 NA
ATOM     58  C   UNL A   1      44.582  24.259  29.278  1.00  0.00     0.031 C 
ATOM     59  C   UNL A   1      46.193  29.100  32.579  1.00  0.00     0.029 A 
ATOM     60  C   UNL A   1      45.462  28.228  31.786  1.00  0.00     0.049 A 
ATOM     61  H   UNL A   1      43.517  28.461  31.003  1.00  0.00     0.167 HD
ATOM     62  C   UNL A   1      45.096  26.117  30.528  1.00  0.00     0.074 A 
ATOM     63  C   UNL A   1      45.517  24.820  30.034  1.00  0.00     0.031 C 
ATOM     64  C   UNL A   1      45.865  26.938  31.281  1.00  0.00     0.031 A 
BRANCH  51  65
ATOM     65  C   UNL A   1      43.197  32.262  32.943  1.00  0.00    -0.014 A 
ATOM     66  C   UNL A   1      42.813  32.294  34.297  1.00  0.00     0.010 A 
ATOM     67  C   UNL A   1      43.572  33.462  32.313  1.00  0.00     0.010 A 
ATOM     68  C   UNL A   1      42.769  33.502  34.998  1.00  0.00     0.020 A 
ATOM     69  C   UNL A   1      43.556  34.670  33.019  1.00  0.00     0.020 A 
ATOM     70  C   UNL A   1      43.132  34.686  34.350  1.00  0.00     0.054 A 
BRANCH  70  71
ATOM     71  S   UNL A   1      43.045  36.250  35.267  1.00  0.00     0.124 S 
ATOM     72  O   UNL A   1      44.433  36.454  35.665  1.00  0.00    -0.237 OA
ATOM     73  O   UNL A   1      42.530  37.181  34.265  1.00  0.00    -0.237 OA
ATOM     74  O   UNL A   1      42.118  35.952  36.359  1.00  0.00    -0.744 OA
ENDBRANCH  70  71
ENDBRANCH  51  65
BRANCH  52  75
ATOM     75  C   UNL A   1      42.021  23.660  27.909  1.00  0.00    -0.014 A 
ATOM     76  C   UNL A   1      41.354  22.600  28.554  1.00  0.00     0.010 A 
ATOM     77  C   UNL A   1      42.576  23.442  26.636  1.00  0.00     0.010 A 
ATOM     78  C   UNL A   1      41.312  21.330  27.978  1.00  0.00     0.020 A 
ATOM     79  C   UNL A   1      42.503  22.180  26.038  1.00  0.00     0.020 A 
ATOM     80  C   UNL A   1      41.902  21.124  26.729  1.00  0.00     0.054 A 
BRANCH  80  81
ATOM     81  S   UNL A   1      41.889  19.452  26.025  1.00  0.00     0.124 S 
ATOM     82  O   UNL A   1      42.770  19.609  24.870  1.00  0.00    -0.237 OA
ATOM     83  O   UNL A   1      42.422  18.640  27.116  1.00  0.00    -0.237 OA
ATOM     84  O   UNL A   1      40.481  19.225  25.712  1.00  0.00    -0.744 OA
ENDBRANCH  80  81
ENDBRANCH  52  75
BRANCH  64  85
ATOM     85  C   UNL A   1      47.254  26.475  31.627  1.00  0.00    -0.014 A 
ATOM     86  C   UNL A   1      48.302  26.674  30.711  1.00  0.00     0.010 A 
ATOM     87  C   UNL A   1      47.489  25.730  32.795  1.00  0.00     0.010 A 
ATOM     88  C   UNL A   1      49.553  26.098  30.935  1.00  0.00     0.020 A 
ATOM     89  C   UNL A   1      48.749  25.177  33.037  1.00  0.00     0.020 A 
ATOM     90  C   UNL A   1      49.764  25.341  32.091  1.00  0.00     0.054 A 
BRANCH  90  91
ATOM     91  S   UNL A   1      51.382  24.563  32.343  1.00  0.00     0.124 S 
ATOM     92  O   UNL A   1      52.205  25.237  31.343  1.00  0.00    -0.237 OA
ATOM     93  O   UNL A   1      51.685  24.893  33.734  1.00  0.00    -0.237 OA
ATOM     94  O   UNL A   1      51.125  23.147  32.090  1.00  0.00    -0.744 OA
ENDBRANCH  90  91
ENDBRANCH  64  85
ENDBRANCH  38  39
ENDBRANCH  30  33
ENDBRANCH  28  29
ENDBRANCH   1  28
TORSDOF 16
ENDMDL
MODEL 2
REMARK VINA RESULT:     -11.8      0.786      8.030
REMARK SMILES CC[C@H](C)N1C(=O)c2ccccc2[C@@H](C(=O)NCCCCNC(=O)c2ccc(-c3c4nc(c(-c5ccc(S(=O)(=O)[O-])cc5)c5ccc([nH]5)c(-c5ccc(S(=O)(=O)[O-])cc5)c5nc(c(-c6ccc(S(=O)(=O)[O-])cc6)c6ccc3[nH]6)C=C5)C=C4)cc2)C12CCCCC2
REMARK SMILES IDX 20 1 19 2 18 3 17 4 15 5 16 6 14 8 5 9 6 10 85 11 7 12 8 13
REMARK SMILES IDX 86 14 90 15 9 16 13 17 87 18 89 19 10 20 12 21 88 22 11 23
REMARK SMILES IDX 3 24 4 25 2 26 1 27 21 28 22 29 23 30 24 32 25 33 26 34
REMARK SMILES IDX 84 35 27 36 83 37 28 38 29 39 30 40 77 41 31 42 82 43 76 44
REMARK SMILES IDX 78 45 32 46 81 47 75 48 74 49 33 51 63 52 44 53 62 54 45 55
REMARK SMILES IDX 48 56 61 57 79 58 46 59 47 60 60 62 80 63 49 64 34 65 35 66
REMARK SMILES IDX 43 67 36 68 42 69 37 70 38 71 39 72 40 73 41 74 64 75 65 76
REMARK SMILES IDX 73 77 66 78 72 79 67 80 68 81 69 82 70 83 71 84 50 85 51 86
REMARK SMILES IDX 59 87 52 88 58 89 53 90 54 91 55 92 56 93 57 94
REMARK H PARENT 17 7 22 31 78 50 48 61
REMARK Flexibility Score: inf
ROOT
ATOM      1  C   UNL A   1      31.972  27.983  27.036  1.00  0.00     0.023 C 
ENDROOT
BRANCH   1   2
ATOM      2  C   UNL A   1      31.925  26.923  25.954  1.00  0.00     0.023 C 
BRANCH   2   3
ATOM      3  C   UNL A   1      32.930  25.778  26.117  1.00  0.00     0.116 C 
BRANCH   3   4
ATOM      4  N   UNL A   1      33.727  25.492  24.930  1.00  0.00    -0.355 N 
ATOM      5  C   UNL A   1      34.337  24.362  24.466  1.00  0.00     0.229 C 
ATOM      6  O   UNL A   1      34.840  24.435  23.339  1.00  0.00    -0.274 OA
ATOM      7  H   UNL A   1      33.850  26.273  24.343  1.00  0.00     0.163 HD
BRANCH   5   8
ATOM      8  C   UNL A   1      34.384  23.028  25.246  1.00  0.00     0.135 C 
ATOM      9  N   UNL A   1      34.142  20.482  24.999  1.00  0.00    -0.329 N 
ATOM     10  C   UNL A   1      35.538  20.350  24.832  1.00  0.00     0.254 C 
ATOM     11  C   UNL A   1      33.477  21.835  24.689  1.00  0.00     0.059 C 
ATOM     12  O   UNL A   1      36.089  19.312  24.471  1.00  0.00    -0.269 OA
ATOM     13  C   UNL A   1      36.390  21.484  25.244  1.00  0.00     0.044 A 
ATOM     14  C   UNL A   1      33.262  21.866  23.157  1.00  0.00     0.030 C 
ATOM     15  C   UNL A   1      32.061  21.951  25.326  1.00  0.00     0.030 C 
ATOM     16  C   UNL A   1      37.779  21.296  25.348  1.00  0.00     0.014 A 
ATOM     17  C   UNL A   1      35.831  22.711  25.575  1.00  0.00    -0.020 A 
ATOM     18  C   UNL A   1      32.351  22.950  22.574  1.00  0.00     0.002 C 
ATOM     19  C   UNL A   1      31.206  23.115  24.822  1.00  0.00     0.002 C 
ATOM     20  C   UNL A   1      38.601  22.315  25.830  1.00  0.00     0.001 A 
ATOM     21  C   UNL A   1      36.663  23.710  26.129  1.00  0.00     0.005 A 
ATOM     22  C   UNL A   1      31.026  23.063  23.310  1.00  0.00     0.000 C 
ATOM     23  C   UNL A   1      38.038  23.516  26.247  1.00  0.00     0.000 A 
BRANCH   9  24
ATOM     24  C   UNL A   1      33.430  19.169  25.111  1.00  0.00     0.082 C 
ATOM     25  C   UNL A   1      32.900  18.825  26.504  1.00  0.00     0.031 C 
BRANCH  24  26
ATOM     26  C   UNL A   1      32.526  18.777  23.920  1.00  0.00     0.021 C 
ATOM     27  C   UNL A   1      33.117  17.849  22.867  1.00  0.00     0.006 C 
ENDBRANCH  24  26
ENDBRANCH   9  24
ENDBRANCH   5   8
ENDBRANCH   3   4
ENDBRANCH   2   3
ENDBRANCH   1   2
BRANCH   1  28
ATOM     28  C   UNL A   1      33.367  28.513  27.265  1.00  0.00     0.116 C 
BRANCH  28  29
ATOM     29  N   UNL A   1      33.372  29.957  27.482  1.00  0.00    -0.352 N 
ATOM     30  C   UNL A   1      34.365  30.738  28.030  1.00  0.00     0.251 C 
ATOM     31  H   UNL A   1      32.558  30.434  27.200  1.00  0.00     0.163 HD
ATOM     32  O   UNL A   1      34.156  31.897  28.341  1.00  0.00    -0.269 OA
BRANCH  30  33
ATOM     33  C   UNL A   1      35.682  30.110  28.251  1.00  0.00     0.039 A 
ATOM     34  C   UNL A   1      35.996  29.632  29.523  1.00  0.00     0.014 A 
ATOM     35  C   UNL A   1      36.634  30.110  27.230  1.00  0.00     0.014 A 
ATOM     36  C   UNL A   1      37.315  29.367  29.835  1.00  0.00     0.010 A 
ATOM     37  C   UNL A   1      37.936  29.698  27.516  1.00  0.00     0.010 A 
ATOM     38  C   UNL A   1      38.298  29.368  28.832  1.00  0.00    -0.014 A 
BRANCH  38  39
ATOM     39  C   UNL A   1      39.682  28.978  29.194  1.00  0.00     0.031 A 
ATOM     40  C   UNL A   1      40.248  27.646  28.784  1.00  0.00     0.074 A 
ATOM     41  C   UNL A   1      40.448  29.881  29.840  1.00  0.00     0.049 A 
ATOM     42  N   UNL A   1      41.433  27.153  29.033  1.00  0.00    -0.248 NA
ATOM     43  C   UNL A   1      39.381  26.749  28.002  1.00  0.00     0.031 C 
ATOM     44  C   UNL A   1      40.004  31.218  30.249  1.00  0.00     0.029 A 
ATOM     45  N   UNL A   1      41.764  29.844  30.221  1.00  0.00    -0.354 N 
ATOM     46  C   UNL A   1      41.447  25.884  28.467  1.00  0.00     0.074 A 
ATOM     47  C   UNL A   1      40.145  25.669  27.877  1.00  0.00     0.031 C 
ATOM     48  C   UNL A   1      41.048  31.903  30.729  1.00  0.00     0.029 A 
ATOM     49  C   UNL A   1      42.207  31.022  30.774  1.00  0.00     0.049 A 
ATOM     50  H   UNL A   1      42.336  29.050  30.110  1.00  0.00     0.167 HD
ATOM     51  C   UNL A   1      42.461  24.987  28.442  1.00  0.00     0.031 A 
ATOM     52  C   UNL A   1      43.405  31.359  31.286  1.00  0.00     0.031 A 
ATOM     53  C   UNL A   1      43.758  25.233  29.018  1.00  0.00     0.049 A 
ATOM     54  C   UNL A   1      44.493  30.330  31.291  1.00  0.00     0.074 A 
ATOM     55  C   UNL A   1      44.854  24.387  29.052  1.00  0.00     0.029 A 
ATOM     56  N   UNL A   1      44.142  26.410  29.646  1.00  0.00    -0.354 N 
ATOM     57  N   UNL A   1      44.472  29.118  30.788  1.00  0.00    -0.248 NA
ATOM     58  C   UNL A   1      45.755  30.696  31.944  1.00  0.00     0.031 C 
ATOM     59  C   UNL A   1      45.877  25.030  29.751  1.00  0.00     0.029 A 
ATOM     60  C   UNL A   1      45.448  26.304  30.091  1.00  0.00     0.049 A 
ATOM     61  H   UNL A   1      43.568  27.202  29.758  1.00  0.00     0.167 HD
ATOM     62  C   UNL A   1      45.719  28.575  31.063  1.00  0.00     0.074 A 
ATOM     63  C   UNL A   1      46.478  29.601  31.752  1.00  0.00     0.031 C 
ATOM     64  C   UNL A   1      46.185  27.336  30.779  1.00  0.00     0.031 A 
BRANCH  51  65
ATOM     65  C   UNL A   1      42.226  23.649  27.785  1.00  0.00    -0.014 A 
ATOM     66  C   UNL A   1      41.725  22.577  28.548  1.00  0.00     0.010 A 
ATOM     67  C   UNL A   1      42.611  23.417  26.453  1.00  0.00     0.010 A 
ATOM     68  C   UNL A   1      41.643  21.292  28.005  1.00  0.00     0.020 A 
ATOM     69  C   UNL A   1      42.504  22.137  25.896  1.00  0.00     0.020 A 
ATOM     70  C   UNL A   1      42.043  21.078  26.683  1.00  0.00     0.054 A 
BRANCH  70  71
ATOM     71  S   UNL A   1      41.954  19.399  26.002  1.00  0.00     0.124 S 
ATOM     72  O   UNL A   1      42.791  19.502  24.812  1.00  0.00    -0.237 OA
ATOM     73  O   UNL A   1      42.496  18.584  27.087  1.00  0.00    -0.237 OA
ATOM     74  O   UNL A   1      40.526  19.210  25.749  1.00  0.00    -0.744 OA
ENDBRANCH  70  71
ENDBRANCH  51  65
BRANCH  52  75
ATOM     75  C   UNL A   1      43.601  32.732  31.830  1.00  0.00    -0.014 A 
ATOM     76  C   UNL A   1      44.220  33.725  31.046  1.00  0.00     0.010 A 
ATOM     77  C   UNL A   1      43.279  33.020  33.167  1.00  0.00     0.010 A 
ATOM     78  C   UNL A   1      44.582  34.950  31.607  1.00  0.00     0.020 A 
ATOM     79  C   UNL A   1      43.608  34.261  33.723  1.00  0.00     0.020 A 
ATOM     80  C   UNL A   1      44.288  35.204  32.948  1.00  0.00     0.054 A 
BRANCH  80  81
ATOM     81  S   UNL A   1      44.822  36.779  33.674  1.00  0.00     0.124 S 
ATOM     82  O   UNL A   1      44.731  37.681  32.528  1.00  0.00    -0.237 OA
ATOM     83  O   UNL A   1      43.833  36.998  34.726  1.00  0.00    -0.237 OA
ATOM     84  O   UNL A   1      46.175  36.496  34.143  1.00  0.00    -0.744 OA
ENDBRANCH  80  81
ENDBRANCH  52  75
BRANCH  64  85
ATOM     85  C   UNL A   1      47.586  26.998  31.211  1.00  0.00    -0.014 A 
ATOM     86  C   UNL A   1      48.629  27.018  30.268  1.00  0.00     0.010 A 
ATOM     87  C   UNL A   1      47.841  26.534  32.514  1.00  0.00     0.010 A 
ATOM     88  C   UNL A   1      49.895  26.539  30.607  1.00  0.00     0.020 A 
ATOM     89  C   UNL A   1      49.115  26.081  32.864  1.00  0.00     0.020 A 
ATOM     90  C   UNL A   1      50.126  26.061  31.900  1.00  0.00     0.054 A 
BRANCH  90  91
ATOM     91  S   UNL A   1      51.764  25.400  32.309  1.00  0.00     0.124 S 
ATOM     92  O   UNL A   1      52.616  26.065  31.326  1.00  0.00    -0.237 OA
ATOM     93  O   UNL A   1      51.947  25.829  33.694  1.00  0.00    -0.237 OA
ATOM     94  O   UNL A   1      51.608  23.960  32.127  1.00  0.00    -0.744 OA
ENDBRANCH  90  91
ENDBRANCH  64  85
ENDBRANCH  38  39
ENDBRANCH  30  33
ENDBRANCH  28  29
ENDBRANCH   1  28
TORSDOF 16
ENDMDL
MODEL 3
REMARK VINA RESULT:     -11.5      2.897      8.922
REMARK SMILES CC[C@H](C)N1C(=O)c2ccccc2[C@@H](C(=O)NCCCCNC(=O)c2ccc(-c3c4nc(c(-c5ccc(S(=O)(=O)[O-])cc5)c5ccc([nH]5)c(-c5ccc(S(=O)(=O)[O-])cc5)c5nc(c(-c6ccc(S(=O)(=O)[O-])cc6)c6ccc3[nH]6)C=C5)C=C4)cc2)C12CCCCC2
REMARK SMILES IDX 20 1 19 2 18 3 17 4 15 5 16 6 14 8 5 9 6 10 85 11 7 12 8 13
REMARK SMILES IDX 86 14 90 15 9 16 13 17 87 18 89 19 10 20 12 21 88 22 11 23
REMARK SMILES IDX 3 24 4 25 2 26 1 27 21 28 22 29 23 30 24 32 25 33 26 34
REMARK SMILES IDX 84 35 27 36 83 37 28 38 29 39 30 40 77 41 31 42 82 43 76 44
REMARK SMILES IDX 78 45 32 46 81 47 75 48 74 49 33 51 63 52 44 53 62 54 45 55
REMARK SMILES IDX 48 56 61 57 79 58 46 59 47 60 60 62 80 63 49 64 34 65 35 66
REMARK SMILES IDX 43 67 36 68 42 69 37 70 38 71 39 72 40 73 41 74 64 75 65 76
REMARK SMILES IDX 73 77 66 78 72 79 67 80 68 81 69 82 70 83 71 84 50 85 51 86
REMARK SMILES IDX 59 87 52 88 58 89 53 90 54 91 55 92 56 93 57 94
REMARK H PARENT 17 7 22 31 78 50 48 61
REMARK Flexibility Score: inf
ROOT
ATOM      1  C   UNL A   1      35.755  22.663  25.423  1.00  0.00     0.023 C 
ENDROOT
BRANCH   1   2
ATOM      2  C   UNL A   1      34.814  23.244  24.386  1.00  0.00     0.023 C 
BRANCH   2   3
ATOM      3  C   UNL A   1      34.510  24.737  24.544  1.00  0.00     0.116 C 
BRANCH   3   4
ATOM      4  N   UNL A   1      33.675  25.072  25.692  1.00  0.00    -0.355 N 
ATOM      5  C   UNL A   1      32.863  26.133  25.976  1.00  0.00     0.229 C 
ATOM      6  O   UNL A   1      32.189  26.044  27.009  1.00  0.00    -0.274 OA
ATOM      7  H   UNL A   1      33.702  24.396  26.407  1.00  0.00     0.163 HD
BRANCH   5   8
ATOM      8  C   UNL A   1      32.724  27.377  25.069  1.00  0.00     0.135 C 
ATOM      9  N   UNL A   1      31.022  29.011  24.054  1.00  0.00    -0.329 N 
ATOM     10  C   UNL A   1      31.216  29.906  25.128  1.00  0.00     0.254 C 
ATOM     11  C   UNL A   1      31.358  27.522  24.250  1.00  0.00     0.059 C 
ATOM     12  O   UNL A   1      30.505  30.887  25.339  1.00  0.00    -0.269 OA
ATOM     13  C   UNL A   1      32.419  29.725  25.964  1.00  0.00     0.044 A 
ATOM     14  C   UNL A   1      30.131  26.893  24.951  1.00  0.00     0.030 C 
ATOM     15  C   UNL A   1      31.512  26.772  22.894  1.00  0.00     0.030 C 
ATOM     16  C   UNL A   1      32.790  30.741  26.862  1.00  0.00     0.014 A 
ATOM     17  C   UNL A   1      33.211  28.591  25.837  1.00  0.00    -0.020 A 
ATOM     18  C   UNL A   1      30.035  25.366  25.014  1.00  0.00     0.002 C 
ATOM     19  C   UNL A   1      31.540  25.246  22.986  1.00  0.00     0.002 C 
ATOM     20  C   UNL A   1      33.974  30.648  27.594  1.00  0.00     0.001 A 
ATOM     21  C   UNL A   1      34.442  28.541  26.528  1.00  0.00     0.005 A 
ATOM     22  C   UNL A   1      30.290  24.705  23.669  1.00  0.00     0.000 C 
ATOM     23  C   UNL A   1      34.816  29.558  27.406  1.00  0.00     0.000 A 
BRANCH   9  24
ATOM     24  C   UNL A   1      30.160  29.570  22.962  1.00  0.00     0.082 C 
ATOM     25  C   UNL A   1      30.833  29.699  21.595  1.00  0.00     0.031 C 
BRANCH  24  26
ATOM     26  C   UNL A   1      28.682  29.117  22.957  1.00  0.00     0.021 C 
ATOM     27  C   UNL A   1      27.617  30.204  23.019  1.00  0.00     0.006 C 
ENDBRANCH  24  26
ENDBRANCH   9  24
ENDBRANCH   5   8
ENDBRANCH   3   4
ENDBRANCH   2   3
ENDBRANCH   1   2
BRANCH   1  28
ATOM     28  C   UNL A   1      37.031  23.458  25.555  1.00  0.00     0.116 C 
BRANCH  28  29
ATOM     29  N   UNL A   1      38.189  22.597  25.773  1.00  0.00    -0.352 N 
ATOM     30  C   UNL A   1      39.422  22.932  26.288  1.00  0.00     0.251 C 
ATOM     31  H   UNL A   1      38.073  21.653  25.519  1.00  0.00     0.163 HD
ATOM     32  O   UNL A   1      40.362  22.161  26.224  1.00  0.00    -0.269 OA
BRANCH  30  33
ATOM     33  C   UNL A   1      39.567  24.269  26.895  1.00  0.00     0.039 A 
ATOM     34  C   UNL A   1      40.197  25.277  26.164  1.00  0.00     0.014 A 
ATOM     35  C   UNL A   1      39.187  24.477  28.221  1.00  0.00     0.014 A 
ATOM     36  C   UNL A   1      40.647  26.404  26.822  1.00  0.00     0.010 A 
ATOM     37  C   UNL A   1      39.515  25.684  28.841  1.00  0.00     0.010 A 
ATOM     38  C   UNL A   1      40.289  26.637  28.160  1.00  0.00    -0.014 A 
BRANCH  38  39
ATOM     39  C   UNL A   1      40.708  27.910  28.796  1.00  0.00     0.031 A 
ATOM     40  C   UNL A   1      39.740  29.046  28.977  1.00  0.00     0.074 A 
ATOM     41  C   UNL A   1      41.966  27.995  29.274  1.00  0.00     0.049 A 
ATOM     42  N   UNL A   1      39.955  30.224  29.503  1.00  0.00    -0.248 NA
ATOM     43  C   UNL A   1      38.358  28.845  28.510  1.00  0.00     0.031 C 
ATOM     44  C   UNL A   1      42.973  26.933  29.182  1.00  0.00     0.029 A 
ATOM     45  N   UNL A   1      42.602  28.988  29.974  1.00  0.00    -0.354 N 
ATOM     46  C   UNL A   1      38.752  30.913  29.404  1.00  0.00     0.074 A 
ATOM     47  C   UNL A   1      37.811  30.031  28.751  1.00  0.00     0.031 C 
ATOM     48  C   UNL A   1      44.056  27.287  29.883  1.00  0.00     0.029 A 
ATOM     49  C   UNL A   1      43.873  28.646  30.374  1.00  0.00     0.049 A 
ATOM     50  H   UNL A   1      42.190  29.860  30.170  1.00  0.00     0.167 HD
ATOM     51  C   UNL A   1      38.466  32.166  29.829  1.00  0.00     0.031 A 
ATOM     52  C   UNL A   1      44.805  29.350  31.043  1.00  0.00     0.031 A 
ATOM     53  C   UNL A   1      39.415  33.018  30.498  1.00  0.00     0.049 A 
ATOM     54  C   UNL A   1      44.478  30.752  31.456  1.00  0.00     0.074 A 
ATOM     55  C   UNL A   1      39.228  34.309  30.964  1.00  0.00     0.029 A 
ATOM     56  N   UNL A   1      40.721  32.667  30.810  1.00  0.00    -0.354 N 
ATOM     57  N   UNL A   1      43.347  31.401  31.316  1.00  0.00    -0.248 NA
ATOM     58  C   UNL A   1      45.548  31.525  32.096  1.00  0.00     0.031 C 
ATOM     59  C   UNL A   1      40.436  34.757  31.503  1.00  0.00     0.029 A 
ATOM     60  C   UNL A   1      41.357  33.722  31.440  1.00  0.00     0.049 A 
ATOM     61  H   UNL A   1      41.133  31.795  30.612  1.00  0.00     0.167 HD
ATOM     62  C   UNL A   1      43.567  32.663  31.851  1.00  0.00     0.074 A 
ATOM     63  C   UNL A   1      44.932  32.674  32.343  1.00  0.00     0.031 C 
ATOM     64  C   UNL A   1      42.719  33.715  31.918  1.00  0.00     0.031 A 
BRANCH  51  65
ATOM     65  C   UNL A   1      37.082  32.714  29.584  1.00  0.00    -0.014 A 
ATOM     66  C   UNL A   1      36.788  33.341  28.359  1.00  0.00     0.010 A 
ATOM     67  C   UNL A   1      36.111  32.717  30.601  1.00  0.00     0.010 A 
ATOM     68  C   UNL A   1      35.565  33.990  28.164  1.00  0.00     0.020 A 
ATOM     69  C   UNL A   1      34.874  33.341  30.401  1.00  0.00     0.020 A 
ATOM     70  C   UNL A   1      34.618  33.994  29.193  1.00  0.00     0.054 A 
BRANCH  70  71
ATOM     71  S   UNL A   1      33.046  34.862  28.933  1.00  0.00     0.124 S 
ATOM     72  O   UNL A   1      32.498  34.921  30.283  1.00  0.00    -0.237 OA
ATOM     73  O   UNL A   1      33.476  36.140  28.368  1.00  0.00    -0.237 OA
ATOM     74  O   UNL A   1      32.328  33.993  28.002  1.00  0.00    -0.744 OA
ENDBRANCH  70  71
ENDBRANCH  51  65
BRANCH  52  75
ATOM     75  C   UNL A   1      46.118  28.715  31.341  1.00  0.00    -0.014 A 
ATOM     76  C   UNL A   1      46.290  27.954  32.514  1.00  0.00     0.010 A 
ATOM     77  C   UNL A   1      47.231  28.963  30.519  1.00  0.00     0.010 A 
ATOM     78  C   UNL A   1      47.559  27.519  32.899  1.00  0.00     0.020 A 
ATOM     79  C   UNL A   1      48.498  28.496  30.883  1.00  0.00     0.020 A 
ATOM     80  C   UNL A   1      48.659  27.807  32.088  1.00  0.00     0.054 A 
BRANCH  80  81
ATOM     81  S   UNL A   1      50.307  27.285  32.638  1.00  0.00     0.124 S 
ATOM     82  O   UNL A   1      51.167  28.255  31.964  1.00  0.00    -0.237 OA
ATOM     83  O   UNL A   1      50.220  27.423  34.089  1.00  0.00    -0.237 OA
ATOM     84  O   UNL A   1      50.409  25.912  32.150  1.00  0.00    -0.744 OA
ENDBRANCH  80  81
ENDBRANCH  52  75
BRANCH  64  85
ATOM     85  C   UNL A   1      43.227  34.987  32.542  1.00  0.00    -0.014 A 
ATOM     86  C   UNL A   1      42.898  35.288  33.876  1.00  0.00     0.010 A 
ATOM     87  C   UNL A   1      43.913  35.939  31.768  1.00  0.00     0.010 A 
ATOM     88  C   UNL A   1      43.208  36.537  34.414  1.00  0.00     0.020 A 
ATOM     89  C   UNL A   1      44.252  37.179  32.314  1.00  0.00     0.020 A 
ATOM     90  C   UNL A   1      43.872  37.480  33.625  1.00  0.00     0.054 A 
BRANCH  90  91
ATOM     91  S   UNL A   1      44.227  39.114  34.326  1.00  0.00     0.124 S 
ATOM     92  O   UNL A   1      43.043  39.876  33.941  1.00  0.00    -0.237 OA
ATOM     93  O   UNL A   1      44.356  38.829  35.754  1.00  0.00    -0.237 OA
ATOM     94  O   UNL A   1      45.467  39.509  33.664  1.00  0.00    -0.744 OA
ENDBRANCH  90  91
ENDBRANCH  64  85
ENDBRANCH  38  39
ENDBRANCH  30  33
ENDBRANCH  28  29
ENDBRANCH   1  28
TORSDOF 16
ENDMDL
