MODEL 1
REMARK VINA RESULT:     -11.1      0.000      0.000
REMARK SMILES Cn1nccc1/C=C/C(=O)N[C@H](CO)C(=O)NCCCCNC(=O)c1ccc(-c2c3nc(c(-c4ccc(S(=O)(=O)[O-])cc4)c4ccc([nH]4)c(-c4ccc(S(=O)(=O)[O-])cc4)c4nc(c(-c5ccc(S(=O)(=O)[O-])cc5)c5ccc2[nH]5)C=C4)C=C3)cc1
REMARK SMILES IDX 19 1 18 2 17 3 15 4 16 5 12 7 11 8 9 9 10 10 8 12 7 13 6 14
REMARK SMILES IDX 1 15 2 16 3 17 4 18 5 19 13 20 14 21 20 23 21 24 22 25 23 26
REMARK SMILES IDX 24 28 25 29 26 30 84 31 27 32 83 33 28 34 29 35 30 36 77 37
REMARK SMILES IDX 31 38 82 39 76 40 78 41 32 42 81 43 75 44 74 45 33 47 63 48
REMARK SMILES IDX 44 49 62 50 45 51 48 52 61 53 79 54 46 55 47 56 60 58 80 59
REMARK SMILES IDX 49 60 34 61 35 62 43 63 36 64 42 65 37 66 38 67 39 68 40 69
REMARK SMILES IDX 41 70 64 71 65 72 73 73 66 74 72 75 67 76 68 77 69 78 70 79
REMARK SMILES IDX 71 80 50 81 51 82 59 83 52 84 58 85 53 86 54 87 55 88 56 89
REMARK SMILES IDX 57 90
REMARK H PARENT 17 6 11 11 14 22 22 27 78 46 48 57
REMARK Flexibility Score: inf
ROOT
ATOM      1  C   UNL A   1      32.689  29.829  26.895  1.00  0.00     0.023 C 
ENDROOT
BRANCH   1   2
ATOM      2  C   UNL A   1      31.998  29.552  25.559  1.00  0.00     0.116 C 
BRANCH   2   3
ATOM      3  N   UNL A   1      32.957  29.648  24.475  1.00  0.00    -0.354 N 
ATOM      4  C   UNL A   1      33.137  28.895  23.362  1.00  0.00     0.244 C 
ATOM      5  O   UNL A   1      34.232  29.023  22.791  1.00  0.00    -0.273 OA
ATOM      6  H   UNL A   1      33.593  30.395  24.564  1.00  0.00     0.163 HD
BRANCH   4   7
ATOM      7  C   UNL A   1      32.060  27.992  22.702  1.00  0.00     0.197 C 
BRANCH   7   8
ATOM      8  N   UNL A   1      32.334  26.904  21.755  1.00  0.00    -0.339 N 
ATOM      9  C   UNL A   1      33.070  25.775  21.724  1.00  0.00     0.244 C 
ATOM     10  O   UNL A   1      33.177  25.215  20.629  1.00  0.00    -0.270 OA
ATOM     11  H   UNL A   1      31.845  27.035  20.911  1.00  0.00     0.164 HD
BRANCH   9  12
ATOM     12  C   UNL A   1      33.665  25.097  22.894  1.00  0.00     0.073 C 
ATOM     13  C   UNL A   1      33.068  24.465  23.910  1.00  0.00     0.033 C 
BRANCH  13  14
ATOM     14  C   UNL A   1      33.812  23.655  24.812  1.00  0.00     0.061 A 
ATOM     15  C   UNL A   1      32.827  21.448  23.987  1.00  0.00     0.174 C 
ATOM     16  N   UNL A   1      33.687  22.278  24.803  1.00  0.00    -0.269 N 
ATOM     17  N   UNL A   1      34.520  21.663  25.668  1.00  0.00    -0.181 NA
ATOM     18  C   UNL A   1      35.212  22.659  26.218  1.00  0.00     0.136 A 
ATOM     19  C   UNL A   1      34.807  23.914  25.739  1.00  0.00     0.050 A 
ENDBRANCH  13  14
ENDBRANCH   9  12
ENDBRANCH   7   8
BRANCH   7  20
ATOM     20  C   UNL A   1      30.748  28.765  22.383  1.00  0.00     0.191 C 
BRANCH  20  21
ATOM     21  O   UNL A   1      30.942  30.063  21.820  1.00  0.00    -0.394 OA
ATOM     22  H   UNL A   1      30.141  30.595  21.950  1.00  0.00     0.210 HD
ENDBRANCH  20  21
ENDBRANCH   7  20
ENDBRANCH   4   7
ENDBRANCH   2   3
ENDBRANCH   1   2
BRANCH   1  23
ATOM     23  C   UNL A   1      33.771  28.836  27.301  1.00  0.00     0.023 C 
BRANCH  23  24
ATOM     24  C   UNL A   1      35.134  29.461  27.554  1.00  0.00     0.116 C 
BRANCH  24  25
ATOM     25  N   UNL A   1      35.232  30.177  28.820  1.00  0.00    -0.352 N 
ATOM     26  C   UNL A   1      36.323  30.286  29.652  1.00  0.00     0.251 C 
ATOM     27  H   UNL A   1      34.416  30.642  29.116  1.00  0.00     0.163 HD
ATOM     28  O   UNL A   1      36.233  30.874  30.725  1.00  0.00    -0.269 OA
BRANCH  26  29
ATOM     29  C   UNL A   1      37.588  29.630  29.257  1.00  0.00     0.039 A 
ATOM     30  C   UNL A   1      38.053  29.787  27.950  1.00  0.00     0.014 A 
ATOM     31  C   UNL A   1      38.356  28.953  30.207  1.00  0.00     0.014 A 
ATOM     32  C   UNL A   1      39.337  29.350  27.623  1.00  0.00     0.010 A 
ATOM     33  C   UNL A   1      39.665  28.606  29.905  1.00  0.00     0.010 A 
ATOM     34  C   UNL A   1      40.173  28.804  28.612  1.00  0.00    -0.014 A 
BRANCH  34  35
ATOM     35  C   UNL A   1      41.583  28.440  28.326  1.00  0.00     0.031 A 
ATOM     36  C   UNL A   1      42.646  29.507  28.323  1.00  0.00     0.074 A 
ATOM     37  C   UNL A   1      41.894  27.175  27.976  1.00  0.00     0.049 A 
ATOM     38  N   UNL A   1      43.906  29.415  27.990  1.00  0.00    -0.248 NA
ATOM     39  C   UNL A   1      42.223  30.864  28.708  1.00  0.00     0.031 C 
ATOM     40  C   UNL A   1      40.946  26.060  27.879  1.00  0.00     0.029 A 
ATOM     41  N   UNL A   1      43.097  26.615  27.627  1.00  0.00    -0.354 N 
ATOM     42  C   UNL A   1      44.417  30.703  28.091  1.00  0.00     0.074 A 
ATOM     43  C   UNL A   1      43.320  31.567  28.467  1.00  0.00     0.031 C 
ATOM     44  C   UNL A   1      41.611  24.946  27.530  1.00  0.00     0.029 A 
ATOM     45  C   UNL A   1      43.021  25.272  27.340  1.00  0.00     0.049 A 
ATOM     46  H   UNL A   1      43.938  27.126  27.585  1.00  0.00     0.167 HD
ATOM     47  C   UNL A   1      45.690  31.128  27.911  1.00  0.00     0.031 A 
ATOM     48  C   UNL A   1      43.977  24.400  26.967  1.00  0.00     0.031 A 
ATOM     49  C   UNL A   1      46.788  30.262  27.580  1.00  0.00     0.049 A 
ATOM     50  C   UNL A   1      45.393  24.886  26.819  1.00  0.00     0.074 A 
ATOM     51  C   UNL A   1      48.127  30.583  27.443  1.00  0.00     0.029 A 
ATOM     52  N   UNL A   1      46.676  28.900  27.348  1.00  0.00    -0.354 N 
ATOM     53  N   UNL A   1      45.866  26.099  26.974  1.00  0.00    -0.248 NA
ATOM     54  C   UNL A   1      46.405  23.884  26.459  1.00  0.00     0.031 C 
ATOM     55  C   UNL A   1      48.821  29.417  27.099  1.00  0.00     0.029 A 
ATOM     56  C   UNL A   1      47.918  28.366  27.062  1.00  0.00     0.049 A 
ATOM     57  H   UNL A   1      45.835  28.389  27.381  1.00  0.00     0.167 HD
ATOM     58  C   UNL A   1      47.235  26.001  26.754  1.00  0.00     0.074 A 
ATOM     59  C   UNL A   1      47.515  24.609  26.468  1.00  0.00     0.031 C 
ATOM     60  C   UNL A   1      48.176  26.977  26.786  1.00  0.00     0.031 A 
BRANCH  47  61
ATOM     61  C   UNL A   1      45.956  32.600  28.081  1.00  0.00    -0.014 A 
ATOM     62  C   UNL A   1      46.268  33.138  29.343  1.00  0.00     0.010 A 
ATOM     63  C   UNL A   1      45.906  33.454  26.965  1.00  0.00     0.010 A 
ATOM     64  C   UNL A   1      46.474  34.511  29.495  1.00  0.00     0.020 A 
ATOM     65  C   UNL A   1      46.139  34.825  27.109  1.00  0.00     0.020 A 
ATOM     66  C   UNL A   1      46.400  35.347  28.377  1.00  0.00     0.054 A 
BRANCH  66  67
ATOM     67  S   UNL A   1      46.679  37.125  28.599  1.00  0.00     0.124 S 
ATOM     68  O   UNL A   1      46.701  37.245  30.055  1.00  0.00    -0.237 OA
ATOM     69  O   UNL A   1      47.961  37.337  27.933  1.00  0.00    -0.237 OA
ATOM     70  O   UNL A   1      45.530  37.740  27.940  1.00  0.00    -0.744 OA
ENDBRANCH  66  67
ENDBRANCH  47  61
BRANCH  48  71
ATOM     71  C   UNL A   1      43.635  22.970  26.739  1.00  0.00    -0.014 A 
ATOM     72  C   UNL A   1      42.947  22.242  27.726  1.00  0.00     0.010 A 
ATOM     73  C   UNL A   1      43.984  22.333  25.536  1.00  0.00     0.010 A 
ATOM     74  C   UNL A   1      42.631  20.896  27.522  1.00  0.00     0.020 A 
ATOM     75  C   UNL A   1      43.649  20.992  25.319  1.00  0.00     0.020 A 
ATOM     76  C   UNL A   1      42.986  20.279  26.319  1.00  0.00     0.054 A 
BRANCH  76  77
ATOM     77  S   UNL A   1      42.524  18.543  26.054  1.00  0.00     0.124 S 
ATOM     78  O   UNL A   1      43.384  18.170  24.936  1.00  0.00    -0.237 OA
ATOM     79  O   UNL A   1      42.852  17.927  27.337  1.00  0.00    -0.237 OA
ATOM     80  O   UNL A   1      41.097  18.614  25.753  1.00  0.00    -0.744 OA
ENDBRANCH  76  77
ENDBRANCH  48  71
BRANCH  60  81
ATOM     81  C   UNL A   1      49.602  26.567  26.540  1.00  0.00    -0.014 A 
ATOM     82  C   UNL A   1      50.169  26.650  25.257  1.00  0.00     0.010 A 
ATOM     83  C   UNL A   1      50.399  26.151  27.621  1.00  0.00     0.010 A 
ATOM     84  C   UNL A   1      51.505  26.299  25.054  1.00  0.00     0.020 A 
ATOM     85  C   UNL A   1      51.742  25.820  27.426  1.00  0.00     0.020 A 
ATOM     86  C   UNL A   1      52.284  25.884  26.140  1.00  0.00     0.054 A 
BRANCH  86  87
ATOM     87  S   UNL A   1      54.030  25.482  25.863  1.00  0.00     0.124 S 
ATOM     88  O   UNL A   1      53.938  24.357  24.936  1.00  0.00    -0.237 OA
ATOM     89  O   UNL A   1      54.562  26.719  25.299  1.00  0.00    -0.237 OA
ATOM     90  O   UNL A   1      54.523  25.151  27.198  1.00  0.00    -0.744 OA
ENDBRANCH  86  87
ENDBRANCH  60  81
ENDBRANCH  34  35
ENDBRANCH  26  29
ENDBRANCH  24  25
ENDBRANCH  23  24
ENDBRANCH   1  23
TORSDOF 19
ENDMDL
MODEL 2
REMARK VINA RESULT:     -10.7      6.580     12.223
REMARK SMILES Cn1nccc1/C=C/C(=O)N[C@H](CO)C(=O)NCCCCNC(=O)c1ccc(-c2c3nc(c(-c4ccc(S(=O)(=O)[O-])cc4)c4ccc([nH]4)c(-c4ccc(S(=O)(=O)[O-])cc4)c4nc(c(-c5ccc(S(=O)(=O)[O-])cc5)c5ccc2[nH]5)C=C4)C=C3)cc1
REMARK SMILES IDX 19 1 18 2 17 3 15 4 16 5 12 7 11 8 9 9 10 10 8 12 7 13 6 14
REMARK SMILES IDX 1 15 2 16 3 17 4 18 5 19 13 20 14 21 20 23 21 24 22 25 23 26
REMARK SMILES IDX 24 28 25 29 26 30 84 31 27 32 83 33 28 34 29 35 30 36 77 37
REMARK SMILES IDX 31 38 82 39 76 40 78 41 32 42 81 43 75 44 74 45 33 47 63 48
REMARK SMILES IDX 44 49 62 50 45 51 48 52 61 53 79 54 46 55 47 56 60 58 80 59
REMARK SMILES IDX 49 60 34 61 35 62 43 63 36 64 42 65 37 66 38 67 39 68 40 69
REMARK SMILES IDX 41 70 64 71 65 72 73 73 66 74 72 75 67 76 68 77 69 78 70 79
REMARK SMILES IDX 71 80 50 81 51 82 59 83 52 84 58 85 53 86 54 87 55 88 56 89
REMARK SMILES IDX 57 90
REMARK H PARENT 17 6 11 11 14 22 22 27 78 46 48 57
REMARK Flexibility Score: inf
ROOT
ATOM      1  C   UNL A   1      36.787  23.571  24.642  1.00  0.00     0.023 C 
ENDROOT
BRANCH   1   2
ATOM      2  C   UNL A   1      35.770  22.603  24.037  1.00  0.00     0.116 C 
BRANCH   2   3
ATOM      3  N   UNL A   1      34.981  23.279  23.025  1.00  0.00    -0.354 N 
ATOM      4  C   UNL A   1      33.704  23.098  22.608  1.00  0.00     0.244 C 
ATOM      5  O   UNL A   1      33.412  23.605  21.513  1.00  0.00    -0.273 OA
ATOM      6  H   UNL A   1      35.460  24.000  22.556  1.00  0.00     0.163 HD
BRANCH   4   7
ATOM      7  C   UNL A   1      32.577  22.414  23.429  1.00  0.00     0.197 C 
BRANCH   7   8
ATOM      8  N   UNL A   1      32.408  22.522  24.884  1.00  0.00    -0.339 N 
ATOM      9  C   UNL A   1      32.699  23.409  25.856  1.00  0.00     0.244 C 
ATOM     10  O   UNL A   1      32.552  23.023  27.019  1.00  0.00    -0.270 OA
ATOM     11  H   UNL A   1      31.957  21.727  25.249  1.00  0.00     0.164 HD
BRANCH   9  12
ATOM     12  C   UNL A   1      33.071  24.824  25.653  1.00  0.00     0.073 C 
ATOM     13  C   UNL A   1      32.334  25.845  25.202  1.00  0.00     0.033 C 
BRANCH  13  14
ATOM     14  C   UNL A   1      32.791  27.188  25.314  1.00  0.00     0.061 A 
ATOM     15  C   UNL A   1      30.946  28.168  23.845  1.00  0.00     0.174 C 
ATOM     16  N   UNL A   1      32.118  28.224  24.693  1.00  0.00    -0.269 N 
ATOM     17  N   UNL A   1      32.641  29.437  24.966  1.00  0.00    -0.181 NA
ATOM     18  C   UNL A   1      33.647  29.178  25.799  1.00  0.00     0.136 A 
ATOM     19  C   UNL A   1      33.797  27.803  26.038  1.00  0.00     0.050 A 
ENDBRANCH  13  14
ENDBRANCH   9  12
ENDBRANCH   7   8
BRANCH   7  20
ATOM     20  C   UNL A   1      32.198  21.013  22.870  1.00  0.00     0.191 C 
BRANCH  20  21
ATOM     21  O   UNL A   1      31.541  21.034  21.603  1.00  0.00    -0.394 OA
ATOM     22  H   UNL A   1      30.596  21.213  21.731  1.00  0.00     0.210 HD
ENDBRANCH  20  21
ENDBRANCH   7  20
ENDBRANCH   4   7
ENDBRANCH   2   3
ENDBRANCH   1   2
BRANCH   1  23
ATOM     23  C   UNL A   1      37.630  23.018  25.785  1.00  0.00     0.023 C 
BRANCH  23  24
ATOM     24  C   UNL A   1      38.504  24.052  26.478  1.00  0.00     0.116 C 
BRANCH  24  25
ATOM     25  N   UNL A   1      39.924  23.925  26.178  1.00  0.00    -0.352 N 
ATOM     26  C   UNL A   1      40.959  24.725  26.609  1.00  0.00     0.251 C 
ATOM     27  H   UNL A   1      40.176  23.172  25.596  1.00  0.00     0.163 HD
ATOM     28  O   UNL A   1      42.105  24.528  26.216  1.00  0.00    -0.269 OA
BRANCH  26  29
ATOM     29  C   UNL A   1      40.654  25.862  27.503  1.00  0.00     0.039 A 
ATOM     30  C   UNL A   1      39.631  25.728  28.444  1.00  0.00     0.014 A 
ATOM     31  C   UNL A   1      41.448  27.010  27.477  1.00  0.00     0.014 A 
ATOM     32  C   UNL A   1      39.469  26.708  29.425  1.00  0.00     0.010 A 
ATOM     33  C   UNL A   1      41.347  27.934  28.509  1.00  0.00     0.010 A 
ATOM     34  C   UNL A   1      40.361  27.792  29.497  1.00  0.00    -0.014 A 
BRANCH  34  35
ATOM     35  C   UNL A   1      40.292  28.786  30.597  1.00  0.00     0.031 A 
ATOM     36  C   UNL A   1      41.190  28.637  31.796  1.00  0.00     0.074 A 
ATOM     37  C   UNL A   1      39.362  29.762  30.565  1.00  0.00     0.049 A 
ATOM     38  N   UNL A   1      41.206  29.329  32.905  1.00  0.00    -0.248 NA
ATOM     39  C   UNL A   1      42.172  27.541  31.758  1.00  0.00     0.031 C 
ATOM     40  C   UNL A   1      38.389  29.977  29.489  1.00  0.00     0.029 A 
ATOM     41  N   UNL A   1      39.076  30.753  31.469  1.00  0.00    -0.354 N 
ATOM     42  C   UNL A   1      42.170  28.732  33.707  1.00  0.00     0.074 A 
ATOM     43  C   UNL A   1      42.683  27.593  32.979  1.00  0.00     0.031 C 
ATOM     44  C   UNL A   1      37.639  31.052  29.781  1.00  0.00     0.029 A 
ATOM     45  C   UNL A   1      38.049  31.580  31.079  1.00  0.00     0.049 A 
ATOM     46  H   UNL A   1      39.561  30.863  32.319  1.00  0.00     0.167 HD
ATOM     47  C   UNL A   1      42.610  29.110  34.931  1.00  0.00     0.031 A 
ATOM     48  C   UNL A   1      37.498  32.644  31.695  1.00  0.00     0.031 A 
ATOM     49  C   UNL A   1      42.132  30.268  35.635  1.00  0.00     0.049 A 
ATOM     50  C   UNL A   1      38.035  33.074  33.033  1.00  0.00     0.074 A 
ATOM     51  C   UNL A   1      42.560  30.776  36.849  1.00  0.00     0.029 A 
ATOM     52  N   UNL A   1      41.125  31.107  35.181  1.00  0.00    -0.354 N 
ATOM     53  N   UNL A   1      38.987  32.527  33.750  1.00  0.00    -0.248 NA
ATOM     54  C   UNL A   1      37.431  34.269  33.637  1.00  0.00     0.031 C 
ATOM     55  C   UNL A   1      41.792  31.909  37.142  1.00  0.00     0.029 A 
ATOM     56  C   UNL A   1      40.914  32.126  36.092  1.00  0.00     0.049 A 
ATOM     57  H   UNL A   1      40.634  30.993  34.336  1.00  0.00     0.167 HD
ATOM     58  C   UNL A   1      39.115  33.328  34.880  1.00  0.00     0.074 A 
ATOM     59  C   UNL A   1      38.150  34.401  34.744  1.00  0.00     0.031 C 
ATOM     60  C   UNL A   1      39.954  33.187  35.935  1.00  0.00     0.031 A 
BRANCH  47  61
ATOM     61  C   UNL A   1      43.672  28.260  35.575  1.00  0.00    -0.014 A 
ATOM     62  C   UNL A   1      45.037  28.558  35.409  1.00  0.00     0.010 A 
ATOM     63  C   UNL A   1      43.303  27.158  36.367  1.00  0.00     0.010 A 
ATOM     64  C   UNL A   1      46.014  27.739  35.979  1.00  0.00     0.020 A 
ATOM     65  C   UNL A   1      44.278  26.352  36.962  1.00  0.00     0.020 A 
ATOM     66  C   UNL A   1      45.627  26.636  36.746  1.00  0.00     0.054 A 
BRANCH  66  67
ATOM     67  S   UNL A   1      46.915  25.592  37.482  1.00  0.00     0.124 S 
ATOM     68  O   UNL A   1      46.180  24.917  38.548  1.00  0.00    -0.237 OA
ATOM     69  O   UNL A   1      47.321  24.744  36.365  1.00  0.00    -0.237 OA
ATOM     70  O   UNL A   1      47.923  26.551  37.929  1.00  0.00    -0.744 OA
ENDBRANCH  66  67
ENDBRANCH  47  61
BRANCH  48  71
ATOM     71  C   UNL A   1      36.396  33.398  31.038  1.00  0.00    -0.014 A 
ATOM     72  C   UNL A   1      35.187  33.621  31.721  1.00  0.00     0.010 A 
ATOM     73  C   UNL A   1      36.551  33.904  29.736  1.00  0.00     0.010 A 
ATOM     74  C   UNL A   1      34.145  34.321  31.106  1.00  0.00     0.020 A 
ATOM     75  C   UNL A   1      35.519  34.624  29.127  1.00  0.00     0.020 A 
ATOM     76  C   UNL A   1      34.317  34.817  29.811  1.00  0.00     0.054 A 
BRANCH  76  77
ATOM     77  S   UNL A   1      32.970  35.764  29.048  1.00  0.00     0.124 S 
ATOM     78  O   UNL A   1      32.360  34.770  28.172  1.00  0.00    -0.237 OA
ATOM     79  O   UNL A   1      32.169  36.165  30.203  1.00  0.00    -0.237 OA
ATOM     80  O   UNL A   1      33.664  36.857  28.373  1.00  0.00    -0.744 OA
ENDBRANCH  76  77
ENDBRANCH  48  71
BRANCH  60  81
ATOM     81  C   UNL A   1      39.893  34.237  37.010  1.00  0.00    -0.014 A 
ATOM     82  C   UNL A   1      40.498  35.492  36.833  1.00  0.00     0.010 A 
ATOM     83  C   UNL A   1      39.167  33.980  38.187  1.00  0.00     0.010 A 
ATOM     84  C   UNL A   1      40.401  36.467  37.828  1.00  0.00     0.020 A 
ATOM     85  C   UNL A   1      39.048  34.961  39.174  1.00  0.00     0.020 A 
ATOM     86  C   UNL A   1      39.677  36.194  38.994  1.00  0.00     0.054 A 
BRANCH  86  87
ATOM     87  S   UNL A   1      39.521  37.492  40.251  1.00  0.00     0.124 S 
ATOM     88  O   UNL A   1      40.913  37.715  40.632  1.00  0.00    -0.237 OA
ATOM     89  O   UNL A   1      38.889  38.583  39.513  1.00  0.00    -0.237 OA
ATOM     90  O   UNL A   1      38.683  36.877  41.278  1.00  0.00    -0.744 OA
ENDBRANCH  86  87
ENDBRANCH  60  81
ENDBRANCH  34  35
ENDBRANCH  26  29
ENDBRANCH  24  25
ENDBRANCH  23  24
ENDBRANCH   1  23
TORSDOF 19
ENDMDL
MODEL 3
REMARK VINA RESULT:     -10.5      6.771     11.586
REMARK SMILES Cn1nccc1/C=C/C(=O)N[C@H](CO)C(=O)NCCCCNC(=O)c1ccc(-c2c3nc(c(-c4ccc(S(=O)(=O)[O-])cc4)c4ccc([nH]4)c(-c4ccc(S(=O)(=O)[O-])cc4)c4nc(c(-c5ccc(S(=O)(=O)[O-])cc5)c5ccc2[nH]5)C=C4)C=C3)cc1
REMARK SMILES IDX 19 1 18 2 17 3 15 4 16 5 12 7 11 8 9 9 10 10 8 12 7 13 6 14
REMARK SMILES IDX 1 15 2 16 3 17 4 18 5 19 13 20 14 21 20 23 21 24 22 25 23 26
REMARK SMILES IDX 24 28 25 29 26 30 84 31 27 32 83 33 28 34 29 35 30 36 77 37
REMARK SMILES IDX 31 38 82 39 76 40 78 41 32 42 81 43 75 44 74 45 33 47 63 48
REMARK SMILES IDX 44 49 62 50 45 51 48 52 61 53 79 54 46 55 47 56 60 58 80 59
REMARK SMILES IDX 49 60 34 61 35 62 43 63 36 64 42 65 37 66 38 67 39 68 40 69
REMARK SMILES IDX 41 70 64 71 65 72 73 73 66 74 72 75 67 76 68 77 69 78 70 79
REMARK SMILES IDX 71 80 50 81 51 82 59 83 52 84 58 85 53 86 54 87 55 88 56 89
REMARK SMILES IDX 57 90
REMARK H PARENT 17 6 11 11 14 22 22 27 78 46 48 57
REMARK Flexibility Score: inf
ROOT
ATOM      1  C   UNL A   1      36.955  24.042  25.580  1.00  0.00     0.023 C 
ENDROOT
BRANCH   1   2
ATOM      2  C   UNL A   1      35.561  23.437  25.408  1.00  0.00     0.116 C 
BRANCH   2   3
ATOM      3  N   UNL A   1      35.212  23.388  24.001  1.00  0.00    -0.354 N 
ATOM      4  C   UNL A   1      34.186  23.943  23.308  1.00  0.00     0.244 C 
ATOM      5  O   UNL A   1      33.969  23.464  22.183  1.00  0.00    -0.273 OA
ATOM      6  H   UNL A   1      35.830  22.857  23.449  1.00  0.00     0.163 HD
BRANCH   4   7
ATOM      7  C   UNL A   1      33.357  25.176  23.759  1.00  0.00     0.197 C 
BRANCH   7   8
ATOM      8  N   UNL A   1      32.412  25.193  24.883  1.00  0.00    -0.339 N 
ATOM      9  C   UNL A   1      32.317  25.776  26.094  1.00  0.00     0.244 C 
ATOM     10  O   UNL A   1      31.419  25.366  26.836  1.00  0.00    -0.270 OA
ATOM     11  H   UNL A   1      31.632  24.620  24.700  1.00  0.00     0.164 HD
BRANCH   9  12
ATOM     12  C   UNL A   1      33.116  26.925  26.567  1.00  0.00     0.073 C 
ATOM     13  C   UNL A   1      33.520  28.014  25.905  1.00  0.00     0.033 C 
BRANCH  13  14
ATOM     14  C   UNL A   1      34.067  29.133  26.593  1.00  0.00     0.061 A 
ATOM     15  C   UNL A   1      31.962  30.565  26.387  1.00  0.00     0.174 C 
ATOM     16  N   UNL A   1      33.315  30.273  26.809  1.00  0.00    -0.269 N 
ATOM     17  N   UNL A   1      33.961  31.204  27.543  1.00  0.00    -0.181 NA
ATOM     18  C   UNL A   1      35.132  30.639  27.827  1.00  0.00     0.136 A 
ATOM     19  C   UNL A   1      35.260  29.364  27.254  1.00  0.00     0.050 A 
ENDBRANCH  13  14
ENDBRANCH   9  12
ENDBRANCH   7   8
BRANCH   7  20
ATOM     20  C   UNL A   1      32.902  26.059  22.562  1.00  0.00     0.191 C 
BRANCH  20  21
ATOM     21  O   UNL A   1      33.915  26.313  21.589  1.00  0.00    -0.394 OA
ATOM     22  H   UNL A   1      34.387  25.489  21.390  1.00  0.00     0.210 HD
ENDBRANCH  20  21
ENDBRANCH   7  20
ENDBRANCH   4   7
ENDBRANCH   2   3
ENDBRANCH   1   2
BRANCH   1  23
ATOM     23  C   UNL A   1      37.971  23.169  26.308  1.00  0.00     0.023 C 
BRANCH  23  24
ATOM     24  C   UNL A   1      39.138  23.935  26.911  1.00  0.00     0.116 C 
BRANCH  24  25
ATOM     25  N   UNL A   1      39.955  24.639  25.931  1.00  0.00    -0.352 N 
ATOM     26  C   UNL A   1      40.722  25.767  26.117  1.00  0.00     0.251 C 
ATOM     27  H   UNL A   1      39.961  24.259  25.023  1.00  0.00     0.163 HD
ATOM     28  O   UNL A   1      41.308  26.286  25.171  1.00  0.00    -0.269 OA
BRANCH  26  29
ATOM     29  C   UNL A   1      40.776  26.377  27.462  1.00  0.00     0.039 A 
ATOM     30  C   UNL A   1      41.873  27.169  27.803  1.00  0.00     0.014 A 
ATOM     31  C   UNL A   1      39.695  26.248  28.337  1.00  0.00     0.014 A 
ATOM     32  C   UNL A   1      41.841  27.914  28.983  1.00  0.00     0.010 A 
ATOM     33  C   UNL A   1      39.624  27.061  29.460  1.00  0.00     0.010 A 
ATOM     34  C   UNL A   1      40.693  27.906  29.794  1.00  0.00    -0.014 A 
BRANCH  34  35
ATOM     35  C   UNL A   1      40.579  28.777  30.990  1.00  0.00     0.031 A 
ATOM     36  C   UNL A   1      39.543  29.870  31.024  1.00  0.00     0.074 A 
ATOM     37  C   UNL A   1      41.462  28.651  32.002  1.00  0.00     0.049 A 
ATOM     38  N   UNL A   1      39.356  30.802  31.921  1.00  0.00    -0.248 NA
ATOM     39  C   UNL A   1      38.622  29.946  29.877  1.00  0.00     0.031 C 
ATOM     40  C   UNL A   1      42.554  27.674  32.063  1.00  0.00     0.029 A 
ATOM     41  N   UNL A   1      41.588  29.358  33.171  1.00  0.00    -0.354 N 
ATOM     42  C   UNL A   1      38.324  31.593  31.432  1.00  0.00     0.074 A 
ATOM     43  C   UNL A   1      37.958  31.062  30.138  1.00  0.00     0.031 C 
ATOM     44  C   UNL A   1      43.213  27.822  33.224  1.00  0.00     0.029 A 
ATOM     45  C   UNL A   1      42.620  28.926  33.971  1.00  0.00     0.049 A 
ATOM     46  H   UNL A   1      40.994  30.105  33.416  1.00  0.00     0.167 HD
ATOM     47  C   UNL A   1      37.717  32.653  32.016  1.00  0.00     0.031 A 
ATOM     48  C   UNL A   1      43.041  29.368  35.172  1.00  0.00     0.031 A 
ATOM     49  C   UNL A   1      38.051  33.152  33.322  1.00  0.00     0.049 A 
ATOM     50  C   UNL A   1      42.321  30.517  35.823  1.00  0.00     0.074 A 
ATOM     51  C   UNL A   1      37.450  34.176  34.032  1.00  0.00     0.029 A 
ATOM     52  N   UNL A   1      39.070  32.654  34.120  1.00  0.00    -0.354 N 
ATOM     53  N   UNL A   1      41.309  31.216  35.368  1.00  0.00    -0.248 NA
ATOM     54  C   UNL A   1      42.790  30.926  37.154  1.00  0.00     0.031 C 
ATOM     55  C   UNL A   1      38.126  34.316  35.250  1.00  0.00     0.029 A 
ATOM     56  C   UNL A   1      39.120  33.352  35.312  1.00  0.00     0.049 A 
ATOM     57  H   UNL A   1      39.669  31.913  33.873  1.00  0.00     0.167 HD
ATOM     58  C   UNL A   1      41.005  32.134  36.368  1.00  0.00     0.074 A 
ATOM     59  C   UNL A   1      41.931  31.891  37.455  1.00  0.00     0.031 C 
ATOM     60  C   UNL A   1      40.045  33.091  36.384  1.00  0.00     0.031 A 
BRANCH  47  61
ATOM     61  C   UNL A   1      36.619  33.332  31.242  1.00  0.00    -0.014 A 
ATOM     62  C   UNL A   1      35.314  33.419  31.761  1.00  0.00     0.010 A 
ATOM     63  C   UNL A   1      36.896  33.901  29.987  1.00  0.00     0.010 A 
ATOM     64  C   UNL A   1      34.295  34.016  31.016  1.00  0.00     0.020 A 
ATOM     65  C   UNL A   1      35.885  34.525  29.250  1.00  0.00     0.020 A 
ATOM     66  C   UNL A   1      34.586  34.559  29.762  1.00  0.00     0.054 A 
BRANCH  66  67
ATOM     67  S   UNL A   1      33.247  35.336  28.817  1.00  0.00     0.124 S 
ATOM     68  O   UNL A   1      32.648  34.186  28.145  1.00  0.00    -0.237 OA
ATOM     69  O   UNL A   1      32.429  35.949  29.860  1.00  0.00    -0.237 OA
ATOM     70  O   UNL A   1      33.942  36.277  27.943  1.00  0.00    -0.744 OA
ENDBRANCH  66  67
ENDBRANCH  47  61
BRANCH  48  71
ATOM     71  C   UNL A   1      44.184  28.702  35.853  1.00  0.00    -0.014 A 
ATOM     72  C   UNL A   1      43.959  27.594  36.690  1.00  0.00     0.010 A 
ATOM     73  C   UNL A   1      45.499  29.161  35.662  1.00  0.00     0.010 A 
ATOM     74  C   UNL A   1      45.027  26.969  37.340  1.00  0.00     0.020 A 
ATOM     75  C   UNL A   1      46.572  28.524  36.293  1.00  0.00     0.020 A 
ATOM     76  C   UNL A   1      46.328  27.439  37.138  1.00  0.00     0.054 A 
BRANCH  76  77
ATOM     77  S   UNL A   1      47.706  26.584  37.953  1.00  0.00     0.124 S 
ATOM     78  O   UNL A   1      48.243  25.773  36.866  1.00  0.00    -0.237 OA
ATOM     79  O   UNL A   1      48.551  27.691  38.394  1.00  0.00    -0.237 OA
ATOM     80  O   UNL A   1      47.055  25.842  39.029  1.00  0.00    -0.744 OA
ENDBRANCH  76  77
ENDBRANCH  48  71
BRANCH  60  81
ATOM     81  C   UNL A   1      39.924  33.924  37.629  1.00  0.00    -0.014 A 
ATOM     82  C   UNL A   1      40.583  35.160  37.742  1.00  0.00     0.010 A 
ATOM     83  C   UNL A   1      39.089  33.489  38.675  1.00  0.00     0.010 A 
ATOM     84  C   UNL A   1      40.430  35.937  38.893  1.00  0.00     0.020 A 
ATOM     85  C   UNL A   1      38.916  34.274  39.817  1.00  0.00     0.020 A 
ATOM     86  C   UNL A   1      39.599  35.487  39.925  1.00  0.00     0.054 A 
BRANCH  86  87
ATOM     87  S   UNL A   1      39.375  36.536  41.387  1.00  0.00     0.124 S 
ATOM     88  O   UNL A   1      38.336  35.816  42.120  1.00  0.00    -0.237 OA
ATOM     89  O   UNL A   1      40.700  36.524  42.001  1.00  0.00    -0.237 OA
ATOM     90  O   UNL A   1      38.966  37.823  40.829  1.00  0.00    -0.744 OA
ENDBRANCH  86  87
ENDBRANCH  60  81
ENDBRANCH  34  35
ENDBRANCH  26  29
ENDBRANCH  24  25
ENDBRANCH  23  24
ENDBRANCH   1  23
TORSDOF 19
ENDMDL
