MODEL 1
REMARK VINA RESULT:     -12.1      0.000      0.000
REMARK SMILES CC(=O)c1c[nH]c(C(=O)N[C@H]2C=C[C@H](C(=O)NCCCCNC(=O)c3ccc(-c4c5nc(c(-c6ccc(S(=O)(=O)[O-])cc6)c6ccc([nH]6)c(-c6ccc(S(=O)(=O)[O-])cc6)c6nc(c(-c7ccc(S(=O)(=O)[O-])cc7)c7ccc4[nH]7)C=C6)C=C5)cc3)C2)c1
REMARK SMILES IDX 19 1 18 2 17 3 15 4 16 5 14 7 11 8 12 9 85 10 13 11 10 12
REMARK SMILES IDX 8 13 9 14 7 16 4 17 5 18 86 19 6 20 2 22 1 23 3 24 20 25
REMARK SMILES IDX 21 26 22 27 23 28 24 30 25 31 26 32 84 33 27 34 83 35 28 36
REMARK SMILES IDX 29 37 30 38 77 39 31 40 82 41 76 42 78 43 32 44 81 45 75 46
REMARK SMILES IDX 74 47 33 49 63 50 44 51 62 52 45 53 48 54 61 55 79 56 46 57
REMARK SMILES IDX 47 58 60 60 80 61 49 62 34 63 35 64 43 65 36 66 42 67 37 68
REMARK SMILES IDX 38 69 39 70 40 71 41 72 64 73 65 74 73 75 66 76 72 77 67 78
REMARK SMILES IDX 68 79 69 80 70 81 71 82 50 83 51 84 59 85 52 86 58 87 53 88
REMARK SMILES IDX 54 89 55 90 56 91 57 92
REMARK H PARENT 17 6 10 15 6 21 22 29 78 48 48 59
REMARK Flexibility Score: inf
ROOT
ATOM      1  C   UNL A   1      32.256  27.318  26.791  1.00  0.00     0.023 C 
ENDROOT
BRANCH   1   2
ATOM      2  C   UNL A   1      31.539  26.535  25.692  1.00  0.00     0.116 C 
BRANCH   2   3
ATOM      3  N   UNL A   1      32.187  26.717  24.409  1.00  0.00    -0.356 N 
ATOM      4  C   UNL A   1      33.095  25.915  23.779  1.00  0.00     0.227 C 
ATOM      5  O   UNL A   1      33.583  26.304  22.716  1.00  0.00    -0.274 OA
ATOM      6  H   UNL A   1      31.936  27.535  23.921  1.00  0.00     0.163 HD
BRANCH   4   7
ATOM      7  C   UNL A   1      33.435  24.554  24.391  1.00  0.00     0.103 C 
ATOM      8  C   UNL A   1      35.864  24.123  24.301  1.00  0.00     0.106 C 
ATOM      9  C   UNL A   1      35.114  23.385  23.232  1.00  0.00    -0.006 C 
ATOM     10  C   UNL A   1      34.723  24.604  25.214  1.00  0.00     0.047 C 
ATOM     11  C   UNL A   1      33.795  23.602  23.293  1.00  0.00    -0.016 C 
BRANCH   8  12
ATOM     12  N   UNL A   1      36.791  23.184  24.910  1.00  0.00    -0.345 N 
ATOM     13  C   UNL A   1      36.605  21.960  25.505  1.00  0.00     0.268 C 
ATOM     14  O   UNL A   1      37.588  21.372  25.930  1.00  0.00    -0.268 OA
ATOM     15  H   UNL A   1      37.729  23.481  24.893  1.00  0.00     0.164 HD
BRANCH  13  16
ATOM     16  C   UNL A   1      35.298  21.340  25.512  1.00  0.00     0.105 A 
ATOM     17  C   UNL A   1      33.548  19.909  25.381  1.00  0.00     0.035 A 
ATOM     18  C   UNL A   1      33.355  20.723  26.478  1.00  0.00     0.094 A 
ATOM     19  C   UNL A   1      34.674  20.428  24.686  1.00  0.00     0.045 A 
ATOM     20  N   UNL A   1      34.388  21.626  26.512  1.00  0.00    -0.356 N 
ATOM     21  H   UNL A   1      34.469  22.368  27.154  1.00  0.00     0.166 HD
BRANCH  17  22
ATOM     22  C   UNL A   1      32.815  18.695  25.059  1.00  0.00     0.161 C 
ATOM     23  C   UNL A   1      32.731  18.278  23.620  1.00  0.00     0.093 C 
ATOM     24  O   UNL A   1      32.283  18.028  25.946  1.00  0.00    -0.294 OA
ENDBRANCH  17  22
ENDBRANCH  13  16
ENDBRANCH   8  12
ENDBRANCH   4   7
ENDBRANCH   2   3
ENDBRANCH   1   2
BRANCH   1  25
ATOM     25  C   UNL A   1      32.966  28.593  26.308  1.00  0.00     0.023 C 
BRANCH  25  26
ATOM     26  C   UNL A   1      34.442  28.684  26.699  1.00  0.00     0.116 C 
BRANCH  26  27
ATOM     27  N   UNL A   1      34.823  30.062  26.964  1.00  0.00    -0.352 N 
ATOM     28  C   UNL A   1      35.795  30.579  27.783  1.00  0.00     0.251 C 
ATOM     29  H   UNL A   1      34.298  30.736  26.475  1.00  0.00     0.163 HD
ATOM     30  O   UNL A   1      35.670  31.738  28.173  1.00  0.00    -0.269 OA
BRANCH  28  31
ATOM     31  C   UNL A   1      36.975  29.795  28.207  1.00  0.00     0.039 A 
ATOM     32  C   UNL A   1      38.082  29.761  27.344  1.00  0.00     0.014 A 
ATOM     33  C   UNL A   1      36.971  29.010  29.365  1.00  0.00     0.014 A 
ATOM     34  C   UNL A   1      39.199  28.998  27.669  1.00  0.00     0.010 A 
ATOM     35  C   UNL A   1      38.092  28.260  29.704  1.00  0.00     0.010 A 
ATOM     36  C   UNL A   1      39.211  28.271  28.866  1.00  0.00    -0.014 A 
BRANCH  36  37
ATOM     37  C   UNL A   1      40.475  27.657  29.330  1.00  0.00     0.031 A 
ATOM     38  C   UNL A   1      40.809  26.372  28.521  1.00  0.00     0.074 A 
ATOM     39  C   UNL A   1      41.113  28.300  30.359  1.00  0.00     0.049 A 
ATOM     40  N   UNL A   1      41.601  25.383  28.802  1.00  0.00    -0.248 NA
ATOM     41  C   UNL A   1      40.118  26.129  27.218  1.00  0.00     0.031 C 
ATOM     42  C   UNL A   1      40.651  29.565  30.989  1.00  0.00     0.029 A 
ATOM     43  N   UNL A   1      42.258  28.052  31.085  1.00  0.00    -0.354 N 
ATOM     44  C   UNL A   1      41.639  24.514  27.679  1.00  0.00     0.074 A 
ATOM     45  C   UNL A   1      40.653  24.993  26.763  1.00  0.00     0.031 C 
ATOM     46  C   UNL A   1      41.445  29.914  32.027  1.00  0.00     0.029 A 
ATOM     47  C   UNL A   1      42.503  28.937  32.174  1.00  0.00     0.049 A 
ATOM     48  H   UNL A   1      42.868  27.311  30.866  1.00  0.00     0.167 HD
ATOM     49  C   UNL A   1      42.548  23.503  27.536  1.00  0.00     0.031 A 
ATOM     50  C   UNL A   1      43.460  28.851  33.152  1.00  0.00     0.031 A 
ATOM     51  C   UNL A   1      43.334  23.393  28.715  1.00  0.00     0.049 A 
ATOM     52  C   UNL A   1      44.290  27.701  32.764  1.00  0.00     0.074 A 
ATOM     53  C   UNL A   1      43.080  22.876  29.957  1.00  0.00     0.029 A 
ATOM     54  N   UNL A   1      44.467  24.164  28.767  1.00  0.00    -0.354 N 
ATOM     55  N   UNL A   1      45.149  27.695  31.793  1.00  0.00    -0.248 NA
ATOM     56  C   UNL A   1      44.081  26.422  33.455  1.00  0.00     0.031 C 
ATOM     57  C   UNL A   1      43.768  23.755  30.816  1.00  0.00     0.029 A 
ATOM     58  C   UNL A   1      44.557  24.628  30.056  1.00  0.00     0.049 A 
ATOM     59  H   UNL A   1      45.091  24.347  28.029  1.00  0.00     0.167 HD
ATOM     60  C   UNL A   1      45.288  26.356  31.532  1.00  0.00     0.074 A 
ATOM     61  C   UNL A   1      44.898  25.658  32.738  1.00  0.00     0.031 C 
ATOM     62  C   UNL A   1      45.209  25.897  30.258  1.00  0.00     0.031 A 
BRANCH  49  63
ATOM     63  C   UNL A   1      42.992  22.668  26.358  1.00  0.00    -0.014 A 
ATOM     64  C   UNL A   1      42.545  21.319  26.332  1.00  0.00     0.010 A 
ATOM     65  C   UNL A   1      44.070  23.003  25.529  1.00  0.00     0.010 A 
ATOM     66  C   UNL A   1      43.245  20.318  25.656  1.00  0.00     0.020 A 
ATOM     67  C   UNL A   1      44.757  22.004  24.808  1.00  0.00     0.020 A 
ATOM     68  C   UNL A   1      44.377  20.663  24.931  1.00  0.00     0.054 A 
BRANCH  68  69
ATOM     69  S   UNL A   1      45.380  19.321  24.233  1.00  0.00     0.124 S 
ATOM     70  O   UNL A   1      44.855  19.217  22.875  1.00  0.00    -0.237 OA
ATOM     71  O   UNL A   1      46.739  19.852  24.336  1.00  0.00    -0.237 OA
ATOM     72  O   UNL A   1      45.096  18.188  25.109  1.00  0.00    -0.744 OA
ENDBRANCH  68  69
ENDBRANCH  49  63
BRANCH  50  73
ATOM     73  C   UNL A   1      43.792  29.474  34.494  1.00  0.00    -0.014 A 
ATOM     74  C   UNL A   1      44.893  30.284  34.802  1.00  0.00     0.010 A 
ATOM     75  C   UNL A   1      42.849  29.309  35.552  1.00  0.00     0.010 A 
ATOM     76  C   UNL A   1      44.956  31.000  36.029  1.00  0.00     0.020 A 
ATOM     77  C   UNL A   1      42.870  30.042  36.740  1.00  0.00     0.020 A 
ATOM     78  C   UNL A   1      43.916  30.915  36.964  1.00  0.00     0.054 A 
BRANCH  78  79
ATOM     79  S   UNL A   1      43.836  32.026  38.402  1.00  0.00     0.124 S 
ATOM     80  O   UNL A   1      42.655  31.543  39.109  1.00  0.00    -0.237 OA
ATOM     81  O   UNL A   1      45.115  31.787  39.066  1.00  0.00    -0.237 OA
ATOM     82  O   UNL A   1      43.702  33.353  37.800  1.00  0.00    -0.744 OA
ENDBRANCH  78  79
ENDBRANCH  50  73
BRANCH  62  83
ATOM     83  C   UNL A   1      45.464  26.933  29.169  1.00  0.00    -0.014 A 
ATOM     84  C   UNL A   1      46.783  27.194  28.760  1.00  0.00     0.010 A 
ATOM     85  C   UNL A   1      44.440  27.709  28.584  1.00  0.00     0.010 A 
ATOM     86  C   UNL A   1      47.072  28.184  27.809  1.00  0.00     0.020 A 
ATOM     87  C   UNL A   1      44.719  28.703  27.627  1.00  0.00     0.020 A 
ATOM     88  C   UNL A   1      46.039  28.933  27.244  1.00  0.00     0.054 A 
BRANCH  88  89
ATOM     89  S   UNL A   1      46.456  30.210  26.018  1.00  0.00     0.124 S 
ATOM     90  O   UNL A   1      47.714  30.749  26.526  1.00  0.00    -0.237 OA
ATOM     91  O   UNL A   1      46.562  29.438  24.782  1.00  0.00    -0.237 OA
ATOM     92  O   UNL A   1      45.324  31.136  26.075  1.00  0.00    -0.744 OA
ENDBRANCH  88  89
ENDBRANCH  62  83
ENDBRANCH  36  37
ENDBRANCH  28  31
ENDBRANCH  26  27
ENDBRANCH  25  26
ENDBRANCH   1  25
TORSDOF 17
ENDMDL
MODEL 2
REMARK VINA RESULT:     -12.0      1.459      2.443
REMARK SMILES CC(=O)c1c[nH]c(C(=O)N[C@H]2C=C[C@H](C(=O)NCCCCNC(=O)c3ccc(-c4c5nc(c(-c6ccc(S(=O)(=O)[O-])cc6)c6ccc([nH]6)c(-c6ccc(S(=O)(=O)[O-])cc6)c6nc(c(-c7ccc(S(=O)(=O)[O-])cc7)c7ccc4[nH]7)C=C6)C=C5)cc3)C2)c1
REMARK SMILES IDX 19 1 18 2 17 3 15 4 16 5 14 7 11 8 12 9 85 10 13 11 10 12
REMARK SMILES IDX 8 13 9 14 7 16 4 17 5 18 86 19 6 20 2 22 1 23 3 24 20 25
REMARK SMILES IDX 21 26 22 27 23 28 24 30 25 31 26 32 84 33 27 34 83 35 28 36
REMARK SMILES IDX 29 37 30 38 77 39 31 40 82 41 76 42 78 43 32 44 81 45 75 46
REMARK SMILES IDX 74 47 33 49 63 50 44 51 62 52 45 53 48 54 61 55 79 56 46 57
REMARK SMILES IDX 47 58 60 60 80 61 49 62 34 63 35 64 43 65 36 66 42 67 37 68
REMARK SMILES IDX 38 69 39 70 40 71 41 72 64 73 65 74 73 75 66 76 72 77 67 78
REMARK SMILES IDX 68 79 69 80 70 81 71 82 50 83 51 84 59 85 52 86 58 87 53 88
REMARK SMILES IDX 54 89 55 90 56 91 57 92
REMARK H PARENT 17 6 10 15 6 21 22 29 78 48 48 59
REMARK Flexibility Score: inf
ROOT
ATOM      1  C   UNL A   1      32.321  29.197  26.049  1.00  0.00     0.023 C 
ENDROOT
BRANCH   1   2
ATOM      2  C   UNL A   1      31.638  29.555  24.730  1.00  0.00     0.116 C 
BRANCH   2   3
ATOM      3  N   UNL A   1      32.129  28.733  23.643  1.00  0.00    -0.356 N 
ATOM      4  C   UNL A   1      31.669  27.526  23.198  1.00  0.00     0.227 C 
ATOM      5  O   UNL A   1      32.291  26.957  22.300  1.00  0.00    -0.274 OA
ATOM      6  H   UNL A   1      32.903  29.095  23.156  1.00  0.00     0.163 HD
BRANCH   4   7
ATOM      7  C   UNL A   1      30.382  26.954  23.798  1.00  0.00     0.103 C 
ATOM      8  C   UNL A   1      30.869  25.054  25.295  1.00  0.00     0.106 C 
ATOM      9  C   UNL A   1      30.368  24.609  23.953  1.00  0.00    -0.006 C 
ATOM     10  C   UNL A   1      30.562  26.560  25.264  1.00  0.00     0.047 C 
ATOM     11  C   UNL A   1      30.083  25.639  23.148  1.00  0.00    -0.016 C 
BRANCH   8  12
ATOM     12  N   UNL A   1      30.148  24.294  26.303  1.00  0.00    -0.345 N 
ATOM     13  C   UNL A   1      30.463  23.153  26.998  1.00  0.00     0.268 C 
ATOM     14  O   UNL A   1      29.655  22.733  27.812  1.00  0.00    -0.268 OA
ATOM     15  H   UNL A   1      29.266  24.669  26.531  1.00  0.00     0.164 HD
BRANCH  13  16
ATOM     16  C   UNL A   1      31.768  22.544  26.852  1.00  0.00     0.105 A 
ATOM     17  C   UNL A   1      33.850  21.950  26.187  1.00  0.00     0.035 A 
ATOM     18  C   UNL A   1      33.835  21.992  27.566  1.00  0.00     0.094 A 
ATOM     19  C   UNL A   1      32.504  22.122  25.764  1.00  0.00     0.045 A 
ATOM     20  N   UNL A   1      32.555  22.291  27.959  1.00  0.00    -0.356 N 
ATOM     21  H   UNL A   1      32.244  22.321  28.893  1.00  0.00     0.166 HD
BRANCH  17  22
ATOM     22  C   UNL A   1      35.022  21.862  25.332  1.00  0.00     0.161 C 
ATOM     23  C   UNL A   1      34.971  22.527  23.988  1.00  0.00     0.093 C 
ATOM     24  O   UNL A   1      36.029  21.262  25.705  1.00  0.00    -0.294 OA
ENDBRANCH  17  22
ENDBRANCH  13  16
ENDBRANCH   8  12
ENDBRANCH   4   7
ENDBRANCH   2   3
ENDBRANCH   1   2
BRANCH   1  25
ATOM     25  C   UNL A   1      33.791  28.771  25.912  1.00  0.00     0.023 C 
BRANCH  25  26
ATOM     26  C   UNL A   1      34.615  28.909  27.193  1.00  0.00     0.116 C 
BRANCH  26  27
ATOM     27  N   UNL A   1      35.078  30.276  27.368  1.00  0.00    -0.352 N 
ATOM     28  C   UNL A   1      36.125  30.779  28.096  1.00  0.00     0.251 C 
ATOM     29  H   UNL A   1      34.552  30.953  26.884  1.00  0.00     0.163 HD
ATOM     30  O   UNL A   1      36.081  31.960  28.438  1.00  0.00    -0.269 OA
BRANCH  28  31
ATOM     31  C   UNL A   1      37.295  29.958  28.477  1.00  0.00     0.039 A 
ATOM     32  C   UNL A   1      38.408  29.968  27.622  1.00  0.00     0.014 A 
ATOM     33  C   UNL A   1      37.273  29.099  29.581  1.00  0.00     0.014 A 
ATOM     34  C   UNL A   1      39.514  29.173  27.905  1.00  0.00     0.010 A 
ATOM     35  C   UNL A   1      38.383  28.317  29.880  1.00  0.00     0.010 A 
ATOM     36  C   UNL A   1      39.510  28.370  29.052  1.00  0.00    -0.014 A 
BRANCH  36  37
ATOM     37  C   UNL A   1      40.763  27.714  29.486  1.00  0.00     0.031 A 
ATOM     38  C   UNL A   1      41.038  26.423  28.664  1.00  0.00     0.074 A 
ATOM     39  C   UNL A   1      41.444  28.332  30.503  1.00  0.00     0.049 A 
ATOM     40  N   UNL A   1      41.804  25.408  28.923  1.00  0.00    -0.248 NA
ATOM     41  C   UNL A   1      40.311  26.209  27.376  1.00  0.00     0.031 C 
ATOM     42  C   UNL A   1      41.037  29.607  31.148  1.00  0.00     0.029 A 
ATOM     43  N   UNL A   1      42.597  28.044  31.202  1.00  0.00    -0.354 N 
ATOM     44  C   UNL A   1      41.789  24.544  27.796  1.00  0.00     0.074 A 
ATOM     45  C   UNL A   1      40.799  25.059  26.904  1.00  0.00     0.031 C 
ATOM     46  C   UNL A   1      41.865  29.926  32.170  1.00  0.00     0.029 A 
ATOM     47  C   UNL A   1      42.894  28.915  32.289  1.00  0.00     0.049 A 
ATOM     48  H   UNL A   1      43.178  27.285  30.965  1.00  0.00     0.167 HD
ATOM     49  C   UNL A   1      42.662  23.505  27.628  1.00  0.00     0.031 A 
ATOM     50  C   UNL A   1      43.869  28.794  33.245  1.00  0.00     0.031 A 
ATOM     51  C   UNL A   1      43.470  23.365  28.788  1.00  0.00     0.049 A 
ATOM     52  C   UNL A   1      44.653  27.620  32.833  1.00  0.00     0.074 A 
ATOM     53  C   UNL A   1      43.228  22.849  30.033  1.00  0.00     0.029 A 
ATOM     54  N   UNL A   1      44.628  24.098  28.818  1.00  0.00    -0.354 N 
ATOM     55  N   UNL A   1      45.490  27.592  31.843  1.00  0.00    -0.248 NA
ATOM     56  C   UNL A   1      44.419  26.344  33.523  1.00  0.00     0.031 C 
ATOM     57  C   UNL A   1      43.963  23.702  30.881  1.00  0.00     0.029 A 
ATOM     58  C   UNL A   1      44.762  24.553  30.107  1.00  0.00     0.049 A 
ATOM     59  H   UNL A   1      45.241  24.266  28.067  1.00  0.00     0.167 HD
ATOM     60  C   UNL A   1      45.581  26.250  31.573  1.00  0.00     0.074 A 
ATOM     61  C   UNL A   1      45.195  25.558  32.784  1.00  0.00     0.031 C 
ATOM     62  C   UNL A   1      45.458  25.800  30.299  1.00  0.00     0.031 A 
BRANCH  49  63
ATOM     63  C   UNL A   1      43.053  22.662  26.437  1.00  0.00    -0.014 A 
ATOM     64  C   UNL A   1      42.520  21.345  26.389  1.00  0.00     0.010 A 
ATOM     65  C   UNL A   1      44.151  22.940  25.613  1.00  0.00     0.010 A 
ATOM     66  C   UNL A   1      43.154  20.313  25.697  1.00  0.00     0.020 A 
ATOM     67  C   UNL A   1      44.773  21.911  24.876  1.00  0.00     0.020 A 
ATOM     68  C   UNL A   1      44.307  20.596  24.977  1.00  0.00     0.054 A 
BRANCH  68  69
ATOM     69  S   UNL A   1      45.223  19.203  24.258  1.00  0.00     0.124 S 
ATOM     70  O   UNL A   1      46.586  19.723  24.209  1.00  0.00    -0.237 OA
ATOM     71  O   UNL A   1      44.998  18.136  25.232  1.00  0.00    -0.237 OA
ATOM     72  O   UNL A   1      44.577  18.998  22.965  1.00  0.00    -0.744 OA
ENDBRANCH  68  69
ENDBRANCH  49  63
BRANCH  50  73
ATOM     73  C   UNL A   1      44.251  29.399  34.581  1.00  0.00    -0.014 A 
ATOM     74  C   UNL A   1      43.389  29.944  35.541  1.00  0.00     0.010 A 
ATOM     75  C   UNL A   1      45.624  29.338  34.967  1.00  0.00     0.010 A 
ATOM     76  C   UNL A   1      43.851  30.254  36.850  1.00  0.00     0.020 A 
ATOM     77  C   UNL A   1      46.084  29.591  36.261  1.00  0.00     0.020 A 
ATOM     78  C   UNL A   1      45.184  30.023  37.214  1.00  0.00     0.054 A 
BRANCH  78  79
ATOM     79  S   UNL A   1      45.732  30.144  38.944  1.00  0.00     0.124 S 
ATOM     80  O   UNL A   1      46.634  31.291  38.911  1.00  0.00    -0.237 OA
ATOM     81  O   UNL A   1      44.479  30.344  39.666  1.00  0.00    -0.237 OA
ATOM     82  O   UNL A   1      46.375  28.853  39.188  1.00  0.00    -0.744 OA
ENDBRANCH  78  79
ENDBRANCH  50  73
BRANCH  62  83
ATOM     83  C   UNL A   1      45.722  26.832  29.209  1.00  0.00    -0.014 A 
ATOM     84  C   UNL A   1      47.045  27.108  28.825  1.00  0.00     0.010 A 
ATOM     85  C   UNL A   1      44.700  27.592  28.599  1.00  0.00     0.010 A 
ATOM     86  C   UNL A   1      47.341  28.096  27.874  1.00  0.00     0.020 A 
ATOM     87  C   UNL A   1      44.985  28.584  27.642  1.00  0.00     0.020 A 
ATOM     88  C   UNL A   1      46.310  28.828  27.283  1.00  0.00     0.054 A 
BRANCH  88  89
ATOM     89  S   UNL A   1      46.734  30.104  26.058  1.00  0.00     0.124 S 
ATOM     90  O   UNL A   1      45.664  31.082  26.225  1.00  0.00    -0.237 OA
ATOM     91  O   UNL A   1      48.055  30.542  26.504  1.00  0.00    -0.237 OA
ATOM     92  O   UNL A   1      46.717  29.386  24.783  1.00  0.00    -0.744 OA
ENDBRANCH  88  89
ENDBRANCH  62  83
ENDBRANCH  36  37
ENDBRANCH  28  31
ENDBRANCH  26  27
ENDBRANCH  25  26
ENDBRANCH   1  25
TORSDOF 17
ENDMDL
MODEL 3
REMARK VINA RESULT:     -11.9      1.761      3.528
REMARK SMILES CC(=O)c1c[nH]c(C(=O)N[C@H]2C=C[C@H](C(=O)NCCCCNC(=O)c3ccc(-c4c5nc(c(-c6ccc(S(=O)(=O)[O-])cc6)c6ccc([nH]6)c(-c6ccc(S(=O)(=O)[O-])cc6)c6nc(c(-c7ccc(S(=O)(=O)[O-])cc7)c7ccc4[nH]7)C=C6)C=C5)cc3)C2)c1
REMARK SMILES IDX 19 1 18 2 17 3 15 4 16 5 14 7 11 8 12 9 85 10 13 11 10 12
REMARK SMILES IDX 8 13 9 14 7 16 4 17 5 18 86 19 6 20 2 22 1 23 3 24 20 25
REMARK SMILES IDX 21 26 22 27 23 28 24 30 25 31 26 32 84 33 27 34 83 35 28 36
REMARK SMILES IDX 29 37 30 38 77 39 31 40 82 41 76 42 78 43 32 44 81 45 75 46
REMARK SMILES IDX 74 47 33 49 63 50 44 51 62 52 45 53 48 54 61 55 79 56 46 57
REMARK SMILES IDX 47 58 60 60 80 61 49 62 34 63 35 64 43 65 36 66 42 67 37 68
REMARK SMILES IDX 38 69 39 70 40 71 41 72 64 73 65 74 73 75 66 76 72 77 67 78
REMARK SMILES IDX 68 79 69 80 70 81 71 82 50 83 51 84 59 85 52 86 58 87 53 88
REMARK SMILES IDX 54 89 55 90 56 91 57 92
REMARK H PARENT 17 6 10 15 6 21 22 29 78 48 48 59
REMARK Flexibility Score: inf
ROOT
ATOM      1  C   UNL A   1      31.900  27.986  26.937  1.00  0.00     0.023 C 
ENDROOT
BRANCH   1   2
ATOM      2  C   UNL A   1      31.848  26.708  26.101  1.00  0.00     0.116 C 
BRANCH   2   3
ATOM      3  N   UNL A   1      31.680  25.538  26.938  1.00  0.00    -0.356 N 
ATOM      4  C   UNL A   1      32.201  24.285  26.785  1.00  0.00     0.227 C 
ATOM      5  O   UNL A   1      31.861  23.408  27.580  1.00  0.00    -0.274 OA
ATOM      6  H   UNL A   1      31.108  25.664  27.730  1.00  0.00     0.163 HD
BRANCH   4   7
ATOM      7  C   UNL A   1      33.216  24.034  25.667  1.00  0.00     0.103 C 
ATOM      8  C   UNL A   1      32.162  24.249  23.446  1.00  0.00     0.106 C 
ATOM      9  C   UNL A   1      32.348  22.817  23.853  1.00  0.00    -0.006 C 
ATOM     10  C   UNL A   1      33.016  24.988  24.490  1.00  0.00     0.047 C 
ATOM     11  C   UNL A   1      32.940  22.700  25.047  1.00  0.00    -0.016 C 
BRANCH   8  12
ATOM     12  N   UNL A   1      32.616  24.375  22.072  1.00  0.00    -0.345 N 
ATOM     13  C   UNL A   1      32.638  25.437  21.201  1.00  0.00     0.268 C 
ATOM     14  O   UNL A   1      33.097  25.255  20.084  1.00  0.00    -0.268 OA
ATOM     15  H   UNL A   1      32.977  23.541  21.692  1.00  0.00     0.164 HD
BRANCH  13  16
ATOM     16  C   UNL A   1      32.241  26.756  21.646  1.00  0.00     0.105 A 
ATOM     17  C   UNL A   1      31.236  28.526  22.636  1.00  0.00     0.035 A 
ATOM     18  C   UNL A   1      32.597  28.749  22.639  1.00  0.00     0.094 A 
ATOM     19  C   UNL A   1      31.019  27.362  21.850  1.00  0.00     0.045 A 
ATOM     20  N   UNL A   1      33.192  27.700  21.983  1.00  0.00    -0.356 N 
ATOM     21  H   UNL A   1      34.153  27.632  21.781  1.00  0.00     0.166 HD
BRANCH  17  22
ATOM     22  C   UNL A   1      30.231  29.269  23.380  1.00  0.00     0.161 C 
ATOM     23  C   UNL A   1      28.792  29.100  22.991  1.00  0.00     0.093 C 
ATOM     24  O   UNL A   1      30.555  30.010  24.306  1.00  0.00    -0.294 OA
ENDBRANCH  17  22
ENDBRANCH  13  16
ENDBRANCH   8  12
ENDBRANCH   4   7
ENDBRANCH   2   3
ENDBRANCH   1   2
BRANCH   1  25
ATOM     25  C   UNL A   1      33.246  28.236  27.637  1.00  0.00     0.023 C 
BRANCH  25  26
ATOM     26  C   UNL A   1      34.382  28.649  26.699  1.00  0.00     0.116 C 
BRANCH  26  27
ATOM     27  N   UNL A   1      34.763  30.034  26.924  1.00  0.00    -0.352 N 
ATOM     28  C   UNL A   1      35.742  30.573  27.720  1.00  0.00     0.251 C 
ATOM     29  H   UNL A   1      34.232  30.694  26.424  1.00  0.00     0.163 HD
ATOM     30  O   UNL A   1      35.618  31.742  28.081  1.00  0.00    -0.269 OA
BRANCH  28  31
ATOM     31  C   UNL A   1      36.928  29.803  28.152  1.00  0.00     0.039 A 
ATOM     32  C   UNL A   1      38.048  29.797  27.306  1.00  0.00     0.014 A 
ATOM     33  C   UNL A   1      36.919  29.003  29.300  1.00  0.00     0.014 A 
ATOM     34  C   UNL A   1      39.172  29.048  27.639  1.00  0.00     0.010 A 
ATOM     35  C   UNL A   1      38.046  28.267  29.647  1.00  0.00     0.010 A 
ATOM     36  C   UNL A   1      39.178  28.306  28.826  1.00  0.00    -0.014 A 
BRANCH  36  37
ATOM     37  C   UNL A   1      40.444  27.706  29.302  1.00  0.00     0.031 A 
ATOM     38  C   UNL A   1      40.788  26.412  28.512  1.00  0.00     0.074 A 
ATOM     39  C   UNL A   1      41.075  28.367  30.323  1.00  0.00     0.049 A 
ATOM     40  N   UNL A   1      41.585  25.432  28.809  1.00  0.00    -0.248 NA
ATOM     41  C   UNL A   1      40.102  26.146  27.211  1.00  0.00     0.031 C 
ATOM     42  C   UNL A   1      40.605  29.638  30.935  1.00  0.00     0.029 A 
ATOM     43  N   UNL A   1      42.220  28.136  31.055  1.00  0.00    -0.354 N 
ATOM     44  C   UNL A   1      41.631  24.547  27.698  1.00  0.00     0.074 A 
ATOM     45  C   UNL A   1      40.644  25.007  26.773  1.00  0.00     0.031 C 
ATOM     46  C   UNL A   1      41.394  30.007  31.969  1.00  0.00     0.029 A 
ATOM     47  C   UNL A   1      42.457  29.038  32.133  1.00  0.00     0.049 A 
ATOM     48  H   UNL A   1      42.835  27.396  30.848  1.00  0.00     0.167 HD
ATOM     49  C   UNL A   1      42.547  23.540  27.572  1.00  0.00     0.031 A 
ATOM     50  C   UNL A   1      43.413  28.971  33.114  1.00  0.00     0.031 A 
ATOM     51  C   UNL A   1      43.330  23.451  28.754  1.00  0.00     0.049 A 
ATOM     52  C   UNL A   1      44.250  27.821  32.744  1.00  0.00     0.074 A 
ATOM     53  C   UNL A   1      43.077  22.949  30.002  1.00  0.00     0.029 A 
ATOM     54  N   UNL A   1      44.458  24.229  28.797  1.00  0.00    -0.354 N 
ATOM     55  N   UNL A   1      45.112  27.807  31.776  1.00  0.00    -0.248 NA
ATOM     56  C   UNL A   1      44.047  26.550  33.452  1.00  0.00     0.031 C 
ATOM     57  C   UNL A   1      43.757  23.845  30.851  1.00  0.00     0.029 A 
ATOM     58  C   UNL A   1      44.542  24.712  30.080  1.00  0.00     0.049 A 
ATOM     59  H   UNL A   1      45.083  24.406  28.059  1.00  0.00     0.167 HD
ATOM     60  C   UNL A   1      45.260  26.465  31.534  1.00  0.00     0.074 A 
ATOM     61  C   UNL A   1      44.871  25.781  32.748  1.00  0.00     0.031 C 
ATOM     62  C   UNL A   1      45.186  25.988  30.266  1.00  0.00     0.031 A 
BRANCH  49  63
ATOM     63  C   UNL A   1      42.998  22.691  26.407  1.00  0.00    -0.014 A 
ATOM     64  C   UNL A   1      42.494  21.363  26.355  1.00  0.00     0.010 A 
ATOM     65  C   UNL A   1      44.121  22.982  25.621  1.00  0.00     0.010 A 
ATOM     66  C   UNL A   1      43.174  20.335  25.701  1.00  0.00     0.020 A 
ATOM     67  C   UNL A   1      44.791  21.956  24.921  1.00  0.00     0.020 A 
ATOM     68  C   UNL A   1      44.347  20.633  25.021  1.00  0.00     0.054 A 
BRANCH  68  69
ATOM     69  S   UNL A   1      45.317  19.251  24.354  1.00  0.00     0.124 S 
ATOM     70  O   UNL A   1      46.676  19.782  24.391  1.00  0.00    -0.237 OA
ATOM     71  O   UNL A   1      45.042  18.178  25.309  1.00  0.00    -0.237 OA
ATOM     72  O   UNL A   1      44.754  19.046  23.023  1.00  0.00    -0.744 OA
ENDBRANCH  68  69
ENDBRANCH  49  63
BRANCH  50  73
ATOM     73  C   UNL A   1      43.738  29.615  34.448  1.00  0.00    -0.014 A 
ATOM     74  C   UNL A   1      42.852  29.875  35.501  1.00  0.00     0.010 A 
ATOM     75  C   UNL A   1      45.105  29.917  34.721  1.00  0.00     0.010 A 
ATOM     76  C   UNL A   1      43.331  30.257  36.784  1.00  0.00     0.020 A 
ATOM     77  C   UNL A   1      45.597  30.244  35.986  1.00  0.00     0.020 A 
ATOM     78  C   UNL A   1      44.704  30.385  37.029  1.00  0.00     0.054 A 
BRANCH  78  79
ATOM     79  S   UNL A   1      45.354  30.596  38.715  1.00  0.00     0.124 S 
ATOM     80  O   UNL A   1      46.053  31.873  38.627  1.00  0.00    -0.237 OA
ATOM     81  O   UNL A   1      44.143  30.590  39.531  1.00  0.00    -0.237 OA
ATOM     82  O   UNL A   1      46.214  29.426  38.897  1.00  0.00    -0.744 OA
ENDBRANCH  78  79
ENDBRANCH  50  73
BRANCH  62  83
ATOM     83  C   UNL A   1      45.438  27.009  29.163  1.00  0.00    -0.014 A 
ATOM     84  C   UNL A   1      46.754  27.258  28.740  1.00  0.00     0.010 A 
ATOM     85  C   UNL A   1      44.414  27.785  28.578  1.00  0.00     0.010 A 
ATOM     86  C   UNL A   1      47.041  28.236  27.776  1.00  0.00     0.020 A 
ATOM     87  C   UNL A   1      44.689  28.766  27.608  1.00  0.00     0.020 A 
ATOM     88  C   UNL A   1      46.008  28.984  27.210  1.00  0.00     0.054 A 
BRANCH  88  89
ATOM     89  S   UNL A   1      46.421  30.245  25.967  1.00  0.00     0.124 S 
ATOM     90  O   UNL A   1      47.671  30.803  26.474  1.00  0.00    -0.237 OA
ATOM     91  O   UNL A   1      46.542  29.454  24.744  1.00  0.00    -0.237 OA
ATOM     92  O   UNL A   1      45.281  31.162  26.002  1.00  0.00    -0.744 OA
ENDBRANCH  88  89
ENDBRANCH  62  83
ENDBRANCH  36  37
ENDBRANCH  28  31
ENDBRANCH  26  27
ENDBRANCH  25  26
ENDBRANCH   1  25
TORSDOF 17
ENDMDL
