MODEL 1
REMARK VINA RESULT:     -11.4      0.000      0.000
REMARK SMILES NS(=O)(=O)c1ccc(N2N=C(C(=O)NCCCCNC(=O)c3ccc(-c4c5nc(c(-c6ccc(S(=O)(=O)[O-])cc6)c6ccc([nH]6)c(-c6ccc(S(=O)(=O)[O-])cc6)c6nc(c(-c7ccc(S(=O)(=O)[O-])cc7)c7ccc4[nH]7)C=C6)C=C5)cc3)C[C@H]2c2cccs2)cc1
REMARK SMILES IDX 16 1 15 2 14 3 12 4 13 5 11 7 9 8 10 9 83 10 82 11 8 12 5 13
REMARK SMILES IDX 6 14 90 15 7 16 89 17 2 18 3 19 4 20 1 21 84 24 85 25 88 26
REMARK SMILES IDX 86 27 87 28 17 29 18 30 19 31 20 32 21 34 22 35 23 36 81 37
REMARK SMILES IDX 24 38 80 39 25 40 26 41 27 42 74 43 28 44 79 45 73 46 75 47
REMARK SMILES IDX 29 48 78 49 72 50 71 51 30 53 60 54 41 55 59 56 42 57 45 58
REMARK SMILES IDX 58 59 76 60 43 61 44 62 57 64 77 65 46 66 31 67 32 68 40 69
REMARK SMILES IDX 33 70 39 71 34 72 35 73 36 74 37 75 38 76 61 77 62 78 70 79
REMARK SMILES IDX 63 80 69 81 64 82 65 83 66 84 67 85 68 86 47 87 48 88 56 89
REMARK SMILES IDX 49 90 55 91 50 92 51 93 52 94 53 95 54 96
REMARK H PARENT 14 6 1 22 1 23 19 33 75 52 45 63
REMARK Flexibility Score: inf
ROOT
ATOM      1  C   UNL A   1      32.247  26.869  26.238  1.00  0.00     0.023 C 
ENDROOT
BRANCH   1   2
ATOM      2  C   UNL A   1      30.920  26.149  26.453  1.00  0.00     0.116 C 
BRANCH   2   3
ATOM      3  N   UNL A   1      30.228  25.920  25.200  1.00  0.00    -0.351 N 
ATOM      4  C   UNL A   1      30.466  25.137  24.099  1.00  0.00     0.267 C 
ATOM      5  O   UNL A   1      29.692  25.243  23.149  1.00  0.00    -0.268 OA
ATOM      6  H   UNL A   1      29.399  26.446  25.123  1.00  0.00     0.163 HD
BRANCH   4   7
ATOM      7  C   UNL A   1      31.594  24.122  23.998  1.00  0.00     0.128 C 
ATOM      8  N   UNL A   1      32.660  22.304  24.355  1.00  0.00    -0.256 N 
ATOM      9  N   UNL A   1      31.447  22.911  24.451  1.00  0.00    -0.171 NA
ATOM     10  C   UNL A   1      33.669  23.107  23.663  1.00  0.00     0.154 C 
ATOM     11  C   UNL A   1      32.920  24.410  23.379  1.00  0.00     0.097 C 
BRANCH   8  12
ATOM     12  C   UNL A   1      32.764  20.918  24.420  1.00  0.00     0.060 A 
ATOM     13  C   UNL A   1      33.076  18.132  24.568  1.00  0.00     0.082 A 
ATOM     14  C   UNL A   1      32.564  18.712  23.405  1.00  0.00     0.024 A 
ATOM     15  C   UNL A   1      33.399  18.922  25.670  1.00  0.00     0.024 A 
ATOM     16  C   UNL A   1      32.404  20.100  23.340  1.00  0.00     0.029 A 
ATOM     17  C   UNL A   1      33.241  20.305  25.587  1.00  0.00     0.029 A 
BRANCH  13  18
ATOM     18  S   UNL A   1      33.270  16.380  24.663  1.00  0.00     0.238 S 
ATOM     19  O   UNL A   1      33.664  15.869  23.373  1.00  0.00    -0.207 OA
ATOM     20  O   UNL A   1      32.180  15.810  25.425  1.00  0.00    -0.207 OA
BRANCH  18  21
ATOM     21  N   UNL A   1      34.621  16.232  25.653  1.00  0.00    -0.225 NA
ATOM     22  H   UNL A   1      34.381  15.675  26.474  1.00  0.00     0.137 HD
ATOM     23  H   UNL A   1      34.929  17.157  25.948  1.00  0.00     0.137 HD
ENDBRANCH  18  21
ENDBRANCH  13  18
ENDBRANCH   8  12
BRANCH  10  24
ATOM     24  C   UNL A   1      34.997  23.299  24.376  1.00  0.00     0.030 A 
ATOM     25  C   UNL A   1      35.295  24.261  25.329  1.00  0.00     0.017 A 
ATOM     26  S   UNL A   1      36.384  22.343  24.032  1.00  0.00    -0.147 S 
ATOM     27  C   UNL A   1      36.638  24.179  25.797  1.00  0.00     0.012 A 
ATOM     28  C   UNL A   1      37.324  23.143  25.209  1.00  0.00     0.065 A 
ENDBRANCH  10  24
ENDBRANCH   4   7
ENDBRANCH   2   3
ENDBRANCH   1   2
BRANCH   1  29
ATOM     29  C   UNL A   1      32.298  28.273  26.829  1.00  0.00     0.023 C 
BRANCH  29  30
ATOM     30  C   UNL A   1      33.697  28.781  27.162  1.00  0.00     0.116 C 
BRANCH  30  31
ATOM     31  N   UNL A   1      33.718  30.156  27.646  1.00  0.00    -0.352 N 
ATOM     32  C   UNL A   1      34.750  30.814  28.276  1.00  0.00     0.251 C 
ATOM     33  H   UNL A   1      32.894  30.677  27.506  1.00  0.00     0.163 HD
ATOM     34  O   UNL A   1      34.597  31.945  28.723  1.00  0.00    -0.269 OA
BRANCH  32  35
ATOM     35  C   UNL A   1      36.031  30.102  28.434  1.00  0.00     0.039 A 
ATOM     36  C   UNL A   1      36.978  30.164  27.411  1.00  0.00     0.014 A 
ATOM     37  C   UNL A   1      36.331  29.490  29.654  1.00  0.00     0.014 A 
ATOM     38  C   UNL A   1      38.268  29.688  27.645  1.00  0.00     0.010 A 
ATOM     39  C   UNL A   1      37.635  29.091  29.909  1.00  0.00     0.010 A 
ATOM     40  C   UNL A   1      38.620  29.195  28.912  1.00  0.00    -0.014 A 
BRANCH  40  41
ATOM     41  C   UNL A   1      40.007  28.781  29.240  1.00  0.00     0.031 A 
ATOM     42  C   UNL A   1      40.952  29.784  29.843  1.00  0.00     0.074 A 
ATOM     43  C   UNL A   1      40.447  27.554  28.898  1.00  0.00     0.049 A 
ATOM     44  N   UNL A   1      42.238  29.684  30.051  1.00  0.00    -0.248 NA
ATOM     45  C   UNL A   1      40.376  31.083  30.231  1.00  0.00     0.031 C 
ATOM     46  C   UNL A   1      39.638  26.500  28.281  1.00  0.00     0.029 A 
ATOM     47  N   UNL A   1      41.695  26.990  29.003  1.00  0.00    -0.354 N 
ATOM     48  C   UNL A   1      42.631  30.915  30.561  1.00  0.00     0.074 A 
ATOM     49  C   UNL A   1      41.457  31.759  30.592  1.00  0.00     0.031 C 
ATOM     50  C   UNL A   1      40.405  25.417  28.076  1.00  0.00     0.029 A 
ATOM     51  C   UNL A   1      41.771  25.712  28.499  1.00  0.00     0.049 A 
ATOM     52  H   UNL A   1      42.465  27.458  29.402  1.00  0.00     0.167 HD
ATOM     53  C   UNL A   1      43.857  31.303  30.985  1.00  0.00     0.031 A 
ATOM     54  C   UNL A   1      42.824  24.881  28.372  1.00  0.00     0.031 A 
ATOM     55  C   UNL A   1      45.016  30.454  30.972  1.00  0.00     0.049 A 
ATOM     56  C   UNL A   1      44.180  25.338  28.835  1.00  0.00     0.074 A 
ATOM     57  C   UNL A   1      46.291  30.734  31.431  1.00  0.00     0.029 A 
ATOM     58  N   UNL A   1      45.042  29.158  30.479  1.00  0.00    -0.354 N 
ATOM     59  N   UNL A   1      44.523  26.489  29.365  1.00  0.00    -0.248 NA
ATOM     60  C   UNL A   1      45.292  24.387  28.690  1.00  0.00     0.031 C 
ATOM     61  C   UNL A   1      47.100  29.625  31.171  1.00  0.00     0.029 A 
ATOM     62  C   UNL A   1      46.315  28.632  30.605  1.00  0.00     0.049 A 
ATOM     63  H   UNL A   1      44.269  28.684  30.096  1.00  0.00     0.167 HD
ATOM     64  C   UNL A   1      45.880  26.386  29.648  1.00  0.00     0.074 A 
ATOM     65  C   UNL A   1      46.297  25.062  29.235  1.00  0.00     0.031 C 
ATOM     66  C   UNL A   1      46.707  27.304  30.205  1.00  0.00     0.031 A 
BRANCH  53  67
ATOM     67  C   UNL A   1      44.004  32.714  31.489  1.00  0.00    -0.014 A 
ATOM     68  C   UNL A   1      44.300  33.772  30.610  1.00  0.00     0.010 A 
ATOM     69  C   UNL A   1      43.814  32.991  32.855  1.00  0.00     0.010 A 
ATOM     70  C   UNL A   1      44.449  35.073  31.095  1.00  0.00     0.020 A 
ATOM     71  C   UNL A   1      43.933  34.297  33.339  1.00  0.00     0.020 A 
ATOM     72  C   UNL A   1      44.268  35.327  32.459  1.00  0.00     0.054 A 
BRANCH  72  73
ATOM     73  S   UNL A   1      44.451  37.028  33.056  1.00  0.00     0.124 S 
ATOM     74  O   UNL A   1      45.789  37.371  32.580  1.00  0.00    -0.237 OA
ATOM     75  O   UNL A   1      43.352  37.723  32.389  1.00  0.00    -0.237 OA
ATOM     76  O   UNL A   1      44.318  36.904  34.505  1.00  0.00    -0.744 OA
ENDBRANCH  72  73
ENDBRANCH  53  67
BRANCH  54  77
ATOM     77  C   UNL A   1      42.636  23.525  27.784  1.00  0.00    -0.014 A 
ATOM     78  C   UNL A   1      42.780  23.324  26.400  1.00  0.00     0.010 A 
ATOM     79  C   UNL A   1      42.326  22.425  28.604  1.00  0.00     0.010 A 
ATOM     80  C   UNL A   1      42.599  22.054  25.844  1.00  0.00     0.020 A 
ATOM     81  C   UNL A   1      42.171  21.148  28.056  1.00  0.00     0.020 A 
ATOM     82  C   UNL A   1      42.298  20.973  26.677  1.00  0.00     0.054 A 
BRANCH  82  83
ATOM     83  S   UNL A   1      42.119  19.324  25.939  1.00  0.00     0.124 S 
ATOM     84  O   UNL A   1      40.686  19.265  25.672  1.00  0.00    -0.237 OA
ATOM     85  O   UNL A   1      42.979  19.411  24.763  1.00  0.00    -0.237 OA
ATOM     86  O   UNL A   1      42.599  18.427  26.988  1.00  0.00    -0.744 OA
ENDBRANCH  82  83
ENDBRANCH  54  77
BRANCH  66  87
ATOM     87  C   UNL A   1      48.137  26.906  30.455  1.00  0.00    -0.014 A 
ATOM     88  C   UNL A   1      49.087  26.909  29.421  1.00  0.00     0.010 A 
ATOM     89  C   UNL A   1      48.551  26.631  31.771  1.00  0.00     0.010 A 
ATOM     90  C   UNL A   1      50.430  26.635  29.698  1.00  0.00     0.020 A 
ATOM     91  C   UNL A   1      49.896  26.382  32.056  1.00  0.00     0.020 A 
ATOM     92  C   UNL A   1      50.826  26.382  31.016  1.00  0.00     0.054 A 
BRANCH  92  93
ATOM     93  S   UNL A   1      52.587  26.121  31.362  1.00  0.00     0.124 S 
ATOM     94  O   UNL A   1      53.180  26.241  30.033  1.00  0.00    -0.237 OA
ATOM     95  O   UNL A   1      52.896  27.206  32.289  1.00  0.00    -0.237 OA
ATOM     96  O   UNL A   1      52.631  24.781  31.944  1.00  0.00    -0.744 OA
ENDBRANCH  92  93
ENDBRANCH  66  87
ENDBRANCH  40  41
ENDBRANCH  32  35
ENDBRANCH  30  31
ENDBRANCH  29  30
ENDBRANCH   1  29
TORSDOF 18
ENDMDL
MODEL 2
REMARK VINA RESULT:     -11.2      2.381      2.975
REMARK SMILES NS(=O)(=O)c1ccc(N2N=C(C(=O)NCCCCNC(=O)c3ccc(-c4c5nc(c(-c6ccc(S(=O)(=O)[O-])cc6)c6ccc([nH]6)c(-c6ccc(S(=O)(=O)[O-])cc6)c6nc(c(-c7ccc(S(=O)(=O)[O-])cc7)c7ccc4[nH]7)C=C6)C=C5)cc3)C[C@H]2c2cccs2)cc1
REMARK SMILES IDX 16 1 15 2 14 3 12 4 13 5 11 7 9 8 10 9 83 10 82 11 8 12 5 13
REMARK SMILES IDX 6 14 90 15 7 16 89 17 2 18 3 19 4 20 1 21 84 24 85 25 88 26
REMARK SMILES IDX 86 27 87 28 17 29 18 30 19 31 20 32 21 34 22 35 23 36 81 37
REMARK SMILES IDX 24 38 80 39 25 40 26 41 27 42 74 43 28 44 79 45 73 46 75 47
REMARK SMILES IDX 29 48 78 49 72 50 71 51 30 53 60 54 41 55 59 56 42 57 45 58
REMARK SMILES IDX 58 59 76 60 43 61 44 62 57 64 77 65 46 66 31 67 32 68 40 69
REMARK SMILES IDX 33 70 39 71 34 72 35 73 36 74 37 75 38 76 61 77 62 78 70 79
REMARK SMILES IDX 63 80 69 81 64 82 65 83 66 84 67 85 68 86 47 87 48 88 56 89
REMARK SMILES IDX 49 90 55 91 50 92 51 93 52 94 53 95 54 96
REMARK H PARENT 14 6 1 22 1 23 19 33 75 52 45 63
REMARK Flexibility Score: inf
ROOT
ATOM      1  C   UNL A   1      33.307  27.291  26.301  1.00  0.00     0.023 C 
ENDROOT
BRANCH   1   2
ATOM      2  C   UNL A   1      31.958  26.606  26.488  1.00  0.00     0.116 C 
BRANCH   2   3
ATOM      3  N   UNL A   1      31.282  26.403  25.223  1.00  0.00    -0.351 N 
ATOM      4  C   UNL A   1      31.495  25.591  24.138  1.00  0.00     0.267 C 
ATOM      5  O   UNL A   1      30.752  25.730  23.169  1.00  0.00    -0.268 OA
ATOM      6  H   UNL A   1      30.489  26.978  25.119  1.00  0.00     0.163 HD
BRANCH   4   7
ATOM      7  C   UNL A   1      32.561  24.506  24.077  1.00  0.00     0.128 C 
ATOM      8  N   UNL A   1      33.471  22.603  24.422  1.00  0.00    -0.256 N 
ATOM      9  N   UNL A   1      32.296  23.287  24.447  1.00  0.00    -0.171 NA
ATOM     10  C   UNL A   1      34.588  23.368  23.865  1.00  0.00     0.154 C 
ATOM     11  C   UNL A   1      33.952  24.733  23.592  1.00  0.00     0.097 C 
BRANCH   8  12
ATOM     12  C   UNL A   1      33.479  21.211  24.418  1.00  0.00     0.060 A 
ATOM     13  C   UNL A   1      33.586  18.407  24.356  1.00  0.00     0.082 A 
ATOM     14  C   UNL A   1      32.501  19.073  23.780  1.00  0.00     0.024 A 
ATOM     15  C   UNL A   1      34.598  19.123  24.994  1.00  0.00     0.024 A 
ATOM     16  C   UNL A   1      32.450  20.470  23.821  1.00  0.00     0.029 A 
ATOM     17  C   UNL A   1      34.537  20.515  25.019  1.00  0.00     0.029 A 
BRANCH  13  18
ATOM     18  S   UNL A   1      33.653  16.643  24.321  1.00  0.00     0.238 S 
ATOM     19  O   UNL A   1      34.037  16.203  23.002  1.00  0.00    -0.207 OA
ATOM     20  O   UNL A   1      32.510  16.099  25.020  1.00  0.00    -0.207 OA
BRANCH  18  21
ATOM     21  N   UNL A   1      34.969  16.324  25.318  1.00  0.00    -0.225 NA
ATOM     22  H   UNL A   1      35.468  15.506  24.970  1.00  0.00     0.137 HD
ATOM     23  H   UNL A   1      34.640  16.145  26.267  1.00  0.00     0.137 HD
ENDBRANCH  18  21
ENDBRANCH  13  18
ENDBRANCH   8  12
BRANCH  10  24
ATOM     24  C   UNL A   1      35.856  23.432  24.700  1.00  0.00     0.030 A 
ATOM     25  C   UNL A   1      36.055  24.181  25.849  1.00  0.00     0.017 A 
ATOM     26  S   UNL A   1      37.294  22.592  24.272  1.00  0.00    -0.147 S 
ATOM     27  C   UNL A   1      37.365  24.028  26.389  1.00  0.00     0.012 A 
ATOM     28  C   UNL A   1      38.123  23.148  25.655  1.00  0.00     0.065 A 
ENDBRANCH  10  24
ENDBRANCH   4   7
ENDBRANCH   2   3
ENDBRANCH   1   2
BRANCH   1  29
ATOM     29  C   UNL A   1      33.458  28.597  27.073  1.00  0.00     0.023 C 
BRANCH  29  30
ATOM     30  C   UNL A   1      34.892  28.972  27.429  1.00  0.00     0.116 C 
BRANCH  30  31
ATOM     31  N   UNL A   1      34.988  30.056  28.399  1.00  0.00    -0.352 N 
ATOM     32  C   UNL A   1      36.088  30.439  29.133  1.00  0.00     0.251 C 
ATOM     33  H   UNL A   1      34.165  30.576  28.549  1.00  0.00     0.163 HD
ATOM     34  O   UNL A   1      36.002  31.309  29.991  1.00  0.00    -0.269 OA
BRANCH  32  35
ATOM     35  C   UNL A   1      37.363  29.743  28.883  1.00  0.00     0.039 A 
ATOM     36  C   UNL A   1      37.869  29.690  27.584  1.00  0.00     0.014 A 
ATOM     37  C   UNL A   1      38.108  29.264  29.964  1.00  0.00     0.014 A 
ATOM     38  C   UNL A   1      39.172  29.236  27.376  1.00  0.00     0.010 A 
ATOM     39  C   UNL A   1      39.429  28.890  29.764  1.00  0.00     0.010 A 
ATOM     40  C   UNL A   1      39.978  28.881  28.470  1.00  0.00    -0.014 A 
BRANCH  40  41
ATOM     41  C   UNL A   1      41.404  28.499  28.309  1.00  0.00     0.031 A 
ATOM     42  C   UNL A   1      42.460  29.570  28.331  1.00  0.00     0.074 A 
ATOM     43  C   UNL A   1      41.736  27.222  28.033  1.00  0.00     0.049 A 
ATOM     44  N   UNL A   1      43.732  29.479  28.046  1.00  0.00    -0.248 NA
ATOM     45  C   UNL A   1      42.016  30.928  28.689  1.00  0.00     0.031 C 
ATOM     46  C   UNL A   1      40.801  26.096  27.955  1.00  0.00     0.029 A 
ATOM     47  N   UNL A   1      42.955  26.658  27.746  1.00  0.00    -0.354 N 
ATOM     48  C   UNL A   1      44.234  30.770  28.157  1.00  0.00     0.074 A 
ATOM     49  C   UNL A   1      43.121  31.631  28.493  1.00  0.00     0.031 C 
ATOM     50  C   UNL A   1      41.483  24.978  27.655  1.00  0.00     0.029 A 
ATOM     51  C   UNL A   1      42.892  25.312  27.471  1.00  0.00     0.049 A 
ATOM     52  H   UNL A   1      43.797  27.170  27.738  1.00  0.00     0.167 HD
ATOM     53  C   UNL A   1      45.509  31.198  28.011  1.00  0.00     0.031 A 
ATOM     54  C   UNL A   1      43.854  24.448  27.091  1.00  0.00     0.031 A 
ATOM     55  C   UNL A   1      46.615  30.333  27.698  1.00  0.00     0.049 A 
ATOM     56  C   UNL A   1      45.263  24.948  26.920  1.00  0.00     0.074 A 
ATOM     57  C   UNL A   1      47.954  30.660  27.583  1.00  0.00     0.029 A 
ATOM     58  N   UNL A   1      46.510  28.972  27.454  1.00  0.00    -0.354 N 
ATOM     59  N   UNL A   1      45.729  26.164  27.081  1.00  0.00    -0.248 NA
ATOM     60  C   UNL A   1      46.278  23.962  26.522  1.00  0.00     0.031 C 
ATOM     61  C   UNL A   1      48.654  29.505  27.222  1.00  0.00     0.029 A 
ATOM     62  C   UNL A   1      47.758  28.448  27.171  1.00  0.00     0.049 A 
ATOM     63  H   UNL A   1      45.672  28.457  27.479  1.00  0.00     0.167 HD
ATOM     64  C   UNL A   1      47.095  26.081  26.838  1.00  0.00     0.074 A 
ATOM     65  C   UNL A   1      47.383  24.698  26.523  1.00  0.00     0.031 C 
ATOM     66  C   UNL A   1      48.029  27.063  26.878  1.00  0.00     0.031 A 
BRANCH  53  67
ATOM     67  C   UNL A   1      45.773  32.670  28.180  1.00  0.00    -0.014 A 
ATOM     68  C   UNL A   1      46.074  33.213  29.442  1.00  0.00     0.010 A 
ATOM     69  C   UNL A   1      45.751  33.518  27.058  1.00  0.00     0.010 A 
ATOM     70  C   UNL A   1      46.302  34.584  29.587  1.00  0.00     0.020 A 
ATOM     71  C   UNL A   1      46.007  34.885  27.193  1.00  0.00     0.020 A 
ATOM     72  C   UNL A   1      46.263  35.412  28.460  1.00  0.00     0.054 A 
BRANCH  72  73
ATOM     73  S   UNL A   1      46.580  37.184  28.675  1.00  0.00     0.124 S 
ATOM     74  O   UNL A   1      46.541  37.664  27.295  1.00  0.00    -0.237 OA
ATOM     75  O   UNL A   1      45.465  37.609  29.517  1.00  0.00    -0.237 OA
ATOM     76  O   UNL A   1      47.893  37.228  29.313  1.00  0.00    -0.744 OA
ENDBRANCH  72  73
ENDBRANCH  53  67
BRANCH  54  77
ATOM     77  C   UNL A   1      43.519  23.016  26.853  1.00  0.00    -0.014 A 
ATOM     78  C   UNL A   1      43.062  22.208  27.909  1.00  0.00     0.010 A 
ATOM     79  C   UNL A   1      43.644  22.454  25.569  1.00  0.00     0.010 A 
ATOM     80  C   UNL A   1      42.752  20.862  27.691  1.00  0.00     0.020 A 
ATOM     81  C   UNL A   1      43.309  21.116  25.342  1.00  0.00     0.020 A 
ATOM     82  C   UNL A   1      42.875  20.325  26.407  1.00  0.00     0.054 A 
BRANCH  82  83
ATOM     83  S   UNL A   1      42.417  18.590  26.137  1.00  0.00     0.124 S 
ATOM     84  O   UNL A   1      41.016  18.703  25.745  1.00  0.00    -0.237 OA
ATOM     85  O   UNL A   1      43.339  18.182  25.081  1.00  0.00    -0.237 OA
ATOM     86  O   UNL A   1      42.656  17.968  27.437  1.00  0.00    -0.744 OA
ENDBRANCH  82  83
ENDBRANCH  54  77
BRANCH  66  87
ATOM     87  C   UNL A   1      49.463  26.683  26.626  1.00  0.00    -0.014 A 
ATOM     88  C   UNL A   1      50.296  26.246  27.668  1.00  0.00     0.010 A 
ATOM     89  C   UNL A   1      49.945  26.664  25.304  1.00  0.00     0.010 A 
ATOM     90  C   UNL A   1      51.593  25.801  27.393  1.00  0.00     0.020 A 
ATOM     91  C   UNL A   1      51.231  26.196  25.022  1.00  0.00     0.020 A 
ATOM     92  C   UNL A   1      52.048  25.771  26.070  1.00  0.00     0.054 A 
BRANCH  92  93
ATOM     93  S   UNL A   1      53.700  25.104  25.732  1.00  0.00     0.124 S 
ATOM     94  O   UNL A   1      53.404  23.715  25.390  1.00  0.00    -0.237 OA
ATOM     95  O   UNL A   1      54.162  25.939  24.626  1.00  0.00    -0.237 OA
ATOM     96  O   UNL A   1      54.417  25.296  26.990  1.00  0.00    -0.744 OA
ENDBRANCH  92  93
ENDBRANCH  66  87
ENDBRANCH  40  41
ENDBRANCH  32  35
ENDBRANCH  30  31
ENDBRANCH  29  30
ENDBRANCH   1  29
TORSDOF 18
ENDMDL
MODEL 3
REMARK VINA RESULT:     -10.7      2.655      8.167
REMARK SMILES NS(=O)(=O)c1ccc(N2N=C(C(=O)NCCCCNC(=O)c3ccc(-c4c5nc(c(-c6ccc(S(=O)(=O)[O-])cc6)c6ccc([nH]6)c(-c6ccc(S(=O)(=O)[O-])cc6)c6nc(c(-c7ccc(S(=O)(=O)[O-])cc7)c7ccc4[nH]7)C=C6)C=C5)cc3)C[C@H]2c2cccs2)cc1
REMARK SMILES IDX 16 1 15 2 14 3 12 4 13 5 11 7 9 8 10 9 83 10 82 11 8 12 5 13
REMARK SMILES IDX 6 14 90 15 7 16 89 17 2 18 3 19 4 20 1 21 84 24 85 25 88 26
REMARK SMILES IDX 86 27 87 28 17 29 18 30 19 31 20 32 21 34 22 35 23 36 81 37
REMARK SMILES IDX 24 38 80 39 25 40 26 41 27 42 74 43 28 44 79 45 73 46 75 47
REMARK SMILES IDX 29 48 78 49 72 50 71 51 30 53 60 54 41 55 59 56 42 57 45 58
REMARK SMILES IDX 58 59 76 60 43 61 44 62 57 64 77 65 46 66 31 67 32 68 40 69
REMARK SMILES IDX 33 70 39 71 34 72 35 73 36 74 37 75 38 76 61 77 62 78 70 79
REMARK SMILES IDX 63 80 69 81 64 82 65 83 66 84 67 85 68 86 47 87 48 88 56 89
REMARK SMILES IDX 49 90 55 91 50 92 51 93 52 94 53 95 54 96
REMARK H PARENT 14 6 1 22 1 23 19 33 75 52 45 63
REMARK Flexibility Score: inf
ROOT
ATOM      1  C   UNL A   1      31.893  27.470  26.479  1.00  0.00     0.023 C 
ENDROOT
BRANCH   1   2
ATOM      2  C   UNL A   1      31.096  26.171  26.436  1.00  0.00     0.116 C 
BRANCH   2   3
ATOM      3  N   UNL A   1      30.448  25.985  25.153  1.00  0.00    -0.351 N 
ATOM      4  C   UNL A   1      30.736  25.254  24.028  1.00  0.00     0.267 C 
ATOM      5  O   UNL A   1      29.990  25.387  23.059  1.00  0.00    -0.268 OA
ATOM      6  H   UNL A   1      29.611  26.497  25.072  1.00  0.00     0.163 HD
BRANCH   4   7
ATOM      7  C   UNL A   1      31.887  24.265  23.920  1.00  0.00     0.128 C 
ATOM      8  N   UNL A   1      32.985  22.462  24.249  1.00  0.00    -0.256 N 
ATOM      9  N   UNL A   1      31.758  23.040  24.339  1.00  0.00    -0.171 NA
ATOM     10  C   UNL A   1      33.988  23.303  23.596  1.00  0.00     0.154 C 
ATOM     11  C   UNL A   1      33.217  24.598  23.333  1.00  0.00     0.097 C 
BRANCH   8  12
ATOM     12  C   UNL A   1      33.117  21.076  24.279  1.00  0.00     0.060 A 
ATOM     13  C   UNL A   1      33.282  18.275  24.357  1.00  0.00     0.082 A 
ATOM     14  C   UNL A   1      34.013  19.039  25.271  1.00  0.00     0.024 A 
ATOM     15  C   UNL A   1      32.501  18.894  23.383  1.00  0.00     0.024 A 
ATOM     16  C   UNL A   1      33.932  20.434  25.222  1.00  0.00     0.029 A 
ATOM     17  C   UNL A   1      32.424  20.286  23.351  1.00  0.00     0.029 A 
BRANCH  13  18
ATOM     18  S   UNL A   1      33.388  16.514  24.403  1.00  0.00     0.238 S 
ATOM     19  O   UNL A   1      33.763  16.020  23.100  1.00  0.00    -0.207 OA
ATOM     20  O   UNL A   1      32.266  15.978  25.143  1.00  0.00    -0.207 OA
BRANCH  18  21
ATOM     21  N   UNL A   1      34.723  16.270  25.395  1.00  0.00    -0.225 NA
ATOM     22  H   UNL A   1      35.552  16.127  24.819  1.00  0.00     0.137 HD
ATOM     23  H   UNL A   1      34.567  15.448  25.977  1.00  0.00     0.137 HD
ENDBRANCH  18  21
ENDBRANCH  13  18
ENDBRANCH   8  12
BRANCH  10  24
ATOM     24  C   UNL A   1      35.299  23.504  24.338  1.00  0.00     0.030 A 
ATOM     25  C   UNL A   1      36.577  23.330  23.827  1.00  0.00     0.017 A 
ATOM     26  S   UNL A   1      35.370  23.930  26.002  1.00  0.00    -0.147 S 
ATOM     27  C   UNL A   1      37.596  23.588  24.787  1.00  0.00     0.012 A 
ATOM     28  C   UNL A   1      37.075  23.976  25.998  1.00  0.00     0.065 A 
ENDBRANCH  10  24
ENDBRANCH   4   7
ENDBRANCH   2   3
ENDBRANCH   1   2
BRANCH   1  29
ATOM     29  C   UNL A   1      33.402  27.281  26.375  1.00  0.00     0.023 C 
BRANCH  29  30
ATOM     30  C   UNL A   1      34.166  28.480  25.827  1.00  0.00     0.116 C 
BRANCH  30  31
ATOM     31  N   UNL A   1      33.733  29.754  26.390  1.00  0.00    -0.352 N 
ATOM     32  C   UNL A   1      34.350  30.498  27.370  1.00  0.00     0.251 C 
ATOM     33  H   UNL A   1      32.898  30.127  26.024  1.00  0.00     0.163 HD
ATOM     34  O   UNL A   1      33.822  31.507  27.822  1.00  0.00    -0.269 OA
BRANCH  32  35
ATOM     35  C   UNL A   1      35.646  30.021  27.888  1.00  0.00     0.039 A 
ATOM     36  C   UNL A   1      36.813  30.313  27.182  1.00  0.00     0.014 A 
ATOM     37  C   UNL A   1      35.699  29.404  29.140  1.00  0.00     0.014 A 
ATOM     38  C   UNL A   1      38.051  30.066  27.776  1.00  0.00     0.010 A 
ATOM     39  C   UNL A   1      36.929  29.234  29.759  1.00  0.00     0.010 A 
ATOM     40  C   UNL A   1      38.117  29.571  29.089  1.00  0.00    -0.014 A 
BRANCH  40  41
ATOM     41  C   UNL A   1      39.408  29.397  29.802  1.00  0.00     0.031 A 
ATOM     42  C   UNL A   1      40.353  28.313  29.362  1.00  0.00     0.074 A 
ATOM     43  C   UNL A   1      39.678  30.130  30.901  1.00  0.00     0.049 A 
ATOM     44  N   UNL A   1      41.442  27.885  29.942  1.00  0.00    -0.248 NA
ATOM     45  C   UNL A   1      40.003  27.595  28.124  1.00  0.00     0.031 C 
ATOM     46  C   UNL A   1      38.829  31.193  31.447  1.00  0.00     0.029 A 
ATOM     47  N   UNL A   1      40.739  30.078  31.771  1.00  0.00    -0.354 N 
ATOM     48  C   UNL A   1      41.891  26.827  29.160  1.00  0.00     0.074 A 
ATOM     49  C   UNL A   1      40.933  26.652  28.090  1.00  0.00     0.031 C 
ATOM     50  C   UNL A   1      39.409  31.699  32.548  1.00  0.00     0.029 A 
ATOM     51  C   UNL A   1      40.643  30.967  32.816  1.00  0.00     0.049 A 
ATOM     52  H   UNL A   1      41.498  29.460  31.657  1.00  0.00     0.167 HD
ATOM     53  C   UNL A   1      43.010  26.080  29.308  1.00  0.00     0.031 A 
ATOM     54  C   UNL A   1      41.446  31.157  33.883  1.00  0.00     0.031 A 
ATOM     55  C   UNL A   1      43.970  26.273  30.360  1.00  0.00     0.049 A 
ATOM     56  C   UNL A   1      42.677  30.305  34.035  1.00  0.00     0.074 A 
ATOM     57  C   UNL A   1      45.163  25.605  30.566  1.00  0.00     0.029 A 
ATOM     58  N   UNL A   1      43.847  27.203  31.382  1.00  0.00    -0.354 N 
ATOM     59  N   UNL A   1      43.113  29.344  33.256  1.00  0.00    -0.248 NA
ATOM     60  C   UNL A   1      43.528  30.564  35.206  1.00  0.00     0.031 C 
ATOM     61  C   UNL A   1      45.741  26.098  31.739  1.00  0.00     0.029 A 
ATOM     62  C   UNL A   1      44.935  27.114  32.232  1.00  0.00     0.049 A 
ATOM     63  H   UNL A   1      43.097  27.831  31.487  1.00  0.00     0.167 HD
ATOM     64  C   UNL A   1      44.306  28.909  33.822  1.00  0.00     0.074 A 
ATOM     65  C   UNL A   1      44.526  29.712  35.007  1.00  0.00     0.031 C 
ATOM     66  C   UNL A   1      45.147  27.935  33.397  1.00  0.00     0.031 A 
BRANCH  53  67
ATOM     67  C   UNL A   1      43.249  24.980  28.309  1.00  0.00    -0.014 A 
ATOM     68  C   UNL A   1      42.848  23.658  28.576  1.00  0.00     0.010 A 
ATOM     69  C   UNL A   1      43.854  25.276  27.074  1.00  0.00     0.010 A 
ATOM     70  C   UNL A   1      43.090  22.644  27.646  1.00  0.00     0.020 A 
ATOM     71  C   UNL A   1      44.071  24.270  26.128  1.00  0.00     0.020 A 
ATOM     72  C   UNL A   1      43.704  22.957  26.428  1.00  0.00     0.054 A 
BRANCH  72  73
ATOM     73  S   UNL A   1      43.990  21.624  25.234  1.00  0.00     0.124 S 
ATOM     74  O   UNL A   1      42.854  20.741  25.492  1.00  0.00    -0.237 OA
ATOM     75  O   UNL A   1      43.958  22.328  23.954  1.00  0.00    -0.237 OA
ATOM     76  O   UNL A   1      45.294  21.088  25.616  1.00  0.00    -0.744 OA
ENDBRANCH  72  73
ENDBRANCH  53  67
BRANCH  54  77
ATOM     77  C   UNL A   1      41.114  32.204  34.888  1.00  0.00    -0.014 A 
ATOM     78  C   UNL A   1      41.579  33.521  34.722  1.00  0.00     0.010 A 
ATOM     79  C   UNL A   1      40.323  31.896  36.010  1.00  0.00     0.010 A 
ATOM     80  C   UNL A   1      41.274  34.506  35.667  1.00  0.00     0.020 A 
ATOM     81  C   UNL A   1      39.994  32.885  36.943  1.00  0.00     0.020 A 
ATOM     82  C   UNL A   1      40.480  34.181  36.771  1.00  0.00     0.054 A 
BRANCH  82  83
ATOM     83  S   UNL A   1      40.055  35.488  37.956  1.00  0.00     0.124 S 
ATOM     84  O   UNL A   1      39.873  36.643  37.083  1.00  0.00    -0.237 OA
ATOM     85  O   UNL A   1      38.840  34.967  38.577  1.00  0.00    -0.237 OA
ATOM     86  O   UNL A   1      41.220  35.544  38.835  1.00  0.00    -0.744 OA
ENDBRANCH  82  83
ENDBRANCH  54  77
BRANCH  66  87
ATOM     87  C   UNL A   1      46.413  27.705  34.177  1.00  0.00    -0.014 A 
ATOM     88  C   UNL A   1      46.465  26.774  35.226  1.00  0.00     0.010 A 
ATOM     89  C   UNL A   1      47.593  28.360  33.776  1.00  0.00     0.010 A 
ATOM     90  C   UNL A   1      47.678  26.504  35.868  1.00  0.00     0.020 A 
ATOM     91  C   UNL A   1      48.811  28.074  34.398  1.00  0.00     0.020 A 
ATOM     92  C   UNL A   1      48.844  27.150  35.443  1.00  0.00     0.054 A 
BRANCH  92  93
ATOM     93  S   UNL A   1      50.419  26.715  36.231  1.00  0.00     0.124 S 
ATOM     94  O   UNL A   1      50.281  25.272  36.412  1.00  0.00    -0.237 OA
ATOM     95  O   UNL A   1      51.402  27.132  35.234  1.00  0.00    -0.237 OA
ATOM     96  O   UNL A   1      50.419  27.500  37.463  1.00  0.00    -0.744 OA
ENDBRANCH  92  93
ENDBRANCH  66  87
ENDBRANCH  40  41
ENDBRANCH  32  35
ENDBRANCH  30  31
ENDBRANCH  29  30
ENDBRANCH   1  29
TORSDOF 18
ENDMDL
