MODEL 1
REMARK VINA RESULT:     -11.3      0.000      0.000
REMARK SMILES Cc1cn2c(CC(=O)N[C@@H](C(=O)NCCCCNC(=O)c3ccc(-c4c5nc(c(-c6ccc(S(=O)(=O)[O-])cc6)c6ccc([nH]6)c(-c6ccc(S(=O)(=O)[O-])cc6)c6nc(c(-c7ccc(S(=O)(=O)[O-])cc7)c7ccc4[nH]7)C=C6)C=C5)cc3)[C@H](C)O)csc2n1
REMARK SMILES IDX 15 1 14 2 13 3 11 4 12 5 10 7 9 8 7 9 8 10 6 12 5 13 1 14
REMARK SMILES IDX 2 15 3 16 87 17 4 18 86 19 85 20 84 21 81 22 82 23 83 24
REMARK SMILES IDX 16 26 17 27 18 28 19 29 20 31 21 32 22 33 80 34 23 35 79 36
REMARK SMILES IDX 24 37 25 38 26 39 73 40 27 41 78 42 72 43 74 44 28 45 77 46
REMARK SMILES IDX 71 47 70 48 29 50 59 51 40 52 58 53 41 54 44 55 57 56 75 57
REMARK SMILES IDX 42 58 43 59 56 61 76 62 45 63 30 64 31 65 39 66 32 67 38 68
REMARK SMILES IDX 33 69 34 70 35 71 36 72 37 73 60 74 61 75 69 76 62 77 68 78
REMARK SMILES IDX 63 79 64 80 65 81 66 82 67 83 46 84 47 85 55 86 48 87 54 88
REMARK SMILES IDX 49 89 50 90 51 91 52 92 53 93
REMARK H PARENT 13 6 9 11 83 25 18 30 74 49 44 60
REMARK Flexibility Score: inf
ROOT
ATOM      1  C   UNL A   1      37.674  22.042  25.464  1.00  0.00     0.023 C 
ENDROOT
BRANCH   1   2
ATOM      2  C   UNL A   1      36.333  21.324  25.365  1.00  0.00     0.116 C 
BRANCH   2   3
ATOM      3  N   UNL A   1      35.540  21.422  26.570  1.00  0.00    -0.354 N 
ATOM      4  C   UNL A   1      34.267  21.905  26.726  1.00  0.00     0.245 C 
ATOM      5  O   UNL A   1      33.671  21.572  27.753  1.00  0.00    -0.273 OA
ATOM      6  H   UNL A   1      35.974  21.097  27.391  1.00  0.00     0.163 HD
BRANCH   4   7
ATOM      7  C   UNL A   1      33.559  22.683  25.575  1.00  0.00     0.200 C 
BRANCH   7   8
ATOM      8  N   UNL A   1      32.353  23.395  26.053  1.00  0.00    -0.342 N 
ATOM      9  C   UNL A   1      32.116  24.733  26.196  1.00  0.00     0.226 C 
ATOM     10  O   UNL A   1      31.103  25.076  26.807  1.00  0.00    -0.275 OA
ATOM     11  H   UNL A   1      31.603  22.811  26.307  1.00  0.00     0.164 HD
BRANCH   9  12
ATOM     12  C   UNL A   1      33.077  25.773  25.623  1.00  0.00     0.155 C 
BRANCH  12  13
ATOM     13  C   UNL A   1      32.870  26.000  24.158  1.00  0.00     0.044 A 
ATOM     14  C   UNL A   1      28.940  28.904  23.117  1.00  0.00     0.068 C 
ATOM     15  C   UNL A   1      30.146  28.045  23.123  1.00  0.00     0.057 A 
ATOM     16  C   UNL A   1      30.901  27.632  24.211  1.00  0.00     0.117 A 
ATOM     17  N   UNL A   1      30.657  27.532  21.943  1.00  0.00    -0.224 NA
ATOM     18  N   UNL A   1      31.858  26.819  23.682  1.00  0.00    -0.294 N 
ATOM     19  C   UNL A   1      31.694  26.843  22.331  1.00  0.00     0.194 A 
ATOM     20  S   UNL A   1      32.884  25.861  21.540  1.00  0.00    -0.105 S 
ATOM     21  C   UNL A   1      33.539  25.430  23.131  1.00  0.00     0.091 A 
ENDBRANCH  12  13
ENDBRANCH   9  12
ENDBRANCH   7   8
BRANCH   7  22
ATOM     22  C   UNL A   1      33.217  21.726  24.392  1.00  0.00     0.143 C 
ATOM     23  C   UNL A   1      31.974  22.182  23.637  1.00  0.00     0.041 C 
BRANCH  22  24
ATOM     24  O   UNL A   1      32.950  20.384  24.833  1.00  0.00    -0.391 OA
ATOM     25  H   UNL A   1      33.598  19.780  24.440  1.00  0.00     0.211 HD
ENDBRANCH  22  24
ENDBRANCH   7  22
ENDBRANCH   4   7
ENDBRANCH   2   3
ENDBRANCH   1   2
BRANCH   1  26
ATOM     26  C   UNL A   1      37.566  23.567  25.442  1.00  0.00     0.023 C 
BRANCH  26  27
ATOM     27  C   UNL A   1      38.475  24.301  26.426  1.00  0.00     0.116 C 
BRANCH  27  28
ATOM     28  N   UNL A   1      39.893  24.106  26.175  1.00  0.00    -0.352 N 
ATOM     29  C   UNL A   1      40.962  24.822  26.673  1.00  0.00     0.251 C 
ATOM     30  H   UNL A   1      40.121  23.364  25.569  1.00  0.00     0.163 HD
ATOM     31  O   UNL A   1      42.094  24.587  26.281  1.00  0.00    -0.269 OA
BRANCH  29  32
ATOM     32  C   UNL A   1      40.712  25.912  27.645  1.00  0.00     0.039 A 
ATOM     33  C   UNL A   1      39.690  25.752  28.585  1.00  0.00     0.014 A 
ATOM     34  C   UNL A   1      41.506  27.062  27.659  1.00  0.00     0.014 A 
ATOM     35  C   UNL A   1      39.517  26.712  29.585  1.00  0.00     0.010 A 
ATOM     36  C   UNL A   1      41.382  27.977  28.702  1.00  0.00     0.010 A 
ATOM     37  C   UNL A   1      40.388  27.811  29.679  1.00  0.00    -0.014 A 
BRANCH  37  38
ATOM     38  C   UNL A   1      40.279  28.779  30.802  1.00  0.00     0.031 A 
ATOM     39  C   UNL A   1      41.140  28.629  32.028  1.00  0.00     0.074 A 
ATOM     40  C   UNL A   1      39.361  29.766  30.740  1.00  0.00     0.049 A 
ATOM     41  N   UNL A   1      41.175  29.375  33.104  1.00  0.00    -0.248 NA
ATOM     42  C   UNL A   1      42.063  27.483  32.062  1.00  0.00     0.031 C 
ATOM     43  C   UNL A   1      38.418  29.982  29.640  1.00  0.00     0.029 A 
ATOM     44  N   UNL A   1      39.069  30.775  31.626  1.00  0.00    -0.354 N 
ATOM     45  C   UNL A   1      42.107  28.779  33.948  1.00  0.00     0.074 A 
ATOM     46  C   UNL A   1      42.578  27.586  33.279  1.00  0.00     0.031 C 
ATOM     47  C   UNL A   1      37.676  31.071  29.900  1.00  0.00     0.029 A 
ATOM     48  C   UNL A   1      38.065  31.614  31.198  1.00  0.00     0.049 A 
ATOM     49  H   UNL A   1      39.533  30.887  32.487  1.00  0.00     0.167 HD
ATOM     50  C   UNL A   1      42.547  29.198  35.157  1.00  0.00     0.031 A 
ATOM     51  C   UNL A   1      37.520  32.699  31.781  1.00  0.00     0.031 A 
ATOM     52  C   UNL A   1      42.094  30.397  35.812  1.00  0.00     0.049 A 
ATOM     53  C   UNL A   1      38.051  33.162  33.110  1.00  0.00     0.074 A 
ATOM     54  C   UNL A   1      42.533  30.943  37.007  1.00  0.00     0.029 A 
ATOM     55  N   UNL A   1      41.102  31.237  35.330  1.00  0.00    -0.354 N 
ATOM     56  N   UNL A   1      38.993  32.631  33.851  1.00  0.00    -0.248 NA
ATOM     57  C   UNL A   1      37.459  34.385  33.670  1.00  0.00     0.031 C 
ATOM     58  C   UNL A   1      41.772  32.087  37.271  1.00  0.00     0.029 A 
ATOM     59  C   UNL A   1      40.901  32.286  36.212  1.00  0.00     0.049 A 
ATOM     60  H   UNL A   1      40.613  31.107  34.485  1.00  0.00     0.167 HD
ATOM     61  C   UNL A   1      39.127  33.470  34.952  1.00  0.00     0.074 A 
ATOM     62  C   UNL A   1      38.183  34.553  34.768  1.00  0.00     0.031 C 
ATOM     63  C   UNL A   1      39.957  33.355  36.018  1.00  0.00     0.031 A 
BRANCH  50  64
ATOM     64  C   UNL A   1      43.581  28.354  35.857  1.00  0.00    -0.014 A 
ATOM     65  C   UNL A   1      44.955  28.611  35.702  1.00  0.00     0.010 A 
ATOM     66  C   UNL A   1      43.171  27.328  36.729  1.00  0.00     0.010 A 
ATOM     67  C   UNL A   1      45.901  27.839  36.381  1.00  0.00     0.020 A 
ATOM     68  C   UNL A   1      44.115  26.571  37.431  1.00  0.00     0.020 A 
ATOM     69  C   UNL A   1      45.475  26.824  37.241  1.00  0.00     0.054 A 
BRANCH  69  70
ATOM     70  S   UNL A   1      46.725  25.867  38.143  1.00  0.00     0.124 S 
ATOM     71  O   UNL A   1      46.453  26.245  39.527  1.00  0.00    -0.237 OA
ATOM     72  O   UNL A   1      46.389  24.490  37.791  1.00  0.00    -0.237 OA
ATOM     73  O   UNL A   1      47.992  26.353  37.602  1.00  0.00    -0.744 OA
ENDBRANCH  69  70
ENDBRANCH  50  64
BRANCH  51  74
ATOM     74  C   UNL A   1      36.421  33.440  31.102  1.00  0.00    -0.014 A 
ATOM     75  C   UNL A   1      35.192  33.655  31.751  1.00  0.00     0.010 A 
ATOM     76  C   UNL A   1      36.597  33.932  29.795  1.00  0.00     0.010 A 
ATOM     77  C   UNL A   1      34.150  34.319  31.096  1.00  0.00     0.020 A 
ATOM     78  C   UNL A   1      35.569  34.623  29.149  1.00  0.00     0.020 A 
ATOM     79  C   UNL A   1      34.345  34.798  29.798  1.00  0.00     0.054 A 
BRANCH  79  80
ATOM     80  S   UNL A   1      32.995  35.691  28.980  1.00  0.00     0.124 S 
ATOM     81  O   UNL A   1      32.208  36.158  30.117  1.00  0.00    -0.237 OA
ATOM     82  O   UNL A   1      33.705  36.726  28.233  1.00  0.00    -0.237 OA
ATOM     83  O   UNL A   1      32.358  34.666  28.156  1.00  0.00    -0.744 OA
ENDBRANCH  79  80
ENDBRANCH  51  74
BRANCH  63  84
ATOM     84  C   UNL A   1      39.906  34.450  37.051  1.00  0.00    -0.014 A 
ATOM     85  C   UNL A   1      40.634  35.643  36.890  1.00  0.00     0.010 A 
ATOM     86  C   UNL A   1      39.095  34.290  38.189  1.00  0.00     0.010 A 
ATOM     87  C   UNL A   1      40.591  36.634  37.876  1.00  0.00     0.020 A 
ATOM     88  C   UNL A   1      39.027  35.291  39.162  1.00  0.00     0.020 A 
ATOM     89  C   UNL A   1      39.792  36.448  39.008  1.00  0.00     0.054 A 
BRANCH  89  90
ATOM     90  S   UNL A   1      39.743  37.752  40.268  1.00  0.00     0.124 S 
ATOM     91  O   UNL A   1      39.082  37.074  41.380  1.00  0.00    -0.237 OA
ATOM     92  O   UNL A   1      41.156  38.060  40.469  1.00  0.00    -0.237 OA
ATOM     93  O   UNL A   1      38.965  38.815  39.636  1.00  0.00    -0.744 OA
ENDBRANCH  89  90
ENDBRANCH  63  84
ENDBRANCH  37  38
ENDBRANCH  29  32
ENDBRANCH  27  28
ENDBRANCH  26  27
ENDBRANCH   1  26
TORSDOF 19
ENDMDL
MODEL 2
REMARK VINA RESULT:     -11.2      6.278      8.277
REMARK SMILES Cc1cn2c(CC(=O)N[C@@H](C(=O)NCCCCNC(=O)c3ccc(-c4c5nc(c(-c6ccc(S(=O)(=O)[O-])cc6)c6ccc([nH]6)c(-c6ccc(S(=O)(=O)[O-])cc6)c6nc(c(-c7ccc(S(=O)(=O)[O-])cc7)c7ccc4[nH]7)C=C6)C=C5)cc3)[C@H](C)O)csc2n1
REMARK SMILES IDX 15 1 14 2 13 3 11 4 12 5 10 7 9 8 7 9 8 10 6 12 5 13 1 14
REMARK SMILES IDX 2 15 3 16 87 17 4 18 86 19 85 20 84 21 81 22 82 23 83 24
REMARK SMILES IDX 16 26 17 27 18 28 19 29 20 31 21 32 22 33 80 34 23 35 79 36
REMARK SMILES IDX 24 37 25 38 26 39 73 40 27 41 78 42 72 43 74 44 28 45 77 46
REMARK SMILES IDX 71 47 70 48 29 50 59 51 40 52 58 53 41 54 44 55 57 56 75 57
REMARK SMILES IDX 42 58 43 59 56 61 76 62 45 63 30 64 31 65 39 66 32 67 38 68
REMARK SMILES IDX 33 69 34 70 35 71 36 72 37 73 60 74 61 75 69 76 62 77 68 78
REMARK SMILES IDX 63 79 64 80 65 81 66 82 67 83 46 84 47 85 55 86 48 87 54 88
REMARK SMILES IDX 49 89 50 90 51 91 52 92 53 93
REMARK H PARENT 13 6 9 11 83 25 18 30 74 49 44 60
REMARK Flexibility Score: inf
ROOT
ATOM      1  C   UNL A   1      37.160  22.231  24.473  1.00  0.00     0.023 C 
ENDROOT
BRANCH   1   2
ATOM      2  C   UNL A   1      35.779  22.791  24.792  1.00  0.00     0.116 C 
BRANCH   2   3
ATOM      3  N   UNL A   1      35.364  22.551  26.156  1.00  0.00    -0.354 N 
ATOM      4  C   UNL A   1      34.269  21.867  26.616  1.00  0.00     0.245 C 
ATOM      5  O   UNL A   1      34.304  21.492  27.789  1.00  0.00    -0.273 OA
ATOM      6  H   UNL A   1      35.949  22.931  26.850  1.00  0.00     0.163 HD
BRANCH   4   7
ATOM      7  C   UNL A   1      33.129  21.436  25.643  1.00  0.00     0.200 C 
BRANCH   7   8
ATOM      8  N   UNL A   1      31.790  21.642  26.240  1.00  0.00    -0.342 N 
ATOM      9  C   UNL A   1      30.848  22.598  25.987  1.00  0.00     0.226 C 
ATOM     10  O   UNL A   1      29.892  22.681  26.759  1.00  0.00    -0.275 OA
ATOM     11  H   UNL A   1      31.540  20.984  26.929  1.00  0.00     0.164 HD
BRANCH   9  12
ATOM     12  C   UNL A   1      30.976  23.538  24.790  1.00  0.00     0.155 C 
BRANCH  12  13
ATOM     13  C   UNL A   1      31.498  24.887  25.174  1.00  0.00     0.044 A 
ATOM     14  C   UNL A   1      29.235  28.659  22.807  1.00  0.00     0.068 C 
ATOM     15  C   UNL A   1      30.058  27.764  23.650  1.00  0.00     0.057 A 
ATOM     16  C   UNL A   1      29.924  26.396  23.837  1.00  0.00     0.117 A 
ATOM     17  N   UNL A   1      31.128  28.260  24.377  1.00  0.00    -0.224 NA
ATOM     18  N   UNL A   1      30.957  26.054  24.656  1.00  0.00    -0.294 N 
ATOM     19  C   UNL A   1      31.601  27.207  24.984  1.00  0.00     0.194 A 
ATOM     20  S   UNL A   1      32.929  26.900  26.055  1.00  0.00    -0.105 S 
ATOM     21  C   UNL A   1      32.551  25.168  25.974  1.00  0.00     0.091 A 
ENDBRANCH  12  13
ENDBRANCH   9  12
ENDBRANCH   7   8
BRANCH   7  22
ATOM     22  C   UNL A   1      33.322  19.957  25.189  1.00  0.00     0.143 C 
ATOM     23  C   UNL A   1      32.487  19.630  23.956  1.00  0.00     0.041 C 
BRANCH  22  24
ATOM     24  O   UNL A   1      32.928  19.016  26.202  1.00  0.00    -0.391 OA
ATOM     25  H   UNL A   1      32.003  18.763  26.066  1.00  0.00     0.211 HD
ENDBRANCH  22  24
ENDBRANCH   7  22
ENDBRANCH   4   7
ENDBRANCH   2   3
ENDBRANCH   1   2
BRANCH   1  26
ATOM     26  C   UNL A   1      37.632  21.150  25.446  1.00  0.00     0.023 C 
BRANCH  26  27
ATOM     27  C   UNL A   1      39.021  21.370  26.044  1.00  0.00     0.116 C 
BRANCH  27  28
ATOM     28  N   UNL A   1      39.867  20.187  26.016  1.00  0.00    -0.352 N 
ATOM     29  C   UNL A   1      41.235  20.104  26.169  1.00  0.00     0.251 C 
ATOM     30  H   UNL A   1      39.400  19.333  25.870  1.00  0.00     0.163 HD
ATOM     31  O   UNL A   1      41.805  19.035  26.021  1.00  0.00    -0.269 OA
BRANCH  29  32
ATOM     32  C   UNL A   1      42.006  21.335  26.463  1.00  0.00     0.039 A 
ATOM     33  C   UNL A   1      42.325  22.194  25.408  1.00  0.00     0.014 A 
ATOM     34  C   UNL A   1      42.373  21.660  27.771  1.00  0.00     0.014 A 
ATOM     35  C   UNL A   1      42.945  23.417  25.678  1.00  0.00     0.010 A 
ATOM     36  C   UNL A   1      42.920  22.912  28.046  1.00  0.00     0.010 A 
ATOM     37  C   UNL A   1      43.209  23.806  27.003  1.00  0.00    -0.014 A 
BRANCH  37  38
ATOM     38  C   UNL A   1      43.770  25.149  27.307  1.00  0.00     0.031 A 
ATOM     39  C   UNL A   1      45.225  25.446  27.055  1.00  0.00     0.074 A 
ATOM     40  C   UNL A   1      42.977  26.090  27.862  1.00  0.00     0.049 A 
ATOM     41  N   UNL A   1      45.885  26.557  27.265  1.00  0.00    -0.248 NA
ATOM     42  C   UNL A   1      46.050  24.349  26.522  1.00  0.00     0.031 C 
ATOM     43  C   UNL A   1      41.567  25.910  28.219  1.00  0.00     0.029 A 
ATOM     44  N   UNL A   1      43.245  27.387  28.226  1.00  0.00    -0.354 N 
ATOM     45  C   UNL A   1      47.203  26.288  26.908  1.00  0.00     0.074 A 
ATOM     46  C   UNL A   1      47.257  24.896  26.515  1.00  0.00     0.031 C 
ATOM     47  C   UNL A   1      41.088  27.060  28.720  1.00  0.00     0.029 A 
ATOM     48  C   UNL A   1      42.159  28.050  28.750  1.00  0.00     0.049 A 
ATOM     49  H   UNL A   1      44.131  27.803  28.122  1.00  0.00     0.167 HD
ATOM     50  C   UNL A   1      48.265  27.126  26.889  1.00  0.00     0.031 A 
ATOM     51  C   UNL A   1      42.037  29.313  29.202  1.00  0.00     0.031 A 
ATOM     52  C   UNL A   1      48.207  28.515  27.260  1.00  0.00     0.049 A 
ATOM     53  C   UNL A   1      43.225  30.234  29.138  1.00  0.00     0.074 A 
ATOM     54  C   UNL A   1      49.215  29.464  27.206  1.00  0.00     0.029 A 
ATOM     55  N   UNL A   1      47.081  29.157  27.752  1.00  0.00    -0.354 N 
ATOM     56  N   UNL A   1      44.441  29.981  28.716  1.00  0.00    -0.248 NA
ATOM     57  C   UNL A   1      43.017  31.616  29.590  1.00  0.00     0.031 C 
ATOM     58  C   UNL A   1      48.710  30.667  27.710  1.00  0.00     0.029 A 
ATOM     59  C   UNL A   1      47.374  30.483  28.024  1.00  0.00     0.049 A 
ATOM     60  H   UNL A   1      46.203  28.733  27.889  1.00  0.00     0.167 HD
ATOM     61  C   UNL A   1      45.136  31.181  28.826  1.00  0.00     0.074 A 
ATOM     62  C   UNL A   1      44.198  32.161  29.334  1.00  0.00     0.031 C 
ATOM     63  C   UNL A   1      46.432  31.447  28.532  1.00  0.00     0.031 A 
BRANCH  50  64
ATOM     64  C   UNL A   1      49.592  26.564  26.445  1.00  0.00    -0.014 A 
ATOM     65  C   UNL A   1      50.039  26.718  25.120  1.00  0.00     0.010 A 
ATOM     66  C   UNL A   1      50.429  25.928  27.380  1.00  0.00     0.010 A 
ATOM     67  C   UNL A   1      51.284  26.219  24.731  1.00  0.00     0.020 A 
ATOM     68  C   UNL A   1      51.688  25.452  27.000  1.00  0.00     0.020 A 
ATOM     69  C   UNL A   1      52.101  25.589  25.674  1.00  0.00     0.054 A 
BRANCH  69  70
ATOM     70  S   UNL A   1      53.732  24.990  25.149  1.00  0.00     0.124 S 
ATOM     71  O   UNL A   1      53.520  23.546  25.098  1.00  0.00    -0.237 OA
ATOM     72  O   UNL A   1      53.912  25.645  23.857  1.00  0.00    -0.237 OA
ATOM     73  O   UNL A   1      54.627  25.451  26.208  1.00  0.00    -0.744 OA
ENDBRANCH  69  70
ENDBRANCH  50  64
BRANCH  51  74
ATOM     74  C   UNL A   1      40.732  29.793  29.736  1.00  0.00    -0.014 A 
ATOM     75  C   UNL A   1      40.502  29.850  31.123  1.00  0.00     0.010 A 
ATOM     76  C   UNL A   1      39.708  30.192  28.858  1.00  0.00     0.010 A 
ATOM     77  C   UNL A   1      39.263  30.267  31.620  1.00  0.00     0.020 A 
ATOM     78  C   UNL A   1      38.479  30.638  29.352  1.00  0.00     0.020 A 
ATOM     79  C   UNL A   1      38.258  30.657  30.730  1.00  0.00     0.054 A 
BRANCH  79  80
ATOM     80  S   UNL A   1      36.671  31.230  31.395  1.00  0.00     0.124 S 
ATOM     81  O   UNL A   1      36.081  29.988  31.884  1.00  0.00    -0.237 OA
ATOM     82  O   UNL A   1      37.084  32.183  32.423  1.00  0.00    -0.237 OA
ATOM     83  O   UNL A   1      36.010  31.824  30.236  1.00  0.00    -0.744 OA
ENDBRANCH  79  80
ENDBRANCH  51  74
BRANCH  63  84
ATOM     84  C   UNL A   1      46.903  32.866  28.717  1.00  0.00    -0.014 A 
ATOM     85  C   UNL A   1      47.433  33.308  29.942  1.00  0.00     0.010 A 
ATOM     86  C   UNL A   1      46.837  33.763  27.635  1.00  0.00     0.010 A 
ATOM     87  C   UNL A   1      47.839  34.637  30.097  1.00  0.00     0.020 A 
ATOM     88  C   UNL A   1      47.271  35.084  27.777  1.00  0.00     0.020 A 
ATOM     89  C   UNL A   1      47.749  35.517  29.015  1.00  0.00     0.054 A 
BRANCH  89  90
ATOM     90  S   UNL A   1      48.293  37.233  29.235  1.00  0.00     0.124 S 
ATOM     91  O   UNL A   1      49.142  37.132  30.420  1.00  0.00    -0.237 OA
ATOM     92  O   UNL A   1      48.992  37.514  27.983  1.00  0.00    -0.237 OA
ATOM     93  O   UNL A   1      47.047  37.971  29.424  1.00  0.00    -0.744 OA
ENDBRANCH  89  90
ENDBRANCH  63  84
ENDBRANCH  37  38
ENDBRANCH  29  32
ENDBRANCH  27  28
ENDBRANCH  26  27
ENDBRANCH   1  26
TORSDOF 19
ENDMDL
MODEL 3
REMARK VINA RESULT:     -11.0      6.550     12.221
REMARK SMILES Cc1cn2c(CC(=O)N[C@@H](C(=O)NCCCCNC(=O)c3ccc(-c4c5nc(c(-c6ccc(S(=O)(=O)[O-])cc6)c6ccc([nH]6)c(-c6ccc(S(=O)(=O)[O-])cc6)c6nc(c(-c7ccc(S(=O)(=O)[O-])cc7)c7ccc4[nH]7)C=C6)C=C5)cc3)[C@H](C)O)csc2n1
REMARK SMILES IDX 15 1 14 2 13 3 11 4 12 5 10 7 9 8 7 9 8 10 6 12 5 13 1 14
REMARK SMILES IDX 2 15 3 16 87 17 4 18 86 19 85 20 84 21 81 22 82 23 83 24
REMARK SMILES IDX 16 26 17 27 18 28 19 29 20 31 21 32 22 33 80 34 23 35 79 36
REMARK SMILES IDX 24 37 25 38 26 39 73 40 27 41 78 42 72 43 74 44 28 45 77 46
REMARK SMILES IDX 71 47 70 48 29 50 59 51 40 52 58 53 41 54 44 55 57 56 75 57
REMARK SMILES IDX 42 58 43 59 56 61 76 62 45 63 30 64 31 65 39 66 32 67 38 68
REMARK SMILES IDX 33 69 34 70 35 71 36 72 37 73 60 74 61 75 69 76 62 77 68 78
REMARK SMILES IDX 63 79 64 80 65 81 66 82 67 83 46 84 47 85 55 86 48 87 54 88
REMARK SMILES IDX 49 89 50 90 51 91 52 92 53 93
REMARK H PARENT 13 6 9 11 83 25 18 30 74 49 44 60
REMARK Flexibility Score: inf
ROOT
ATOM      1  C   UNL A   1      33.884  29.110  27.631  1.00  0.00     0.023 C 
ENDROOT
BRANCH   1   2
ATOM      2  C   UNL A   1      33.723  28.136  26.469  1.00  0.00     0.116 C 
BRANCH   2   3
ATOM      3  N   UNL A   1      34.168  28.674  25.203  1.00  0.00    -0.354 N 
ATOM      4  C   UNL A   1      33.589  28.559  23.967  1.00  0.00     0.245 C 
ATOM      5  O   UNL A   1      33.940  29.376  23.113  1.00  0.00    -0.273 OA
ATOM      6  H   UNL A   1      35.003  29.195  25.234  1.00  0.00     0.163 HD
BRANCH   4   7
ATOM      7  C   UNL A   1      32.418  27.559  23.722  1.00  0.00     0.200 C 
BRANCH   7   8
ATOM      8  N   UNL A   1      32.807  26.472  22.796  1.00  0.00    -0.342 N 
ATOM      9  C   UNL A   1      33.370  25.254  23.051  1.00  0.00     0.226 C 
ATOM     10  O   UNL A   1      33.791  24.603  22.093  1.00  0.00    -0.275 OA
ATOM     11  H   UNL A   1      32.632  26.657  21.845  1.00  0.00     0.164 HD
BRANCH   9  12
ATOM     12  C   UNL A   1      33.482  24.716  24.476  1.00  0.00     0.155 C 
BRANCH  12  13
ATOM     13  C   UNL A   1      34.565  23.694  24.620  1.00  0.00     0.044 A 
ATOM     14  C   UNL A   1      32.903  18.984  24.495  1.00  0.00     0.068 C 
ATOM     15  C   UNL A   1      33.671  20.249  24.554  1.00  0.00     0.057 A 
ATOM     16  C   UNL A   1      33.218  21.540  24.324  1.00  0.00     0.117 A 
ATOM     17  N   UNL A   1      35.017  20.247  24.878  1.00  0.00    -0.224 NA
ATOM     18  N   UNL A   1      34.299  22.334  24.559  1.00  0.00    -0.294 N 
ATOM     19  C   UNL A   1      35.346  21.508  24.830  1.00  0.00     0.194 A 
ATOM     20  S   UNL A   1      36.797  22.411  25.119  1.00  0.00    -0.105 S 
ATOM     21  C   UNL A   1      35.874  23.908  24.883  1.00  0.00     0.091 A 
ENDBRANCH  12  13
ENDBRANCH   9  12
ENDBRANCH   7   8
BRANCH   7  22
ATOM     22  C   UNL A   1      31.151  28.310  23.209  1.00  0.00     0.143 C 
ATOM     23  C   UNL A   1      29.999  27.350  22.929  1.00  0.00     0.041 C 
BRANCH  22  24
ATOM     24  O   UNL A   1      31.392  29.017  21.981  1.00  0.00    -0.391 OA
ATOM     25  H   UNL A   1      32.317  29.306  21.951  1.00  0.00     0.211 HD
ENDBRANCH  22  24
ENDBRANCH   7  22
ENDBRANCH   4   7
ENDBRANCH   2   3
ENDBRANCH   1   2
BRANCH   1  26
ATOM     26  C   UNL A   1      34.541  30.435  27.242  1.00  0.00     0.023 C 
BRANCH  26  27
ATOM     27  C   UNL A   1      35.694  30.881  28.141  1.00  0.00     0.116 C 
BRANCH  27  28
ATOM     28  N   UNL A   1      35.540  30.488  29.533  1.00  0.00    -0.352 N 
ATOM     29  C   UNL A   1      36.486  29.960  30.387  1.00  0.00     0.251 C 
ATOM     30  H   UNL A   1      34.642  30.617  29.916  1.00  0.00     0.163 HD
ATOM     31  O   UNL A   1      36.164  29.591  31.505  1.00  0.00    -0.269 OA
BRANCH  29  32
ATOM     32  C   UNL A   1      37.880  29.797  29.911  1.00  0.00     0.039 A 
ATOM     33  C   UNL A   1      38.905  29.708  30.856  1.00  0.00     0.014 A 
ATOM     34  C   UNL A   1      38.168  29.691  28.548  1.00  0.00     0.014 A 
ATOM     35  C   UNL A   1      40.209  29.433  30.435  1.00  0.00     0.010 A 
ATOM     36  C   UNL A   1      39.453  29.341  28.137  1.00  0.00     0.010 A 
ATOM     37  C   UNL A   1      40.487  29.205  29.076  1.00  0.00    -0.014 A 
BRANCH  37  38
ATOM     38  C   UNL A   1      41.850  28.808  28.632  1.00  0.00     0.031 A 
ATOM     39  C   UNL A   1      42.954  29.828  28.545  1.00  0.00     0.074 A 
ATOM     40  C   UNL A   1      42.079  27.533  28.255  1.00  0.00     0.049 A 
ATOM     41  N   UNL A   1      44.198  29.663  28.174  1.00  0.00    -0.248 NA
ATOM     42  C   UNL A   1      42.612  31.217  28.896  1.00  0.00     0.031 C 
ATOM     43  C   UNL A   1      41.080  26.461  28.228  1.00  0.00     0.029 A 
ATOM     44  N   UNL A   1      43.229  26.921  27.820  1.00  0.00    -0.354 N 
ATOM     45  C   UNL A   1      44.781  30.924  28.229  1.00  0.00     0.074 A 
ATOM     46  C   UNL A   1      43.743  31.851  28.622  1.00  0.00     0.031 C 
ATOM     47  C   UNL A   1      41.666  25.320  27.830  1.00  0.00     0.029 A 
ATOM     48  C   UNL A   1      43.073  25.581  27.543  1.00  0.00     0.049 A 
ATOM     49  H   UNL A   1      44.085  27.395  27.714  1.00  0.00     0.167 HD
ATOM     50  C   UNL A   1      46.067  31.276  27.995  1.00  0.00     0.031 A 
ATOM     51  C   UNL A   1      43.960  24.666  27.110  1.00  0.00     0.031 A 
ATOM     52  C   UNL A   1      47.105  30.350  27.624  1.00  0.00     0.049 A 
ATOM     53  C   UNL A   1      45.391  25.076  26.890  1.00  0.00     0.074 A 
ATOM     54  C   UNL A   1      48.454  30.600  27.434  1.00  0.00     0.029 A 
ATOM     55  N   UNL A   1      46.913  28.998  27.388  1.00  0.00    -0.354 N 
ATOM     56  N   UNL A   1      45.939  26.259  27.031  1.00  0.00    -0.248 NA
ATOM     57  C   UNL A   1      46.326  24.022  26.474  1.00  0.00     0.031 C 
ATOM     58  C   UNL A   1      49.068  29.408  27.037  1.00  0.00     0.029 A 
ATOM     59  C   UNL A   1      48.114  28.404  27.035  1.00  0.00     0.049 A 
ATOM     60  H   UNL A   1      46.050  28.529  27.459  1.00  0.00     0.167 HD
ATOM     61  C   UNL A   1      47.290  26.086  26.748  1.00  0.00     0.074 A 
ATOM     62  C   UNL A   1      47.476  24.681  26.448  1.00  0.00     0.031 C 
ATOM     63  C   UNL A   1      48.285  27.006  26.738  1.00  0.00     0.031 A 
BRANCH  50  64
ATOM     64  C   UNL A   1      46.432  32.732  28.137  1.00  0.00    -0.014 A 
ATOM     65  C   UNL A   1      46.786  33.273  29.386  1.00  0.00     0.010 A 
ATOM     66  C   UNL A   1      46.479  33.555  26.997  1.00  0.00     0.010 A 
ATOM     67  C   UNL A   1      47.151  34.617  29.498  1.00  0.00     0.020 A 
ATOM     68  C   UNL A   1      46.870  34.893  27.101  1.00  0.00     0.020 A 
ATOM     69  C   UNL A   1      47.191  35.419  28.354  1.00  0.00     0.054 A 
BRANCH  69  70
ATOM     70  S   UNL A   1      47.711  37.149  28.522  1.00  0.00     0.124 S 
ATOM     71  O   UNL A   1      46.656  37.700  29.367  1.00  0.00    -0.237 OA
ATOM     72  O   UNL A   1      49.023  37.028  29.154  1.00  0.00    -0.237 OA
ATOM     73  O   UNL A   1      47.730  37.641  27.147  1.00  0.00    -0.744 OA
ENDBRANCH  69  70
ENDBRANCH  50  64
BRANCH  51  74
ATOM     74  C   UNL A   1      43.529  23.259  26.875  1.00  0.00    -0.014 A 
ATOM     75  C   UNL A   1      42.873  22.532  27.885  1.00  0.00     0.010 A 
ATOM     76  C   UNL A   1      43.777  22.637  25.638  1.00  0.00     0.010 A 
ATOM     77  C   UNL A   1      42.502  21.200  27.673  1.00  0.00     0.020 A 
ATOM     78  C   UNL A   1      43.381  21.316  25.412  1.00  0.00     0.020 A 
ATOM     79  C   UNL A   1      42.761  20.600  26.437  1.00  0.00     0.054 A 
BRANCH  79  80
ATOM     80  S   UNL A   1      42.238  18.884  26.169  1.00  0.00     0.124 S 
ATOM     81  O   UNL A   1      43.145  18.454  25.109  1.00  0.00    -0.237 OA
ATOM     82  O   UNL A   1      42.460  18.276  27.478  1.00  0.00    -0.237 OA
ATOM     83  O   UNL A   1      40.835  19.011  25.780  1.00  0.00    -0.744 OA
ENDBRANCH  79  80
ENDBRANCH  51  74
BRANCH  63  84
ATOM     84  C   UNL A   1      49.675  26.514  26.428  1.00  0.00    -0.014 A 
ATOM     85  C   UNL A   1      50.467  25.892  27.410  1.00  0.00     0.010 A 
ATOM     86  C   UNL A   1      50.183  26.655  25.124  1.00  0.00     0.010 A 
ATOM     87  C   UNL A   1      51.764  25.468  27.105  1.00  0.00     0.020 A 
ATOM     88  C   UNL A   1      51.468  26.203  24.808  1.00  0.00     0.020 A 
ATOM     89  C   UNL A   1      52.257  25.632  25.807  1.00  0.00     0.054 A 
BRANCH  89  90
ATOM     90  S   UNL A   1      53.937  25.062  25.431  1.00  0.00     0.124 S 
ATOM     91  O   UNL A   1      53.775  23.611  25.442  1.00  0.00    -0.237 OA
ATOM     92  O   UNL A   1      54.194  25.656  24.121  1.00  0.00    -0.237 OA
ATOM     93  O   UNL A   1      54.741  25.607  26.522  1.00  0.00    -0.744 OA
ENDBRANCH  89  90
ENDBRANCH  63  84
ENDBRANCH  37  38
ENDBRANCH  29  32
ENDBRANCH  27  28
ENDBRANCH  26  27
ENDBRANCH   1  26
TORSDOF 19
ENDMDL
