MODEL 1
REMARK VINA RESULT:      -8.9      0.000      0.000
REMARK SMILES C[C@@H](C(=O)NCCCCNC(=O)c1ccc(-c2c3nc(c(-c4ccc(S(=O)(=O)[O-])cc4)c4ccc([nH]4)c(-c4ccc(S(=O)(=O)[O-])cc4)c4nc(c(-c5ccc(S(=O)(=O)[O-])cc5)c5ccc2[nH]5)C=C4)C=C3)cc1)c1ccc(-c2ccc3[nH]ccc3c2)cc1
REMARK SMILES IDX 8 1 7 2 6 3 5 4 3 5 4 6 2 8 1 9 73 10 74 11 87 12 75 13
REMARK SMILES IDX 86 14 76 15 77 16 78 17 85 18 79 19 84 20 80 21 83 22 81 23
REMARK SMILES IDX 82 24 9 26 10 27 11 28 12 30 13 31 14 32 72 33 15 34 71 35
REMARK SMILES IDX 16 36 17 37 18 38 65 39 19 40 70 41 64 42 66 43 20 44 69 45
REMARK SMILES IDX 63 46 62 47 21 49 51 50 32 51 50 52 33 53 36 54 49 55 67 56
REMARK SMILES IDX 34 57 35 58 48 60 68 61 37 62 22 63 23 64 31 65 24 66 30 67
REMARK SMILES IDX 25 68 26 69 27 70 28 71 29 72 52 73 53 74 61 75 54 76 60 77
REMARK SMILES IDX 55 78 56 79 57 80 58 81 59 82 38 83 39 84 47 85 40 86 46 87
REMARK SMILES IDX 41 88 42 89 43 90 44 91 45 92
REMARK H PARENT 5 7 81 25 10 29 66 48 36 59
REMARK Flexibility Score: inf
ROOT
ATOM      1  C   UNL A   1      35.481  33.483  28.130  1.00  0.00     0.023 C 
ENDROOT
BRANCH   1   2
ATOM      2  C   UNL A   1      36.889  33.760  28.665  1.00  0.00     0.023 C 
BRANCH   2   3
ATOM      3  C   UNL A   1      37.145  33.216  30.072  1.00  0.00     0.116 C 
BRANCH   3   4
ATOM      4  N   UNL A   1      37.090  34.284  31.046  1.00  0.00    -0.356 N 
ATOM      5  C   UNL A   1      36.516  34.305  32.283  1.00  0.00     0.227 C 
ATOM      6  O   UNL A   1      36.463  35.397  32.853  1.00  0.00    -0.274 OA
ATOM      7  H   UNL A   1      37.535  35.121  30.777  1.00  0.00     0.163 HD
BRANCH   5   8
ATOM      8  C   UNL A   1      36.020  32.997  32.920  1.00  0.00     0.105 C 
ATOM      9  C   UNL A   1      34.999  33.229  34.042  1.00  0.00     0.023 C 
BRANCH   8  10
ATOM     10  C   UNL A   1      37.187  32.150  33.415  1.00  0.00    -0.036 A 
ATOM     11  C   UNL A   1      37.286  30.790  33.090  1.00  0.00     0.005 A 
ATOM     12  C   UNL A   1      38.168  32.717  34.242  1.00  0.00     0.005 A 
ATOM     13  C   UNL A   1      38.373  30.036  33.516  1.00  0.00     0.009 A 
ATOM     14  C   UNL A   1      39.256  31.954  34.677  1.00  0.00     0.009 A 
ATOM     15  C   UNL A   1      39.382  30.614  34.295  1.00  0.00    -0.018 A 
BRANCH  15  16
ATOM     16  C   UNL A   1      40.554  29.817  34.650  1.00  0.00    -0.018 A 
ATOM     17  C   UNL A   1      41.316  30.176  35.773  1.00  0.00     0.011 A 
ATOM     18  C   UNL A   1      40.975  28.751  33.839  1.00  0.00     0.019 A 
ATOM     19  C   UNL A   1      42.484  29.495  36.119  1.00  0.00     0.027 A 
ATOM     20  C   UNL A   1      42.176  28.079  34.142  1.00  0.00    -0.000 A 
ATOM     21  C   UNL A   1      42.889  28.455  35.280  1.00  0.00     0.045 A 
ATOM     22  C   UNL A   1      42.922  27.051  33.502  1.00  0.00     0.028 A 
ATOM     23  N   UNL A   1      43.991  27.635  35.354  1.00  0.00    -0.361 N 
ATOM     24  C   UNL A   1      44.046  26.816  34.259  1.00  0.00     0.083 A 
ATOM     25  H   UNL A   1      44.647  27.638  36.089  1.00  0.00     0.166 HD
ENDBRANCH  15  16
ENDBRANCH   8  10
ENDBRANCH   5   8
ENDBRANCH   3   4
ENDBRANCH   2   3
ENDBRANCH   1   2
BRANCH   1  26
ATOM     26  C   UNL A   1      34.616  32.611  29.032  1.00  0.00     0.116 C 
BRANCH  26  27
ATOM     27  N   UNL A   1      33.899  31.584  28.294  1.00  0.00    -0.352 N 
ATOM     28  C   UNL A   1      34.366  30.384  27.813  1.00  0.00     0.251 C 
ATOM     29  H   UNL A   1      32.950  31.774  28.115  1.00  0.00     0.163 HD
ATOM     30  O   UNL A   1      33.666  29.703  27.077  1.00  0.00    -0.269 OA
BRANCH  28  31
ATOM     31  C   UNL A   1      35.733  29.946  28.169  1.00  0.00     0.039 A 
ATOM     32  C   UNL A   1      36.756  30.102  27.231  1.00  0.00     0.014 A 
ATOM     33  C   UNL A   1      36.007  29.413  29.431  1.00  0.00     0.014 A 
ATOM     34  C   UNL A   1      38.067  29.778  27.583  1.00  0.00     0.010 A 
ATOM     35  C   UNL A   1      37.324  29.167  29.806  1.00  0.00     0.010 A 
ATOM     36  C   UNL A   1      38.368  29.344  28.885  1.00  0.00    -0.014 A 
BRANCH  36  37
ATOM     37  C   UNL A   1      39.768  29.079  29.302  1.00  0.00     0.031 A 
ATOM     38  C   UNL A   1      40.432  27.775  28.947  1.00  0.00     0.074 A 
ATOM     39  C   UNL A   1      40.423  29.987  30.055  1.00  0.00     0.049 A 
ATOM     40  N   UNL A   1      41.626  27.346  29.263  1.00  0.00    -0.248 NA
ATOM     41  C   UNL A   1      39.641  26.818  28.155  1.00  0.00     0.031 C 
ATOM     42  C   UNL A   1      39.874  31.268  30.504  1.00  0.00     0.029 A 
ATOM     43  N   UNL A   1      41.690  29.968  30.582  1.00  0.00    -0.354 N 
ATOM     44  C   UNL A   1      41.725  26.068  28.725  1.00  0.00     0.074 A 
ATOM     45  C   UNL A   1      40.452  25.770  28.107  1.00  0.00     0.031 C 
ATOM     46  C   UNL A   1      40.807  31.922  31.214  1.00  0.00     0.029 A 
ATOM     47  C   UNL A   1      42.003  31.092  31.310  1.00  0.00     0.049 A 
ATOM     48  H   UNL A   1      42.316  29.220  30.451  1.00  0.00     0.167 HD
ATOM     49  C   UNL A   1      42.784  25.224  28.730  1.00  0.00     0.031 A 
ATOM     50  C   UNL A   1      43.121  31.416  31.988  1.00  0.00     0.031 A 
ATOM     51  C   UNL A   1      44.051  25.529  29.340  1.00  0.00     0.049 A 
ATOM     52  C   UNL A   1      44.283  30.460  31.985  1.00  0.00     0.074 A 
ATOM     53  C   UNL A   1      45.206  24.767  29.345  1.00  0.00     0.029 A 
ATOM     54  N   UNL A   1      44.331  26.682  30.058  1.00  0.00    -0.354 N 
ATOM     55  N   UNL A   1      44.381  29.286  31.407  1.00  0.00    -0.248 NA
ATOM     56  C   UNL A   1      45.487  30.877  32.716  1.00  0.00     0.031 C 
ATOM     57  C   UNL A   1      46.164  25.429  30.119  1.00  0.00     0.029 A 
ATOM     58  C   UNL A   1      45.630  26.638  30.537  1.00  0.00     0.049 A 
ATOM     59  H   UNL A   1      43.700  27.423  30.207  1.00  0.00     0.167 HD
ATOM     60  C   UNL A   1      45.669  28.837  31.681  1.00  0.00     0.074 A 
ATOM     61  C   UNL A   1      46.315  29.873  32.461  1.00  0.00     0.031 C 
ATOM     62  C   UNL A   1      46.261  27.673  31.316  1.00  0.00     0.031 A 
BRANCH  49  63
ATOM     63  C   UNL A   1      42.615  23.883  28.064  1.00  0.00    -0.014 A 
ATOM     64  C   UNL A   1      43.101  23.648  26.765  1.00  0.00     0.010 A 
ATOM     65  C   UNL A   1      42.008  22.827  28.768  1.00  0.00     0.010 A 
ATOM     66  C   UNL A   1      42.948  22.393  26.169  1.00  0.00     0.020 A 
ATOM     67  C   UNL A   1      41.881  21.562  28.187  1.00  0.00     0.020 A 
ATOM     68  C   UNL A   1      42.339  21.358  26.884  1.00  0.00     0.054 A 
BRANCH  68  69
ATOM     69  S   UNL A   1      42.184  19.732  26.095  1.00  0.00     0.124 S 
ATOM     70  O   UNL A   1      42.660  18.840  27.150  1.00  0.00    -0.237 OA
ATOM     71  O   UNL A   1      40.754  19.653  25.805  1.00  0.00    -0.237 OA
ATOM     72  O   UNL A   1      43.050  19.828  24.923  1.00  0.00    -0.744 OA
ENDBRANCH  68  69
ENDBRANCH  49  63
BRANCH  50  73
ATOM     73  C   UNL A   1      43.197  32.713  32.718  1.00  0.00    -0.014 A 
ATOM     74  C   UNL A   1      43.683  33.868  32.081  1.00  0.00     0.010 A 
ATOM     75  C   UNL A   1      42.762  32.801  34.054  1.00  0.00     0.010 A 
ATOM     76  C   UNL A   1      43.749  35.082  32.770  1.00  0.00     0.020 A 
ATOM     77  C   UNL A   1      42.798  34.020  34.736  1.00  0.00     0.020 A 
ATOM     78  C   UNL A   1      43.301  35.152  34.093  1.00  0.00     0.054 A 
BRANCH  78  79
ATOM     79  S   UNL A   1      43.342  36.752  34.948  1.00  0.00     0.124 S 
ATOM     80  O   UNL A   1      42.831  36.403  36.270  1.00  0.00    -0.237 OA
ATOM     81  O   UNL A   1      44.759  37.103  34.889  1.00  0.00    -0.237 OA
ATOM     82  O   UNL A   1      42.465  37.594  34.139  1.00  0.00    -0.744 OA
ENDBRANCH  78  79
ENDBRANCH  50  73
BRANCH  62  83
ATOM     83  C   UNL A   1      47.697  27.466  31.725  1.00  0.00    -0.014 A 
ATOM     84  C   UNL A   1      48.030  26.810  32.923  1.00  0.00     0.010 A 
ATOM     85  C   UNL A   1      48.728  27.884  30.864  1.00  0.00     0.010 A 
ATOM     86  C   UNL A   1      49.370  26.606  33.267  1.00  0.00     0.020 A 
ATOM     87  C   UNL A   1      50.067  27.654  31.189  1.00  0.00     0.020 A 
ATOM     88  C   UNL A   1      50.380  27.029  32.397  1.00  0.00     0.054 A 
BRANCH  88  89
ATOM     89  S   UNL A   1      52.108  26.715  32.848  1.00  0.00     0.124 S 
ATOM     90  O   UNL A   1      51.977  26.189  34.203  1.00  0.00    -0.237 OA
ATOM     91  O   UNL A   1      52.533  25.751  31.836  1.00  0.00    -0.237 OA
ATOM     92  O   UNL A   1      52.737  28.030  32.749  1.00  0.00    -0.744 OA
ENDBRANCH  88  89
ENDBRANCH  62  83
ENDBRANCH  36  37
ENDBRANCH  28  31
ENDBRANCH  26  27
ENDBRANCH   1  26
TORSDOF 16
ENDMDL
MODEL 2
REMARK VINA RESULT:      -8.6      4.420     11.433
REMARK SMILES C[C@@H](C(=O)NCCCCNC(=O)c1ccc(-c2c3nc(c(-c4ccc(S(=O)(=O)[O-])cc4)c4ccc([nH]4)c(-c4ccc(S(=O)(=O)[O-])cc4)c4nc(c(-c5ccc(S(=O)(=O)[O-])cc5)c5ccc2[nH]5)C=C4)C=C3)cc1)c1ccc(-c2ccc3[nH]ccc3c2)cc1
REMARK SMILES IDX 8 1 7 2 6 3 5 4 3 5 4 6 2 8 1 9 73 10 74 11 87 12 75 13
REMARK SMILES IDX 86 14 76 15 77 16 78 17 85 18 79 19 84 20 80 21 83 22 81 23
REMARK SMILES IDX 82 24 9 26 10 27 11 28 12 30 13 31 14 32 72 33 15 34 71 35
REMARK SMILES IDX 16 36 17 37 18 38 65 39 19 40 70 41 64 42 66 43 20 44 69 45
REMARK SMILES IDX 63 46 62 47 21 49 51 50 32 51 50 52 33 53 36 54 49 55 67 56
REMARK SMILES IDX 34 57 35 58 48 60 68 61 37 62 22 63 23 64 31 65 24 66 30 67
REMARK SMILES IDX 25 68 26 69 27 70 28 71 29 72 52 73 53 74 61 75 54 76 60 77
REMARK SMILES IDX 55 78 56 79 57 80 58 81 59 82 38 83 39 84 47 85 40 86 46 87
REMARK SMILES IDX 41 88 42 89 43 90 44 91 45 92
REMARK H PARENT 5 7 81 25 10 29 66 48 36 59
REMARK Flexibility Score: inf
ROOT
ATOM      1  C   UNL A   1      40.069  21.674  26.873  1.00  0.00     0.023 C 
ENDROOT
BRANCH   1   2
ATOM      2  C   UNL A   1      39.021  21.424  25.785  1.00  0.00     0.023 C 
BRANCH   2   3
ATOM      3  C   UNL A   1      37.809  22.355  25.855  1.00  0.00     0.116 C 
BRANCH   3   4
ATOM      4  N   UNL A   1      36.751  21.876  24.992  1.00  0.00    -0.356 N 
ATOM      5  C   UNL A   1      35.412  21.773  25.231  1.00  0.00     0.227 C 
ATOM      6  O   UNL A   1      34.741  21.174  24.388  1.00  0.00    -0.274 OA
ATOM      7  H   UNL A   1      37.040  21.580  24.098  1.00  0.00     0.163 HD
BRANCH   5   8
ATOM      8  C   UNL A   1      34.804  22.433  26.479  1.00  0.00     0.105 C 
ATOM      9  C   UNL A   1      33.862  21.497  27.251  1.00  0.00     0.023 C 
BRANCH   8  10
ATOM     10  C   UNL A   1      34.100  23.738  26.123  1.00  0.00    -0.036 A 
ATOM     11  C   UNL A   1      34.759  24.745  25.405  1.00  0.00     0.005 A 
ATOM     12  C   UNL A   1      32.781  23.964  26.546  1.00  0.00     0.005 A 
ATOM     13  C   UNL A   1      34.095  25.915  25.054  1.00  0.00     0.009 A 
ATOM     14  C   UNL A   1      32.119  25.146  26.199  1.00  0.00     0.009 A 
ATOM     15  C   UNL A   1      32.762  26.120  25.427  1.00  0.00    -0.018 A 
BRANCH  15  16
ATOM     16  C   UNL A   1      32.068  27.320  24.965  1.00  0.00    -0.018 A 
ATOM     17  C   UNL A   1      32.330  28.549  25.589  1.00  0.00     0.011 A 
ATOM     18  C   UNL A   1      31.086  27.246  23.964  1.00  0.00     0.019 A 
ATOM     19  C   UNL A   1      31.646  29.714  25.237  1.00  0.00     0.027 A 
ATOM     20  C   UNL A   1      30.351  28.399  23.626  1.00  0.00    -0.000 A 
ATOM     21  C   UNL A   1      30.659  29.604  24.256  1.00  0.00     0.045 A 
ATOM     22  C   UNL A   1      29.256  28.652  22.753  1.00  0.00     0.028 A 
ATOM     23  N   UNL A   1      29.821  30.560  23.731  1.00  0.00    -0.361 N 
ATOM     24  C   UNL A   1      28.937  29.986  22.857  1.00  0.00     0.083 A 
ATOM     25  H   UNL A   1      29.852  31.519  23.952  1.00  0.00     0.166 HD
ENDBRANCH  15  16
ENDBRANCH   8  10
ENDBRANCH   5   8
ENDBRANCH   3   4
ENDBRANCH   2   3
ENDBRANCH   1   2
BRANCH   1  26
ATOM     26  C   UNL A   1      40.304  23.142  27.207  1.00  0.00     0.116 C 
BRANCH  26  27
ATOM     27  N   UNL A   1      40.933  23.869  26.117  1.00  0.00    -0.352 N 
ATOM     28  C   UNL A   1      41.310  25.191  26.067  1.00  0.00     0.251 C 
ATOM     29  H   UNL A   1      41.116  23.344  25.305  1.00  0.00     0.163 HD
ATOM     30  O   UNL A   1      41.689  25.682  25.013  1.00  0.00    -0.269 OA
BRANCH  28  31
ATOM     31  C   UNL A   1      41.219  26.014  27.292  1.00  0.00     0.039 A 
ATOM     32  C   UNL A   1      42.293  26.840  27.629  1.00  0.00     0.014 A 
ATOM     33  C   UNL A   1      40.068  25.992  28.085  1.00  0.00     0.014 A 
ATOM     34  C   UNL A   1      42.187  27.690  28.731  1.00  0.00     0.010 A 
ATOM     35  C   UNL A   1      39.935  26.896  29.134  1.00  0.00     0.010 A 
ATOM     36  C   UNL A   1      40.993  27.754  29.470  1.00  0.00    -0.014 A 
BRANCH  36  37
ATOM     37  C   UNL A   1      40.833  28.714  30.591  1.00  0.00     0.031 A 
ATOM     38  C   UNL A   1      41.678  28.584  31.829  1.00  0.00     0.074 A 
ATOM     39  C   UNL A   1      39.881  29.668  30.519  1.00  0.00     0.049 A 
ATOM     40  N   UNL A   1      41.648  29.296  32.925  1.00  0.00    -0.248 NA
ATOM     41  C   UNL A   1      42.670  27.496  31.848  1.00  0.00     0.031 C 
ATOM     42  C   UNL A   1      38.967  29.869  29.394  1.00  0.00     0.029 A 
ATOM     43  N   UNL A   1      39.520  30.642  31.416  1.00  0.00    -0.354 N 
ATOM     44  C   UNL A   1      42.600  28.735  33.768  1.00  0.00     0.074 A 
ATOM     45  C   UNL A   1      43.155  27.592  33.078  1.00  0.00     0.031 C 
ATOM     46  C   UNL A   1      38.170  30.917  29.655  1.00  0.00     0.029 A 
ATOM     47  C   UNL A   1      38.484  31.436  30.983  1.00  0.00     0.049 A 
ATOM     48  H   UNL A   1      39.961  30.761  32.288  1.00  0.00     0.167 HD
ATOM     49  C   UNL A   1      42.989  29.143  35.000  1.00  0.00     0.031 A 
ATOM     50  C   UNL A   1      37.849  32.458  31.588  1.00  0.00     0.031 A 
ATOM     51  C   UNL A   1      42.439  30.287  35.679  1.00  0.00     0.049 A 
ATOM     52  C   UNL A   1      38.294  32.890  32.958  1.00  0.00     0.074 A 
ATOM     53  C   UNL A   1      42.811  30.819  36.901  1.00  0.00     0.029 A 
ATOM     54  N   UNL A   1      41.399  31.070  35.202  1.00  0.00    -0.354 N 
ATOM     55  N   UNL A   1      39.248  32.391  33.708  1.00  0.00    -0.248 NA
ATOM     56  C   UNL A   1      37.587  34.029  33.558  1.00  0.00     0.031 C 
ATOM     57  C   UNL A   1      41.954  31.885  37.193  1.00  0.00     0.029 A 
ATOM     58  C   UNL A   1      41.095  32.062  36.119  1.00  0.00     0.049 A 
ATOM     59  H   UNL A   1      40.943  30.940  34.339  1.00  0.00     0.167 HD
ATOM     60  C   UNL A   1      39.273  33.174  34.857  1.00  0.00     0.074 A 
ATOM     61  C   UNL A   1      38.251  34.188  34.694  1.00  0.00     0.031 C 
ATOM     62  C   UNL A   1      40.073  33.064  35.947  1.00  0.00     0.031 A 
BRANCH  49  63
ATOM     63  C   UNL A   1      44.057  28.342  35.699  1.00  0.00    -0.014 A 
ATOM     64  C   UNL A   1      45.423  28.608  35.492  1.00  0.00     0.010 A 
ATOM     65  C   UNL A   1      43.688  27.342  36.617  1.00  0.00     0.010 A 
ATOM     66  C   UNL A   1      46.399  27.864  36.160  1.00  0.00     0.020 A 
ATOM     67  C   UNL A   1      44.660  26.616  37.311  1.00  0.00     0.020 A 
ATOM     68  C   UNL A   1      46.011  26.872  37.065  1.00  0.00     0.054 A 
BRANCH  68  69
ATOM     69  S   UNL A   1      47.300  25.945  37.942  1.00  0.00     0.124 S 
ATOM     70  O   UNL A   1      47.226  24.638  37.291  1.00  0.00    -0.237 OA
ATOM     71  O   UNL A   1      48.503  26.721  37.654  1.00  0.00    -0.237 OA
ATOM     72  O   UNL A   1      46.863  25.971  39.335  1.00  0.00    -0.744 OA
ENDBRANCH  68  69
ENDBRANCH  49  63
BRANCH  50  73
ATOM     73  C   UNL A   1      36.728  33.151  30.892  1.00  0.00    -0.014 A 
ATOM     74  C   UNL A   1      35.416  33.077  31.391  1.00  0.00     0.010 A 
ATOM     75  C   UNL A   1      36.975  33.908  29.730  1.00  0.00     0.010 A 
ATOM     76  C   UNL A   1      34.370  33.731  30.735  1.00  0.00     0.020 A 
ATOM     77  C   UNL A   1      35.935  34.589  29.089  1.00  0.00     0.020 A 
ATOM     78  C   UNL A   1      34.637  34.488  29.590  1.00  0.00     0.054 A 
BRANCH  78  79
ATOM     79  S   UNL A   1      33.272  35.376  28.790  1.00  0.00     0.124 S 
ATOM     80  O   UNL A   1      32.520  35.874  29.937  1.00  0.00    -0.237 OA
ATOM     81  O   UNL A   1      33.973  36.387  28.004  1.00  0.00    -0.237 OA
ATOM     82  O   UNL A   1      32.605  34.340  28.005  1.00  0.00    -0.744 OA
ENDBRANCH  78  79
ENDBRANCH  50  73
BRANCH  62  83
ATOM     83  C   UNL A   1      39.904  34.087  37.041  1.00  0.00    -0.014 A 
ATOM     84  C   UNL A   1      40.564  35.327  36.994  1.00  0.00     0.010 A 
ATOM     85  C   UNL A   1      39.022  33.821  38.104  1.00  0.00     0.010 A 
ATOM     86  C   UNL A   1      40.370  36.270  38.008  1.00  0.00     0.020 A 
ATOM     87  C   UNL A   1      38.800  34.772  39.103  1.00  0.00     0.020 A 
ATOM     88  C   UNL A   1      39.488  35.986  39.056  1.00  0.00     0.054 A 
BRANCH  88  89
ATOM     89  S   UNL A   1      39.222  37.242  40.336  1.00  0.00     0.124 S 
ATOM     90  O   UNL A   1      38.415  38.232  39.628  1.00  0.00    -0.237 OA
ATOM     91  O   UNL A   1      38.527  36.494  41.380  1.00  0.00    -0.237 OA
ATOM     92  O   UNL A   1      40.574  37.676  40.684  1.00  0.00    -0.744 OA
ENDBRANCH  88  89
ENDBRANCH  62  83
ENDBRANCH  36  37
ENDBRANCH  28  31
ENDBRANCH  26  27
ENDBRANCH   1  26
TORSDOF 16
ENDMDL
MODEL 3
REMARK VINA RESULT:      -8.6      0.938      8.244
REMARK SMILES C[C@@H](C(=O)NCCCCNC(=O)c1ccc(-c2c3nc(c(-c4ccc(S(=O)(=O)[O-])cc4)c4ccc([nH]4)c(-c4ccc(S(=O)(=O)[O-])cc4)c4nc(c(-c5ccc(S(=O)(=O)[O-])cc5)c5ccc2[nH]5)C=C4)C=C3)cc1)c1ccc(-c2ccc3[nH]ccc3c2)cc1
REMARK SMILES IDX 8 1 7 2 6 3 5 4 3 5 4 6 2 8 1 9 73 10 74 11 87 12 75 13
REMARK SMILES IDX 86 14 76 15 77 16 78 17 85 18 79 19 84 20 80 21 83 22 81 23
REMARK SMILES IDX 82 24 9 26 10 27 11 28 12 30 13 31 14 32 72 33 15 34 71 35
REMARK SMILES IDX 16 36 17 37 18 38 65 39 19 40 70 41 64 42 66 43 20 44 69 45
REMARK SMILES IDX 63 46 62 47 21 49 51 50 32 51 50 52 33 53 36 54 49 55 67 56
REMARK SMILES IDX 34 57 35 58 48 60 68 61 37 62 22 63 23 64 31 65 24 66 30 67
REMARK SMILES IDX 25 68 26 69 27 70 28 71 29 72 52 73 53 74 61 75 54 76 60 77
REMARK SMILES IDX 55 78 56 79 57 80 58 81 59 82 38 83 39 84 47 85 40 86 46 87
REMARK SMILES IDX 41 88 42 89 43 90 44 91 45 92
REMARK H PARENT 5 7 81 25 10 29 66 48 36 59
REMARK Flexibility Score: inf
ROOT
ATOM      1  C   UNL A   1      35.742  33.496  28.882  1.00  0.00     0.023 C 
ENDROOT
BRANCH   1   2
ATOM      2  C   UNL A   1      37.167  33.478  29.444  1.00  0.00     0.023 C 
BRANCH   2   3
ATOM      3  C   UNL A   1      37.273  32.929  30.868  1.00  0.00     0.116 C 
BRANCH   3   4
ATOM      4  N   UNL A   1      37.801  33.937  31.762  1.00  0.00    -0.356 N 
ATOM      5  C   UNL A   1      37.853  33.951  33.125  1.00  0.00     0.227 C 
ATOM      6  O   UNL A   1      38.204  35.006  33.657  1.00  0.00    -0.274 OA
ATOM      7  H   UNL A   1      38.181  34.731  31.321  1.00  0.00     0.163 HD
BRANCH   5   8
ATOM      8  C   UNL A   1      37.532  32.673  33.916  1.00  0.00     0.105 C 
ATOM      9  C   UNL A   1      37.055  32.961  35.347  1.00  0.00     0.023 C 
BRANCH   8  10
ATOM     10  C   UNL A   1      38.720  31.717  33.923  1.00  0.00    -0.036 A 
ATOM     11  C   UNL A   1      39.965  32.111  34.433  1.00  0.00     0.005 A 
ATOM     12  C   UNL A   1      38.591  30.429  33.381  1.00  0.00     0.005 A 
ATOM     13  C   UNL A   1      41.031  31.219  34.469  1.00  0.00     0.009 A 
ATOM     14  C   UNL A   1      39.667  29.537  33.409  1.00  0.00     0.009 A 
ATOM     15  C   UNL A   1      40.889  29.916  33.979  1.00  0.00    -0.018 A 
BRANCH  15  16
ATOM     16  C   UNL A   1      42.001  28.978  34.113  1.00  0.00    -0.018 A 
ATOM     17  C   UNL A   1      41.758  27.601  33.992  1.00  0.00     0.011 A 
ATOM     18  C   UNL A   1      43.290  29.428  34.443  1.00  0.00     0.019 A 
ATOM     19  C   UNL A   1      42.768  26.656  34.181  1.00  0.00     0.027 A 
ATOM     20  C   UNL A   1      44.313  28.490  34.684  1.00  0.00    -0.000 A 
ATOM     21  C   UNL A   1      44.032  27.133  34.531  1.00  0.00     0.045 A 
ATOM     22  C   UNL A   1      45.664  28.591  35.115  1.00  0.00     0.028 A 
ATOM     23  N   UNL A   1      45.195  26.448  34.798  1.00  0.00    -0.361 N 
ATOM     24  C   UNL A   1      46.174  27.317  35.199  1.00  0.00     0.083 A 
ATOM     25  H   UNL A   1      45.306  25.473  34.714  1.00  0.00     0.166 HD
ENDBRANCH  15  16
ENDBRANCH   8  10
ENDBRANCH   5   8
ENDBRANCH   3   4
ENDBRANCH   2   3
ENDBRANCH   1   2
BRANCH   1  26
ATOM     26  C   UNL A   1      34.765  32.564  29.589  1.00  0.00     0.116 C 
BRANCH  26  27
ATOM     27  N   UNL A   1      34.045  31.705  28.663  1.00  0.00    -0.352 N 
ATOM     28  C   UNL A   1      34.498  30.601  27.981  1.00  0.00     0.251 C 
ATOM     29  H   UNL A   1      33.104  31.946  28.504  1.00  0.00     0.163 HD
ATOM     30  O   UNL A   1      33.801  30.081  27.121  1.00  0.00    -0.269 OA
BRANCH  28  31
ATOM     31  C   UNL A   1      35.848  30.073  28.277  1.00  0.00     0.039 A 
ATOM     32  C   UNL A   1      36.822  30.118  27.278  1.00  0.00     0.014 A 
ATOM     33  C   UNL A   1      36.155  29.565  29.542  1.00  0.00     0.014 A 
ATOM     34  C   UNL A   1      38.124  29.708  27.568  1.00  0.00     0.010 A 
ATOM     35  C   UNL A   1      37.470  29.233  29.852  1.00  0.00     0.010 A 
ATOM     36  C   UNL A   1      38.469  29.298  28.868  1.00  0.00    -0.014 A 
BRANCH  36  37
ATOM     37  C   UNL A   1      39.868  28.942  29.216  1.00  0.00     0.031 A 
ATOM     38  C   UNL A   1      40.760  29.947  29.893  1.00  0.00     0.074 A 
ATOM     39  C   UNL A   1      40.353  27.733  28.866  1.00  0.00     0.049 A 
ATOM     40  N   UNL A   1      42.019  29.834  30.231  1.00  0.00    -0.248 NA
ATOM     41  C   UNL A   1      40.170  31.258  30.210  1.00  0.00     0.031 C 
ATOM     42  C   UNL A   1      39.603  26.689  28.165  1.00  0.00     0.029 A 
ATOM     43  N   UNL A   1      41.598  27.181  29.046  1.00  0.00    -0.354 N 
ATOM     44  C   UNL A   1      42.375  31.059  30.782  1.00  0.00     0.074 A 
ATOM     45  C   UNL A   1      41.215  31.918  30.687  1.00  0.00     0.031 C 
ATOM     46  C   UNL A   1      40.392  25.615  28.000  1.00  0.00     0.029 A 
ATOM     47  C   UNL A   1      41.716  25.907  28.541  1.00  0.00     0.049 A 
ATOM     48  H   UNL A   1      42.336  27.653  29.495  1.00  0.00     0.167 HD
ATOM     49  C   UNL A   1      43.555  31.432  31.333  1.00  0.00     0.031 A 
ATOM     50  C   UNL A   1      42.771  25.071  28.505  1.00  0.00     0.031 A 
ATOM     51  C   UNL A   1      44.703  30.570  31.432  1.00  0.00     0.049 A 
ATOM     52  C   UNL A   1      44.074  25.509  29.117  1.00  0.00     0.074 A 
ATOM     53  C   UNL A   1      45.924  30.833  32.028  1.00  0.00     0.029 A 
ATOM     54  N   UNL A   1      44.779  29.284  30.917  1.00  0.00    -0.354 N 
ATOM     55  N   UNL A   1      44.368  26.647  29.700  1.00  0.00    -0.248 NA
ATOM     56  C   UNL A   1      45.183  24.547  29.077  1.00  0.00     0.031 C 
ATOM     57  C   UNL A   1      46.759  29.731  31.820  1.00  0.00     0.029 A 
ATOM     58  C   UNL A   1      46.035  28.753  31.156  1.00  0.00     0.049 A 
ATOM     59  H   UNL A   1      44.048  28.818  30.451  1.00  0.00     0.167 HD
ATOM     60  C   UNL A   1      45.688  26.526  30.122  1.00  0.00     0.074 A 
ATOM     61  C   UNL A   1      46.127  25.199  29.741  1.00  0.00     0.031 C 
ATOM     62  C   UNL A   1      46.463  27.432  30.768  1.00  0.00     0.031 A 
BRANCH  49  63
ATOM     63  C   UNL A   1      43.668  32.838  31.864  1.00  0.00    -0.014 A 
ATOM     64  C   UNL A   1      43.437  33.126  33.221  1.00  0.00     0.010 A 
ATOM     65  C   UNL A   1      44.063  33.877  31.002  1.00  0.00     0.010 A 
ATOM     66  C   UNL A   1      43.560  34.434  33.698  1.00  0.00     0.020 A 
ATOM     67  C   UNL A   1      44.219  35.181  31.482  1.00  0.00     0.020 A 
ATOM     68  C   UNL A   1      43.951  35.453  32.825  1.00  0.00     0.054 A 
BRANCH  68  69
ATOM     69  S   UNL A   1      44.134  37.134  33.480  1.00  0.00     0.124 S 
ATOM     70  O   UNL A   1      42.942  37.265  34.314  1.00  0.00    -0.237 OA
ATOM     71  O   UNL A   1      45.401  37.058  34.204  1.00  0.00    -0.237 OA
ATOM     72  O   UNL A   1      44.152  37.975  32.285  1.00  0.00    -0.744 OA
ENDBRANCH  68  69
ENDBRANCH  49  63
BRANCH  50  73
ATOM     73  C   UNL A   1      42.633  23.729  27.874  1.00  0.00    -0.014 A 
ATOM     74  C   UNL A   1      42.757  23.572  26.483  1.00  0.00     0.010 A 
ATOM     75  C   UNL A   1      42.394  22.592  28.671  1.00  0.00     0.010 A 
ATOM     76  C   UNL A   1      42.629  22.309  25.897  1.00  0.00     0.020 A 
ATOM     77  C   UNL A   1      42.296  21.324  28.092  1.00  0.00     0.020 A 
ATOM     78  C   UNL A   1      42.404  21.192  26.707  1.00  0.00     0.054 A 
BRANCH  78  79
ATOM     79  S   UNL A   1      42.299  19.555  25.929  1.00  0.00     0.124 S 
ATOM     80  O   UNL A   1      43.318  19.648  24.888  1.00  0.00    -0.237 OA
ATOM     81  O   UNL A   1      42.609  18.659  27.041  1.00  0.00    -0.237 OA
ATOM     82  O   UNL A   1      40.920  19.491  25.453  1.00  0.00    -0.744 OA
ENDBRANCH  78  79
ENDBRANCH  50  73
BRANCH  62  83
ATOM     83  C   UNL A   1      47.861  27.011  31.140  1.00  0.00    -0.014 A 
ATOM     84  C   UNL A   1      48.138  26.390  32.370  1.00  0.00     0.010 A 
ATOM     85  C   UNL A   1      48.905  27.190  30.214  1.00  0.00     0.010 A 
ATOM     86  C   UNL A   1      49.440  25.985  32.681  1.00  0.00     0.020 A 
ATOM     87  C   UNL A   1      50.201  26.758  30.507  1.00  0.00     0.020 A 
ATOM     88  C   UNL A   1      50.463  26.171  31.746  1.00  0.00     0.054 A 
BRANCH  88  89
ATOM     89  S   UNL A   1      52.134  25.599  32.157  1.00  0.00     0.124 S 
ATOM     90  O   UNL A   1      52.919  26.131  31.047  1.00  0.00    -0.237 OA
ATOM     91  O   UNL A   1      52.376  26.223  33.455  1.00  0.00    -0.237 OA
ATOM     92  O   UNL A   1      52.005  24.143  32.186  1.00  0.00    -0.744 OA
ENDBRANCH  88  89
ENDBRANCH  62  83
ENDBRANCH  36  37
ENDBRANCH  28  31
ENDBRANCH  26  27
ENDBRANCH   1  26
TORSDOF 16
ENDMDL
