MODEL 1
REMARK VINA RESULT:     -11.3      0.000      0.000
REMARK SMILES O=C(Cc1ccccc1[C@H]1CCC[NH2+]1)NCCCCNC(=O)c1ccc(-c2c3nc(c(-c4ccc(S(=O)(=O)[O-])cc4)c4ccc([nH]4)c(-c4ccc(S(=O)(=O)[O-])cc4)c4nc(c(-c5ccc(S(=O)(=O)[O-])cc5)c5ccc2[nH]5)C=C4)C=C3)cc1
REMARK SMILES IDX 18 1 17 2 16 3 15 4 1 5 2 6 3 8 4 9 5 10 9 11 6 12 8 13 7 14
REMARK SMILES IDX 10 15 11 16 14 17 12 18 13 19 19 22 20 23 21 24 22 26 23 27
REMARK SMILES IDX 24 28 82 29 25 30 81 31 26 32 27 33 28 34 75 35 29 36 80 37
REMARK SMILES IDX 74 38 76 39 30 40 79 41 73 42 72 43 31 45 61 46 42 47 60 48
REMARK SMILES IDX 43 49 46 50 59 51 77 52 44 53 45 54 58 56 78 57 47 58 32 59
REMARK SMILES IDX 33 60 41 61 34 62 40 63 35 64 36 65 37 66 38 67 39 68 62 69
REMARK SMILES IDX 63 70 71 71 64 72 70 73 65 74 66 75 67 76 68 77 69 78 48 79
REMARK SMILES IDX 49 80 57 81 50 82 56 83 51 84 52 85 53 86 54 87 55 88
REMARK H PARENT 15 7 14 20 14 21 20 25 76 44 46 55
REMARK Flexibility Score: inf
ROOT
ATOM      1  C   UNL A   1      40.695  22.152  27.413  1.00  0.00     0.023 C 
ENDROOT
BRANCH   1   2
ATOM      2  C   UNL A   1      39.417  22.805  26.876  1.00  0.00     0.023 C 
BRANCH   2   3
ATOM      3  C   UNL A   1      38.679  22.005  25.806  1.00  0.00     0.116 C 
BRANCH   3   4
ATOM      4  N   UNL A   1      37.243  22.091  25.958  1.00  0.00    -0.356 N 
ATOM      5  O   UNL A   1      36.765  20.052  25.006  1.00  0.00    -0.275 OA
ATOM      6  C   UNL A   1      36.386  21.086  25.550  1.00  0.00     0.224 C 
ATOM      7  H   UNL A   1      36.860  22.899  26.370  1.00  0.00     0.163 HD
BRANCH   6   8
ATOM      8  C   UNL A   1      34.923  21.387  25.828  1.00  0.00     0.136 C 
BRANCH   8   9
ATOM      9  C   UNL A   1      33.973  21.380  24.639  1.00  0.00    -0.030 A 
ATOM     10  C   UNL A   1      33.826  22.553  23.860  1.00  0.00     0.005 A 
ATOM     11  C   UNL A   1      33.203  20.233  24.294  1.00  0.00     0.013 A 
ATOM     12  C   UNL A   1      32.941  22.623  22.787  1.00  0.00     0.000 A 
ATOM     13  C   UNL A   1      32.265  20.369  23.239  1.00  0.00     0.010 A 
ATOM     14  C   UNL A   1      32.146  21.535  22.484  1.00  0.00     0.001 A 
BRANCH  11  15
ATOM     15  C   UNL A   1      33.199  18.881  25.025  1.00  0.00     0.214 C 
ATOM     16  C   UNL A   1      32.298  17.811  24.393  1.00  0.00     0.076 C 
ATOM     17  N   UNL A   1      34.486  18.161  25.095  1.00  0.00    -0.340 N 
ATOM     18  C   UNL A   1      33.179  17.193  23.328  1.00  0.00     0.068 C 
ATOM     19  C   UNL A   1      34.566  17.265  23.929  1.00  0.00     0.261 C 
ATOM     20  H   UNL A   1      34.532  17.615  25.956  1.00  0.00     0.346 HD
ATOM     21  H   UNL A   1      35.263  18.821  25.090  1.00  0.00     0.346 HD
ENDBRANCH  11  15
ENDBRANCH   8   9
ENDBRANCH   6   8
ENDBRANCH   3   4
ENDBRANCH   2   3
ENDBRANCH   1   2
BRANCH   1  22
ATOM     22  C   UNL A   1      41.872  23.096  27.631  1.00  0.00     0.116 C 
BRANCH  22  23
ATOM     23  N   UNL A   1      42.260  23.799  26.418  1.00  0.00    -0.352 N 
ATOM     24  C   UNL A   1      42.220  25.143  26.133  1.00  0.00     0.251 C 
ATOM     25  H   UNL A   1      42.601  23.228  25.693  1.00  0.00     0.163 HD
ATOM     26  O   UNL A   1      42.437  25.527  24.986  1.00  0.00    -0.269 OA
BRANCH  24  27
ATOM     27  C   UNL A   1      41.891  26.125  27.191  1.00  0.00     0.039 A 
ATOM     28  C   UNL A   1      40.781  25.892  28.008  1.00  0.00     0.014 A 
ATOM     29  C   UNL A   1      42.663  27.276  27.377  1.00  0.00     0.014 A 
ATOM     30  C   UNL A   1      40.489  26.773  29.053  1.00  0.00     0.010 A 
ATOM     31  C   UNL A   1      42.416  28.110  28.467  1.00  0.00     0.010 A 
ATOM     32  C   UNL A   1      41.327  27.868  29.318  1.00  0.00    -0.014 A 
BRANCH  32  33
ATOM     33  C   UNL A   1      41.089  28.760  30.486  1.00  0.00     0.031 A 
ATOM     34  C   UNL A   1      41.920  28.619  31.734  1.00  0.00     0.074 A 
ATOM     35  C   UNL A   1      40.082  29.656  30.446  1.00  0.00     0.049 A 
ATOM     36  N   UNL A   1      41.824  29.271  32.864  1.00  0.00    -0.248 NA
ATOM     37  C   UNL A   1      42.981  27.600  31.718  1.00  0.00     0.031 C 
ATOM     38  C   UNL A   1      39.181  29.869  29.311  1.00  0.00     0.029 A 
ATOM     39  N   UNL A   1      39.643  30.555  31.387  1.00  0.00    -0.354 N 
ATOM     40  C   UNL A   1      42.797  28.732  33.699  1.00  0.00     0.074 A 
ATOM     41  C   UNL A   1      43.440  27.667  32.960  1.00  0.00     0.031 C 
ATOM     42  C   UNL A   1      38.322  30.856  29.609  1.00  0.00     0.029 A 
ATOM     43  C   UNL A   1      38.574  31.314  30.972  1.00  0.00     0.049 A 
ATOM     44  H   UNL A   1      40.056  30.647  32.276  1.00  0.00     0.167 HD
ATOM     45  C   UNL A   1      43.137  29.099  34.958  1.00  0.00     0.031 A 
ATOM     46  C   UNL A   1      37.867  32.265  31.614  1.00  0.00     0.031 A 
ATOM     47  C   UNL A   1      42.500  30.164  35.688  1.00  0.00     0.049 A 
ATOM     48  C   UNL A   1      38.249  32.638  33.022  1.00  0.00     0.074 A 
ATOM     49  C   UNL A   1      42.812  30.650  36.946  1.00  0.00     0.029 A 
ATOM     50  N   UNL A   1      41.419  30.903  35.233  1.00  0.00    -0.354 N 
ATOM     51  N   UNL A   1      39.218  32.162  33.767  1.00  0.00    -0.248 NA
ATOM     52  C   UNL A   1      37.446  33.683  33.672  1.00  0.00     0.031 C 
ATOM     53  C   UNL A   1      41.879  31.637  37.278  1.00  0.00     0.029 A 
ATOM     54  C   UNL A   1      41.031  31.817  36.198  1.00  0.00     0.049 A 
ATOM     55  H   UNL A   1      40.990  30.794  34.353  1.00  0.00     0.167 HD
ATOM     56  C   UNL A   1      39.160  32.873  34.961  1.00  0.00     0.074 A 
ATOM     57  C   UNL A   1      38.072  33.820  34.833  1.00  0.00     0.031 C 
ATOM     58  C   UNL A   1      39.943  32.755  36.062  1.00  0.00     0.031 A 
BRANCH  45  59
ATOM     59  C   UNL A   1      44.242  28.330  35.638  1.00  0.00    -0.014 A 
ATOM     60  C   UNL A   1      45.594  28.664  35.441  1.00  0.00     0.010 A 
ATOM     61  C   UNL A   1      43.920  27.287  36.526  1.00  0.00     0.010 A 
ATOM     62  C   UNL A   1      46.603  27.944  36.085  1.00  0.00     0.020 A 
ATOM     63  C   UNL A   1      44.924  26.584  37.197  1.00  0.00     0.020 A 
ATOM     64  C   UNL A   1      46.262  26.906  36.958  1.00  0.00     0.054 A 
BRANCH  64  65
ATOM     65  S   UNL A   1      47.592  26.003  37.797  1.00  0.00     0.124 S 
ATOM     66  O   UNL A   1      47.605  24.737  37.066  1.00  0.00    -0.237 OA
ATOM     67  O   UNL A   1      48.751  26.865  37.578  1.00  0.00    -0.237 OA
ATOM     68  O   UNL A   1      47.135  25.916  39.181  1.00  0.00    -0.744 OA
ENDBRANCH  64  65
ENDBRANCH  45  59
BRANCH  46  69
ATOM     69  C   UNL A   1      36.734  32.945  30.927  1.00  0.00    -0.014 A 
ATOM     70  C   UNL A   1      35.413  32.759  31.374  1.00  0.00     0.010 A 
ATOM     71  C   UNL A   1      36.968  33.789  29.826  1.00  0.00     0.010 A 
ATOM     72  C   UNL A   1      34.347  33.385  30.719  1.00  0.00     0.020 A 
ATOM     73  C   UNL A   1      35.910  34.442  29.190  1.00  0.00     0.020 A 
ATOM     74  C   UNL A   1      34.604  34.226  29.633  1.00  0.00     0.054 A 
BRANCH  74  75
ATOM     75  S   UNL A   1      33.210  35.066  28.831  1.00  0.00     0.124 S 
ATOM     76  O   UNL A   1      32.351  35.382  29.967  1.00  0.00    -0.237 OA
ATOM     77  O   UNL A   1      33.859  36.208  28.189  1.00  0.00    -0.237 OA
ATOM     78  O   UNL A   1      32.688  34.058  27.911  1.00  0.00    -0.744 OA
ENDBRANCH  74  75
ENDBRANCH  46  69
BRANCH  58  79
ATOM     79  C   UNL A   1      39.680  33.697  37.208  1.00  0.00    -0.014 A 
ATOM     80  C   UNL A   1      38.851  33.333  38.283  1.00  0.00     0.010 A 
ATOM     81  C   UNL A   1      40.322  34.950  37.233  1.00  0.00     0.010 A 
ATOM     82  C   UNL A   1      38.641  34.216  39.345  1.00  0.00     0.020 A 
ATOM     83  C   UNL A   1      40.141  35.823  38.309  1.00  0.00     0.020 A 
ATOM     84  C   UNL A   1      39.290  35.455  39.353  1.00  0.00     0.054 A 
BRANCH  84  85
ATOM     85  S   UNL A   1      39.037  36.565  40.766  1.00  0.00     0.124 S 
ATOM     86  O   UNL A   1      38.536  37.774  40.118  1.00  0.00    -0.237 OA
ATOM     87  O   UNL A   1      38.061  35.835  41.573  1.00  0.00    -0.237 OA
ATOM     88  O   UNL A   1      40.366  36.680  41.360  1.00  0.00    -0.744 OA
ENDBRANCH  84  85
ENDBRANCH  58  79
ENDBRANCH  32  33
ENDBRANCH  24  27
ENDBRANCH  22  23
ENDBRANCH   1  22
TORSDOF 16
ENDMDL
MODEL 2
REMARK VINA RESULT:     -11.2      4.787     10.455
REMARK SMILES O=C(Cc1ccccc1[C@H]1CCC[NH2+]1)NCCCCNC(=O)c1ccc(-c2c3nc(c(-c4ccc(S(=O)(=O)[O-])cc4)c4ccc([nH]4)c(-c4ccc(S(=O)(=O)[O-])cc4)c4nc(c(-c5ccc(S(=O)(=O)[O-])cc5)c5ccc2[nH]5)C=C4)C=C3)cc1
REMARK SMILES IDX 18 1 17 2 16 3 15 4 1 5 2 6 3 8 4 9 5 10 9 11 6 12 8 13 7 14
REMARK SMILES IDX 10 15 11 16 14 17 12 18 13 19 19 22 20 23 21 24 22 26 23 27
REMARK SMILES IDX 24 28 82 29 25 30 81 31 26 32 27 33 28 34 75 35 29 36 80 37
REMARK SMILES IDX 74 38 76 39 30 40 79 41 73 42 72 43 31 45 61 46 42 47 60 48
REMARK SMILES IDX 43 49 46 50 59 51 77 52 44 53 45 54 58 56 78 57 47 58 32 59
REMARK SMILES IDX 33 60 41 61 34 62 40 63 35 64 36 65 37 66 38 67 39 68 62 69
REMARK SMILES IDX 63 70 71 71 64 72 70 73 65 74 66 75 67 76 68 77 69 78 48 79
REMARK SMILES IDX 49 80 57 81 50 82 56 83 51 84 52 85 53 86 54 87 55 88
REMARK H PARENT 15 7 14 20 14 21 20 25 76 44 46 55
REMARK Flexibility Score: inf
ROOT
ATOM      1  C   UNL A   1      34.033  28.015  25.929  1.00  0.00     0.023 C 
ENDROOT
BRANCH   1   2
ATOM      2  C   UNL A   1      33.264  28.578  24.729  1.00  0.00     0.023 C 
BRANCH   2   3
ATOM      3  C   UNL A   1      33.557  27.901  23.393  1.00  0.00     0.116 C 
BRANCH   3   4
ATOM      4  N   UNL A   1      33.533  26.458  23.500  1.00  0.00    -0.356 N 
ATOM      5  O   UNL A   1      33.452  26.038  21.239  1.00  0.00    -0.275 OA
ATOM      6  C   UNL A   1      33.493  25.628  22.396  1.00  0.00     0.224 C 
ATOM      7  H   UNL A   1      33.545  26.052  24.396  1.00  0.00     0.163 HD
BRANCH   6   8
ATOM      8  C   UNL A   1      33.494  24.149  22.750  1.00  0.00     0.136 C 
BRANCH   8   9
ATOM      9  C   UNL A   1      33.398  23.788  24.225  1.00  0.00    -0.030 A 
ATOM     10  C   UNL A   1      32.125  23.583  24.809  1.00  0.00     0.005 A 
ATOM     11  C   UNL A   1      34.552  23.671  25.051  1.00  0.00     0.013 A 
ATOM     12  C   UNL A   1      31.969  23.293  26.163  1.00  0.00     0.000 A 
ATOM     13  C   UNL A   1      34.345  23.444  26.436  1.00  0.00     0.010 A 
ATOM     14  C   UNL A   1      33.080  23.240  26.982  1.00  0.00     0.001 A 
BRANCH  11  15
ATOM     15  C   UNL A   1      36.012  23.882  24.616  1.00  0.00     0.214 C 
ATOM     16  C   UNL A   1      37.049  23.680  25.730  1.00  0.00     0.076 C 
ATOM     17  N   UNL A   1      36.532  22.970  23.578  1.00  0.00    -0.340 N 
ATOM     18  C   UNL A   1      37.295  22.187  25.716  1.00  0.00     0.068 C 
ATOM     19  C   UNL A   1      37.145  21.816  24.256  1.00  0.00     0.261 C 
ATOM     20  H   UNL A   1      37.232  23.452  23.012  1.00  0.00     0.346 HD
ATOM     21  H   UNL A   1      35.778  22.663  22.964  1.00  0.00     0.346 HD
ENDBRANCH  11  15
ENDBRANCH   8   9
ENDBRANCH   6   8
ENDBRANCH   3   4
ENDBRANCH   2   3
ENDBRANCH   1   2
BRANCH   1  22
ATOM     22  C   UNL A   1      33.461  28.366  27.298  1.00  0.00     0.116 C 
BRANCH  22  23
ATOM     23  N   UNL A   1      33.428  29.800  27.542  1.00  0.00    -0.352 N 
ATOM     24  C   UNL A   1      34.393  30.620  28.076  1.00  0.00     0.251 C 
ATOM     25  H   UNL A   1      32.591  30.250  27.287  1.00  0.00     0.163 HD
ATOM     26  O   UNL A   1      34.114  31.784  28.356  1.00  0.00    -0.269 OA
BRANCH  24  27
ATOM     27  C   UNL A   1      35.755  30.103  28.343  1.00  0.00     0.039 A 
ATOM     28  C   UNL A   1      36.689  30.095  27.303  1.00  0.00     0.014 A 
ATOM     29  C   UNL A   1      36.113  29.621  29.605  1.00  0.00     0.014 A 
ATOM     30  C   UNL A   1      37.998  29.671  27.548  1.00  0.00     0.010 A 
ATOM     31  C   UNL A   1      37.437  29.273  29.866  1.00  0.00     0.010 A 
ATOM     32  C   UNL A   1      38.396  29.294  28.841  1.00  0.00    -0.014 A 
BRANCH  32  33
ATOM     33  C   UNL A   1      39.808  28.935  29.143  1.00  0.00     0.031 A 
ATOM     34  C   UNL A   1      40.736  29.946  29.765  1.00  0.00     0.074 A 
ATOM     35  C   UNL A   1      40.275  27.717  28.799  1.00  0.00     0.049 A 
ATOM     36  N   UNL A   1      42.007  29.830  30.052  1.00  0.00    -0.248 NA
ATOM     37  C   UNL A   1      40.168  31.265  30.085  1.00  0.00     0.031 C 
ATOM     38  C   UNL A   1      39.490  26.659  28.160  1.00  0.00     0.029 A 
ATOM     39  N   UNL A   1      41.524  27.164  28.936  1.00  0.00    -0.354 N 
ATOM     40  C   UNL A   1      42.395  31.061  30.569  1.00  0.00     0.074 A 
ATOM     41  C   UNL A   1      41.236  31.924  30.511  1.00  0.00     0.031 C 
ATOM     42  C   UNL A   1      40.265  25.576  27.991  1.00  0.00     0.029 A 
ATOM     43  C   UNL A   1      41.614  25.875  28.462  1.00  0.00     0.049 A 
ATOM     44  H   UNL A   1      42.285  27.644  29.336  1.00  0.00     0.167 HD
ATOM     45  C   UNL A   1      43.600  31.435  31.062  1.00  0.00     0.031 A 
ATOM     46  C   UNL A   1      42.662  25.030  28.403  1.00  0.00     0.031 A 
ATOM     47  C   UNL A   1      44.750  30.571  31.125  1.00  0.00     0.049 A 
ATOM     48  C   UNL A   1      43.998  25.479  28.935  1.00  0.00     0.074 A 
ATOM     49  C   UNL A   1      45.998  30.839  31.661  1.00  0.00     0.029 A 
ATOM     50  N   UNL A   1      44.800  29.277  30.630  1.00  0.00    -0.354 N 
ATOM     51  N   UNL A   1      44.324  26.625  29.484  1.00  0.00    -0.248 NA
ATOM     52  C   UNL A   1      45.103  24.515  28.847  1.00  0.00     0.031 C 
ATOM     53  C   UNL A   1      46.821  29.733  31.431  1.00  0.00     0.029 A 
ATOM     54  C   UNL A   1      46.065  28.747  30.817  1.00  0.00     0.049 A 
ATOM     55  H   UNL A   1      44.046  28.804  30.207  1.00  0.00     0.167 HD
ATOM     56  C   UNL A   1      45.664  26.506  29.835  1.00  0.00     0.074 A 
ATOM     57  C   UNL A   1      46.083  25.174  29.451  1.00  0.00     0.031 C 
ATOM     58  C   UNL A   1      46.473  27.419  30.429  1.00  0.00     0.031 A 
BRANCH  45  59
ATOM     59  C   UNL A   1      43.744  32.851  31.562  1.00  0.00    -0.014 A 
ATOM     60  C   UNL A   1      43.937  33.924  30.672  1.00  0.00     0.010 A 
ATOM     61  C   UNL A   1      43.637  33.118  32.939  1.00  0.00     0.010 A 
ATOM     62  C   UNL A   1      44.062  35.230  31.155  1.00  0.00     0.020 A 
ATOM     63  C   UNL A   1      43.730  34.425  33.423  1.00  0.00     0.020 A 
ATOM     64  C   UNL A   1      43.960  35.472  32.529  1.00  0.00     0.054 A 
BRANCH  64  65
ATOM     65  S   UNL A   1      44.104  37.179  33.123  1.00  0.00     0.124 S 
ATOM     66  O   UNL A   1      45.279  37.098  33.989  1.00  0.00    -0.237 OA
ATOM     67  O   UNL A   1      44.288  37.934  31.886  1.00  0.00    -0.237 OA
ATOM     68  O   UNL A   1      42.839  37.416  33.813  1.00  0.00    -0.744 OA
ENDBRANCH  64  65
ENDBRANCH  45  59
BRANCH  46  69
ATOM     69  C   UNL A   1      42.490  23.666  27.830  1.00  0.00    -0.014 A 
ATOM     70  C   UNL A   1      42.584  23.457  26.442  1.00  0.00     0.010 A 
ATOM     71  C   UNL A   1      42.238  22.565  28.670  1.00  0.00     0.010 A 
ATOM     72  C   UNL A   1      42.407  22.178  25.904  1.00  0.00     0.020 A 
ATOM     73  C   UNL A   1      42.093  21.281  28.139  1.00  0.00     0.020 A 
ATOM     74  C   UNL A   1      42.167  21.098  26.757  1.00  0.00     0.054 A 
BRANCH  74  75
ATOM     75  S   UNL A   1      41.989  19.441  26.039  1.00  0.00     0.124 S 
ATOM     76  O   UNL A   1      42.460  18.587  27.125  1.00  0.00    -0.237 OA
ATOM     77  O   UNL A   1      40.557  19.374  25.755  1.00  0.00    -0.237 OA
ATOM     78  O   UNL A   1      42.849  19.486  24.859  1.00  0.00    -0.744 OA
ENDBRANCH  74  75
ENDBRANCH  46  69
BRANCH  58  79
ATOM     79  C   UNL A   1      47.887  27.000  30.737  1.00  0.00    -0.014 A 
ATOM     80  C   UNL A   1      48.942  27.261  29.845  1.00  0.00     0.010 A 
ATOM     81  C   UNL A   1      48.172  26.382  31.970  1.00  0.00     0.010 A 
ATOM     82  C   UNL A   1      50.248  26.882  30.165  1.00  0.00     0.020 A 
ATOM     83  C   UNL A   1      49.481  26.032  32.308  1.00  0.00     0.020 A 
ATOM     84  C   UNL A   1      50.510  26.272  31.396  1.00  0.00     0.054 A 
BRANCH  84  85
ATOM     85  S   UNL A   1      52.222  25.832  31.805  1.00  0.00     0.124 S 
ATOM     86  O   UNL A   1      52.097  24.422  32.163  1.00  0.00    -0.237 OA
ATOM     87  O   UNL A   1      52.929  26.104  30.555  1.00  0.00    -0.237 OA
ATOM     88  O   UNL A   1      52.556  26.728  32.910  1.00  0.00    -0.744 OA
ENDBRANCH  84  85
ENDBRANCH  58  79
ENDBRANCH  32  33
ENDBRANCH  24  27
ENDBRANCH  22  23
ENDBRANCH   1  22
TORSDOF 16
ENDMDL
MODEL 3
REMARK VINA RESULT:     -11.2      4.094      5.507
REMARK SMILES O=C(Cc1ccccc1[C@H]1CCC[NH2+]1)NCCCCNC(=O)c1ccc(-c2c3nc(c(-c4ccc(S(=O)(=O)[O-])cc4)c4ccc([nH]4)c(-c4ccc(S(=O)(=O)[O-])cc4)c4nc(c(-c5ccc(S(=O)(=O)[O-])cc5)c5ccc2[nH]5)C=C4)C=C3)cc1
REMARK SMILES IDX 18 1 17 2 16 3 15 4 1 5 2 6 3 8 4 9 5 10 9 11 6 12 8 13 7 14
REMARK SMILES IDX 10 15 11 16 14 17 12 18 13 19 19 22 20 23 21 24 22 26 23 27
REMARK SMILES IDX 24 28 82 29 25 30 81 31 26 32 27 33 28 34 75 35 29 36 80 37
REMARK SMILES IDX 74 38 76 39 30 40 79 41 73 42 72 43 31 45 61 46 42 47 60 48
REMARK SMILES IDX 43 49 46 50 59 51 77 52 44 53 45 54 58 56 78 57 47 58 32 59
REMARK SMILES IDX 33 60 41 61 34 62 40 63 35 64 36 65 37 66 38 67 39 68 62 69
REMARK SMILES IDX 63 70 71 71 64 72 70 73 65 74 66 75 67 76 68 77 69 78 48 79
REMARK SMILES IDX 49 80 57 81 50 82 56 83 51 84 52 85 53 86 54 87 55 88
REMARK H PARENT 15 7 14 20 14 21 20 25 76 44 46 55
REMARK Flexibility Score: inf
ROOT
ATOM      1  C   UNL A   1      35.934  23.463  24.123  1.00  0.00     0.023 C 
ENDROOT
BRANCH   1   2
ATOM      2  C   UNL A   1      34.562  24.140  24.038  1.00  0.00     0.023 C 
BRANCH   2   3
ATOM      3  C   UNL A   1      33.712  24.046  25.303  1.00  0.00     0.116 C 
BRANCH   3   4
ATOM      4  N   UNL A   1      32.634  25.010  25.303  1.00  0.00    -0.356 N 
ATOM      5  O   UNL A   1      31.557  24.183  27.161  1.00  0.00    -0.275 OA
ATOM      6  C   UNL A   1      31.631  25.009  26.255  1.00  0.00     0.224 C 
ATOM      7  H   UNL A   1      32.612  25.694  24.596  1.00  0.00     0.163 HD
BRANCH   6   8
ATOM      8  C   UNL A   1      30.616  26.125  26.067  1.00  0.00     0.136 C 
BRANCH   8   9
ATOM      9  C   UNL A   1      31.149  27.550  26.031  1.00  0.00    -0.030 A 
ATOM     10  C   UNL A   1      31.627  28.144  27.224  1.00  0.00     0.005 A 
ATOM     11  C   UNL A   1      31.162  28.322  24.834  1.00  0.00     0.013 A 
ATOM     12  C   UNL A   1      32.086  29.459  27.265  1.00  0.00     0.000 A 
ATOM     13  C   UNL A   1      31.572  29.676  24.934  1.00  0.00     0.010 A 
ATOM     14  C   UNL A   1      32.044  30.232  26.121  1.00  0.00     0.001 A 
BRANCH  11  15
ATOM     15  C   UNL A   1      30.664  27.872  23.451  1.00  0.00     0.214 C 
ATOM     16  C   UNL A   1      29.138  27.789  23.313  1.00  0.00     0.076 C 
ATOM     17  N   UNL A   1      31.003  28.744  22.309  1.00  0.00    -0.340 N 
ATOM     18  C   UNL A   1      28.738  29.205  22.959  1.00  0.00     0.068 C 
ATOM     19  C   UNL A   1      29.903  29.707  22.133  1.00  0.00     0.261 C 
ATOM     20  H   UNL A   1      31.111  28.183  21.464  1.00  0.00     0.346 HD
ATOM     21  H   UNL A   1      31.880  29.234  22.484  1.00  0.00     0.346 HD
ENDBRANCH  11  15
ENDBRANCH   8   9
ENDBRANCH   6   8
ENDBRANCH   3   4
ENDBRANCH   2   3
ENDBRANCH   1   2
BRANCH   1  22
ATOM     22  C   UNL A   1      36.679  23.653  25.440  1.00  0.00     0.116 C 
BRANCH  22  23
ATOM     23  N   UNL A   1      37.810  22.749  25.580  1.00  0.00    -0.352 N 
ATOM     24  C   UNL A   1      39.057  22.981  26.109  1.00  0.00     0.251 C 
ATOM     25  H   UNL A   1      37.660  21.835  25.246  1.00  0.00     0.163 HD
ATOM     26  O   UNL A   1      39.936  22.130  25.988  1.00  0.00    -0.269 OA
BRANCH  24  27
ATOM     27  C   UNL A   1      39.355  24.257  26.798  1.00  0.00     0.039 A 
ATOM     28  C   UNL A   1      38.901  24.441  28.107  1.00  0.00     0.014 A 
ATOM     29  C   UNL A   1      40.072  25.274  26.160  1.00  0.00     0.014 A 
ATOM     30  C   UNL A   1      39.224  25.611  28.798  1.00  0.00     0.010 A 
ATOM     31  C   UNL A   1      40.460  26.405  26.877  1.00  0.00     0.010 A 
ATOM     32  C   UNL A   1      40.041  26.588  28.204  1.00  0.00    -0.014 A 
BRANCH  32  33
ATOM     33  C   UNL A   1      40.479  27.793  28.959  1.00  0.00     0.031 A 
ATOM     34  C   UNL A   1      41.822  27.821  29.640  1.00  0.00     0.074 A 
ATOM     35  C   UNL A   1      39.641  28.843  29.083  1.00  0.00     0.049 A 
ATOM     36  N   UNL A   1      42.351  28.761  30.381  1.00  0.00    -0.248 NA
ATOM     37  C   UNL A   1      42.673  26.630  29.487  1.00  0.00     0.031 C 
ATOM     38  C   UNL A   1      38.299  28.929  28.502  1.00  0.00     0.029 A 
ATOM     39  N   UNL A   1      39.791  30.037  29.744  1.00  0.00    -0.354 N 
ATOM     40  C   UNL A   1      43.584  28.270  30.796  1.00  0.00     0.074 A 
ATOM     41  C   UNL A   1      43.704  26.931  30.264  1.00  0.00     0.031 C 
ATOM     42  C   UNL A   1      37.765  30.123  28.803  1.00  0.00     0.029 A 
ATOM     43  C   UNL A   1      38.700  30.869  29.639  1.00  0.00     0.049 A 
ATOM     44  H   UNL A   1      40.604  30.276  30.246  1.00  0.00     0.167 HD
ATOM     45  C   UNL A   1      44.537  28.884  31.539  1.00  0.00     0.031 A 
ATOM     46  C   UNL A   1      38.471  32.090  30.161  1.00  0.00     0.031 A 
ATOM     47  C   UNL A   1      44.418  30.220  32.061  1.00  0.00     0.049 A 
ATOM     48  C   UNL A   1      39.536  32.740  31.004  1.00  0.00     0.074 A 
ATOM     49  C   UNL A   1      45.353  30.951  32.774  1.00  0.00     0.029 A 
ATOM     50  N   UNL A   1      43.296  31.025  31.936  1.00  0.00    -0.354 N 
ATOM     51  N   UNL A   1      40.723  32.285  31.327  1.00  0.00    -0.248 NA
ATOM     52  C   UNL A   1      39.232  34.072  31.545  1.00  0.00     0.031 C 
ATOM     53  C   UNL A   1      44.773  32.169  33.137  1.00  0.00     0.029 A 
ATOM     54  C   UNL A   1      43.502  32.230  32.587  1.00  0.00     0.049 A 
ATOM     55  H   UNL A   1      42.473  30.776  31.455  1.00  0.00     0.167 HD
ATOM     56  C   UNL A   1      41.320  33.290  32.081  1.00  0.00     0.074 A 
ATOM     57  C   UNL A   1      40.369  34.380  32.154  1.00  0.00     0.031 C 
ATOM     58  C   UNL A   1      42.548  33.308  32.657  1.00  0.00     0.031 A 
BRANCH  45  59
ATOM     59  C   UNL A   1      45.793  28.108  31.846  1.00  0.00    -0.014 A 
ATOM     60  C   UNL A   1      46.943  28.229  31.044  1.00  0.00     0.010 A 
ATOM     61  C   UNL A   1      45.839  27.280  32.984  1.00  0.00     0.010 A 
ATOM     62  C   UNL A   1      48.099  27.505  31.350  1.00  0.00     0.020 A 
ATOM     63  C   UNL A   1      47.003  26.580  33.311  1.00  0.00     0.020 A 
ATOM     64  C   UNL A   1      48.121  26.683  32.481  1.00  0.00     0.054 A 
BRANCH  64  65
ATOM     65  S   UNL A   1      49.643  25.774  32.864  1.00  0.00     0.124 S 
ATOM     66  O   UNL A   1      50.528  26.847  33.315  1.00  0.00    -0.237 OA
ATOM     67  O   UNL A   1      49.207  24.843  33.901  1.00  0.00    -0.237 OA
ATOM     68  O   UNL A   1      50.011  25.159  31.592  1.00  0.00    -0.744 OA
ENDBRANCH  64  65
ENDBRANCH  45  59
BRANCH  46  69
ATOM     69  C   UNL A   1      37.182  32.787  29.893  1.00  0.00    -0.014 A 
ATOM     70  C   UNL A   1      37.015  33.555  28.726  1.00  0.00     0.010 A 
ATOM     71  C   UNL A   1      36.110  32.681  30.798  1.00  0.00     0.010 A 
ATOM     72  C   UNL A   1      35.810  34.221  28.481  1.00  0.00     0.020 A 
ATOM     73  C   UNL A   1      34.894  33.318  30.542  1.00  0.00     0.020 A 
ATOM     74  C   UNL A   1      34.756  34.095  29.390  1.00  0.00     0.054 A 
BRANCH  74  75
ATOM     75  S   UNL A   1      33.185  34.928  29.027  1.00  0.00     0.124 S 
ATOM     76  O   UNL A   1      32.587  34.034  28.041  1.00  0.00    -0.237 OA
ATOM     77  O   UNL A   1      32.535  34.955  30.335  1.00  0.00    -0.237 OA
ATOM     78  O   UNL A   1      33.601  36.234  28.519  1.00  0.00    -0.744 OA
ENDBRANCH  74  75
ENDBRANCH  46  69
BRANCH  58  79
ATOM     79  C   UNL A   1      42.956  34.561  33.388  1.00  0.00    -0.014 A 
ATOM     80  C   UNL A   1      42.825  34.673  34.783  1.00  0.00     0.010 A 
ATOM     81  C   UNL A   1      43.532  35.625  32.667  1.00  0.00     0.010 A 
ATOM     82  C   UNL A   1      43.232  35.838  35.440  1.00  0.00     0.020 A 
ATOM     83  C   UNL A   1      43.970  36.777  33.324  1.00  0.00     0.020 A 
ATOM     84  C   UNL A   1      43.805  36.882  34.706  1.00  0.00     0.054 A 
BRANCH  84  85
ATOM     85  S   UNL A   1      44.366  38.364  35.589  1.00  0.00     0.124 S 
ATOM     86  O   UNL A   1      45.818  38.226  35.524  1.00  0.00    -0.237 OA
ATOM     87  O   UNL A   1      43.800  39.447  34.787  1.00  0.00    -0.237 OA
ATOM     88  O   UNL A   1      43.785  38.215  36.921  1.00  0.00    -0.744 OA
ENDBRANCH  84  85
ENDBRANCH  58  79
ENDBRANCH  32  33
ENDBRANCH  24  27
ENDBRANCH  22  23
ENDBRANCH   1  22
TORSDOF 16
ENDMDL
