MODEL 1
REMARK VINA RESULT:     -12.1      0.000      0.000
REMARK SMILES Cc1nc2n(n1)[C@@H](c1ccc([N+](=O)[O-])o1)CC(C(=O)NCCCCNC(=O)c1ccc(-c3c4nc(c(-c5ccc(S(=O)(=O)[O-])cc5)c5ccc([nH]5)c(-c5ccc(S(=O)(=O)[O-])cc5)c5nc(c(-c6ccc(S(=O)(=O)[O-])cc6)c6ccc3[nH]6)C=C5)C=C4)cc1)=N2
REMARK SMILES IDX 23 1 22 2 21 3 20 4 18 5 19 6 17 8 1 9 2 10 3 11 6 12 4 13
REMARK SMILES IDX 5 14 88 15 7 16 16 17 8 18 9 19 15 20 10 21 11 22 12 23
REMARK SMILES IDX 13 24 14 25 24 26 25 27 26 28 27 30 28 31 29 32 87 33 30 34
REMARK SMILES IDX 86 35 31 36 32 37 33 38 80 39 34 40 85 41 79 42 81 43 35 44
REMARK SMILES IDX 84 45 78 46 77 47 36 49 66 50 47 51 65 52 48 53 51 54 64 55
REMARK SMILES IDX 82 56 49 57 50 58 63 60 83 61 52 62 37 63 38 64 46 65 39 66
REMARK SMILES IDX 45 67 40 68 41 69 42 70 43 71 44 72 67 73 68 74 76 75 69 76
REMARK SMILES IDX 75 77 70 78 71 79 72 80 73 81 74 82 53 83 54 84 62 85 55 86
REMARK SMILES IDX 61 87 56 88 57 89 58 90 59 91 60 92
REMARK H PARENT 20 7 25 29 81 48 51 59
REMARK Flexibility Score: inf
ROOT
ATOM      1  C   UNL A   1      36.401  21.416  25.215  1.00  0.00     0.023 C 
ENDROOT
BRANCH   1   2
ATOM      2  C   UNL A   1      35.076  22.138  25.560  1.00  0.00     0.023 C 
BRANCH   2   3
ATOM      3  C   UNL A   1      34.800  22.332  27.057  1.00  0.00     0.116 C 
BRANCH   3   4
ATOM      4  N   UNL A   1      33.457  22.848  27.301  1.00  0.00    -0.351 N 
ATOM      5  C   UNL A   1      32.601  23.756  26.727  1.00  0.00     0.265 C 
ATOM      6  O   UNL A   1      31.506  23.893  27.273  1.00  0.00    -0.268 OA
ATOM      7  H   UNL A   1      33.053  22.431  28.097  1.00  0.00     0.163 HD
BRANCH   5   8
ATOM      8  C   UNL A   1      32.880  24.614  25.473  1.00  0.00     0.112 C 
ATOM      9  C   UNL A   1      32.647  25.599  19.739  1.00  0.00     0.092 C 
ATOM     10  C   UNL A   1      32.806  25.553  21.208  1.00  0.00     0.149 A 
ATOM     11  N   UNL A   1      32.392  24.479  21.953  1.00  0.00    -0.195 NA
ATOM     12  N   UNL A   1      33.330  26.558  21.919  1.00  0.00    -0.154 NA
ATOM     13  C   UNL A   1      32.662  24.818  23.196  1.00  0.00     0.249 A 
ATOM     14  N   UNL A   1      33.201  26.072  23.171  1.00  0.00    -0.219 N 
ATOM     15  N   UNL A   1      32.448  24.133  24.341  1.00  0.00    -0.211 NA
ATOM     16  C   UNL A   1      33.594  26.804  24.352  1.00  0.00     0.184 C 
ATOM     17  C   UNL A   1      33.650  25.900  25.592  1.00  0.00     0.098 C 
BRANCH  16  18
ATOM     18  C   UNL A   1      32.719  28.007  24.576  1.00  0.00     0.136 A 
ATOM     19  C   UNL A   1      32.759  29.119  25.402  1.00  0.00     0.056 A 
ATOM     20  O   UNL A   1      31.564  28.036  23.836  1.00  0.00    -0.404 OA
ATOM     21  C   UNL A   1      31.585  29.876  25.142  1.00  0.00     0.134 A 
ATOM     22  C   UNL A   1      30.909  29.174  24.175  1.00  0.00     0.433 A 
BRANCH  22  23
ATOM     23  N   UNL A   1      29.683  29.423  23.487  1.00  0.00     0.102 N 
ATOM     24  O   UNL A   1      29.016  28.429  23.174  1.00  0.00    -0.256 OA
ATOM     25  O   UNL A   1      29.378  30.603  23.268  1.00  0.00    -0.256 OA
ENDBRANCH  22  23
ENDBRANCH  16  18
ENDBRANCH   5   8
ENDBRANCH   3   4
ENDBRANCH   2   3
ENDBRANCH   1   2
BRANCH   1  26
ATOM     26  C   UNL A   1      37.708  22.202  25.471  1.00  0.00     0.116 C 
BRANCH  26  27
ATOM     27  N   UNL A   1      38.748  21.345  26.024  1.00  0.00    -0.352 N 
ATOM     28  C   UNL A   1      40.002  21.578  26.530  1.00  0.00     0.251 C 
ATOM     29  H   UNL A   1      38.495  20.394  26.040  1.00  0.00     0.163 HD
ATOM     30  O   UNL A   1      40.706  20.586  26.730  1.00  0.00    -0.269 OA
BRANCH  28  31
ATOM     31  C   UNL A   1      40.573  22.918  26.838  1.00  0.00     0.039 A 
ATOM     32  C   UNL A   1      41.913  23.147  26.473  1.00  0.00     0.014 A 
ATOM     33  C   UNL A   1      39.919  23.887  27.596  1.00  0.00     0.014 A 
ATOM     34  C   UNL A   1      42.576  24.341  26.798  1.00  0.00     0.010 A 
ATOM     35  C   UNL A   1      40.589  25.081  27.932  1.00  0.00     0.010 A 
ATOM     36  C   UNL A   1      41.912  25.343  27.508  1.00  0.00    -0.014 A 
BRANCH  36  37
ATOM     37  C   UNL A   1      42.533  26.701  27.596  1.00  0.00     0.031 A 
ATOM     38  C   UNL A   1      41.556  27.807  27.408  1.00  0.00     0.074 A 
ATOM     39  C   UNL A   1      43.615  27.065  28.331  1.00  0.00     0.049 A 
ATOM     40  N   UNL A   1      40.839  28.181  28.422  1.00  0.00    -0.248 NA
ATOM     41  C   UNL A   1      41.102  28.356  26.137  1.00  0.00     0.031 C 
ATOM     42  C   UNL A   1      44.118  26.316  29.488  1.00  0.00     0.029 A 
ATOM     43  N   UNL A   1      44.324  28.258  28.372  1.00  0.00    -0.354 N 
ATOM     44  C   UNL A   1      39.790  28.936  27.947  1.00  0.00     0.074 A 
ATOM     45  C   UNL A   1      40.016  29.053  26.522  1.00  0.00     0.031 C 
ATOM     46  C   UNL A   1      44.924  27.124  30.211  1.00  0.00     0.029 A 
ATOM     47  C   UNL A   1      45.136  28.383  29.497  1.00  0.00     0.049 A 
ATOM     48  H   UNL A   1      44.259  28.950  27.674  1.00  0.00     0.167 HD
ATOM     49  C   UNL A   1      38.824  29.378  28.795  1.00  0.00     0.031 A 
ATOM     50  C   UNL A   1      45.573  29.533  30.080  1.00  0.00     0.031 A 
ATOM     51  C   UNL A   1      38.979  29.067  30.207  1.00  0.00     0.049 A 
ATOM     52  C   UNL A   1      44.359  30.032  30.811  1.00  0.00     0.074 A 
ATOM     53  C   UNL A   1      38.171  28.852  31.308  1.00  0.00     0.029 A 
ATOM     54  N   UNL A   1      40.254  28.974  30.691  1.00  0.00    -0.354 N 
ATOM     55  N   UNL A   1      43.925  29.606  31.965  1.00  0.00    -0.248 NA
ATOM     56  C   UNL A   1      43.428  30.924  30.095  1.00  0.00     0.031 C 
ATOM     57  C   UNL A   1      39.019  28.821  32.468  1.00  0.00     0.029 A 
ATOM     58  C   UNL A   1      40.314  29.071  32.052  1.00  0.00     0.049 A 
ATOM     59  H   UNL A   1      41.046  28.849  30.119  1.00  0.00     0.167 HD
ATOM     60  C   UNL A   1      42.577  29.924  31.968  1.00  0.00     0.074 A 
ATOM     61  C   UNL A   1      42.362  30.863  30.885  1.00  0.00     0.031 C 
ATOM     62  C   UNL A   1      41.630  29.194  32.623  1.00  0.00     0.031 A 
BRANCH  49  63
ATOM     63  C   UNL A   1      37.739  30.315  28.408  1.00  0.00    -0.014 A 
ATOM     64  C   UNL A   1      37.855  31.636  28.886  1.00  0.00     0.010 A 
ATOM     65  C   UNL A   1      36.542  29.908  27.804  1.00  0.00     0.010 A 
ATOM     66  C   UNL A   1      36.783  32.521  28.820  1.00  0.00     0.020 A 
ATOM     67  C   UNL A   1      35.460  30.801  27.728  1.00  0.00     0.020 A 
ATOM     68  C   UNL A   1      35.581  32.091  28.260  1.00  0.00     0.054 A 
BRANCH  68  69
ATOM     69  S   UNL A   1      34.168  33.228  28.307  1.00  0.00     0.124 S 
ATOM     70  O   UNL A   1      34.666  34.372  27.547  1.00  0.00    -0.237 OA
ATOM     71  O   UNL A   1      33.118  32.449  27.658  1.00  0.00    -0.237 OA
ATOM     72  O   UNL A   1      33.969  33.470  29.734  1.00  0.00    -0.744 OA
ENDBRANCH  68  69
ENDBRANCH  49  63
BRANCH  50  73
ATOM     73  C   UNL A   1      46.476  30.461  29.326  1.00  0.00    -0.014 A 
ATOM     74  C   UNL A   1      47.454  31.181  30.045  1.00  0.00     0.010 A 
ATOM     75  C   UNL A   1      46.371  30.731  27.948  1.00  0.00     0.010 A 
ATOM     76  C   UNL A   1      48.377  32.013  29.397  1.00  0.00     0.020 A 
ATOM     77  C   UNL A   1      47.310  31.533  27.283  1.00  0.00     0.020 A 
ATOM     78  C   UNL A   1      48.328  32.146  28.010  1.00  0.00     0.054 A 
BRANCH  78  79
ATOM     79  S   UNL A   1      49.657  33.046  27.167  1.00  0.00     0.124 S 
ATOM     80  O   UNL A   1      49.005  34.308  26.814  1.00  0.00    -0.237 OA
ATOM     81  O   UNL A   1      50.677  33.139  28.212  1.00  0.00    -0.237 OA
ATOM     82  O   UNL A   1      50.002  32.184  26.045  1.00  0.00    -0.744 OA
ENDBRANCH  78  79
ENDBRANCH  50  73
BRANCH  62  83
ATOM     83  C   UNL A   1      42.056  28.396  33.801  1.00  0.00    -0.014 A 
ATOM     84  C   UNL A   1      42.528  27.086  33.605  1.00  0.00     0.010 A 
ATOM     85  C   UNL A   1      42.074  28.949  35.090  1.00  0.00     0.010 A 
ATOM     86  C   UNL A   1      43.033  26.348  34.674  1.00  0.00     0.020 A 
ATOM     87  C   UNL A   1      42.580  28.213  36.166  1.00  0.00     0.020 A 
ATOM     88  C   UNL A   1      43.070  26.923  35.946  1.00  0.00     0.054 A 
BRANCH  88  89
ATOM     89  S   UNL A   1      43.828  25.976  37.289  1.00  0.00     0.124 S 
ATOM     90  O   UNL A   1      45.202  26.469  37.289  1.00  0.00    -0.237 OA
ATOM     91  O   UNL A   1      43.021  26.366  38.443  1.00  0.00    -0.237 OA
ATOM     92  O   UNL A   1      43.667  24.585  36.870  1.00  0.00    -0.744 OA
ENDBRANCH  88  89
ENDBRANCH  62  83
ENDBRANCH  36  37
ENDBRANCH  28  31
ENDBRANCH  26  27
ENDBRANCH   1  26
TORSDOF 16
ENDMDL
MODEL 2
REMARK VINA RESULT:     -12.1      1.715      2.745
REMARK SMILES Cc1nc2n(n1)[C@@H](c1ccc([N+](=O)[O-])o1)CC(C(=O)NCCCCNC(=O)c1ccc(-c3c4nc(c(-c5ccc(S(=O)(=O)[O-])cc5)c5ccc([nH]5)c(-c5ccc(S(=O)(=O)[O-])cc5)c5nc(c(-c6ccc(S(=O)(=O)[O-])cc6)c6ccc3[nH]6)C=C5)C=C4)cc1)=N2
REMARK SMILES IDX 23 1 22 2 21 3 20 4 18 5 19 6 17 8 1 9 2 10 3 11 6 12 4 13
REMARK SMILES IDX 5 14 88 15 7 16 16 17 8 18 9 19 15 20 10 21 11 22 12 23
REMARK SMILES IDX 13 24 14 25 24 26 25 27 26 28 27 30 28 31 29 32 87 33 30 34
REMARK SMILES IDX 86 35 31 36 32 37 33 38 80 39 34 40 85 41 79 42 81 43 35 44
REMARK SMILES IDX 84 45 78 46 77 47 36 49 66 50 47 51 65 52 48 53 51 54 64 55
REMARK SMILES IDX 82 56 49 57 50 58 63 60 83 61 52 62 37 63 38 64 46 65 39 66
REMARK SMILES IDX 45 67 40 68 41 69 42 70 43 71 44 72 67 73 68 74 76 75 69 76
REMARK SMILES IDX 75 77 70 78 71 79 72 80 73 81 74 82 53 83 54 84 62 85 55 86
REMARK SMILES IDX 61 87 56 88 57 89 58 90 59 91 60 92
REMARK H PARENT 20 7 25 29 81 48 51 59
REMARK Flexibility Score: inf
ROOT
ATOM      1  C   UNL A   1      36.146  21.632  25.323  1.00  0.00     0.023 C 
ENDROOT
BRANCH   1   2
ATOM      2  C   UNL A   1      35.103  22.167  24.313  1.00  0.00     0.023 C 
BRANCH   2   3
ATOM      3  C   UNL A   1      34.684  23.631  24.509  1.00  0.00     0.116 C 
BRANCH   3   4
ATOM      4  N   UNL A   1      34.354  24.276  23.243  1.00  0.00    -0.351 N 
ATOM      5  C   UNL A   1      33.737  25.431  22.825  1.00  0.00     0.265 C 
ATOM      6  O   UNL A   1      33.669  25.603  21.608  1.00  0.00    -0.268 OA
ATOM      7  H   UNL A   1      34.656  23.737  22.477  1.00  0.00     0.163 HD
BRANCH   5   8
ATOM      8  C   UNL A   1      33.125  26.523  23.730  1.00  0.00     0.112 C 
ATOM      9  C   UNL A   1      33.558  30.969  27.464  1.00  0.00     0.092 C 
ATOM     10  C   UNL A   1      33.224  29.873  26.532  1.00  0.00     0.149 A 
ATOM     11  N   UNL A   1      34.188  29.095  25.944  1.00  0.00    -0.195 NA
ATOM     12  N   UNL A   1      31.969  29.579  26.167  1.00  0.00    -0.154 NA
ATOM     13  C   UNL A   1      33.517  28.270  25.167  1.00  0.00     0.249 A 
ATOM     14  N   UNL A   1      32.192  28.581  25.288  1.00  0.00    -0.219 N 
ATOM     15  N   UNL A   1      33.972  27.297  24.348  1.00  0.00    -0.211 NA
ATOM     16  C   UNL A   1      31.140  27.916  24.557  1.00  0.00     0.184 C 
ATOM     17  C   UNL A   1      31.633  26.621  23.895  1.00  0.00     0.098 C 
BRANCH  16  18
ATOM     18  C   UNL A   1      30.486  28.837  23.563  1.00  0.00     0.136 A 
ATOM     19  C   UNL A   1      30.516  28.989  22.186  1.00  0.00     0.056 A 
ATOM     20  O   UNL A   1      29.690  29.813  24.107  1.00  0.00    -0.404 OA
ATOM     21  C   UNL A   1      29.683  30.094  21.868  1.00  0.00     0.134 A 
ATOM     22  C   UNL A   1      29.201  30.543  23.073  1.00  0.00     0.433 A 
BRANCH  22  23
ATOM     23  N   UNL A   1      28.308  31.603  23.417  1.00  0.00     0.102 N 
ATOM     24  O   UNL A   1      28.776  32.748  23.385  1.00  0.00    -0.256 OA
ATOM     25  O   UNL A   1      27.144  31.299  23.708  1.00  0.00    -0.256 OA
ENDBRANCH  22  23
ENDBRANCH  16  18
ENDBRANCH   5   8
ENDBRANCH   3   4
ENDBRANCH   2   3
ENDBRANCH   1   2
BRANCH   1  26
ATOM     26  C   UNL A   1      37.553  22.272  25.278  1.00  0.00     0.116 C 
BRANCH  26  27
ATOM     27  N   UNL A   1      38.566  21.378  25.820  1.00  0.00    -0.352 N 
ATOM     28  C   UNL A   1      39.829  21.567  26.324  1.00  0.00     0.251 C 
ATOM     29  H   UNL A   1      38.284  20.435  25.828  1.00  0.00     0.163 HD
ATOM     30  O   UNL A   1      40.502  20.551  26.513  1.00  0.00    -0.269 OA
BRANCH  28  31
ATOM     31  C   UNL A   1      40.443  22.885  26.642  1.00  0.00     0.039 A 
ATOM     32  C   UNL A   1      41.718  23.148  26.107  1.00  0.00     0.014 A 
ATOM     33  C   UNL A   1      39.907  23.793  27.553  1.00  0.00     0.014 A 
ATOM     34  C   UNL A   1      42.424  24.320  26.419  1.00  0.00     0.010 A 
ATOM     35  C   UNL A   1      40.623  24.964  27.874  1.00  0.00     0.010 A 
ATOM     36  C   UNL A   1      41.873  25.265  27.285  1.00  0.00    -0.014 A 
BRANCH  36  37
ATOM     37  C   UNL A   1      42.505  26.617  27.380  1.00  0.00     0.031 A 
ATOM     38  C   UNL A   1      41.521  27.712  27.593  1.00  0.00     0.074 A 
ATOM     39  C   UNL A   1      43.743  26.915  27.851  1.00  0.00     0.049 A 
ATOM     40  N   UNL A   1      41.094  27.939  28.796  1.00  0.00    -0.248 NA
ATOM     41  C   UNL A   1      40.757  28.402  26.561  1.00  0.00     0.031 C 
ATOM     42  C   UNL A   1      44.524  26.042  28.734  1.00  0.00     0.029 A 
ATOM     43  N   UNL A   1      44.448  28.112  27.857  1.00  0.00    -0.354 N 
ATOM     44  C   UNL A   1      39.964  28.719  28.708  1.00  0.00     0.074 A 
ATOM     45  C   UNL A   1      39.812  29.018  27.299  1.00  0.00     0.031 C 
ATOM     46  C   UNL A   1      45.496  26.775  29.320  1.00  0.00     0.029 A 
ATOM     47  C   UNL A   1      45.524  28.117  28.740  1.00  0.00     0.049 A 
ATOM     48  H   UNL A   1      44.208  28.883  27.293  1.00  0.00     0.167 HD
ATOM     49  C   UNL A   1      39.254  29.028  29.825  1.00  0.00     0.031 A 
ATOM     50  C   UNL A   1      46.106  29.198  29.331  1.00  0.00     0.031 A 
ATOM     51  C   UNL A   1      39.768  28.549  31.099  1.00  0.00     0.049 A 
ATOM     52  C   UNL A   1      45.127  29.571  30.408  1.00  0.00     0.074 A 
ATOM     53  C   UNL A   1      39.272  28.179  32.335  1.00  0.00     0.029 A 
ATOM     54  N   UNL A   1      41.125  28.429  31.221  1.00  0.00    -0.354 N 
ATOM     55  N   UNL A   1      45.005  28.994  31.571  1.00  0.00    -0.248 NA
ATOM     56  C   UNL A   1      44.049  30.520  30.076  1.00  0.00     0.031 C 
ATOM     57  C   UNL A   1      40.392  28.026  33.222  1.00  0.00     0.029 A 
ATOM     58  C   UNL A   1      41.536  28.359  32.520  1.00  0.00     0.049 A 
ATOM     59  H   UNL A   1      41.740  28.397  30.452  1.00  0.00     0.167 HD
ATOM     60  C   UNL A   1      43.706  29.274  31.963  1.00  0.00     0.074 A 
ATOM     61  C   UNL A   1      43.224  30.334  31.100  1.00  0.00     0.031 C 
ATOM     62  C   UNL A   1      42.957  28.445  32.743  1.00  0.00     0.031 A 
BRANCH  49  63
ATOM     63  C   UNL A   1      38.112  29.977  29.853  1.00  0.00    -0.014 A 
ATOM     64  C   UNL A   1      38.438  31.347  29.778  1.00  0.00     0.010 A 
ATOM     65  C   UNL A   1      36.799  29.602  30.164  1.00  0.00     0.010 A 
ATOM     66  C   UNL A   1      37.491  32.327  30.064  1.00  0.00     0.020 A 
ATOM     67  C   UNL A   1      35.839  30.587  30.445  1.00  0.00     0.020 A 
ATOM     68  C   UNL A   1      36.200  31.941  30.419  1.00  0.00     0.054 A 
BRANCH  68  69
ATOM     69  S   UNL A   1      35.031  33.239  30.909  1.00  0.00     0.124 S 
ATOM     70  O   UNL A   1      34.164  32.536  31.851  1.00  0.00    -0.237 OA
ATOM     71  O   UNL A   1      35.911  34.247  31.492  1.00  0.00    -0.237 OA
ATOM     72  O   UNL A   1      34.397  33.623  29.650  1.00  0.00    -0.744 OA
ENDBRANCH  68  69
ENDBRANCH  49  63
BRANCH  50  73
ATOM     73  C   UNL A   1      46.789  30.234  28.493  1.00  0.00    -0.014 A 
ATOM     74  C   UNL A   1      46.103  31.436  28.217  1.00  0.00     0.010 A 
ATOM     75  C   UNL A   1      48.049  30.066  27.887  1.00  0.00     0.010 A 
ATOM     76  C   UNL A   1      46.706  32.477  27.498  1.00  0.00     0.020 A 
ATOM     77  C   UNL A   1      48.678  31.114  27.196  1.00  0.00     0.020 A 
ATOM     78  C   UNL A   1      48.011  32.326  27.032  1.00  0.00     0.054 A 
BRANCH  78  79
ATOM     79  S   UNL A   1      48.854  33.755  26.300  1.00  0.00     0.124 S 
ATOM     80  O   UNL A   1      49.955  33.127  25.568  1.00  0.00    -0.237 OA
ATOM     81  O   UNL A   1      47.801  34.339  25.467  1.00  0.00    -0.237 OA
ATOM     82  O   UNL A   1      49.244  34.556  27.451  1.00  0.00    -0.744 OA
ENDBRANCH  78  79
ENDBRANCH  50  73
BRANCH  62  83
ATOM     83  C   UNL A   1      43.668  27.518  33.660  1.00  0.00    -0.014 A 
ATOM     84  C   UNL A   1      43.716  27.817  35.033  1.00  0.00     0.010 A 
ATOM     85  C   UNL A   1      44.219  26.313  33.198  1.00  0.00     0.010 A 
ATOM     86  C   UNL A   1      44.282  26.918  35.934  1.00  0.00     0.020 A 
ATOM     87  C   UNL A   1      44.789  25.408  34.098  1.00  0.00     0.020 A 
ATOM     88  C   UNL A   1      44.802  25.711  35.461  1.00  0.00     0.054 A 
BRANCH  88  89
ATOM     89  S   UNL A   1      45.435  24.522  36.671  1.00  0.00     0.124 S 
ATOM     90  O   UNL A   1      46.880  24.684  36.548  1.00  0.00    -0.237 OA
ATOM     91  O   UNL A   1      44.853  25.006  37.921  1.00  0.00    -0.237 OA
ATOM     92  O   UNL A   1      44.912  23.239  36.207  1.00  0.00    -0.744 OA
ENDBRANCH  88  89
ENDBRANCH  62  83
ENDBRANCH  36  37
ENDBRANCH  28  31
ENDBRANCH  26  27
ENDBRANCH   1  26
TORSDOF 16
ENDMDL
MODEL 3
REMARK VINA RESULT:     -11.6      7.126     14.422
REMARK SMILES Cc1nc2n(n1)[C@@H](c1ccc([N+](=O)[O-])o1)CC(C(=O)NCCCCNC(=O)c1ccc(-c3c4nc(c(-c5ccc(S(=O)(=O)[O-])cc5)c5ccc([nH]5)c(-c5ccc(S(=O)(=O)[O-])cc5)c5nc(c(-c6ccc(S(=O)(=O)[O-])cc6)c6ccc3[nH]6)C=C5)C=C4)cc1)=N2
REMARK SMILES IDX 23 1 22 2 21 3 20 4 18 5 19 6 17 8 1 9 2 10 3 11 6 12 4 13
REMARK SMILES IDX 5 14 88 15 7 16 16 17 8 18 9 19 15 20 10 21 11 22 12 23
REMARK SMILES IDX 13 24 14 25 24 26 25 27 26 28 27 30 28 31 29 32 87 33 30 34
REMARK SMILES IDX 86 35 31 36 32 37 33 38 80 39 34 40 85 41 79 42 81 43 35 44
REMARK SMILES IDX 84 45 78 46 77 47 36 49 66 50 47 51 65 52 48 53 51 54 64 55
REMARK SMILES IDX 82 56 49 57 50 58 63 60 83 61 52 62 37 63 38 64 46 65 39 66
REMARK SMILES IDX 45 67 40 68 41 69 42 70 43 71 44 72 67 73 68 74 76 75 69 76
REMARK SMILES IDX 75 77 70 78 71 79 72 80 73 81 74 82 53 83 54 84 62 85 55 86
REMARK SMILES IDX 61 87 56 88 57 89 58 90 59 91 60 92
REMARK H PARENT 20 7 25 29 81 48 51 59
REMARK Flexibility Score: inf
ROOT
ATOM      1  C   UNL A   1      46.468  20.725  36.026  1.00  0.00     0.023 C 
ENDROOT
BRANCH   1   2
ATOM      2  C   UNL A   1      47.634  20.023  36.763  1.00  0.00     0.023 C 
BRANCH   2   3
ATOM      3  C   UNL A   1      47.296  19.459  38.149  1.00  0.00     0.116 C 
BRANCH   3   4
ATOM      4  N   UNL A   1      46.155  18.550  38.104  1.00  0.00    -0.351 N 
ATOM      5  C   UNL A   1      45.359  17.877  38.999  1.00  0.00     0.265 C 
ATOM      6  O   UNL A   1      44.460  17.188  38.517  1.00  0.00    -0.268 OA
ATOM      7  H   UNL A   1      45.879  18.370  37.176  1.00  0.00     0.163 HD
BRANCH   5   8
ATOM      8  C   UNL A   1      45.486  17.902  40.538  1.00  0.00     0.112 C 
ATOM      9  C   UNL A   1      45.210  20.592  45.694  1.00  0.00     0.092 C 
ATOM     10  C   UNL A   1      45.334  19.724  44.505  1.00  0.00     0.149 A 
ATOM     11  N   UNL A   1      45.135  20.195  43.233  1.00  0.00    -0.195 NA
ATOM     12  N   UNL A   1      45.616  18.417  44.579  1.00  0.00    -0.154 NA
ATOM     13  C   UNL A   1      45.293  19.140  42.462  1.00  0.00     0.249 A 
ATOM     14  N   UNL A   1      45.557  18.075  43.276  1.00  0.00    -0.219 N 
ATOM     15  N   UNL A   1      45.197  19.032  41.119  1.00  0.00    -0.211 NA
ATOM     16  C   UNL A   1      45.755  16.727  42.799  1.00  0.00     0.184 C 
ATOM     17  C   UNL A   1      45.965  16.683  41.278  1.00  0.00     0.098 C 
BRANCH  16  18
ATOM     18  C   UNL A   1      44.640  15.815  43.235  1.00  0.00     0.136 A 
ATOM     19  C   UNL A   1      44.184  15.320  44.446  1.00  0.00     0.056 A 
ATOM     20  O   UNL A   1      43.890  15.281  42.217  1.00  0.00    -0.404 OA
ATOM     21  C   UNL A   1      43.089  14.460  44.161  1.00  0.00     0.134 A 
ATOM     22  C   UNL A   1      42.953  14.488  42.795  1.00  0.00     0.433 A 
BRANCH  22  23
ATOM     23  N   UNL A   1      42.031  13.855  41.908  1.00  0.00     0.102 N 
ATOM     24  O   UNL A   1      42.304  13.907  40.702  1.00  0.00    -0.256 OA
ATOM     25  O   UNL A   1      41.044  13.299  42.408  1.00  0.00    -0.256 OA
ENDBRANCH  22  23
ENDBRANCH  16  18
ENDBRANCH   5   8
ENDBRANCH   3   4
ENDBRANCH   2   3
ENDBRANCH   1   2
BRANCH   1  26
ATOM     26  C   UNL A   1      46.444  22.270  36.072  1.00  0.00     0.116 C 
BRANCH  26  27
ATOM     27  N   UNL A   1      45.125  22.775  36.427  1.00  0.00    -0.352 N 
ATOM     28  C   UNL A   1      44.302  23.738  35.898  1.00  0.00     0.251 C 
ATOM     29  H   UNL A   1      44.740  22.327  37.214  1.00  0.00     0.163 HD
ATOM     30  O   UNL A   1      43.323  24.056  36.576  1.00  0.00    -0.269 OA
BRANCH  28  31
ATOM     31  C   UNL A   1      44.507  24.427  34.595  1.00  0.00     0.039 A 
ATOM     32  C   UNL A   1      44.667  25.826  34.623  1.00  0.00     0.014 A 
ATOM     33  C   UNL A   1      44.392  23.799  33.356  1.00  0.00     0.014 A 
ATOM     34  C   UNL A   1      44.775  26.582  33.445  1.00  0.00     0.010 A 
ATOM     35  C   UNL A   1      44.489  24.562  32.175  1.00  0.00     0.010 A 
ATOM     36  C   UNL A   1      44.719  25.957  32.199  1.00  0.00    -0.014 A 
BRANCH  36  37
ATOM     37  C   UNL A   1      45.115  26.731  30.982  1.00  0.00     0.031 A 
ATOM     38  C   UNL A   1      45.210  25.891  29.758  1.00  0.00     0.074 A 
ATOM     39  C   UNL A   1      44.850  28.035  30.714  1.00  0.00     0.049 A 
ATOM     40  N   UNL A   1      44.124  25.617  29.105  1.00  0.00    -0.248 NA
ATOM     41  C   UNL A   1      46.359  25.098  29.338  1.00  0.00     0.031 C 
ATOM     42  C   UNL A   1      43.782  28.810  31.354  1.00  0.00     0.029 A 
ATOM     43  N   UNL A   1      45.283  28.855  29.680  1.00  0.00    -0.354 N 
ATOM     44  C   UNL A   1      44.390  24.569  28.253  1.00  0.00     0.074 A 
ATOM     45  C   UNL A   1      45.805  24.304  28.401  1.00  0.00     0.031 C 
ATOM     46  C   UNL A   1      43.533  29.907  30.606  1.00  0.00     0.029 A 
ATOM     47  C   UNL A   1      44.523  30.012  29.534  1.00  0.00     0.049 A 
ATOM     48  H   UNL A   1      46.052  28.638  29.105  1.00  0.00     0.167 HD
ATOM     49  C   UNL A   1      43.392  24.015  27.515  1.00  0.00     0.031 A 
ATOM     50  C   UNL A   1      44.358  30.760  28.407  1.00  0.00     0.031 A 
ATOM     51  C   UNL A   1      42.068  24.607  27.626  1.00  0.00     0.049 A 
ATOM     52  C   UNL A   1      43.403  29.941  27.586  1.00  0.00     0.074 A 
ATOM     53  C   UNL A   1      40.749  24.206  27.516  1.00  0.00     0.029 A 
ATOM     54  N   UNL A   1      42.002  25.949  27.877  1.00  0.00    -0.354 N 
ATOM     55  N   UNL A   1      42.109  29.882  27.741  1.00  0.00    -0.248 NA
ATOM     56  C   UNL A   1      43.958  28.937  26.660  1.00  0.00     0.031 C 
ATOM     57  C   UNL A   1      39.936  25.391  27.522  1.00  0.00     0.029 A 
ATOM     58  C   UNL A   1      40.781  26.484  27.583  1.00  0.00     0.049 A 
ATOM     59  H   UNL A   1      42.755  26.475  28.233  1.00  0.00     0.167 HD
ATOM     60  C   UNL A   1      41.748  28.666  27.184  1.00  0.00     0.074 A 
ATOM     61  C   UNL A   1      42.878  28.208  26.401  1.00  0.00     0.031 C 
ATOM     62  C   UNL A   1      40.691  27.922  27.617  1.00  0.00     0.031 A 
BRANCH  49  63
ATOM     63  C   UNL A   1      43.603  22.985  26.466  1.00  0.00    -0.014 A 
ATOM     64  C   UNL A   1      43.104  21.697  26.746  1.00  0.00     0.010 A 
ATOM     65  C   UNL A   1      44.435  23.170  25.355  1.00  0.00     0.010 A 
ATOM     66  C   UNL A   1      43.473  20.600  25.973  1.00  0.00     0.020 A 
ATOM     67  C   UNL A   1      44.804  22.067  24.567  1.00  0.00     0.020 A 
ATOM     68  C   UNL A   1      44.341  20.787  24.899  1.00  0.00     0.054 A 
BRANCH  68  69
ATOM     69  S   UNL A   1      44.900  19.318  23.993  1.00  0.00     0.124 S 
ATOM     70  O   UNL A   1      46.349  19.379  24.168  1.00  0.00    -0.237 OA
ATOM     71  O   UNL A   1      44.224  18.237  24.705  1.00  0.00    -0.237 OA
ATOM     72  O   UNL A   1      44.428  19.553  22.631  1.00  0.00    -0.744 OA
ENDBRANCH  68  69
ENDBRANCH  49  63
BRANCH  50  73
ATOM     73  C   UNL A   1      45.533  31.454  27.790  1.00  0.00    -0.014 A 
ATOM     74  C   UNL A   1      45.301  32.362  26.735  1.00  0.00     0.010 A 
ATOM     75  C   UNL A   1      46.876  31.209  28.135  1.00  0.00     0.010 A 
ATOM     76  C   UNL A   1      46.345  33.098  26.157  1.00  0.00     0.020 A 
ATOM     77  C   UNL A   1      47.925  31.965  27.590  1.00  0.00     0.020 A 
ATOM     78  C   UNL A   1      47.647  32.929  26.624  1.00  0.00     0.054 A 
BRANCH  78  79
ATOM     79  S   UNL A   1      48.947  34.041  26.023  1.00  0.00     0.124 S 
ATOM     80  O   UNL A   1      49.986  33.104  25.592  1.00  0.00    -0.237 OA
ATOM     81  O   UNL A   1      48.265  34.758  24.946  1.00  0.00    -0.237 OA
ATOM     82  O   UNL A   1      49.278  34.849  27.188  1.00  0.00    -0.744 OA
ENDBRANCH  78  79
ENDBRANCH  50  73
BRANCH  62  83
ATOM     83  C   UNL A   1      39.569  28.625  28.288  1.00  0.00    -0.014 A 
ATOM     84  C   UNL A   1      39.437  28.529  29.684  1.00  0.00     0.010 A 
ATOM     85  C   UNL A   1      38.689  29.449  27.568  1.00  0.00     0.010 A 
ATOM     86  C   UNL A   1      38.461  29.261  30.356  1.00  0.00     0.020 A 
ATOM     87  C   UNL A   1      37.708  30.185  28.238  1.00  0.00     0.020 A 
ATOM     88  C   UNL A   1      37.611  30.097  29.628  1.00  0.00     0.054 A 
BRANCH  88  89
ATOM     89  S   UNL A   1      36.423  31.111  30.544  1.00  0.00     0.124 S 
ATOM     90  O   UNL A   1      36.012  30.220  31.624  1.00  0.00    -0.237 OA
ATOM     91  O   UNL A   1      37.235  32.257  30.949  1.00  0.00    -0.237 OA
ATOM     92  O   UNL A   1      35.387  31.411  29.558  1.00  0.00    -0.744 OA
ENDBRANCH  88  89
ENDBRANCH  62  83
ENDBRANCH  36  37
ENDBRANCH  28  31
ENDBRANCH  26  27
ENDBRANCH   1  26
TORSDOF 16
ENDMDL
