MODEL 1
REMARK VINA RESULT:      -9.2      0.000      0.000
REMARK SMILES C[C@H](Oc1cc2oc(=O)cc(-c3ccccc3)c2cc1Cl)C(=O)NCCCCNC(=O)c1ccc(-c2c3nc(c(-c4ccc(S(=O)(=O)[O-])cc4)c4ccc([nH]4)c(-c4ccc(S(=O)(=O)[O-])cc4)c4nc(c(-c5ccc(S(=O)(=O)[O-])cc5)c5ccc2[nH]5)C=C4)C=C3)cc1
REMARK SMILES IDX 26 1 25 2 24 3 22 4 23 5 2 7 1 8 3 9 4 10 5 11 20 12 6 13
REMARK SMILES IDX 19 14 21 15 7 16 18 17 8 18 11 19 9 20 10 21 12 22 13 23
REMARK SMILES IDX 17 24 14 25 16 26 15 27 27 28 28 29 29 30 30 31 31 33 32 34
REMARK SMILES IDX 33 35 91 36 34 37 90 38 35 39 36 40 37 41 84 42 38 43 89 44
REMARK SMILES IDX 83 45 85 46 39 47 88 48 82 49 81 50 40 52 70 53 51 54 69 55
REMARK SMILES IDX 52 56 55 57 68 58 86 59 53 60 54 61 67 63 87 64 56 65 41 66
REMARK SMILES IDX 42 67 50 68 43 69 49 70 44 71 45 72 46 73 47 74 48 75 71 76
REMARK SMILES IDX 72 77 80 78 73 79 79 80 74 81 75 82 76 83 77 84 78 85 57 86
REMARK SMILES IDX 58 87 66 88 59 89 65 90 60 91 61 92 62 93 63 94 64 95
REMARK H PARENT 24 6 29 32 85 51 55 62
REMARK Flexibility Score: inf
ROOT
ATOM      1  C   UNL A   1      43.780  22.525  26.189  1.00  0.00     0.023 C 
ENDROOT
BRANCH   1   2
ATOM      2  C   UNL A   1      43.900  24.046  26.184  1.00  0.00     0.116 C 
BRANCH   2   3
ATOM      3  N   UNL A   1      45.215  24.496  26.606  1.00  0.00    -0.353 N 
ATOM      4  C   UNL A   1      45.829  25.703  26.388  1.00  0.00     0.260 C 
ATOM      5  O   UNL A   1      46.963  25.872  26.843  1.00  0.00    -0.271 OA
ATOM      6  H   UNL A   1      45.740  23.843  27.121  1.00  0.00     0.163 HD
BRANCH   4   7
ATOM      7  C   UNL A   1      45.081  26.838  25.667  1.00  0.00     0.258 C 
ATOM      8  C   UNL A   1      46.068  27.489  24.696  1.00  0.00     0.064 C 
BRANCH   7   9
ATOM      9  O   UNL A   1      44.445  27.591  26.701  1.00  0.00    -0.479 OA
BRANCH   9  10
ATOM     10  C   UNL A   1      44.635  28.900  27.003  1.00  0.00     0.142 A 
ATOM     11  C   UNL A   1      45.745  29.438  27.636  1.00  0.00     0.096 A 
ATOM     12  C   UNL A   1      43.580  29.770  26.665  1.00  0.00     0.084 A 
ATOM     13  C   UNL A   1      45.732  30.777  28.041  1.00  0.00     0.142 A 
ATOM     14  C   UNL A   1      43.603  31.123  27.028  1.00  0.00     0.037 A 
ATOM     15  Cl  UNL A   1      42.188  29.204  25.803  1.00  0.00    -0.080 Cl
ATOM     16  O   UNL A   1      46.843  31.203  28.792  1.00  0.00    -0.423 OA
ATOM     17  C   UNL A   1      44.674  31.637  27.761  1.00  0.00     0.027 A 
ATOM     18  C   UNL A   1      46.872  32.465  29.358  1.00  0.00     0.336 A 
ATOM     19  C   UNL A   1      44.729  33.027  28.242  1.00  0.00    -0.000 A 
ATOM     20  O   UNL A   1      47.785  32.834  30.086  1.00  0.00    -0.246 OA
ATOM     21  C   UNL A   1      45.769  33.373  29.017  1.00  0.00     0.103 A 
BRANCH  19  22
ATOM     22  C   UNL A   1      43.737  34.090  27.965  1.00  0.00    -0.017 A 
ATOM     23  C   UNL A   1      43.738  34.743  26.724  1.00  0.00     0.009 A 
ATOM     24  C   UNL A   1      42.784  34.451  28.925  1.00  0.00     0.009 A 
ATOM     25  C   UNL A   1      42.801  35.739  26.448  1.00  0.00     0.001 A 
ATOM     26  C   UNL A   1      41.841  35.443  28.643  1.00  0.00     0.001 A 
ATOM     27  C   UNL A   1      41.850  36.086  27.406  1.00  0.00     0.000 A 
ENDBRANCH  19  22
ENDBRANCH   9  10
ENDBRANCH   7   9
ENDBRANCH   4   7
ENDBRANCH   2   3
ENDBRANCH   1   2
BRANCH   1  28
ATOM     28  C   UNL A   1      42.454  21.986  25.655  1.00  0.00     0.023 C 
BRANCH  28  29
ATOM     29  C   UNL A   1      41.326  21.906  26.678  1.00  0.00     0.116 C 
BRANCH  29  30
ATOM     30  N   UNL A   1      40.003  21.898  26.070  1.00  0.00    -0.352 N 
ATOM     31  C   UNL A   1      39.027  22.865  26.119  1.00  0.00     0.251 C 
ATOM     32  H   UNL A   1      39.778  21.091  25.554  1.00  0.00     0.163 HD
ATOM     33  O   UNL A   1      37.912  22.636  25.658  1.00  0.00    -0.269 OA
BRANCH  31  34
ATOM     34  C   UNL A   1      39.317  24.164  26.762  1.00  0.00     0.039 A 
ATOM     35  C   UNL A   1      38.888  24.383  28.073  1.00  0.00     0.014 A 
ATOM     36  C   UNL A   1      40.038  25.151  26.083  1.00  0.00     0.014 A 
ATOM     37  C   UNL A   1      39.248  25.562  28.730  1.00  0.00     0.010 A 
ATOM     38  C   UNL A   1      40.457  26.292  26.763  1.00  0.00     0.010 A 
ATOM     39  C   UNL A   1      40.069  26.508  28.094  1.00  0.00    -0.014 A 
BRANCH  39  40
ATOM     40  C   UNL A   1      40.544  27.723  28.806  1.00  0.00     0.031 A 
ATOM     41  C   UNL A   1      41.914  27.750  29.427  1.00  0.00     0.074 A 
ATOM     42  C   UNL A   1      39.716  28.777  28.954  1.00  0.00     0.049 A 
ATOM     43  N   UNL A   1      42.478  28.693  30.138  1.00  0.00    -0.248 NA
ATOM     44  C   UNL A   1      42.749  26.551  29.249  1.00  0.00     0.031 C 
ATOM     45  C   UNL A   1      38.347  28.860  28.436  1.00  0.00     0.029 A 
ATOM     46  N   UNL A   1      39.900  29.978  29.591  1.00  0.00    -0.354 N 
ATOM     47  C   UNL A   1      43.722  28.195  30.508  1.00  0.00     0.074 A 
ATOM     48  C   UNL A   1      43.811  26.850  29.983  1.00  0.00     0.031 C 
ATOM     49  C   UNL A   1      37.829  30.058  28.752  1.00  0.00     0.029 A 
ATOM     50  C   UNL A   1      38.808  30.812  29.528  1.00  0.00     0.049 A 
ATOM     51  H   UNL A   1      40.737  30.221  30.051  1.00  0.00     0.167 HD
ATOM     52  C   UNL A   1      44.709  28.806  31.206  1.00  0.00     0.031 A 
ATOM     53  C   UNL A   1      38.613  32.043  30.041  1.00  0.00     0.031 A 
ATOM     54  C   UNL A   1      44.623  30.150  31.715  1.00  0.00     0.049 A 
ATOM     55  C   UNL A   1      39.721  32.700  30.816  1.00  0.00     0.074 A 
ATOM     56  C   UNL A   1      45.593  30.880  32.380  1.00  0.00     0.029 A 
ATOM     57  N   UNL A   1      43.504  30.963  31.621  1.00  0.00    -0.354 N 
ATOM     58  N   UNL A   1      40.917  32.238  31.097  1.00  0.00    -0.248 NA
ATOM     59  C   UNL A   1      39.458  34.049  31.335  1.00  0.00     0.031 C 
ATOM     60  C   UNL A   1      45.043  32.118  32.732  1.00  0.00     0.029 A 
ATOM     61  C   UNL A   1      43.751  32.179  32.235  1.00  0.00     0.049 A 
ATOM     62  H   UNL A   1      42.659  30.713  31.181  1.00  0.00     0.167 HD
ATOM     63  C   UNL A   1      41.558  33.252  31.801  1.00  0.00     0.074 A 
ATOM     64  C   UNL A   1      40.623  34.354  31.893  1.00  0.00     0.031 C 
ATOM     65  C   UNL A   1      42.810  33.268  32.321  1.00  0.00     0.031 A 
BRANCH  52  66
ATOM     66  C   UNL A   1      45.966  28.020  31.467  1.00  0.00    -0.014 A 
ATOM     67  C   UNL A   1      47.077  28.120  30.609  1.00  0.00     0.010 A 
ATOM     68  C   UNL A   1      46.052  27.194  32.602  1.00  0.00     0.010 A 
ATOM     69  C   UNL A   1      48.231  27.372  30.856  1.00  0.00     0.020 A 
ATOM     70  C   UNL A   1      47.215  26.467  32.869  1.00  0.00     0.020 A 
ATOM     71  C   UNL A   1      48.292  26.546  31.982  1.00  0.00     0.054 A 
BRANCH  71  72
ATOM     72  S   UNL A   1      49.807  25.599  32.285  1.00  0.00     0.124 S 
ATOM     73  O   UNL A   1      50.080  25.038  30.964  1.00  0.00    -0.237 OA
ATOM     74  O   UNL A   1      50.744  26.625  32.737  1.00  0.00    -0.237 OA
ATOM     75  O   UNL A   1      49.413  24.628  33.303  1.00  0.00    -0.744 OA
ENDBRANCH  71  72
ENDBRANCH  52  66
BRANCH  53  76
ATOM     76  C   UNL A   1      37.319  32.743  29.817  1.00  0.00    -0.014 A 
ATOM     77  C   UNL A   1      36.412  32.915  30.878  1.00  0.00     0.010 A 
ATOM     78  C   UNL A   1      36.992  33.256  28.548  1.00  0.00     0.010 A 
ATOM     79  C   UNL A   1      35.196  33.574  30.671  1.00  0.00     0.020 A 
ATOM     80  C   UNL A   1      35.790  33.938  28.344  1.00  0.00     0.020 A 
ATOM     81  C   UNL A   1      34.893  34.083  29.405  1.00  0.00     0.054 A 
BRANCH  81  82
ATOM     82  S   UNL A   1      33.336  34.984  29.175  1.00  0.00     0.124 S 
ATOM     83  O   UNL A   1      32.764  34.950  30.518  1.00  0.00    -0.237 OA
ATOM     84  O   UNL A   1      33.792  36.294  28.715  1.00  0.00    -0.237 OA
ATOM     85  O   UNL A   1      32.628  34.191  28.172  1.00  0.00    -0.744 OA
ENDBRANCH  81  82
ENDBRANCH  53  76
BRANCH  65  86
ATOM     86  C   UNL A   1      43.258  34.530  33.009  1.00  0.00    -0.014 A 
ATOM     87  C   UNL A   1      43.747  35.626  32.277  1.00  0.00     0.010 A 
ATOM     88  C   UNL A   1      43.135  34.638  34.407  1.00  0.00     0.010 A 
ATOM     89  C   UNL A   1      44.132  36.797  32.934  1.00  0.00     0.020 A 
ATOM     90  C   UNL A   1      43.494  35.817  35.064  1.00  0.00     0.020 A 
ATOM     91  C   UNL A   1      44.003  36.886  34.324  1.00  0.00     0.054 A 
BRANCH  91  92
ATOM     92  S   UNL A   1      44.467  38.433  35.149  1.00  0.00     0.124 S 
ATOM     93  O   UNL A   1      45.861  38.587  34.745  1.00  0.00    -0.237 OA
ATOM     94  O   UNL A   1      43.534  39.397  34.570  1.00  0.00    -0.237 OA
ATOM     95  O   UNL A   1      44.256  38.147  36.567  1.00  0.00    -0.744 OA
ENDBRANCH  91  92
ENDBRANCH  65  86
ENDBRANCH  39  40
ENDBRANCH  31  34
ENDBRANCH  29  30
ENDBRANCH  28  29
ENDBRANCH   1  28
TORSDOF 17
ENDMDL
MODEL 2
REMARK VINA RESULT:      -8.9      5.218      8.433
REMARK SMILES C[C@H](Oc1cc2oc(=O)cc(-c3ccccc3)c2cc1Cl)C(=O)NCCCCNC(=O)c1ccc(-c2c3nc(c(-c4ccc(S(=O)(=O)[O-])cc4)c4ccc([nH]4)c(-c4ccc(S(=O)(=O)[O-])cc4)c4nc(c(-c5ccc(S(=O)(=O)[O-])cc5)c5ccc2[nH]5)C=C4)C=C3)cc1
REMARK SMILES IDX 26 1 25 2 24 3 22 4 23 5 2 7 1 8 3 9 4 10 5 11 20 12 6 13
REMARK SMILES IDX 19 14 21 15 7 16 18 17 8 18 11 19 9 20 10 21 12 22 13 23
REMARK SMILES IDX 17 24 14 25 16 26 15 27 27 28 28 29 29 30 30 31 31 33 32 34
REMARK SMILES IDX 33 35 91 36 34 37 90 38 35 39 36 40 37 41 84 42 38 43 89 44
REMARK SMILES IDX 83 45 85 46 39 47 88 48 82 49 81 50 40 52 70 53 51 54 69 55
REMARK SMILES IDX 52 56 55 57 68 58 86 59 53 60 54 61 67 63 87 64 56 65 41 66
REMARK SMILES IDX 42 67 50 68 43 69 49 70 44 71 45 72 46 73 47 74 48 75 71 76
REMARK SMILES IDX 72 77 80 78 73 79 79 80 74 81 75 82 76 83 77 84 78 85 57 86
REMARK SMILES IDX 58 87 66 88 59 89 65 90 60 91 61 92 62 93 63 94 64 95
REMARK H PARENT 24 6 29 32 85 51 55 62
REMARK Flexibility Score: inf
ROOT
ATOM      1  C   UNL A   1      37.293  22.872  25.204  1.00  0.00     0.023 C 
ENDROOT
BRANCH   1   2
ATOM      2  C   UNL A   1      35.964  22.949  24.460  1.00  0.00     0.116 C 
BRANCH   2   3
ATOM      3  N   UNL A   1      35.126  21.789  24.708  1.00  0.00    -0.353 N 
ATOM      4  C   UNL A   1      34.122  21.624  25.626  1.00  0.00     0.260 C 
ATOM      5  O   UNL A   1      33.535  20.540  25.664  1.00  0.00    -0.271 OA
ATOM      6  H   UNL A   1      35.305  21.008  24.135  1.00  0.00     0.163 HD
BRANCH   4   7
ATOM      7  C   UNL A   1      33.690  22.797  26.525  1.00  0.00     0.258 C 
ATOM      8  C   UNL A   1      33.866  22.347  27.976  1.00  0.00     0.064 C 
BRANCH   7   9
ATOM      9  O   UNL A   1      32.420  23.213  26.022  1.00  0.00    -0.479 OA
BRANCH   9  10
ATOM     10  C   UNL A   1      32.157  24.289  25.237  1.00  0.00     0.142 A 
ATOM     11  C   UNL A   1      33.019  24.849  24.307  1.00  0.00     0.096 A 
ATOM     12  C   UNL A   1      30.900  24.897  25.425  1.00  0.00     0.084 A 
ATOM     13  C   UNL A   1      32.684  26.061  23.693  1.00  0.00     0.142 A 
ATOM     14  C   UNL A   1      30.554  26.082  24.762  1.00  0.00     0.037 A 
ATOM     15  Cl  UNL A   1      29.727  24.223  26.507  1.00  0.00    -0.080 Cl
ATOM     16  O   UNL A   1      33.672  26.625  22.865  1.00  0.00    -0.423 OA
ATOM     17  C   UNL A   1      31.467  26.703  23.909  1.00  0.00     0.027 A 
ATOM     18  C   UNL A   1      33.501  27.883  22.316  1.00  0.00     0.336 A 
ATOM     19  C   UNL A   1      31.201  27.987  23.239  1.00  0.00    -0.000 A 
ATOM     20  O   UNL A   1      34.378  28.435  21.661  1.00  0.00    -0.246 OA
ATOM     21  C   UNL A   1      32.197  28.527  22.518  1.00  0.00     0.103 A 
BRANCH  19  22
ATOM     22  C   UNL A   1      29.939  28.757  23.292  1.00  0.00    -0.017 A 
ATOM     23  C   UNL A   1      29.963  30.120  23.623  1.00  0.00     0.009 A 
ATOM     24  C   UNL A   1      28.712  28.147  23.005  1.00  0.00     0.009 A 
ATOM     25  C   UNL A   1      28.781  30.859  23.665  1.00  0.00     0.001 A 
ATOM     26  C   UNL A   1      27.530  28.892  23.038  1.00  0.00     0.001 A 
ATOM     27  C   UNL A   1      27.565  30.245  23.369  1.00  0.00     0.000 A 
ENDBRANCH  19  22
ENDBRANCH   9  10
ENDBRANCH   7   9
ENDBRANCH   4   7
ENDBRANCH   2   3
ENDBRANCH   1   2
BRANCH   1  28
ATOM     28  C   UNL A   1      37.486  23.937  26.283  1.00  0.00     0.023 C 
BRANCH  28  29
ATOM     29  C   UNL A   1      38.881  23.998  26.895  1.00  0.00     0.116 C 
BRANCH  29  30
ATOM     30  N   UNL A   1      39.897  24.448  25.956  1.00  0.00    -0.352 N 
ATOM     31  C   UNL A   1      40.738  25.531  26.049  1.00  0.00     0.251 C 
ATOM     32  H   UNL A   1      39.995  23.902  25.142  1.00  0.00     0.163 HD
ATOM     33  O   UNL A   1      41.448  25.843  25.097  1.00  0.00    -0.269 OA
BRANCH  31  34
ATOM     34  C   UNL A   1      40.755  26.338  27.288  1.00  0.00     0.039 A 
ATOM     35  C   UNL A   1      41.718  27.339  27.433  1.00  0.00     0.014 A 
ATOM     36  C   UNL A   1      39.803  26.128  28.291  1.00  0.00     0.014 A 
ATOM     37  C   UNL A   1      41.680  28.180  28.548  1.00  0.00     0.010 A 
ATOM     38  C   UNL A   1      39.722  27.012  29.363  1.00  0.00     0.010 A 
ATOM     39  C   UNL A   1      40.657  28.049  29.501  1.00  0.00    -0.014 A 
BRANCH  39  40
ATOM     40  C   UNL A   1      40.539  28.992  30.643  1.00  0.00     0.031 A 
ATOM     41  C   UNL A   1      41.421  28.831  31.853  1.00  0.00     0.074 A 
ATOM     42  C   UNL A   1      39.592  29.951  30.623  1.00  0.00     0.049 A 
ATOM     43  N   UNL A   1      41.423  29.516  32.968  1.00  0.00    -0.248 NA
ATOM     44  C   UNL A   1      42.411  27.743  31.814  1.00  0.00     0.031 C 
ATOM     45  C   UNL A   1      38.645  30.186  29.529  1.00  0.00     0.029 A 
ATOM     46  N   UNL A   1      39.262  30.904  31.554  1.00  0.00    -0.354 N 
ATOM     47  C   UNL A   1      42.395  28.930  33.769  1.00  0.00     0.074 A 
ATOM     48  C   UNL A   1      42.930  27.807  33.032  1.00  0.00     0.031 C 
ATOM     49  C   UNL A   1      37.863  31.232  29.840  1.00  0.00     0.029 A 
ATOM     50  C   UNL A   1      38.221  31.717  31.170  1.00  0.00     0.049 A 
ATOM     51  H   UNL A   1      39.726  30.997  32.417  1.00  0.00     0.167 HD
ATOM     52  C   UNL A   1      42.819  29.303  35.001  1.00  0.00     0.031 A 
ATOM     53  C   UNL A   1      37.618  32.735  31.814  1.00  0.00     0.031 A 
ATOM     54  C   UNL A   1      42.295  30.429  35.728  1.00  0.00     0.049 A 
ATOM     55  C   UNL A   1      38.103  33.128  33.182  1.00  0.00     0.074 A 
ATOM     56  C   UNL A   1      42.702  30.925  36.954  1.00  0.00     0.029 A 
ATOM     57  N   UNL A   1      41.250  31.232  35.298  1.00  0.00    -0.354 N 
ATOM     58  N   UNL A   1      39.071  32.604  33.895  1.00  0.00    -0.248 NA
ATOM     59  C   UNL A   1      37.419  34.257  33.829  1.00  0.00     0.031 C 
ATOM     60  C   UNL A   1      41.869  31.998  37.290  1.00  0.00     0.029 A 
ATOM     61  C   UNL A   1      40.981  32.205  36.246  1.00  0.00     0.049 A 
ATOM     62  H   UNL A   1      40.769  31.126  34.445  1.00  0.00     0.167 HD
ATOM     63  C   UNL A   1      39.132  33.357  35.063  1.00  0.00     0.074 A 
ATOM     64  C   UNL A   1      38.111  34.380  34.955  1.00  0.00     0.031 C 
ATOM     65  C   UNL A   1      39.961  33.216  36.126  1.00  0.00     0.031 A 
BRANCH  52  66
ATOM     66  C   UNL A   1      43.900  28.475  35.645  1.00  0.00    -0.014 A 
ATOM     67  C   UNL A   1      45.261  28.761  35.427  1.00  0.00     0.010 A 
ATOM     68  C   UNL A   1      43.553  27.416  36.504  1.00  0.00     0.010 A 
ATOM     69  C   UNL A   1      46.253  27.975  36.019  1.00  0.00     0.020 A 
ATOM     70  C   UNL A   1      44.542  26.646  37.121  1.00  0.00     0.020 A 
ATOM     71  C   UNL A   1      45.887  26.918  36.859  1.00  0.00     0.054 A 
BRANCH  71  72
ATOM     72  S   UNL A   1      47.195  25.924  37.625  1.00  0.00     0.124 S 
ATOM     73  O   UNL A   1      46.539  24.627  37.771  1.00  0.00    -0.237 OA
ATOM     74  O   UNL A   1      48.264  25.977  36.631  1.00  0.00    -0.237 OA
ATOM     75  O   UNL A   1      47.476  26.623  38.876  1.00  0.00    -0.744 OA
ENDBRANCH  71  72
ENDBRANCH  52  66
BRANCH  53  76
ATOM     76  C   UNL A   1      36.500  33.469  31.160  1.00  0.00    -0.014 A 
ATOM     77  C   UNL A   1      36.593  33.844  29.808  1.00  0.00     0.010 A 
ATOM     78  C   UNL A   1      35.333  33.784  31.879  1.00  0.00     0.010 A 
ATOM     79  C   UNL A   1      35.544  34.533  29.191  1.00  0.00     0.020 A 
ATOM     80  C   UNL A   1      34.272  34.448  31.258  1.00  0.00     0.020 A 
ATOM     81  C   UNL A   1      34.389  34.828  29.919  1.00  0.00     0.054 A 
BRANCH  81  82
ATOM     82  S   UNL A   1      33.018  35.672  29.081  1.00  0.00     0.124 S 
ATOM     83  O   UNL A   1      32.485  34.612  28.231  1.00  0.00    -0.237 OA
ATOM     84  O   UNL A   1      32.166  36.077  30.197  1.00  0.00    -0.237 OA
ATOM     85  O   UNL A   1      33.674  36.771  28.376  1.00  0.00    -0.744 OA
ENDBRANCH  81  82
ENDBRANCH  53  76
BRANCH  65  86
ATOM     86  C   UNL A   1      39.825  34.211  37.248  1.00  0.00    -0.014 A 
ATOM     87  C   UNL A   1      40.393  35.495  37.158  1.00  0.00     0.010 A 
ATOM     88  C   UNL A   1      39.068  33.874  38.385  1.00  0.00     0.010 A 
ATOM     89  C   UNL A   1      40.231  36.411  38.200  1.00  0.00     0.020 A 
ATOM     90  C   UNL A   1      38.882  34.798  39.416  1.00  0.00     0.020 A 
ATOM     91  C   UNL A   1      39.477  36.058  39.323  1.00  0.00     0.054 A 
BRANCH  91  92
ATOM     92  S   UNL A   1      39.243  37.282  40.640  1.00  0.00     0.124 S 
ATOM     93  O   UNL A   1      38.303  38.215  40.026  1.00  0.00    -0.237 OA
ATOM     94  O   UNL A   1      38.706  36.477  41.735  1.00  0.00    -0.237 OA
ATOM     95  O   UNL A   1      40.587  37.809  40.866  1.00  0.00    -0.744 OA
ENDBRANCH  91  92
ENDBRANCH  65  86
ENDBRANCH  39  40
ENDBRANCH  31  34
ENDBRANCH  29  30
ENDBRANCH  28  29
ENDBRANCH   1  28
TORSDOF 17
ENDMDL
MODEL 3
REMARK VINA RESULT:      -8.8      4.862     12.070
REMARK SMILES C[C@H](Oc1cc2oc(=O)cc(-c3ccccc3)c2cc1Cl)C(=O)NCCCCNC(=O)c1ccc(-c2c3nc(c(-c4ccc(S(=O)(=O)[O-])cc4)c4ccc([nH]4)c(-c4ccc(S(=O)(=O)[O-])cc4)c4nc(c(-c5ccc(S(=O)(=O)[O-])cc5)c5ccc2[nH]5)C=C4)C=C3)cc1
REMARK SMILES IDX 26 1 25 2 24 3 22 4 23 5 2 7 1 8 3 9 4 10 5 11 20 12 6 13
REMARK SMILES IDX 19 14 21 15 7 16 18 17 8 18 11 19 9 20 10 21 12 22 13 23
REMARK SMILES IDX 17 24 14 25 16 26 15 27 27 28 28 29 29 30 30 31 31 33 32 34
REMARK SMILES IDX 33 35 91 36 34 37 90 38 35 39 36 40 37 41 84 42 38 43 89 44
REMARK SMILES IDX 83 45 85 46 39 47 88 48 82 49 81 50 40 52 70 53 51 54 69 55
REMARK SMILES IDX 52 56 55 57 68 58 86 59 53 60 54 61 67 63 87 64 56 65 41 66
REMARK SMILES IDX 42 67 50 68 43 69 49 70 44 71 45 72 46 73 47 74 48 75 71 76
REMARK SMILES IDX 72 77 80 78 73 79 79 80 74 81 75 82 76 83 77 84 78 85 57 86
REMARK SMILES IDX 58 87 66 88 59 89 65 90 60 91 61 92 62 93 63 94 64 95
REMARK H PARENT 24 6 29 32 85 51 55 62
REMARK Flexibility Score: inf
ROOT
ATOM      1  C   UNL A   1      31.932  27.800  25.891  1.00  0.00     0.023 C 
ENDROOT
BRANCH   1   2
ATOM      2  C   UNL A   1      31.437  28.855  24.907  1.00  0.00     0.116 C 
BRANCH   2   3
ATOM      3  N   UNL A   1      30.944  28.270  23.673  1.00  0.00    -0.353 N 
ATOM      4  C   UNL A   1      31.633  27.600  22.695  1.00  0.00     0.260 C 
ATOM      5  O   UNL A   1      31.006  27.184  21.718  1.00  0.00    -0.271 OA
ATOM      6  H   UNL A   1      29.977  28.368  23.515  1.00  0.00     0.163 HD
BRANCH   4   7
ATOM      7  C   UNL A   1      33.136  27.309  22.863  1.00  0.00     0.258 C 
ATOM      8  C   UNL A   1      33.898  28.501  22.283  1.00  0.00     0.064 C 
BRANCH   7   9
ATOM      9  O   UNL A   1      33.324  25.986  22.359  1.00  0.00    -0.479 OA
BRANCH   9  10
ATOM     10  C   UNL A   1      33.213  24.820  23.044  1.00  0.00     0.142 A 
ATOM     11  C   UNL A   1      33.070  24.691  24.417  1.00  0.00     0.096 A 
ATOM     12  C   UNL A   1      33.286  23.642  22.273  1.00  0.00     0.084 A 
ATOM     13  C   UNL A   1      33.142  23.424  25.006  1.00  0.00     0.142 A 
ATOM     14  C   UNL A   1      33.301  22.376  22.872  1.00  0.00     0.037 A 
ATOM     15  Cl  UNL A   1      33.385  23.703  20.545  1.00  0.00    -0.080 Cl
ATOM     16  O   UNL A   1      33.121  23.398  26.413  1.00  0.00    -0.423 OA
ATOM     17  C   UNL A   1      33.267  22.254  24.262  1.00  0.00     0.027 A 
ATOM     18  C   UNL A   1      33.321  22.215  27.102  1.00  0.00     0.336 A 
ATOM     19  C   UNL A   1      33.357  20.962  24.961  1.00  0.00    -0.000 A 
ATOM     20  O   UNL A   1      33.392  22.174  28.324  1.00  0.00    -0.246 OA
ATOM     21  C   UNL A   1      33.408  20.986  26.303  1.00  0.00     0.103 A 
BRANCH  19  22
ATOM     22  C   UNL A   1      33.410  19.626  24.329  1.00  0.00    -0.017 A 
ATOM     23  C   UNL A   1      34.481  18.762  24.604  1.00  0.00     0.009 A 
ATOM     24  C   UNL A   1      32.398  19.200  23.460  1.00  0.00     0.009 A 
ATOM     25  C   UNL A   1      34.536  17.495  24.022  1.00  0.00     0.001 A 
ATOM     26  C   UNL A   1      32.450  17.928  22.885  1.00  0.00     0.001 A 
ATOM     27  C   UNL A   1      33.519  17.077  23.166  1.00  0.00     0.000 A 
ENDBRANCH  19  22
ENDBRANCH   9  10
ENDBRANCH   7   9
ENDBRANCH   4   7
ENDBRANCH   2   3
ENDBRANCH   1   2
BRANCH   1  28
ATOM     28  C   UNL A   1      32.923  28.314  26.935  1.00  0.00     0.023 C 
BRANCH  28  29
ATOM     29  C   UNL A   1      33.956  29.309  26.417  1.00  0.00     0.116 C 
BRANCH  29  30
ATOM     30  N   UNL A   1      33.741  30.662  26.908  1.00  0.00    -0.352 N 
ATOM     31  C   UNL A   1      34.471  31.369  27.833  1.00  0.00     0.251 C 
ATOM     32  H   UNL A   1      32.967  31.135  26.525  1.00  0.00     0.163 HD
ATOM     33  O   UNL A   1      34.069  32.458  28.232  1.00  0.00    -0.269 OA
BRANCH  31  34
ATOM     34  C   UNL A   1      35.722  30.793  28.371  1.00  0.00     0.039 A 
ATOM     35  C   UNL A   1      36.946  31.329  27.961  1.00  0.00     0.014 A 
ATOM     36  C   UNL A   1      35.687  29.750  29.301  1.00  0.00     0.014 A 
ATOM     37  C   UNL A   1      38.131  30.869  28.541  1.00  0.00     0.010 A 
ATOM     38  C   UNL A   1      36.861  29.346  29.930  1.00  0.00     0.010 A 
ATOM     39  C   UNL A   1      38.094  29.902  29.559  1.00  0.00    -0.014 A 
BRANCH  39  40
ATOM     40  C   UNL A   1      39.332  29.468  30.258  1.00  0.00     0.031 A 
ATOM     41  C   UNL A   1      39.789  30.180  31.503  1.00  0.00     0.074 A 
ATOM     42  C   UNL A   1      40.084  28.479  29.733  1.00  0.00     0.049 A 
ATOM     43  N   UNL A   1      40.870  29.985  32.213  1.00  0.00    -0.248 NA
ATOM     44  C   UNL A   1      38.932  31.269  31.999  1.00  0.00     0.031 C 
ATOM     45  C   UNL A   1      39.774  27.737  28.507  1.00  0.00     0.029 A 
ATOM     46  N   UNL A   1      41.268  27.931  30.159  1.00  0.00    -0.354 N 
ATOM     47  C   UNL A   1      40.835  30.938  33.224  1.00  0.00     0.074 A 
ATOM     48  C   UNL A   1      39.650  31.739  33.009  1.00  0.00     0.031 C 
ATOM     49  C   UNL A   1      40.727  26.815  28.298  1.00  0.00     0.029 A 
ATOM     50  C   UNL A   1      41.736  26.925  29.347  1.00  0.00     0.049 A 
ATOM     51  H   UNL A   1      41.739  28.231  30.970  1.00  0.00     0.167 HD
ATOM     52  C   UNL A   1      41.699  31.120  34.251  1.00  0.00     0.031 A 
ATOM     53  C   UNL A   1      42.854  26.177  29.433  1.00  0.00     0.031 A 
ATOM     54  C   UNL A   1      42.871  30.313  34.473  1.00  0.00     0.049 A 
ATOM     55  C   UNL A   1      43.802  26.400  30.579  1.00  0.00     0.074 A 
ATOM     56  C   UNL A   1      43.774  30.379  35.519  1.00  0.00     0.029 A 
ATOM     57  N   UNL A   1      43.303  29.298  33.633  1.00  0.00    -0.354 N 
ATOM     58  N   UNL A   1      43.714  27.261  31.564  1.00  0.00    -0.248 NA
ATOM     59  C   UNL A   1      44.994  25.543  30.630  1.00  0.00     0.031 C 
ATOM     60  C   UNL A   1      44.781  29.436  35.286  1.00  0.00     0.029 A 
ATOM     61  C   UNL A   1      44.473  28.745  34.125  1.00  0.00     0.049 A 
ATOM     62  H   UNL A   1      42.845  29.013  32.809  1.00  0.00     0.167 HD
ATOM     63  C   UNL A   1      44.825  27.030  32.368  1.00  0.00     0.074 A 
ATOM     64  C   UNL A   1      45.562  25.941  31.761  1.00  0.00     0.031 C 
ATOM     65  C   UNL A   1      45.198  27.662  33.509  1.00  0.00     0.031 A 
BRANCH  52  66
ATOM     66  C   UNL A   1      41.413  32.244  35.211  1.00  0.00    -0.014 A 
ATOM     67  C   UNL A   1      42.007  33.509  35.046  1.00  0.00     0.010 A 
ATOM     68  C   UNL A   1      40.514  32.045  36.275  1.00  0.00     0.010 A 
ATOM     69  C   UNL A   1      41.743  34.539  35.954  1.00  0.00     0.020 A 
ATOM     70  C   UNL A   1      40.225  33.080  37.168  1.00  0.00     0.020 A 
ATOM     71  C   UNL A   1      40.858  34.316  37.012  1.00  0.00     0.054 A 
BRANCH  71  72
ATOM     72  S   UNL A   1      40.523  35.674  38.166  1.00  0.00     0.124 S 
ATOM     73  O   UNL A   1      39.719  35.008  39.188  1.00  0.00    -0.237 OA
ATOM     74  O   UNL A   1      41.863  36.077  38.586  1.00  0.00    -0.237 OA
ATOM     75  O   UNL A   1      39.808  36.654  37.352  1.00  0.00    -0.744 OA
ENDBRANCH  71  72
ENDBRANCH  52  66
BRANCH  53  76
ATOM     76  C   UNL A   1      43.126  25.130  28.410  1.00  0.00    -0.014 A 
ATOM     77  C   UNL A   1      42.652  23.819  28.594  1.00  0.00     0.010 A 
ATOM     78  C   UNL A   1      43.845  25.439  27.242  1.00  0.00     0.010 A 
ATOM     79  C   UNL A   1      42.904  22.833  27.635  1.00  0.00     0.020 A 
ATOM     80  C   UNL A   1      44.077  24.464  26.268  1.00  0.00     0.020 A 
ATOM     81  C   UNL A   1      43.614  23.163  26.476  1.00  0.00     0.054 A 
BRANCH  81  82
ATOM     82  S   UNL A   1      43.880  21.881  25.219  1.00  0.00     0.124 S 
ATOM     83  O   UNL A   1      42.832  20.917  25.543  1.00  0.00    -0.237 OA
ATOM     84  O   UNL A   1      43.698  22.619  23.972  1.00  0.00    -0.237 OA
ATOM     85  O   UNL A   1      45.246  21.432  25.475  1.00  0.00    -0.744 OA
ENDBRANCH  81  82
ENDBRANCH  53  76
BRANCH  65  86
ATOM     86  C   UNL A   1      46.443  27.170  34.198  1.00  0.00    -0.014 A 
ATOM     87  C   UNL A   1      47.703  27.727  33.913  1.00  0.00     0.010 A 
ATOM     88  C   UNL A   1      46.341  26.174  35.187  1.00  0.00     0.010 A 
ATOM     89  C   UNL A   1      48.841  27.274  34.584  1.00  0.00     0.020 A 
ATOM     90  C   UNL A   1      47.473  25.740  35.879  1.00  0.00     0.020 A 
ATOM     91  C   UNL A   1      48.720  26.283  35.563  1.00  0.00     0.054 A 
BRANCH  91  92
ATOM     92  S   UNL A   1      50.206  25.745  36.453  1.00  0.00     0.124 S 
ATOM     93  O   UNL A   1      50.059  26.431  37.733  1.00  0.00    -0.237 OA
ATOM     94  O   UNL A   1      50.048  24.293  36.495  1.00  0.00    -0.237 OA
ATOM     95  O   UNL A   1      51.304  26.221  35.613  1.00  0.00    -0.744 OA
ENDBRANCH  91  92
ENDBRANCH  65  86
ENDBRANCH  39  40
ENDBRANCH  31  34
ENDBRANCH  29  30
ENDBRANCH  28  29
ENDBRANCH   1  28
TORSDOF 17
ENDMDL
