MODEL 1
REMARK VINA RESULT:     -11.6      0.000      0.000
REMARK SMILES CC1(C)CCN(c2nc3c(cc2C(=O)NCCCCNC(=O)c2ccc(-c4c5nc(c(-c6ccc(S(=O)(=O)[O-])cc6)c6ccc([nH]6)c(-c6ccc(S(=O)(=O)[O-])cc6)c6nc(c(-c7ccc(S(=O)(=O)[O-])cc7)c7ccc4[nH]7)C=C6)C=C5)cc2)CCC3)C1
REMARK SMILES IDX 18 1 17 2 16 3 15 4 13 5 14 6 12 8 7 9 8 10 9 11 11 12 10 13
REMARK SMILES IDX 85 14 83 15 84 16 6 17 1 18 2 19 3 20 4 21 86 22 5 23 19 24
REMARK SMILES IDX 20 25 21 26 22 28 23 29 24 30 82 31 25 32 81 33 26 34 27 35
REMARK SMILES IDX 28 36 75 37 29 38 80 39 74 40 76 41 30 42 79 43 73 44 72 45
REMARK SMILES IDX 31 47 61 48 42 49 60 50 43 51 46 52 59 53 77 54 44 55 45 56
REMARK SMILES IDX 58 58 78 59 47 60 32 61 33 62 41 63 34 64 40 65 35 66 36 67
REMARK SMILES IDX 37 68 38 69 39 70 62 71 63 72 71 73 64 74 70 75 65 76 66 77
REMARK SMILES IDX 67 78 68 79 69 80 48 81 49 82 57 83 50 84 56 85 51 86 52 87
REMARK SMILES IDX 53 88 54 89 55 90
REMARK H PARENT 15 7 20 27 76 46 46 57
REMARK Flexibility Score: inf
ROOT
ATOM      1  C   UNL A   1      35.958  22.558  25.364  1.00  0.00     0.023 C 
ENDROOT
BRANCH   1   2
ATOM      2  C   UNL A   1      35.180  23.356  26.411  1.00  0.00     0.023 C 
BRANCH   2   3
ATOM      3  C   UNL A   1      34.333  22.563  27.399  1.00  0.00     0.116 C 
BRANCH   3   4
ATOM      4  N   UNL A   1      32.949  22.965  27.502  1.00  0.00    -0.352 N 
ATOM      5  C   UNL A   1      31.882  22.588  26.717  1.00  0.00     0.255 C 
ATOM      6  O   UNL A   1      30.757  22.963  27.059  1.00  0.00    -0.269 OA
ATOM      7  H   UNL A   1      32.742  23.594  28.229  1.00  0.00     0.163 HD
BRANCH   5   8
ATOM      8  C   UNL A   1      32.013  21.852  25.427  1.00  0.00     0.082 A 
ATOM      9  C   UNL A   1      31.981  22.407  24.128  1.00  0.00     0.141 A 
ATOM     10  N   UNL A   1      32.075  21.625  23.015  1.00  0.00    -0.235 NA
ATOM     11  C   UNL A   1      32.257  20.310  23.199  1.00  0.00     0.046 A 
ATOM     12  C   UNL A   1      32.217  20.462  25.567  1.00  0.00     0.023 A 
ATOM     13  C   UNL A   1      32.341  19.692  24.432  1.00  0.00    -0.025 A 
ATOM     14  C   UNL A   1      32.489  19.330  22.086  1.00  0.00     0.057 C 
ATOM     15  C   UNL A   1      32.623  18.234  24.288  1.00  0.00     0.038 C 
ATOM     16  C   UNL A   1      32.251  18.000  22.814  1.00  0.00     0.011 C 
BRANCH   9  17
ATOM     17  N   UNL A   1      31.892  23.757  23.881  1.00  0.00    -0.355 N 
ATOM     18  C   UNL A   1      32.495  25.792  21.243  1.00  0.00     0.013 C 
ATOM     19  C   UNL A   1      32.464  25.790  22.778  1.00  0.00    -0.016 C 
ATOM     20  C   UNL A   1      33.229  27.008  23.302  1.00  0.00     0.013 C 
ATOM     21  C   UNL A   1      31.000  25.793  23.261  1.00  0.00     0.030 C 
ATOM     22  C   UNL A   1      33.053  24.471  23.355  1.00  0.00     0.124 C 
ATOM     23  C   UNL A   1      30.655  24.313  23.364  1.00  0.00     0.119 C 
ENDBRANCH   9  17
ENDBRANCH   5   8
ENDBRANCH   3   4
ENDBRANCH   2   3
ENDBRANCH   1   2
BRANCH   1  24
ATOM     24  C   UNL A   1      37.337  23.073  24.961  1.00  0.00     0.116 C 
BRANCH  24  25
ATOM     25  N   UNL A   1      38.452  22.318  25.513  1.00  0.00    -0.352 N 
ATOM     26  C   UNL A   1      39.399  22.691  26.441  1.00  0.00     0.251 C 
ATOM     27  H   UNL A   1      38.544  21.399  25.169  1.00  0.00     0.163 HD
ATOM     28  O   UNL A   1      40.221  21.879  26.847  1.00  0.00    -0.269 OA
BRANCH  26  29
ATOM     29  C   UNL A   1      39.470  24.101  26.872  1.00  0.00     0.039 A 
ATOM     30  C   UNL A   1      38.954  24.422  28.130  1.00  0.00     0.014 A 
ATOM     31  C   UNL A   1      40.127  25.067  26.104  1.00  0.00     0.014 A 
ATOM     32  C   UNL A   1      39.209  25.678  28.677  1.00  0.00     0.010 A 
ATOM     33  C   UNL A   1      40.425  26.304  26.673  1.00  0.00     0.010 A 
ATOM     34  C   UNL A   1      40.003  26.602  27.977  1.00  0.00    -0.014 A 
BRANCH  34  35
ATOM     35  C   UNL A   1      40.466  27.843  28.643  1.00  0.00     0.031 A 
ATOM     36  C   UNL A   1      41.867  27.954  29.162  1.00  0.00     0.074 A 
ATOM     37  C   UNL A   1      39.597  28.861  28.807  1.00  0.00     0.049 A 
ATOM     38  N   UNL A   1      42.435  28.960  29.773  1.00  0.00    -0.248 NA
ATOM     39  C   UNL A   1      42.738  26.782  28.984  1.00  0.00     0.031 C 
ATOM     40  C   UNL A   1      38.197  28.857  28.373  1.00  0.00     0.029 A 
ATOM     41  N   UNL A   1      39.762  30.098  29.380  1.00  0.00    -0.354 N 
ATOM     42  C   UNL A   1      43.729  28.546  30.055  1.00  0.00     0.074 A 
ATOM     43  C   UNL A   1      43.852  27.184  29.580  1.00  0.00     0.031 C 
ATOM     44  C   UNL A   1      37.642  30.045  28.667  1.00  0.00     0.029 A 
ATOM     45  C   UNL A   1      38.634  30.883  29.331  1.00  0.00     0.049 A 
ATOM     46  H   UNL A   1      40.607  30.393  29.787  1.00  0.00     0.167 HD
ATOM     47  C   UNL A   1      44.729  29.244  30.640  1.00  0.00     0.031 A 
ATOM     48  C   UNL A   1      38.422  32.140  29.766  1.00  0.00     0.031 A 
ATOM     49  C   UNL A   1      44.609  30.598  31.107  1.00  0.00     0.049 A 
ATOM     50  C   UNL A   1      39.544  32.892  30.420  1.00  0.00     0.074 A 
ATOM     51  C   UNL A   1      45.580  31.397  31.685  1.00  0.00     0.029 A 
ATOM     52  N   UNL A   1      43.449  31.354  31.046  1.00  0.00    -0.354 N 
ATOM     53  N   UNL A   1      40.774  32.494  30.645  1.00  0.00    -0.248 NA
ATOM     54  C   UNL A   1      39.258  34.260  30.875  1.00  0.00     0.031 C 
ATOM     55  C   UNL A   1      44.998  32.629  32.000  1.00  0.00     0.029 A 
ATOM     56  C   UNL A   1      43.675  32.608  31.587  1.00  0.00     0.049 A 
ATOM     57  H   UNL A   1      42.592  31.045  30.675  1.00  0.00     0.167 HD
ATOM     58  C   UNL A   1      41.412  33.566  31.255  1.00  0.00     0.074 A 
ATOM     59  C   UNL A   1      40.437  34.633  31.360  1.00  0.00     0.031 C 
ATOM     60  C   UNL A   1      42.692  33.657  31.686  1.00  0.00     0.031 A 
BRANCH  47  61
ATOM     61  C   UNL A   1      46.050  28.549  30.802  1.00  0.00    -0.014 A 
ATOM     62  C   UNL A   1      47.030  28.636  29.796  1.00  0.00     0.010 A 
ATOM     63  C   UNL A   1      46.330  27.833  31.979  1.00  0.00     0.010 A 
ATOM     64  C   UNL A   1      48.259  27.991  29.954  1.00  0.00     0.020 A 
ATOM     65  C   UNL A   1      47.566  27.202  32.146  1.00  0.00     0.020 A 
ATOM     66  C   UNL A   1      48.518  27.277  31.127  1.00  0.00     0.054 A 
BRANCH  66  67
ATOM     67  S   UNL A   1      50.126  26.457  31.299  1.00  0.00     0.124 S 
ATOM     68  O   UNL A   1      50.788  26.822  30.048  1.00  0.00    -0.237 OA
ATOM     69  O   UNL A   1      50.671  27.079  32.503  1.00  0.00    -0.237 OA
ATOM     70  O   UNL A   1      49.785  25.042  31.429  1.00  0.00    -0.744 OA
ENDBRANCH  66  67
ENDBRANCH  47  61
BRANCH  48  71
ATOM     71  C   UNL A   1      37.092  32.770  29.562  1.00  0.00    -0.014 A 
ATOM     72  C   UNL A   1      36.197  32.895  30.639  1.00  0.00     0.010 A 
ATOM     73  C   UNL A   1      36.739  33.301  28.309  1.00  0.00     0.010 A 
ATOM     74  C   UNL A   1      34.973  33.546  30.467  1.00  0.00     0.020 A 
ATOM     75  C   UNL A   1      35.520  33.966  28.137  1.00  0.00     0.020 A 
ATOM     76  C   UNL A   1      34.647  34.086  29.220  1.00  0.00     0.054 A 
BRANCH  76  77
ATOM     77  S   UNL A   1      33.081  34.988  29.049  1.00  0.00     0.124 S 
ATOM     78  O   UNL A   1      33.531  36.304  28.607  1.00  0.00    -0.237 OA
ATOM     79  O   UNL A   1      32.375  34.192  28.047  1.00  0.00    -0.237 OA
ATOM     80  O   UNL A   1      32.507  34.941  30.392  1.00  0.00    -0.744 OA
ENDBRANCH  76  77
ENDBRANCH  48  71
BRANCH  60  81
ATOM     81  C   UNL A   1      43.132  34.952  32.304  1.00  0.00    -0.014 A 
ATOM     82  C   UNL A   1      43.672  35.977  31.509  1.00  0.00     0.010 A 
ATOM     83  C   UNL A   1      42.894  35.187  33.670  1.00  0.00     0.010 A 
ATOM     84  C   UNL A   1      43.963  37.222  32.072  1.00  0.00     0.020 A 
ATOM     85  C   UNL A   1      43.171  36.435  34.232  1.00  0.00     0.020 A 
ATOM     86  C   UNL A   1      43.701  37.447  33.428  1.00  0.00     0.054 A 
BRANCH  86  87
ATOM     87  S   UNL A   1      44.015  39.098  34.108  1.00  0.00     0.124 S 
ATOM     88  O   UNL A   1      45.314  39.427  33.528  1.00  0.00    -0.237 OA
ATOM     89  O   UNL A   1      42.885  39.869  33.596  1.00  0.00    -0.237 OA
ATOM     90  O   UNL A   1      44.016  38.886  35.553  1.00  0.00    -0.744 OA
ENDBRANCH  86  87
ENDBRANCH  60  81
ENDBRANCH  34  35
ENDBRANCH  26  29
ENDBRANCH  24  25
ENDBRANCH   1  24
TORSDOF 15
ENDMDL
MODEL 2
REMARK VINA RESULT:     -11.6      4.512      9.697
REMARK SMILES CC1(C)CCN(c2nc3c(cc2C(=O)NCCCCNC(=O)c2ccc(-c4c5nc(c(-c6ccc(S(=O)(=O)[O-])cc6)c6ccc([nH]6)c(-c6ccc(S(=O)(=O)[O-])cc6)c6nc(c(-c7ccc(S(=O)(=O)[O-])cc7)c7ccc4[nH]7)C=C6)C=C5)cc2)CCC3)C1
REMARK SMILES IDX 18 1 17 2 16 3 15 4 13 5 14 6 12 8 7 9 8 10 9 11 11 12 10 13
REMARK SMILES IDX 85 14 83 15 84 16 6 17 1 18 2 19 3 20 4 21 86 22 5 23 19 24
REMARK SMILES IDX 20 25 21 26 22 28 23 29 24 30 82 31 25 32 81 33 26 34 27 35
REMARK SMILES IDX 28 36 75 37 29 38 80 39 74 40 76 41 30 42 79 43 73 44 72 45
REMARK SMILES IDX 31 47 61 48 42 49 60 50 43 51 46 52 59 53 77 54 44 55 45 56
REMARK SMILES IDX 58 58 78 59 47 60 32 61 33 62 41 63 34 64 40 65 35 66 36 67
REMARK SMILES IDX 37 68 38 69 39 70 62 71 63 72 71 73 64 74 70 75 65 76 66 77
REMARK SMILES IDX 67 78 68 79 69 80 48 81 49 82 57 83 50 84 56 85 51 86 52 87
REMARK SMILES IDX 53 88 54 89 55 90
REMARK H PARENT 15 7 20 27 76 46 46 57
REMARK Flexibility Score: inf
ROOT
ATOM      1  C   UNL A   1      34.620  31.751  28.050  1.00  0.00     0.023 C 
ENDROOT
BRANCH   1   2
ATOM      2  C   UNL A   1      34.517  30.427  27.290  1.00  0.00     0.023 C 
BRANCH   2   3
ATOM      3  C   UNL A   1      33.231  30.173  26.513  1.00  0.00     0.116 C 
BRANCH   3   4
ATOM      4  N   UNL A   1      32.201  29.453  27.225  1.00  0.00    -0.352 N 
ATOM      5  C   UNL A   1      31.799  28.145  27.068  1.00  0.00     0.255 C 
ATOM      6  O   UNL A   1      30.975  27.697  27.870  1.00  0.00    -0.269 OA
ATOM      7  H   UNL A   1      31.722  29.966  27.915  1.00  0.00     0.163 HD
BRANCH   5   8
ATOM      8  C   UNL A   1      32.211  27.276  25.929  1.00  0.00     0.082 A 
ATOM      9  C   UNL A   1      31.596  27.196  24.658  1.00  0.00     0.141 A 
ATOM     10  N   UNL A   1      32.043  26.332  23.702  1.00  0.00    -0.235 NA
ATOM     11  C   UNL A   1      33.127  25.599  23.992  1.00  0.00     0.046 A 
ATOM     12  C   UNL A   1      33.356  26.490  26.180  1.00  0.00     0.023 A 
ATOM     13  C   UNL A   1      33.812  25.646  25.191  1.00  0.00    -0.025 A 
ATOM     14  C   UNL A   1      33.808  24.686  23.015  1.00  0.00     0.057 C 
ATOM     15  C   UNL A   1      35.015  24.765  25.161  1.00  0.00     0.038 C 
ATOM     16  C   UNL A   1      34.697  23.863  23.957  1.00  0.00     0.011 C 
BRANCH   9  17
ATOM     17  N   UNL A   1      30.542  27.991  24.273  1.00  0.00    -0.355 N 
ATOM     18  C   UNL A   1      29.847  30.003  21.641  1.00  0.00     0.013 C 
ATOM     19  C   UNL A   1      29.521  29.814  23.129  1.00  0.00    -0.016 C 
ATOM     20  C   UNL A   1      28.922  31.108  23.685  1.00  0.00     0.013 C 
ATOM     21  C   UNL A   1      28.551  28.626  23.295  1.00  0.00     0.030 C 
ATOM     22  C   UNL A   1      30.782  29.391  23.937  1.00  0.00     0.124 C 
ATOM     23  C   UNL A   1      29.478  27.429  23.461  1.00  0.00     0.119 C 
ENDBRANCH   9  17
ENDBRANCH   5   8
ENDBRANCH   3   4
ENDBRANCH   2   3
ENDBRANCH   1   2
BRANCH   1  24
ATOM     24  C   UNL A   1      35.685  31.862  29.137  1.00  0.00     0.116 C 
BRANCH  24  25
ATOM     25  N   UNL A   1      35.621  30.828  30.158  1.00  0.00    -0.352 N 
ATOM     26  C   UNL A   1      36.631  30.084  30.728  1.00  0.00     0.251 C 
ATOM     27  H   UNL A   1      34.716  30.628  30.493  1.00  0.00     0.163 HD
ATOM     28  O   UNL A   1      36.388  29.308  31.643  1.00  0.00    -0.269 OA
BRANCH  26  29
ATOM     29  C   UNL A   1      37.993  30.164  30.162  1.00  0.00     0.039 A 
ATOM     30  C   UNL A   1      39.062  30.257  31.056  1.00  0.00     0.014 A 
ATOM     31  C   UNL A   1      38.221  30.042  28.789  1.00  0.00     0.014 A 
ATOM     32  C   UNL A   1      40.364  30.095  30.588  1.00  0.00     0.010 A 
ATOM     33  C   UNL A   1      39.520  29.829  28.329  1.00  0.00     0.010 A 
ATOM     34  C   UNL A   1      40.595  29.815  29.231  1.00  0.00    -0.014 A 
BRANCH  34  35
ATOM     35  C   UNL A   1      41.946  29.419  28.769  1.00  0.00     0.031 A 
ATOM     36  C   UNL A   1      42.228  28.008  28.353  1.00  0.00     0.074 A 
ATOM     37  C   UNL A   1      42.932  30.340  28.762  1.00  0.00     0.049 A 
ATOM     38  N   UNL A   1      43.351  27.489  27.930  1.00  0.00    -0.248 NA
ATOM     39  C   UNL A   1      41.112  27.053  28.434  1.00  0.00     0.031 C 
ATOM     40  C   UNL A   1      42.786  31.739  29.176  1.00  0.00     0.029 A 
ATOM     41  N   UNL A   1      44.249  30.241  28.390  1.00  0.00    -0.354 N 
ATOM     42  C   UNL A   1      43.080  26.149  27.694  1.00  0.00     0.074 A 
ATOM     43  C   UNL A   1      41.696  25.925  28.056  1.00  0.00     0.031 C 
ATOM     44  C   UNL A   1      43.957  32.373  29.006  1.00  0.00     0.029 A 
ATOM     45  C   UNL A   1      44.942  31.424  28.497  1.00  0.00     0.049 A 
ATOM     46  H   UNL A   1      44.659  29.403  28.078  1.00  0.00     0.167 HD
ATOM     47  C   UNL A   1      43.905  25.195  27.205  1.00  0.00     0.031 A 
ATOM     48  C   UNL A   1      46.226  31.717  28.211  1.00  0.00     0.031 A 
ATOM     49  C   UNL A   1      45.278  25.418  26.841  1.00  0.00     0.049 A 
ATOM     50  C   UNL A   1      47.125  30.640  27.676  1.00  0.00     0.074 A 
ATOM     51  C   UNL A   1      46.182  24.517  26.307  1.00  0.00     0.029 A 
ATOM     52  N   UNL A   1      45.943  26.627  26.972  1.00  0.00    -0.354 N 
ATOM     53  N   UNL A   1      46.838  29.385  27.426  1.00  0.00    -0.248 NA
ATOM     54  C   UNL A   1      48.515  31.015  27.381  1.00  0.00     0.031 C 
ATOM     55  C   UNL A   1      47.404  25.175  26.139  1.00  0.00     0.029 A 
ATOM     56  C   UNL A   1      47.251  26.494  26.539  1.00  0.00     0.049 A 
ATOM     57  H   UNL A   1      45.545  27.456  27.321  1.00  0.00     0.167 HD
ATOM     58  C   UNL A   1      48.008  28.822  26.931  1.00  0.00     0.074 A 
ATOM     59  C   UNL A   1      49.005  29.873  26.911  1.00  0.00     0.031 C 
ATOM     60  C   UNL A   1      48.231  27.550  26.528  1.00  0.00     0.031 A 
BRANCH  47  61
ATOM     61  C   UNL A   1      43.335  23.817  27.028  1.00  0.00    -0.014 A 
ATOM     62  C   UNL A   1      43.041  23.326  25.743  1.00  0.00     0.010 A 
ATOM     63  C   UNL A   1      43.124  22.993  28.147  1.00  0.00     0.010 A 
ATOM     64  C   UNL A   1      42.516  22.042  25.584  1.00  0.00     0.020 A 
ATOM     65  C   UNL A   1      42.615  21.701  27.988  1.00  0.00     0.020 A 
ATOM     66  C   UNL A   1      42.304  21.238  26.708  1.00  0.00     0.054 A 
BRANCH  66  67
ATOM     67  S   UNL A   1      41.625  19.575  26.463  1.00  0.00     0.124 S 
ATOM     68  O   UNL A   1      42.203  18.843  27.588  1.00  0.00    -0.237 OA
ATOM     69  O   UNL A   1      40.186  19.807  26.537  1.00  0.00    -0.237 OA
ATOM     70  O   UNL A   1      42.127  19.184  25.147  1.00  0.00    -0.744 OA
ENDBRANCH  66  67
ENDBRANCH  47  61
BRANCH  48  71
ATOM     71  C   UNL A   1      46.719  33.106  28.399  1.00  0.00    -0.014 A 
ATOM     72  C   UNL A   1      47.324  33.482  29.611  1.00  0.00     0.010 A 
ATOM     73  C   UNL A   1      46.641  34.039  27.351  1.00  0.00     0.010 A 
ATOM     74  C   UNL A   1      47.849  34.767  29.768  1.00  0.00     0.020 A 
ATOM     75  C   UNL A   1      47.178  35.321  27.500  1.00  0.00     0.020 A 
ATOM     76  C   UNL A   1      47.782  35.675  28.709  1.00  0.00     0.054 A 
BRANCH  76  77
ATOM     77  S   UNL A   1      48.537  37.312  28.920  1.00  0.00     0.124 S 
ATOM     78  O   UNL A   1      47.590  38.179  28.228  1.00  0.00    -0.237 OA
ATOM     79  O   UNL A   1      48.573  37.448  30.374  1.00  0.00    -0.237 OA
ATOM     80  O   UNL A   1      49.844  37.175  28.280  1.00  0.00    -0.744 OA
ENDBRANCH  76  77
ENDBRANCH  48  71
BRANCH  60  81
ATOM     81  C   UNL A   1      49.600  27.208  26.016  1.00  0.00    -0.014 A 
ATOM     82  C   UNL A   1      50.592  26.731  26.891  1.00  0.00     0.010 A 
ATOM     83  C   UNL A   1      49.857  27.251  24.635  1.00  0.00     0.010 A 
ATOM     84  C   UNL A   1      51.822  26.299  26.388  1.00  0.00     0.020 A 
ATOM     85  C   UNL A   1      51.081  26.806  24.128  1.00  0.00     0.020 A 
ATOM     86  C   UNL A   1      52.054  26.329  25.009  1.00  0.00     0.054 A 
BRANCH  86  87
ATOM     87  S   UNL A   1      53.630  25.685  24.382  1.00  0.00     0.124 S 
ATOM     88  O   UNL A   1      53.570  26.049  22.969  1.00  0.00    -0.237 OA
ATOM     89  O   UNL A   1      54.609  26.420  25.179  1.00  0.00    -0.237 OA
ATOM     90  O   UNL A   1      53.556  24.253  24.658  1.00  0.00    -0.744 OA
ENDBRANCH  86  87
ENDBRANCH  60  81
ENDBRANCH  34  35
ENDBRANCH  26  29
ENDBRANCH  24  25
ENDBRANCH   1  24
TORSDOF 15
ENDMDL
MODEL 3
REMARK VINA RESULT:     -11.6      3.659      5.119
REMARK SMILES CC1(C)CCN(c2nc3c(cc2C(=O)NCCCCNC(=O)c2ccc(-c4c5nc(c(-c6ccc(S(=O)(=O)[O-])cc6)c6ccc([nH]6)c(-c6ccc(S(=O)(=O)[O-])cc6)c6nc(c(-c7ccc(S(=O)(=O)[O-])cc7)c7ccc4[nH]7)C=C6)C=C5)cc2)CCC3)C1
REMARK SMILES IDX 18 1 17 2 16 3 15 4 13 5 14 6 12 8 7 9 8 10 9 11 11 12 10 13
REMARK SMILES IDX 85 14 83 15 84 16 6 17 1 18 2 19 3 20 4 21 86 22 5 23 19 24
REMARK SMILES IDX 20 25 21 26 22 28 23 29 24 30 82 31 25 32 81 33 26 34 27 35
REMARK SMILES IDX 28 36 75 37 29 38 80 39 74 40 76 41 30 42 79 43 73 44 72 45
REMARK SMILES IDX 31 47 61 48 42 49 60 50 43 51 46 52 59 53 77 54 44 55 45 56
REMARK SMILES IDX 58 58 78 59 47 60 32 61 33 62 41 63 34 64 40 65 35 66 36 67
REMARK SMILES IDX 37 68 38 69 39 70 62 71 63 72 71 73 64 74 70 75 65 76 66 77
REMARK SMILES IDX 67 78 68 79 69 80 48 81 49 82 57 83 50 84 56 85 51 86 52 87
REMARK SMILES IDX 53 88 54 89 55 90
REMARK H PARENT 15 7 20 27 76 46 46 57
REMARK Flexibility Score: inf
ROOT
ATOM      1  C   UNL A   1      39.639  22.686  26.985  1.00  0.00     0.023 C 
ENDROOT
BRANCH   1   2
ATOM      2  C   UNL A   1      38.999  21.806  25.910  1.00  0.00     0.023 C 
BRANCH   2   3
ATOM      3  C   UNL A   1      37.542  22.088  25.562  1.00  0.00     0.116 C 
BRANCH   3   4
ATOM      4  N   UNL A   1      37.252  22.236  24.154  1.00  0.00    -0.352 N 
ATOM      5  C   UNL A   1      36.164  22.833  23.556  1.00  0.00     0.255 C 
ATOM      6  O   UNL A   1      36.177  22.953  22.329  1.00  0.00    -0.269 OA
ATOM      7  H   UNL A   1      37.921  21.858  23.540  1.00  0.00     0.163 HD
BRANCH   5   8
ATOM      8  C   UNL A   1      34.930  23.240  24.287  1.00  0.00     0.082 A 
ATOM      9  C   UNL A   1      33.794  22.439  24.544  1.00  0.00     0.141 A 
ATOM     10  N   UNL A   1      32.703  22.935  25.194  1.00  0.00    -0.235 NA
ATOM     11  C   UNL A   1      32.769  24.199  25.634  1.00  0.00     0.046 A 
ATOM     12  C   UNL A   1      34.954  24.562  24.780  1.00  0.00     0.023 A 
ATOM     13  C   UNL A   1      33.855  25.037  25.463  1.00  0.00    -0.025 A 
ATOM     14  C   UNL A   1      31.703  24.858  26.460  1.00  0.00     0.057 C 
ATOM     15  C   UNL A   1      33.638  26.349  26.138  1.00  0.00     0.038 C 
ATOM     16  C   UNL A   1      32.114  26.332  26.343  1.00  0.00     0.011 C 
BRANCH   9  17
ATOM     17  N   UNL A   1      33.708  21.110  24.200  1.00  0.00    -0.355 N 
ATOM     18  C   UNL A   1      32.855  18.239  25.779  1.00  0.00     0.013 C 
ATOM     19  C   UNL A   1      33.723  18.767  24.628  1.00  0.00    -0.016 C 
ATOM     20  C   UNL A   1      34.763  17.708  24.252  1.00  0.00     0.013 C 
ATOM     21  C   UNL A   1      32.824  19.124  23.428  1.00  0.00     0.030 C 
ATOM     22  C   UNL A   1      34.408  20.112  25.004  1.00  0.00     0.124 C 
ATOM     23  C   UNL A   1      32.462  20.583  23.674  1.00  0.00     0.119 C 
ENDBRANCH   9  17
ENDBRANCH   5   8
ENDBRANCH   3   4
ENDBRANCH   2   3
ENDBRANCH   1   2
BRANCH   1  24
ATOM     24  C   UNL A   1      41.075  23.150  26.757  1.00  0.00     0.116 C 
BRANCH  24  25
ATOM     25  N   UNL A   1      41.221  24.214  25.775  1.00  0.00    -0.352 N 
ATOM     26  C   UNL A   1      41.432  25.562  25.959  1.00  0.00     0.251 C 
ATOM     27  H   UNL A   1      41.160  23.925  24.835  1.00  0.00     0.163 HD
ATOM     28  O   UNL A   1      41.614  26.297  24.996  1.00  0.00    -0.269 OA
BRANCH  26  29
ATOM     29  C   UNL A   1      41.345  26.128  27.320  1.00  0.00     0.039 A 
ATOM     30  C   UNL A   1      42.448  26.839  27.798  1.00  0.00     0.014 A 
ATOM     31  C   UNL A   1      40.166  26.054  28.067  1.00  0.00     0.014 A 
ATOM     32  C   UNL A   1      42.329  27.587  28.968  1.00  0.00     0.010 A 
ATOM     33  C   UNL A   1      40.031  26.843  29.209  1.00  0.00     0.010 A 
ATOM     34  C   UNL A   1      41.098  27.645  29.643  1.00  0.00    -0.014 A 
BRANCH  34  35
ATOM     35  C   UNL A   1      40.898  28.610  30.750  1.00  0.00     0.031 A 
ATOM     36  C   UNL A   1      41.755  28.553  31.977  1.00  0.00     0.074 A 
ATOM     37  C   UNL A   1      39.908  29.521  30.654  1.00  0.00     0.049 A 
ATOM     38  N   UNL A   1      41.713  29.313  33.040  1.00  0.00    -0.248 NA
ATOM     39  C   UNL A   1      42.782  27.500  32.026  1.00  0.00     0.031 C 
ATOM     40  C   UNL A   1      38.987  29.653  29.521  1.00  0.00     0.029 A 
ATOM     41  N   UNL A   1      39.513  30.511  31.518  1.00  0.00    -0.354 N 
ATOM     42  C   UNL A   1      42.705  28.833  33.884  1.00  0.00     0.074 A 
ATOM     43  C   UNL A   1      43.308  27.694  33.227  1.00  0.00     0.031 C 
ATOM     44  C   UNL A   1      38.156  30.683  29.747  1.00  0.00     0.029 A 
ATOM     45  C   UNL A   1      38.466  31.268  31.047  1.00  0.00     0.049 A 
ATOM     46  H   UNL A   1      39.938  30.664  32.392  1.00  0.00     0.167 HD
ATOM     47  C   UNL A   1      43.089  29.311  35.091  1.00  0.00     0.031 A 
ATOM     48  C   UNL A   1      37.830  32.321  31.595  1.00  0.00     0.031 A 
ATOM     49  C   UNL A   1      42.493  30.446  35.741  1.00  0.00     0.049 A 
ATOM     50  C   UNL A   1      38.268  32.828  32.938  1.00  0.00     0.074 A 
ATOM     51  C   UNL A   1      42.839  31.021  36.952  1.00  0.00     0.029 A 
ATOM     52  N   UNL A   1      41.431  31.179  35.235  1.00  0.00    -0.354 N 
ATOM     53  N   UNL A   1      39.234  32.382  33.706  1.00  0.00    -0.248 NA
ATOM     54  C   UNL A   1      37.540  33.980  33.490  1.00  0.00     0.031 C 
ATOM     55  C   UNL A   1      41.966  32.088  37.191  1.00  0.00     0.029 A 
ATOM     56  C   UNL A   1      41.100  32.196  36.114  1.00  0.00     0.049 A 
ATOM     57  H   UNL A   1      40.980  31.003  34.379  1.00  0.00     0.167 HD
ATOM     58  C   UNL A   1      39.238  33.205  34.824  1.00  0.00     0.074 A 
ATOM     59  C   UNL A   1      38.184  34.181  34.633  1.00  0.00     0.031 C 
ATOM     60  C   UNL A   1      40.047  33.157  35.909  1.00  0.00     0.031 A 
BRANCH  47  61
ATOM     61  C   UNL A   1      44.218  28.603  35.782  1.00  0.00    -0.014 A 
ATOM     62  C   UNL A   1      43.966  27.490  36.605  1.00  0.00     0.010 A 
ATOM     63  C   UNL A   1      45.543  29.029  35.584  1.00  0.00     0.010 A 
ATOM     64  C   UNL A   1      45.020  26.833  37.242  1.00  0.00     0.020 A 
ATOM     65  C   UNL A   1      46.601  28.362  36.206  1.00  0.00     0.020 A 
ATOM     66  C   UNL A   1      46.331  27.274  37.040  1.00  0.00     0.054 A 
BRANCH  66  67
ATOM     67  S   UNL A   1      47.676  26.394  37.880  1.00  0.00     0.124 S 
ATOM     68  O   UNL A   1      47.072  26.083  39.174  1.00  0.00    -0.237 OA
ATOM     69  O   UNL A   1      47.902  25.250  37.001  1.00  0.00    -0.237 OA
ATOM     70  O   UNL A   1      48.761  27.372  37.921  1.00  0.00    -0.744 OA
ENDBRANCH  66  67
ENDBRANCH  47  61
BRANCH  48  71
ATOM     71  C   UNL A   1      36.728  32.981  30.848  1.00  0.00    -0.014 A 
ATOM     72  C   UNL A   1      35.389  32.741  31.205  1.00  0.00     0.010 A 
ATOM     73  C   UNL A   1      37.011  33.895  29.818  1.00  0.00     0.010 A 
ATOM     74  C   UNL A   1      34.353  33.410  30.549  1.00  0.00     0.020 A 
ATOM     75  C   UNL A   1      35.977  34.577  29.170  1.00  0.00     0.020 A 
ATOM     76  C   UNL A   1      34.654  34.331  29.543  1.00  0.00     0.054 A 
BRANCH  76  77
ATOM     77  S   UNL A   1      33.289  35.236  28.760  1.00  0.00     0.124 S 
ATOM     78  O   UNL A   1      33.997  36.254  27.991  1.00  0.00    -0.237 OA
ATOM     79  O   UNL A   1      32.637  34.190  27.975  1.00  0.00    -0.237 OA
ATOM     80  O   UNL A   1      32.511  35.734  29.892  1.00  0.00    -0.744 OA
ENDBRANCH  76  77
ENDBRANCH  48  71
BRANCH  60  81
ATOM     81  C   UNL A   1      39.843  34.189  36.980  1.00  0.00    -0.014 A 
ATOM     82  C   UNL A   1      38.989  33.933  38.067  1.00  0.00     0.010 A 
ATOM     83  C   UNL A   1      40.602  35.372  36.959  1.00  0.00     0.010 A 
ATOM     84  C   UNL A   1      38.902  34.846  39.120  1.00  0.00     0.020 A 
ATOM     85  C   UNL A   1      40.526  36.280  38.018  1.00  0.00     0.020 A 
ATOM     86  C   UNL A   1      39.679  36.009  39.094  1.00  0.00     0.054 A 
BRANCH  86  87
ATOM     87  S   UNL A   1      39.602  37.134  40.515  1.00  0.00     0.124 S 
ATOM     88  O   UNL A   1      40.317  36.380  41.542  1.00  0.00    -0.237 OA
ATOM     89  O   UNL A   1      40.288  38.321  40.014  1.00  0.00    -0.237 OA
ATOM     90  O   UNL A   1      38.170  37.299  40.752  1.00  0.00    -0.744 OA
ENDBRANCH  86  87
ENDBRANCH  60  81
ENDBRANCH  34  35
ENDBRANCH  26  29
ENDBRANCH  24  25
ENDBRANCH   1  24
TORSDOF 15
ENDMDL
