MODEL 1
REMARK VINA RESULT:      -9.9      0.000      0.000
REMARK SMILES CCCN(CC)S(=O)(=O)c1ccc(C(=O)NCCCCNC(=O)c2ccc(-c3c4nc(c(-c5ccc(S(=O)(=O)[O-])cc5)c5ccc([nH]5)c(-c5ccc(S(=O)(=O)[O-])cc5)c5nc(c(-c6ccc(S(=O)(=O)[O-])cc6)c6ccc3[nH]6)C=C5)C=C4)cc2)o1
REMARK SMILES IDX 18 1 17 2 16 3 14 4 15 5 13 7 10 8 11 9 84 10 12 11 7 12
REMARK SMILES IDX 8 13 9 14 4 15 3 16 2 17 1 18 5 19 6 20 19 21 20 22 21 23
REMARK SMILES IDX 22 24 23 26 24 27 25 28 83 29 26 30 82 31 27 32 28 33 29 34
REMARK SMILES IDX 76 35 30 36 81 37 75 38 77 39 31 40 80 41 74 42 73 43 32 45
REMARK SMILES IDX 62 46 43 47 61 48 44 49 47 50 60 51 78 52 45 53 46 54 59 56
REMARK SMILES IDX 79 57 48 58 33 59 34 60 42 61 35 62 41 63 36 64 37 65 38 66
REMARK SMILES IDX 39 67 40 68 63 69 64 70 72 71 65 72 71 73 66 74 67 75 68 76
REMARK SMILES IDX 69 77 70 78 49 79 50 80 58 81 51 82 57 83 52 84 53 85 54 86
REMARK SMILES IDX 55 87 56 88
REMARK H PARENT 16 6 21 25 77 44 47 55
REMARK Flexibility Score: inf
ROOT
ATOM      1  C   UNL A   1      32.917  29.373  24.983  1.00  0.00     0.023 C 
ENDROOT
BRANCH   1   2
ATOM      2  C   UNL A   1      31.413  29.637  24.905  1.00  0.00     0.116 C 
BRANCH   2   3
ATOM      3  N   UNL A   1      30.893  29.375  23.582  1.00  0.00    -0.349 N 
ATOM      4  C   UNL A   1      30.570  28.199  22.943  1.00  0.00     0.287 C 
ATOM      5  O   UNL A   1      30.143  28.329  21.793  1.00  0.00    -0.266 OA
ATOM      6  H   UNL A   1      30.741  30.183  23.041  1.00  0.00     0.163 HD
BRANCH   4   7
ATOM      7  C   UNL A   1      30.713  26.898  23.580  1.00  0.00     0.193 A 
ATOM      8  C   UNL A   1      31.812  24.950  23.840  1.00  0.00     0.234 A 
ATOM      9  C   UNL A   1      30.672  24.902  24.627  1.00  0.00     0.065 A 
ATOM     10  O   UNL A   1      31.824  26.178  23.218  1.00  0.00    -0.438 OA
ATOM     11  C   UNL A   1      30.000  26.142  24.490  1.00  0.00     0.058 A 
BRANCH   8  12
ATOM     12  S   UNL A   1      33.089  23.740  23.493  1.00  0.00     0.276 S 
ATOM     13  O   UNL A   1      34.330  24.482  23.409  1.00  0.00    -0.204 OA
ATOM     14  O   UNL A   1      32.566  23.016  22.355  1.00  0.00    -0.204 OA
BRANCH  12  15
ATOM     15  N   UNL A   1      33.224  22.639  24.808  1.00  0.00    -0.195 NA
BRANCH  15  16
ATOM     16  C   UNL A   1      34.053  21.425  24.506  1.00  0.00     0.102 C 
BRANCH  16  17
ATOM     17  C   UNL A   1      33.197  20.188  24.233  1.00  0.00     0.013 C 
ATOM     18  C   UNL A   1      32.840  19.445  25.513  1.00  0.00     0.005 C 
ENDBRANCH  16  17
ENDBRANCH  15  16
BRANCH  15  19
ATOM     19  C   UNL A   1      33.536  23.211  26.152  1.00  0.00     0.099 C 
ATOM     20  C   UNL A   1      32.567  22.823  27.253  1.00  0.00     0.022 C 
ENDBRANCH  15  19
ENDBRANCH  12  15
ENDBRANCH   8  12
ENDBRANCH   4   7
ENDBRANCH   2   3
ENDBRANCH   1   2
BRANCH   1  21
ATOM     21  C   UNL A   1      33.298  28.142  25.820  1.00  0.00     0.023 C 
BRANCH  21  22
ATOM     22  C   UNL A   1      33.672  28.446  27.272  1.00  0.00     0.116 C 
BRANCH  22  23
ATOM     23  N   UNL A   1      33.546  29.858  27.591  1.00  0.00    -0.352 N 
ATOM     24  C   UNL A   1      34.457  30.699  28.178  1.00  0.00     0.251 C 
ATOM     25  H   UNL A   1      32.684  30.269  27.353  1.00  0.00     0.163 HD
ATOM     26  O   UNL A   1      34.110  31.834  28.496  1.00  0.00    -0.269 OA
BRANCH  24  27
ATOM     27  C   UNL A   1      35.829  30.234  28.481  1.00  0.00     0.039 A 
ATOM     28  C   UNL A   1      36.792  30.330  27.471  1.00  0.00     0.014 A 
ATOM     29  C   UNL A   1      36.164  29.674  29.716  1.00  0.00     0.014 A 
ATOM     30  C   UNL A   1      38.103  29.919  27.715  1.00  0.00     0.010 A 
ATOM     31  C   UNL A   1      37.481  29.288  29.970  1.00  0.00     0.010 A 
ATOM     32  C   UNL A   1      38.461  29.415  28.974  1.00  0.00    -0.014 A 
BRANCH  32  33
ATOM     33  C   UNL A   1      39.866  29.048  29.266  1.00  0.00     0.031 A 
ATOM     34  C   UNL A   1      40.792  30.024  29.928  1.00  0.00     0.074 A 
ATOM     35  C   UNL A   1      40.318  27.837  28.893  1.00  0.00     0.049 A 
ATOM     36  N   UNL A   1      42.062  29.886  30.214  1.00  0.00    -0.248 NA
ATOM     37  C   UNL A   1      40.223  31.327  30.304  1.00  0.00     0.031 C 
ATOM     38  C   UNL A   1      39.526  26.811  28.212  1.00  0.00     0.029 A 
ATOM     39  N   UNL A   1      41.558  27.268  29.030  1.00  0.00    -0.354 N 
ATOM     40  C   UNL A   1      42.455  31.094  30.775  1.00  0.00     0.074 A 
ATOM     41  C   UNL A   1      41.287  31.951  30.794  1.00  0.00     0.031 C 
ATOM     42  C   UNL A   1      40.299  25.732  27.999  1.00  0.00     0.029 A 
ATOM     43  C   UNL A   1      41.638  25.996  28.518  1.00  0.00     0.049 A 
ATOM     44  H   UNL A   1      42.318  27.727  29.454  1.00  0.00     0.167 HD
ATOM     45  C   UNL A   1      43.678  31.459  31.230  1.00  0.00     0.031 A 
ATOM     46  C   UNL A   1      42.672  25.136  28.474  1.00  0.00     0.031 A 
ATOM     47  C   UNL A   1      44.838  30.610  31.233  1.00  0.00     0.049 A 
ATOM     48  C   UNL A   1      43.992  25.529  29.065  1.00  0.00     0.074 A 
ATOM     49  C   UNL A   1      46.117  30.896  31.676  1.00  0.00     0.029 A 
ATOM     50  N   UNL A   1      44.855  29.301  30.779  1.00  0.00    -0.354 N 
ATOM     51  N   UNL A   1      44.340  26.673  29.602  1.00  0.00    -0.248 NA
ATOM     52  C   UNL A   1      45.053  24.513  29.053  1.00  0.00     0.031 C 
ATOM     53  C   UNL A   1      46.910  29.753  31.494  1.00  0.00     0.029 A 
ATOM     54  C   UNL A   1      46.118  28.758  30.943  1.00  0.00     0.049 A 
ATOM     55  H   UNL A   1      44.083  28.827  30.396  1.00  0.00     0.167 HD
ATOM     56  C   UNL A   1      45.661  26.513  30.001  1.00  0.00     0.074 A 
ATOM     57  C   UNL A   1      46.047  25.159  29.650  1.00  0.00     0.031 C 
ATOM     58  C   UNL A   1      46.481  27.409  30.601  1.00  0.00     0.031 A 
BRANCH  45  59
ATOM     59  C   UNL A   1      43.808  32.862  31.743  1.00  0.00    -0.014 A 
ATOM     60  C   UNL A   1      43.499  33.169  33.079  1.00  0.00     0.010 A 
ATOM     61  C   UNL A   1      44.219  33.889  30.875  1.00  0.00     0.010 A 
ATOM     62  C   UNL A   1      43.552  34.492  33.529  1.00  0.00     0.020 A 
ATOM     63  C   UNL A   1      44.282  35.210  31.324  1.00  0.00     0.020 A 
ATOM     64  C   UNL A   1      43.925  35.506  32.642  1.00  0.00     0.054 A 
BRANCH  64  65
ATOM     65  S   UNL A   1      43.966  37.226  33.214  1.00  0.00     0.124 S 
ATOM     66  O   UNL A   1      42.805  37.273  34.101  1.00  0.00    -0.237 OA
ATOM     67  O   UNL A   1      45.263  37.330  33.878  1.00  0.00    -0.237 OA
ATOM     68  O   UNL A   1      43.841  37.995  31.979  1.00  0.00    -0.744 OA
ENDBRANCH  64  65
ENDBRANCH  45  59
BRANCH  46  69
ATOM     69  C   UNL A   1      42.474  23.797  27.869  1.00  0.00    -0.014 A 
ATOM     70  C   UNL A   1      42.845  23.566  26.534  1.00  0.00     0.010 A 
ATOM     71  C   UNL A   1      41.973  22.738  28.643  1.00  0.00     0.010 A 
ATOM     72  C   UNL A   1      42.724  22.289  25.981  1.00  0.00     0.020 A 
ATOM     73  C   UNL A   1      41.858  21.459  28.095  1.00  0.00     0.020 A 
ATOM     74  C   UNL A   1      42.231  21.243  26.765  1.00  0.00     0.054 A 
BRANCH  74  75
ATOM     75  S   UNL A   1      42.161  19.565  26.077  1.00  0.00     0.124 S 
ATOM     76  O   UNL A   1      42.631  18.759  27.198  1.00  0.00    -0.237 OA
ATOM     77  O   UNL A   1      40.750  19.409  25.731  1.00  0.00    -0.237 OA
ATOM     78  O   UNL A   1      43.066  19.642  24.932  1.00  0.00    -0.744 OA
ENDBRANCH  74  75
ENDBRANCH  46  69
BRANCH  58  79
ATOM     79  C   UNL A   1      47.867  26.943  30.933  1.00  0.00    -0.014 A 
ATOM     80  C   UNL A   1      48.119  26.242  32.124  1.00  0.00     0.010 A 
ATOM     81  C   UNL A   1      48.921  27.187  30.036  1.00  0.00     0.010 A 
ATOM     82  C   UNL A   1      49.412  25.808  32.425  1.00  0.00     0.020 A 
ATOM     83  C   UNL A   1      50.214  26.749  30.332  1.00  0.00     0.020 A 
ATOM     84  C   UNL A   1      50.454  26.073  31.532  1.00  0.00     0.054 A 
BRANCH  84  85
ATOM     85  S   UNL A   1      52.128  25.480  31.907  1.00  0.00     0.124 S 
ATOM     86  O   UNL A   1      51.890  24.069  32.199  1.00  0.00    -0.237 OA
ATOM     87  O   UNL A   1      52.862  25.751  30.672  1.00  0.00    -0.237 OA
ATOM     88  O   UNL A   1      52.526  26.299  33.051  1.00  0.00    -0.744 OA
ENDBRANCH  84  85
ENDBRANCH  58  79
ENDBRANCH  32  33
ENDBRANCH  24  27
ENDBRANCH  22  23
ENDBRANCH  21  22
ENDBRANCH   1  21
TORSDOF 19
ENDMDL
MODEL 2
REMARK VINA RESULT:      -9.7      3.549      8.317
REMARK SMILES CCCN(CC)S(=O)(=O)c1ccc(C(=O)NCCCCNC(=O)c2ccc(-c3c4nc(c(-c5ccc(S(=O)(=O)[O-])cc5)c5ccc([nH]5)c(-c5ccc(S(=O)(=O)[O-])cc5)c5nc(c(-c6ccc(S(=O)(=O)[O-])cc6)c6ccc3[nH]6)C=C5)C=C4)cc2)o1
REMARK SMILES IDX 18 1 17 2 16 3 14 4 15 5 13 7 10 8 11 9 84 10 12 11 7 12
REMARK SMILES IDX 8 13 9 14 4 15 3 16 2 17 1 18 5 19 6 20 19 21 20 22 21 23
REMARK SMILES IDX 22 24 23 26 24 27 25 28 83 29 26 30 82 31 27 32 28 33 29 34
REMARK SMILES IDX 76 35 30 36 81 37 75 38 77 39 31 40 80 41 74 42 73 43 32 45
REMARK SMILES IDX 62 46 43 47 61 48 44 49 47 50 60 51 78 52 45 53 46 54 59 56
REMARK SMILES IDX 79 57 48 58 33 59 34 60 42 61 35 62 41 63 36 64 37 65 38 66
REMARK SMILES IDX 39 67 40 68 63 69 64 70 72 71 65 72 71 73 66 74 67 75 68 76
REMARK SMILES IDX 69 77 70 78 49 79 50 80 58 81 51 82 57 83 52 84 53 85 54 86
REMARK SMILES IDX 55 87 56 88
REMARK H PARENT 16 6 21 25 77 44 47 55
REMARK Flexibility Score: inf
ROOT
ATOM      1  C   UNL A   1      37.161  21.230  24.676  1.00  0.00     0.023 C 
ENDROOT
BRANCH   1   2
ATOM      2  C   UNL A   1      35.923  21.321  25.567  1.00  0.00     0.116 C 
BRANCH   2   3
ATOM      3  N   UNL A   1      35.011  20.225  25.329  1.00  0.00    -0.349 N 
ATOM      4  C   UNL A   1      33.723  20.196  24.844  1.00  0.00     0.287 C 
ATOM      5  O   UNL A   1      33.220  19.072  24.765  1.00  0.00    -0.266 OA
ATOM      6  H   UNL A   1      35.377  19.339  25.554  1.00  0.00     0.163 HD
BRANCH   4   7
ATOM      7  C   UNL A   1      33.010  21.401  24.445  1.00  0.00     0.193 A 
ATOM      8  C   UNL A   1      31.931  23.306  24.967  1.00  0.00     0.234 A 
ATOM      9  C   UNL A   1      31.857  23.141  23.593  1.00  0.00     0.065 A 
ATOM     10  O   UNL A   1      32.645  22.242  25.467  1.00  0.00    -0.438 OA
ATOM     11  C   UNL A   1      32.567  21.959  23.261  1.00  0.00     0.058 A 
BRANCH   8  12
ATOM     12  S   UNL A   1      31.233  24.534  26.071  1.00  0.00     0.276 S 
ATOM     13  O   UNL A   1      31.108  23.887  27.360  1.00  0.00    -0.204 OA
ATOM     14  O   UNL A   1      30.072  25.012  25.352  1.00  0.00    -0.204 OA
BRANCH  12  15
ATOM     15  N   UNL A   1      32.327  25.851  26.249  1.00  0.00    -0.195 NA
BRANCH  15  16
ATOM     16  C   UNL A   1      33.563  25.736  25.407  1.00  0.00     0.102 C 
BRANCH  16  17
ATOM     17  C   UNL A   1      33.635  26.818  24.328  1.00  0.00     0.013 C 
ATOM     18  C   UNL A   1      33.523  26.236  22.926  1.00  0.00     0.005 C 
ENDBRANCH  16  17
ENDBRANCH  15  16
BRANCH  15  19
ATOM     19  C   UNL A   1      31.753  27.229  26.219  1.00  0.00     0.099 C 
ATOM     20  C   UNL A   1      32.113  28.099  27.408  1.00  0.00     0.022 C 
ENDBRANCH  15  19
ENDBRANCH  12  15
ENDBRANCH   8  12
ENDBRANCH   4   7
ENDBRANCH   2   3
ENDBRANCH   1   2
BRANCH   1  21
ATOM     21  C   UNL A   1      38.133  20.103  25.059  1.00  0.00     0.023 C 
BRANCH  21  22
ATOM     22  C   UNL A   1      39.329  20.548  25.904  1.00  0.00     0.116 C 
BRANCH  22  23
ATOM     23  N   UNL A   1      40.318  19.495  26.059  1.00  0.00    -0.352 N 
ATOM     24  C   UNL A   1      41.658  19.598  26.334  1.00  0.00     0.251 C 
ATOM     25  H   UNL A   1      39.978  18.578  25.949  1.00  0.00     0.163 HD
ATOM     26  O   UNL A   1      42.362  18.592  26.285  1.00  0.00    -0.269 OA
BRANCH  24  27
ATOM     27  C   UNL A   1      42.269  20.912  26.631  1.00  0.00     0.039 A 
ATOM     28  C   UNL A   1      42.675  21.707  25.553  1.00  0.00     0.014 A 
ATOM     29  C   UNL A   1      42.482  21.349  27.940  1.00  0.00     0.014 A 
ATOM     30  C   UNL A   1      43.240  22.961  25.783  1.00  0.00     0.010 A 
ATOM     31  C   UNL A   1      43.024  22.615  28.172  1.00  0.00     0.010 A 
ATOM     32  C   UNL A   1      43.399  23.432  27.095  1.00  0.00    -0.014 A 
BRANCH  32  33
ATOM     33  C   UNL A   1      43.928  24.793  27.347  1.00  0.00     0.031 A 
ATOM     34  C   UNL A   1      43.026  25.891  27.826  1.00  0.00     0.074 A 
ATOM     35  C   UNL A   1      45.227  25.047  27.101  1.00  0.00     0.049 A 
ATOM     36  N   UNL A   1      43.311  27.148  28.051  1.00  0.00    -0.248 NA
ATOM     37  C   UNL A   1      41.620  25.534  28.070  1.00  0.00     0.031 C 
ATOM     38  C   UNL A   1      46.200  24.074  26.600  1.00  0.00     0.029 A 
ATOM     39  N   UNL A   1      45.948  26.205  27.233  1.00  0.00    -0.354 N 
ATOM     40  C   UNL A   1      42.116  27.743  28.433  1.00  0.00     0.074 A 
ATOM     41  C   UNL A   1      41.104  26.706  28.414  1.00  0.00     0.031 C 
ATOM     42  C   UNL A   1      47.395  24.676  26.478  1.00  0.00     0.029 A 
ATOM     43  C   UNL A   1      47.268  26.073  26.880  1.00  0.00     0.049 A 
ATOM     44  H   UNL A   1      45.557  27.051  27.551  1.00  0.00     0.167 HD
ATOM     45  C   UNL A   1      41.880  29.034  28.766  1.00  0.00     0.031 A 
ATOM     46  C   UNL A   1      48.267  26.974  26.882  1.00  0.00     0.031 A 
ATOM     47  C   UNL A   1      42.881  30.066  28.806  1.00  0.00     0.049 A 
ATOM     48  C   UNL A   1      48.003  28.377  27.340  1.00  0.00     0.074 A 
ATOM     49  C   UNL A   1      42.733  31.402  29.134  1.00  0.00     0.029 A 
ATOM     50  N   UNL A   1      44.222  29.870  28.518  1.00  0.00    -0.354 N 
ATOM     51  N   UNL A   1      46.867  28.917  27.710  1.00  0.00    -0.248 NA
ATOM     52  C   UNL A   1      49.155  29.286  27.392  1.00  0.00     0.031 C 
ATOM     53  C   UNL A   1      43.991  32.016  29.048  1.00  0.00     0.029 A 
ATOM     54  C   UNL A   1      44.918  31.058  28.673  1.00  0.00     0.049 A 
ATOM     55  H   UNL A   1      44.621  29.014  28.243  1.00  0.00     0.167 HD
ATOM     56  C   UNL A   1      47.168  30.230  28.046  1.00  0.00     0.074 A 
ATOM     57  C   UNL A   1      48.594  30.401  27.844  1.00  0.00     0.031 C 
ATOM     58  C   UNL A   1      46.336  31.207  28.480  1.00  0.00     0.031 A 
BRANCH  45  59
ATOM     59  C   UNL A   1      40.461  29.393  29.092  1.00  0.00    -0.014 A 
ATOM     60  C   UNL A   1      39.508  29.552  28.072  1.00  0.00     0.010 A 
ATOM     61  C   UNL A   1      40.082  29.599  30.431  1.00  0.00     0.010 A 
ATOM     62  C   UNL A   1      38.207  29.959  28.380  1.00  0.00     0.020 A 
ATOM     63  C   UNL A   1      38.780  29.997  30.742  1.00  0.00     0.020 A 
ATOM     64  C   UNL A   1      37.857  30.197  29.712  1.00  0.00     0.054 A 
BRANCH  64  65
ATOM     65  S   UNL A   1      36.178  30.754  30.112  1.00  0.00     0.124 S 
ATOM     66  O   UNL A   1      36.344  32.206  30.137  1.00  0.00    -0.237 OA
ATOM     67  O   UNL A   1      35.379  30.236  29.005  1.00  0.00    -0.237 OA
ATOM     68  O   UNL A   1      35.917  30.132  31.408  1.00  0.00    -0.744 OA
ENDBRANCH  64  65
ENDBRANCH  45  59
BRANCH  46  69
ATOM     69  C   UNL A   1      49.624  26.551  26.461  1.00  0.00    -0.014 A 
ATOM     70  C   UNL A   1      50.429  25.798  27.333  1.00  0.00     0.010 A 
ATOM     71  C   UNL A   1      50.089  26.847  25.169  1.00  0.00     0.010 A 
ATOM     72  C   UNL A   1      51.680  25.339  26.915  1.00  0.00     0.020 A 
ATOM     73  C   UNL A   1      51.336  26.383  24.747  1.00  0.00     0.020 A 
ATOM     74  C   UNL A   1      52.126  25.634  25.624  1.00  0.00     0.054 A 
BRANCH  74  75
ATOM     75  S   UNL A   1      53.709  24.960  25.049  1.00  0.00     0.124 S 
ATOM     76  O   UNL A   1      54.641  25.490  26.038  1.00  0.00    -0.237 OA
ATOM     77  O   UNL A   1      53.490  23.515  25.096  1.00  0.00    -0.237 OA
ATOM     78  O   UNL A   1      53.834  25.515  23.703  1.00  0.00    -0.744 OA
ENDBRANCH  74  75
ENDBRANCH  46  69
BRANCH  58  79
ATOM     79  C   UNL A   1      46.955  32.538  28.785  1.00  0.00    -0.014 A 
ATOM     80  C   UNL A   1      47.448  32.820  30.070  1.00  0.00     0.010 A 
ATOM     81  C   UNL A   1      47.067  33.507  27.773  1.00  0.00     0.010 A 
ATOM     82  C   UNL A   1      48.027  34.061  30.346  1.00  0.00     0.020 A 
ATOM     83  C   UNL A   1      47.649  34.747  28.044  1.00  0.00     0.020 A 
ATOM     84  C   UNL A   1      48.115  35.021  29.334  1.00  0.00     0.054 A 
BRANCH  84  85
ATOM     85  S   UNL A   1      48.896  36.621  29.683  1.00  0.00     0.124 S 
ATOM     86  O   UNL A   1      49.889  36.712  28.616  1.00  0.00    -0.237 OA
ATOM     87  O   UNL A   1      47.782  37.564  29.586  1.00  0.00    -0.237 OA
ATOM     88  O   UNL A   1      49.436  36.446  31.030  1.00  0.00    -0.744 OA
ENDBRANCH  84  85
ENDBRANCH  58  79
ENDBRANCH  32  33
ENDBRANCH  24  27
ENDBRANCH  22  23
ENDBRANCH  21  22
ENDBRANCH   1  21
TORSDOF 19
ENDMDL
MODEL 3
REMARK VINA RESULT:      -9.6      3.024      3.771
REMARK SMILES CCCN(CC)S(=O)(=O)c1ccc(C(=O)NCCCCNC(=O)c2ccc(-c3c4nc(c(-c5ccc(S(=O)(=O)[O-])cc5)c5ccc([nH]5)c(-c5ccc(S(=O)(=O)[O-])cc5)c5nc(c(-c6ccc(S(=O)(=O)[O-])cc6)c6ccc3[nH]6)C=C5)C=C4)cc2)o1
REMARK SMILES IDX 18 1 17 2 16 3 14 4 15 5 13 7 10 8 11 9 84 10 12 11 7 12
REMARK SMILES IDX 8 13 9 14 4 15 3 16 2 17 1 18 5 19 6 20 19 21 20 22 21 23
REMARK SMILES IDX 22 24 23 26 24 27 25 28 83 29 26 30 82 31 27 32 28 33 29 34
REMARK SMILES IDX 76 35 30 36 81 37 75 38 77 39 31 40 80 41 74 42 73 43 32 45
REMARK SMILES IDX 62 46 43 47 61 48 44 49 47 50 60 51 78 52 45 53 46 54 59 56
REMARK SMILES IDX 79 57 48 58 33 59 34 60 42 61 35 62 41 63 36 64 37 65 38 66
REMARK SMILES IDX 39 67 40 68 63 69 64 70 72 71 65 72 71 73 66 74 67 75 68 76
REMARK SMILES IDX 69 77 70 78 49 79 50 80 58 81 51 82 57 83 52 84 53 85 54 86
REMARK SMILES IDX 55 87 56 88
REMARK H PARENT 16 6 21 25 77 44 47 55
REMARK Flexibility Score: inf
ROOT
ATOM      1  C   UNL A   1      33.410  29.359  26.502  1.00  0.00     0.023 C 
ENDROOT
BRANCH   1   2
ATOM      2  C   UNL A   1      32.404  29.913  25.494  1.00  0.00     0.116 C 
BRANCH   2   3
ATOM      3  N   UNL A   1      32.594  29.342  24.180  1.00  0.00    -0.349 N 
ATOM      4  C   UNL A   1      32.281  28.104  23.667  1.00  0.00     0.287 C 
ATOM      5  O   UNL A   1      32.586  27.936  22.483  1.00  0.00    -0.266 OA
ATOM      6  H   UNL A   1      33.027  29.948  23.535  1.00  0.00     0.163 HD
BRANCH   4   7
ATOM      7  C   UNL A   1      31.627  27.071  24.458  1.00  0.00     0.193 A 
ATOM      8  C   UNL A   1      31.694  25.118  25.575  1.00  0.00     0.234 A 
ATOM      9  C   UNL A   1      30.383  25.565  25.584  1.00  0.00     0.065 A 
ATOM     10  O   UNL A   1      32.439  26.053  24.893  1.00  0.00    -0.438 OA
ATOM     11  C   UNL A   1      30.348  26.813  24.911  1.00  0.00     0.058 A 
BRANCH   8  12
ATOM     12  S   UNL A   1      32.459  23.616  26.188  1.00  0.00     0.276 S 
ATOM     13  O   UNL A   1      31.565  23.099  27.203  1.00  0.00    -0.204 OA
ATOM     14  O   UNL A   1      33.805  24.032  26.512  1.00  0.00    -0.204 OA
BRANCH  12  15
ATOM     15  N   UNL A   1      32.551  22.449  24.926  1.00  0.00    -0.195 NA
BRANCH  15  16
ATOM     16  C   UNL A   1      32.144  21.066  25.342  1.00  0.00     0.102 C 
BRANCH  16  17
ATOM     17  C   UNL A   1      33.346  20.150  25.574  1.00  0.00     0.013 C 
ATOM     18  C   UNL A   1      34.636  20.750  25.032  1.00  0.00     0.005 C 
ENDBRANCH  16  17
ENDBRANCH  15  16
BRANCH  15  19
ATOM     19  C   UNL A   1      31.978  22.827  23.600  1.00  0.00     0.099 C 
ATOM     20  C   UNL A   1      32.123  21.774  22.517  1.00  0.00     0.022 C 
ENDBRANCH  15  19
ENDBRANCH  12  15
ENDBRANCH   8  12
ENDBRANCH   4   7
ENDBRANCH   2   3
ENDBRANCH   1   2
BRANCH   1  21
ATOM     21  C   UNL A   1      34.155  30.435  27.308  1.00  0.00     0.023 C 
BRANCH  21  22
ATOM     22  C   UNL A   1      35.446  29.956  27.975  1.00  0.00     0.116 C 
BRANCH  22  23
ATOM     23  N   UNL A   1      35.417  30.126  29.418  1.00  0.00    -0.352 N 
ATOM     24  C   UNL A   1      36.430  29.969  30.330  1.00  0.00     0.251 C 
ATOM     25  H   UNL A   1      34.547  30.391  29.794  1.00  0.00     0.163 HD
ATOM     26  O   UNL A   1      36.172  30.020  31.530  1.00  0.00    -0.269 OA
BRANCH  24  27
ATOM     27  C   UNL A   1      37.811  29.683  29.883  1.00  0.00     0.039 A 
ATOM     28  C   UNL A   1      38.732  29.242  30.839  1.00  0.00     0.014 A 
ATOM     29  C   UNL A   1      38.215  29.879  28.560  1.00  0.00     0.014 A 
ATOM     30  C   UNL A   1      40.042  28.943  30.461  1.00  0.00     0.010 A 
ATOM     31  C   UNL A   1      39.518  29.555  28.176  1.00  0.00     0.010 A 
ATOM     32  C   UNL A   1      40.437  29.078  29.122  1.00  0.00    -0.014 A 
BRANCH  32  33
ATOM     33  C   UNL A   1      41.803  28.692  28.699  1.00  0.00     0.031 A 
ATOM     34  C   UNL A   1      42.912  29.702  28.669  1.00  0.00     0.074 A 
ATOM     35  C   UNL A   1      42.033  27.428  28.299  1.00  0.00     0.049 A 
ATOM     36  N   UNL A   1      44.152  29.548  28.281  1.00  0.00    -0.248 NA
ATOM     37  C   UNL A   1      42.581  31.062  29.120  1.00  0.00     0.031 C 
ATOM     38  C   UNL A   1      41.031  26.361  28.249  1.00  0.00     0.029 A 
ATOM     39  N   UNL A   1      43.183  26.830  27.851  1.00  0.00    -0.354 N 
ATOM     40  C   UNL A   1      44.745  30.797  28.411  1.00  0.00     0.074 A 
ATOM     41  C   UNL A   1      43.728  31.696  28.918  1.00  0.00     0.031 C 
ATOM     42  C   UNL A   1      41.615  25.234  27.805  1.00  0.00     0.029 A 
ATOM     43  C   UNL A   1      43.023  25.504  27.531  1.00  0.00     0.049 A 
ATOM     44  H   UNL A   1      44.041  27.306  27.768  1.00  0.00     0.167 HD
ATOM     45  C   UNL A   1      46.018  31.164  28.129  1.00  0.00     0.031 A 
ATOM     46  C   UNL A   1      43.911  24.604  27.071  1.00  0.00     0.031 A 
ATOM     47  C   UNL A   1      47.039  30.276  27.643  1.00  0.00     0.049 A 
ATOM     48  C   UNL A   1      45.337  25.011  26.852  1.00  0.00     0.074 A 
ATOM     49  C   UNL A   1      48.357  30.560  27.332  1.00  0.00     0.029 A 
ATOM     50  N   UNL A   1      46.855  28.922  27.408  1.00  0.00    -0.354 N 
ATOM     51  N   UNL A   1      45.881  26.196  26.991  1.00  0.00    -0.248 NA
ATOM     52  C   UNL A   1      46.269  23.959  26.425  1.00  0.00     0.031 C 
ATOM     53  C   UNL A   1      48.974  29.373  26.912  1.00  0.00     0.029 A 
ATOM     54  C   UNL A   1      48.039  28.353  26.970  1.00  0.00     0.049 A 
ATOM     55  H   UNL A   1      46.009  28.437  27.535  1.00  0.00     0.167 HD
ATOM     56  C   UNL A   1      47.224  26.031  26.676  1.00  0.00     0.074 A 
ATOM     57  C   UNL A   1      47.411  24.632  26.346  1.00  0.00     0.031 C 
ATOM     58  C   UNL A   1      48.211  26.959  26.658  1.00  0.00     0.031 A 
BRANCH  45  59
ATOM     59  C   UNL A   1      46.356  32.612  28.327  1.00  0.00    -0.014 A 
ATOM     60  C   UNL A   1      46.761  33.088  29.585  1.00  0.00     0.010 A 
ATOM     61  C   UNL A   1      46.241  33.510  27.251  1.00  0.00     0.010 A 
ATOM     62  C   UNL A   1      47.002  34.451  29.779  1.00  0.00     0.020 A 
ATOM     63  C   UNL A   1      46.490  34.871  27.440  1.00  0.00     0.020 A 
ATOM     64  C   UNL A   1      46.846  35.336  28.708  1.00  0.00     0.054 A 
BRANCH  64  65
ATOM     65  S   UNL A   1      47.128  37.110  28.963  1.00  0.00     0.124 S 
ATOM     66  O   UNL A   1      48.101  37.411  27.916  1.00  0.00    -0.237 OA
ATOM     67  O   UNL A   1      45.802  37.692  28.771  1.00  0.00    -0.237 OA
ATOM     68  O   UNL A   1      47.639  37.176  30.330  1.00  0.00    -0.744 OA
ENDBRANCH  64  65
ENDBRANCH  45  59
BRANCH  46  69
ATOM     69  C   UNL A   1      43.467  23.212  26.822  1.00  0.00    -0.014 A 
ATOM     70  C   UNL A   1      43.583  22.656  25.536  1.00  0.00     0.010 A 
ATOM     71  C   UNL A   1      42.987  22.422  27.879  1.00  0.00     0.010 A 
ATOM     72  C   UNL A   1      43.230  21.324  25.312  1.00  0.00     0.020 A 
ATOM     73  C   UNL A   1      42.640  21.087  27.658  1.00  0.00     0.020 A 
ATOM     74  C   UNL A   1      42.761  20.547  26.374  1.00  0.00     0.054 A 
BRANCH  74  75
ATOM     75  S   UNL A   1      42.391  18.791  26.104  1.00  0.00     0.124 S 
ATOM     76  O   UNL A   1      43.324  18.446  25.037  1.00  0.00    -0.237 OA
ATOM     77  O   UNL A   1      42.669  18.191  27.407  1.00  0.00    -0.237 OA
ATOM     78  O   UNL A   1      40.979  18.807  25.727  1.00  0.00    -0.744 OA
ENDBRANCH  74  75
ENDBRANCH  46  69
BRANCH  58  79
ATOM     79  C   UNL A   1      49.583  26.480  26.291  1.00  0.00    -0.014 A 
ATOM     80  C   UNL A   1      50.044  26.579  24.967  1.00  0.00     0.010 A 
ATOM     81  C   UNL A   1      50.429  25.950  27.281  1.00  0.00     0.010 A 
ATOM     82  C   UNL A   1      51.325  26.134  24.632  1.00  0.00     0.020 A 
ATOM     83  C   UNL A   1      51.712  25.509  26.950  1.00  0.00     0.020 A 
ATOM     84  C   UNL A   1      52.148  25.592  25.624  1.00  0.00     0.054 A 
BRANCH  84  85
ATOM     85  S   UNL A   1      53.824  25.045  25.196  1.00  0.00     0.124 S 
ATOM     86  O   UNL A   1      54.571  25.386  26.404  1.00  0.00    -0.237 OA
ATOM     87  O   UNL A   1      53.654  23.614  24.947  1.00  0.00    -0.237 OA
ATOM     88  O   UNL A   1      54.147  25.840  24.013  1.00  0.00    -0.744 OA
ENDBRANCH  84  85
ENDBRANCH  58  79
ENDBRANCH  32  33
ENDBRANCH  24  27
ENDBRANCH  22  23
ENDBRANCH  21  22
ENDBRANCH   1  21
TORSDOF 19
ENDMDL
