MODEL 1
REMARK VINA RESULT:      -9.1      0.000      0.000
REMARK SMILES CCOc1cccc(OCC)c1-c1ccc([C@@H](C)C(=O)NCCCCNC(=O)c2ccc(-c3c4nc(c(-c5ccc(S(=O)(=O)[O-])cc5)c5ccc([nH]5)c(-c5ccc(S(=O)(=O)[O-])cc5)c5nc(c(-c6ccc(S(=O)(=O)[O-])cc6)c6ccc3[nH]6)C=C5)C=C4)cc2)cc1F
REMARK SMILES IDX 23 1 22 2 21 3 19 4 20 5 17 7 18 8 16 9 13 10 14 11 90 12
REMARK SMILES IDX 15 13 89 14 91 15 12 16 4 17 5 18 6 19 8 20 7 21 3 22 2 23
REMARK SMILES IDX 1 24 9 25 10 26 11 27 24 28 25 29 26 30 27 31 28 33 29 34
REMARK SMILES IDX 30 35 88 36 31 37 87 38 32 39 33 40 34 41 81 42 35 43 86 44
REMARK SMILES IDX 80 45 82 46 36 47 85 48 79 49 78 50 37 52 67 53 48 54 66 55
REMARK SMILES IDX 49 56 52 57 65 58 83 59 50 60 51 61 64 63 84 64 53 65 38 66
REMARK SMILES IDX 39 67 47 68 40 69 46 70 41 71 42 72 43 73 44 74 45 75 68 76
REMARK SMILES IDX 69 77 77 78 70 79 76 80 71 81 72 82 73 83 74 84 75 85 54 86
REMARK SMILES IDX 55 87 63 88 56 89 62 90 57 91 58 92 59 93 60 94 61 95
REMARK H PARENT 21 6 26 32 82 51 52 62
REMARK Flexibility Score: inf
ROOT
ATOM      1  C   UNL A   1      33.234  34.784  29.274  1.00  0.00     0.023 C 
ENDROOT
BRANCH   1   2
ATOM      2  C   UNL A   1      34.094  35.891  29.903  1.00  0.00     0.116 C 
BRANCH   2   3
ATOM      3  N   UNL A   1      34.007  35.889  31.355  1.00  0.00    -0.356 N 
ATOM      4  C   UNL A   1      34.508  35.086  32.335  1.00  0.00     0.227 C 
ATOM      5  O   UNL A   1      34.146  35.367  33.486  1.00  0.00    -0.274 OA
ATOM      6  H   UNL A   1      33.466  36.633  31.707  1.00  0.00     0.163 HD
BRANCH   4   7
ATOM      7  C   UNL A   1      35.462  33.888  32.123  1.00  0.00     0.105 C 
ATOM      8  C   UNL A   1      34.763  32.551  31.897  1.00  0.00     0.023 C 
BRANCH   7   9
ATOM      9  C   UNL A   1      36.597  33.829  33.130  1.00  0.00    -0.033 A 
ATOM     10  C   UNL A   1      38.837  33.382  34.833  1.00  0.00     0.025 A 
ATOM     11  C   UNL A   1      38.985  33.784  33.508  1.00  0.00     0.012 A 
ATOM     12  C   UNL A   1      37.525  33.225  35.299  1.00  0.00     0.131 A 
ATOM     13  C   UNL A   1      37.890  34.140  32.735  1.00  0.00     0.005 A 
ATOM     14  C   UNL A   1      36.420  33.396  34.450  1.00  0.00     0.044 A 
ATOM     15  F   UNL A   1      37.297  32.844  36.565  1.00  0.00    -0.206 F 
BRANCH  10  16
ATOM     16  C   UNL A   1      40.045  33.027  35.599  1.00  0.00     0.069 A 
ATOM     17  C   UNL A   1      40.379  31.645  35.680  1.00  0.00     0.130 A 
ATOM     18  C   UNL A   1      41.544  31.185  36.299  1.00  0.00     0.047 A 
ATOM     19  C   UNL A   1      42.434  32.100  36.835  1.00  0.00     0.008 A 
ATOM     20  C   UNL A   1      40.959  33.947  36.167  1.00  0.00     0.130 A 
ATOM     21  C   UNL A   1      42.135  33.458  36.775  1.00  0.00     0.047 A 
BRANCH  17  22
ATOM     22  O   UNL A   1      39.490  30.705  35.209  1.00  0.00    -0.493 OA
BRANCH  22  23
ATOM     23  C   UNL A   1      39.938  30.049  34.017  1.00  0.00     0.226 C 
ATOM     24  C   UNL A   1      38.807  30.062  33.002  1.00  0.00     0.049 C 
ENDBRANCH  22  23
ENDBRANCH  17  22
BRANCH  20  25
ATOM     25  O   UNL A   1      40.914  35.309  36.307  1.00  0.00    -0.493 OA
BRANCH  25  26
ATOM     26  C   UNL A   1      39.800  36.042  36.788  1.00  0.00     0.226 C 
ATOM     27  C   UNL A   1      39.474  35.665  38.228  1.00  0.00     0.049 C 
ENDBRANCH  25  26
ENDBRANCH  20  25
ENDBRANCH  10  16
ENDBRANCH   7   9
ENDBRANCH   4   7
ENDBRANCH   2   3
ENDBRANCH   1   2
BRANCH   1  28
ATOM     28  C   UNL A   1      33.815  34.082  28.054  1.00  0.00     0.023 C 
BRANCH  28  29
ATOM     29  C   UNL A   1      34.532  32.775  28.354  1.00  0.00     0.116 C 
BRANCH  29  30
ATOM     30  N   UNL A   1      33.791  31.582  27.970  1.00  0.00    -0.352 N 
ATOM     31  C   UNL A   1      34.263  30.294  27.852  1.00  0.00     0.251 C 
ATOM     32  H   UNL A   1      32.835  31.712  27.771  1.00  0.00     0.163 HD
ATOM     33  O   UNL A   1      33.522  29.402  27.446  1.00  0.00    -0.269 OA
BRANCH  31  34
ATOM     34  C   UNL A   1      35.680  30.008  28.171  1.00  0.00     0.039 A 
ATOM     35  C   UNL A   1      36.007  29.552  29.450  1.00  0.00     0.014 A 
ATOM     36  C   UNL A   1      36.674  30.147  27.201  1.00  0.00     0.014 A 
ATOM     37  C   UNL A   1      37.324  29.180  29.733  1.00  0.00     0.010 A 
ATOM     38  C   UNL A   1      37.959  29.682  27.451  1.00  0.00     0.010 A 
ATOM     39  C   UNL A   1      38.304  29.216  28.726  1.00  0.00    -0.014 A 
BRANCH  39  40
ATOM     40  C   UNL A   1      39.710  28.832  29.004  1.00  0.00     0.031 A 
ATOM     41  C   UNL A   1      40.636  29.828  29.656  1.00  0.00     0.074 A 
ATOM     42  C   UNL A   1      40.166  27.618  28.639  1.00  0.00     0.049 A 
ATOM     43  N   UNL A   1      41.908  29.710  29.941  1.00  0.00    -0.248 NA
ATOM     44  C   UNL A   1      40.066  31.143  30.004  1.00  0.00     0.031 C 
ATOM     45  C   UNL A   1      39.386  26.586  27.948  1.00  0.00     0.029 A 
ATOM     46  N   UNL A   1      41.402  27.044  28.800  1.00  0.00    -0.354 N 
ATOM     47  C   UNL A   1      42.286  30.931  30.489  1.00  0.00     0.074 A 
ATOM     48  C   UNL A   1      41.133  31.800  30.430  1.00  0.00     0.031 C 
ATOM     49  C   UNL A   1      40.154  25.496  27.775  1.00  0.00     0.029 A 
ATOM     50  C   UNL A   1      41.484  25.759  28.316  1.00  0.00     0.049 A 
ATOM     51  H   UNL A   1      42.161  27.509  29.222  1.00  0.00     0.167 HD
ATOM     52  C   UNL A   1      43.473  31.288  31.032  1.00  0.00     0.031 A 
ATOM     53  C   UNL A   1      42.513  24.891  28.316  1.00  0.00     0.031 A 
ATOM     54  C   UNL A   1      44.610  30.414  31.120  1.00  0.00     0.049 A 
ATOM     55  C   UNL A   1      43.815  25.305  28.949  1.00  0.00     0.074 A 
ATOM     56  C   UNL A   1      45.851  30.667  31.679  1.00  0.00     0.029 A 
ATOM     57  N   UNL A   1      44.637  29.109  30.657  1.00  0.00    -0.354 N 
ATOM     58  N   UNL A   1      44.136  26.450  29.504  1.00  0.00    -0.248 NA
ATOM     59  C   UNL A   1      44.885  24.297  28.980  1.00  0.00     0.031 C 
ATOM     60  C   UNL A   1      46.638  29.520  31.530  1.00  0.00     0.029 A 
ATOM     61  C   UNL A   1      45.870  28.540  30.920  1.00  0.00     0.049 A 
ATOM     62  H   UNL A   1      43.889  28.653  30.207  1.00  0.00     0.167 HD
ATOM     63  C   UNL A   1      45.435  26.289  29.975  1.00  0.00     0.074 A 
ATOM     64  C   UNL A   1      45.828  24.930  29.663  1.00  0.00     0.031 C 
ATOM     65  C   UNL A   1      46.235  27.184  30.608  1.00  0.00     0.031 A 
BRANCH  52  66
ATOM     66  C   UNL A   1      43.584  32.675  31.604  1.00  0.00    -0.014 A 
ATOM     67  C   UNL A   1      44.085  33.733  30.823  1.00  0.00     0.010 A 
ATOM     68  C   UNL A   1      43.149  32.938  32.916  1.00  0.00     0.010 A 
ATOM     69  C   UNL A   1      44.180  35.022  31.353  1.00  0.00     0.020 A 
ATOM     70  C   UNL A   1      43.216  34.232  33.441  1.00  0.00     0.020 A 
ATOM     71  C   UNL A   1      43.744  35.263  32.659  1.00  0.00     0.054 A 
BRANCH  71  72
ATOM     72  S   UNL A   1      43.842  36.955  33.306  1.00  0.00     0.124 S 
ATOM     73  O   UNL A   1      43.918  37.742  32.077  1.00  0.00    -0.237 OA
ATOM     74  O   UNL A   1      42.596  37.083  34.057  1.00  0.00    -0.237 OA
ATOM     75  O   UNL A   1      45.057  36.947  34.116  1.00  0.00    -0.744 OA
ENDBRANCH  71  72
ENDBRANCH  52  66
BRANCH  53  76
ATOM     76  C   UNL A   1      42.361  23.535  27.719  1.00  0.00    -0.014 A 
ATOM     77  C   UNL A   1      41.942  22.448  28.508  1.00  0.00     0.010 A 
ATOM     78  C   UNL A   1      42.673  23.315  26.366  1.00  0.00     0.010 A 
ATOM     79  C   UNL A   1      41.886  21.159  27.970  1.00  0.00     0.020 A 
ATOM     80  C   UNL A   1      42.590  22.032  25.815  1.00  0.00     0.020 A 
ATOM     81  C   UNL A   1      42.218  20.958  26.627  1.00  0.00     0.054 A 
BRANCH  81  82
ATOM     82  S   UNL A   1      42.139  19.279  25.944  1.00  0.00     0.124 S 
ATOM     83  O   UNL A   1      42.711  18.486  27.027  1.00  0.00    -0.237 OA
ATOM     84  O   UNL A   1      40.709  19.097  25.710  1.00  0.00    -0.237 OA
ATOM     85  O   UNL A   1      42.953  19.368  24.733  1.00  0.00    -0.744 OA
ENDBRANCH  81  82
ENDBRANCH  53  76
BRANCH  65  86
ATOM     86  C   UNL A   1      47.592  26.701  31.042  1.00  0.00    -0.014 A 
ATOM     87  C   UNL A   1      47.799  26.165  32.324  1.00  0.00     0.010 A 
ATOM     88  C   UNL A   1      48.669  26.766  30.140  1.00  0.00     0.010 A 
ATOM     89  C   UNL A   1      49.075  25.753  32.717  1.00  0.00     0.020 A 
ATOM     90  C   UNL A   1      49.939  26.327  30.519  1.00  0.00     0.020 A 
ATOM     91  C   UNL A   1      50.139  25.844  31.814  1.00  0.00     0.054 A 
BRANCH  91  92
ATOM     92  S   UNL A   1      51.784  25.294  32.342  1.00  0.00     0.124 S 
ATOM     93  O   UNL A   1      51.665  23.842  32.236  1.00  0.00    -0.237 OA
ATOM     94  O   UNL A   1      52.665  25.926  31.363  1.00  0.00    -0.237 OA
ATOM     95  O   UNL A   1      51.900  25.813  33.703  1.00  0.00    -0.744 OA
ENDBRANCH  91  92
ENDBRANCH  65  86
ENDBRANCH  39  40
ENDBRANCH  31  34
ENDBRANCH  29  30
ENDBRANCH  28  29
ENDBRANCH   1  28
TORSDOF 20
ENDMDL
MODEL 2
REMARK VINA RESULT:      -9.0      4.659      9.335
REMARK SMILES CCOc1cccc(OCC)c1-c1ccc([C@@H](C)C(=O)NCCCCNC(=O)c2ccc(-c3c4nc(c(-c5ccc(S(=O)(=O)[O-])cc5)c5ccc([nH]5)c(-c5ccc(S(=O)(=O)[O-])cc5)c5nc(c(-c6ccc(S(=O)(=O)[O-])cc6)c6ccc3[nH]6)C=C5)C=C4)cc2)cc1F
REMARK SMILES IDX 23 1 22 2 21 3 19 4 20 5 17 7 18 8 16 9 13 10 14 11 90 12
REMARK SMILES IDX 15 13 89 14 91 15 12 16 4 17 5 18 6 19 8 20 7 21 3 22 2 23
REMARK SMILES IDX 1 24 9 25 10 26 11 27 24 28 25 29 26 30 27 31 28 33 29 34
REMARK SMILES IDX 30 35 88 36 31 37 87 38 32 39 33 40 34 41 81 42 35 43 86 44
REMARK SMILES IDX 80 45 82 46 36 47 85 48 79 49 78 50 37 52 67 53 48 54 66 55
REMARK SMILES IDX 49 56 52 57 65 58 83 59 50 60 51 61 64 63 84 64 53 65 38 66
REMARK SMILES IDX 39 67 47 68 40 69 46 70 41 71 42 72 43 73 44 74 45 75 68 76
REMARK SMILES IDX 69 77 77 78 70 79 76 80 71 81 72 82 73 83 74 84 75 85 54 86
REMARK SMILES IDX 55 87 63 88 56 89 62 90 57 91 58 92 59 93 60 94 61 95
REMARK H PARENT 21 6 26 32 82 51 52 62
REMARK Flexibility Score: inf
ROOT
ATOM      1  C   UNL A   1      35.191  33.826  28.892  1.00  0.00     0.023 C 
ENDROOT
BRANCH   1   2
ATOM      2  C   UNL A   1      35.660  32.940  27.728  1.00  0.00     0.116 C 
BRANCH   2   3
ATOM      3  N   UNL A   1      35.759  31.541  28.114  1.00  0.00    -0.356 N 
ATOM      4  C   UNL A   1      35.021  30.428  27.846  1.00  0.00     0.227 C 
ATOM      5  O   UNL A   1      35.384  29.398  28.432  1.00  0.00    -0.274 OA
ATOM      6  H   UNL A   1      36.530  31.359  28.698  1.00  0.00     0.163 HD
BRANCH   4   7
ATOM      7  C   UNL A   1      33.802  30.357  26.898  1.00  0.00     0.105 C 
ATOM      8  C   UNL A   1      32.608  31.203  27.332  1.00  0.00     0.023 C 
BRANCH   7   9
ATOM      9  C   UNL A   1      33.437  28.943  26.480  1.00  0.00    -0.033 A 
ATOM     10  C   UNL A   1      32.608  26.457  25.363  1.00  0.00     0.025 A 
ATOM     11  C   UNL A   1      33.694  27.167  24.859  1.00  0.00     0.012 A 
ATOM     12  C   UNL A   1      31.949  27.016  26.466  1.00  0.00     0.131 A 
ATOM     13  C   UNL A   1      34.177  28.298  25.500  1.00  0.00     0.005 A 
ATOM     14  C   UNL A   1      32.323  28.265  26.989  1.00  0.00     0.044 A 
ATOM     15  F   UNL A   1      30.895  26.391  27.014  1.00  0.00    -0.206 F 
BRANCH  10  16
ATOM     16  C   UNL A   1      32.152  25.259  24.636  1.00  0.00     0.069 A 
ATOM     17  C   UNL A   1      32.806  24.029  24.936  1.00  0.00     0.130 A 
ATOM     18  C   UNL A   1      32.410  22.809  24.383  1.00  0.00     0.047 A 
ATOM     19  C   UNL A   1      31.320  22.773  23.530  1.00  0.00     0.008 A 
ATOM     20  C   UNL A   1      31.050  25.205  23.749  1.00  0.00     0.130 A 
ATOM     21  C   UNL A   1      30.660  23.958  23.215  1.00  0.00     0.047 A 
BRANCH  17  22
ATOM     22  O   UNL A   1      33.928  24.036  25.735  1.00  0.00    -0.493 OA
BRANCH  22  23
ATOM     23  C   UNL A   1      34.338  22.727  26.145  1.00  0.00     0.226 C 
ATOM     24  C   UNL A   1      34.030  22.564  27.625  1.00  0.00     0.049 C 
ENDBRANCH  22  23
ENDBRANCH  17  22
BRANCH  20  25
ATOM     25  O   UNL A   1      30.255  26.188  23.220  1.00  0.00    -0.493 OA
BRANCH  25  26
ATOM     26  C   UNL A   1      30.724  27.305  22.484  1.00  0.00     0.226 C 
ATOM     27  C   UNL A   1      30.358  28.613  23.176  1.00  0.00     0.049 C 
ENDBRANCH  25  26
ENDBRANCH  20  25
ENDBRANCH  10  16
ENDBRANCH   7   9
ENDBRANCH   4   7
ENDBRANCH   2   3
ENDBRANCH   1   2
BRANCH   1  28
ATOM     28  C   UNL A   1      33.771  34.368  28.804  1.00  0.00     0.023 C 
BRANCH  28  29
ATOM     29  C   UNL A   1      33.575  35.743  29.423  1.00  0.00     0.116 C 
BRANCH  29  30
ATOM     30  N   UNL A   1      32.548  35.796  30.454  1.00  0.00    -0.352 N 
ATOM     31  C   UNL A   1      32.626  35.341  31.752  1.00  0.00     0.251 C 
ATOM     32  H   UNL A   1      31.693  36.208  30.192  1.00  0.00     0.163 HD
ATOM     33  O   UNL A   1      31.641  35.395  32.483  1.00  0.00    -0.269 OA
BRANCH  31  34
ATOM     34  C   UNL A   1      33.891  34.743  32.236  1.00  0.00     0.039 A 
ATOM     35  C   UNL A   1      33.939  33.371  32.489  1.00  0.00     0.014 A 
ATOM     36  C   UNL A   1      35.035  35.527  32.399  1.00  0.00     0.014 A 
ATOM     37  C   UNL A   1      35.153  32.778  32.847  1.00  0.00     0.010 A 
ATOM     38  C   UNL A   1      36.260  34.922  32.655  1.00  0.00     0.010 A 
ATOM     39  C   UNL A   1      36.328  33.546  32.905  1.00  0.00    -0.014 A 
BRANCH  39  40
ATOM     40  C   UNL A   1      37.627  32.940  33.290  1.00  0.00     0.031 A 
ATOM     41  C   UNL A   1      38.172  33.170  34.677  1.00  0.00     0.074 A 
ATOM     42  C   UNL A   1      38.334  32.225  32.392  1.00  0.00     0.049 A 
ATOM     43  N   UNL A   1      39.304  32.772  35.196  1.00  0.00    -0.248 NA
ATOM     44  C   UNL A   1      37.348  33.982  35.592  1.00  0.00     0.031 C 
ATOM     45  C   UNL A   1      37.944  31.979  31.000  1.00  0.00     0.029 A 
ATOM     46  N   UNL A   1      39.533  31.570  32.519  1.00  0.00    -0.354 N 
ATOM     47  C   UNL A   1      39.331  33.290  36.487  1.00  0.00     0.074 A 
ATOM     48  C   UNL A   1      38.140  34.093  36.648  1.00  0.00     0.031 C 
ATOM     49  C   UNL A   1      38.871  31.202  30.414  1.00  0.00     0.029 A 
ATOM     50  C   UNL A   1      39.930  30.916  31.376  1.00  0.00     0.049 A 
ATOM     51  H   UNL A   1      40.060  31.568  33.351  1.00  0.00     0.167 HD
ATOM     52  C   UNL A   1      40.242  33.088  37.467  1.00  0.00     0.031 A 
ATOM     53  C   UNL A   1      41.022  30.166  31.136  1.00  0.00     0.031 A 
ATOM     54  C   UNL A   1      41.410  32.265  37.318  1.00  0.00     0.049 A 
ATOM     55  C   UNL A   1      42.007  29.934  32.252  1.00  0.00     0.074 A 
ATOM     56  C   UNL A   1      42.382  31.969  38.257  1.00  0.00     0.029 A 
ATOM     57  N   UNL A   1      41.753  31.588  36.158  1.00  0.00    -0.354 N 
ATOM     58  N   UNL A   1      41.988  30.398  33.479  1.00  0.00    -0.248 NA
ATOM     59  C   UNL A   1      43.147  29.055  31.955  1.00  0.00     0.031 C 
ATOM     60  C   UNL A   1      43.328  31.130  37.657  1.00  0.00     0.029 A 
ATOM     61  C   UNL A   1      42.918  30.869  36.359  1.00  0.00     0.049 A 
ATOM     62  H   UNL A   1      41.243  31.613  35.317  1.00  0.00     0.167 HD
ATOM     63  C   UNL A   1      43.098  29.843  34.109  1.00  0.00     0.074 A 
ATOM     64  C   UNL A   1      43.749  28.991  33.134  1.00  0.00     0.031 C 
ATOM     65  C   UNL A   1      43.542  30.022  35.377  1.00  0.00     0.031 A 
BRANCH  52  66
ATOM     66  C   UNL A   1      39.986  33.742  38.797  1.00  0.00    -0.014 A 
ATOM     67  C   UNL A   1      39.230  33.083  39.785  1.00  0.00     0.010 A 
ATOM     68  C   UNL A   1      40.534  35.006  39.083  1.00  0.00     0.010 A 
ATOM     69  C   UNL A   1      38.999  33.688  41.021  1.00  0.00     0.020 A 
ATOM     70  C   UNL A   1      40.328  35.603  40.330  1.00  0.00     0.020 A 
ATOM     71  C   UNL A   1      39.550  34.946  41.287  1.00  0.00     0.054 A 
BRANCH  71  72
ATOM     72  S   UNL A   1      39.267  35.688  42.917  1.00  0.00     0.124 S 
ATOM     73  O   UNL A   1      37.842  35.437  43.118  1.00  0.00    -0.237 OA
ATOM     74  O   UNL A   1      40.166  34.923  43.778  1.00  0.00    -0.237 OA
ATOM     75  O   UNL A   1      39.632  37.090  42.727  1.00  0.00    -0.744 OA
ENDBRANCH  71  72
ENDBRANCH  52  66
BRANCH  53  76
ATOM     76  C   UNL A   1      41.243  29.555  29.796  1.00  0.00    -0.014 A 
ATOM     77  C   UNL A   1      40.606  28.350  29.444  1.00  0.00     0.010 A 
ATOM     78  C   UNL A   1      42.121  30.155  28.877  1.00  0.00     0.010 A 
ATOM     79  C   UNL A   1      40.883  27.731  28.222  1.00  0.00     0.020 A 
ATOM     80  C   UNL A   1      42.378  29.554  27.640  1.00  0.00     0.020 A 
ATOM     81  C   UNL A   1      41.774  28.334  27.330  1.00  0.00     0.054 A 
BRANCH  81  82
ATOM     82  S   UNL A   1      42.121  27.517  25.748  1.00  0.00     0.124 S 
ATOM     83  O   UNL A   1      42.113  28.642  24.819  1.00  0.00    -0.237 OA
ATOM     84  O   UNL A   1      43.423  26.900  25.986  1.00  0.00    -0.237 OA
ATOM     85  O   UNL A   1      41.012  26.575  25.603  1.00  0.00    -0.744 OA
ENDBRANCH  81  82
ENDBRANCH  53  76
BRANCH  65  86
ATOM     86  C   UNL A   1      44.762  29.244  35.791  1.00  0.00    -0.014 A 
ATOM     87  C   UNL A   1      46.053  29.776  35.633  1.00  0.00     0.010 A 
ATOM     88  C   UNL A   1      44.606  27.970  36.367  1.00  0.00     0.010 A 
ATOM     89  C   UNL A   1      47.173  29.023  35.995  1.00  0.00     0.020 A 
ATOM     90  C   UNL A   1      45.722  27.227  36.756  1.00  0.00     0.020 A 
ATOM     91  C   UNL A   1      47.000  27.749  36.547  1.00  0.00     0.054 A 
BRANCH  91  92
ATOM     92  S   UNL A   1      48.468  26.793  37.018  1.00  0.00     0.124 S 
ATOM     93  O   UNL A   1      47.881  25.517  37.416  1.00  0.00    -0.237 OA
ATOM     94  O   UNL A   1      49.247  26.769  35.783  1.00  0.00    -0.237 OA
ATOM     95  O   UNL A   1      49.055  27.576  38.103  1.00  0.00    -0.744 OA
ENDBRANCH  91  92
ENDBRANCH  65  86
ENDBRANCH  39  40
ENDBRANCH  31  34
ENDBRANCH  29  30
ENDBRANCH  28  29
ENDBRANCH   1  28
TORSDOF 20
ENDMDL
MODEL 3
REMARK VINA RESULT:      -8.8      4.918      9.343
REMARK SMILES CCOc1cccc(OCC)c1-c1ccc([C@@H](C)C(=O)NCCCCNC(=O)c2ccc(-c3c4nc(c(-c5ccc(S(=O)(=O)[O-])cc5)c5ccc([nH]5)c(-c5ccc(S(=O)(=O)[O-])cc5)c5nc(c(-c6ccc(S(=O)(=O)[O-])cc6)c6ccc3[nH]6)C=C5)C=C4)cc2)cc1F
REMARK SMILES IDX 23 1 22 2 21 3 19 4 20 5 17 7 18 8 16 9 13 10 14 11 90 12
REMARK SMILES IDX 15 13 89 14 91 15 12 16 4 17 5 18 6 19 8 20 7 21 3 22 2 23
REMARK SMILES IDX 1 24 9 25 10 26 11 27 24 28 25 29 26 30 27 31 28 33 29 34
REMARK SMILES IDX 30 35 88 36 31 37 87 38 32 39 33 40 34 41 81 42 35 43 86 44
REMARK SMILES IDX 80 45 82 46 36 47 85 48 79 49 78 50 37 52 67 53 48 54 66 55
REMARK SMILES IDX 49 56 52 57 65 58 83 59 50 60 51 61 64 63 84 64 53 65 38 66
REMARK SMILES IDX 39 67 47 68 40 69 46 70 41 71 42 72 43 73 44 74 45 75 68 76
REMARK SMILES IDX 69 77 77 78 70 79 76 80 71 81 72 82 73 83 74 84 75 85 54 86
REMARK SMILES IDX 55 87 63 88 56 89 62 90 57 91 58 92 59 93 60 94 61 95
REMARK H PARENT 21 6 26 32 82 51 52 62
REMARK Flexibility Score: inf
ROOT
ATOM      1  C   UNL A   1      34.018  30.101  26.997  1.00  0.00     0.023 C 
ENDROOT
BRANCH   1   2
ATOM      2  C   UNL A   1      33.242  29.256  25.975  1.00  0.00     0.116 C 
BRANCH   2   3
ATOM      3  N   UNL A   1      33.833  29.330  24.648  1.00  0.00    -0.356 N 
ATOM      4  C   UNL A   1      33.624  28.665  23.477  1.00  0.00     0.227 C 
ATOM      5  O   UNL A   1      34.396  28.963  22.554  1.00  0.00    -0.274 OA
ATOM      6  H   UNL A   1      34.541  30.011  24.581  1.00  0.00     0.163 HD
BRANCH   4   7
ATOM      7  C   UNL A   1      32.531  27.601  23.224  1.00  0.00     0.105 C 
ATOM      8  C   UNL A   1      31.156  27.957  23.782  1.00  0.00     0.023 C 
BRANCH   7   9
ATOM      9  C   UNL A   1      32.978  26.184  23.537  1.00  0.00    -0.033 A 
ATOM     10  C   UNL A   1      34.174  23.685  24.200  1.00  0.00     0.025 A 
ATOM     11  C   UNL A   1      33.904  24.652  25.163  1.00  0.00     0.012 A 
ATOM     12  C   UNL A   1      33.810  23.991  22.882  1.00  0.00     0.131 A 
ATOM     13  C   UNL A   1      33.190  25.800  24.853  1.00  0.00     0.005 A 
ATOM     14  C   UNL A   1      33.266  25.241  22.543  1.00  0.00     0.044 A 
ATOM     15  F   UNL A   1      34.033  23.110  21.895  1.00  0.00    -0.206 F 
BRANCH  10  16
ATOM     16  C   UNL A   1      34.931  22.485  24.600  1.00  0.00     0.069 A 
ATOM     17  C   UNL A   1      34.234  21.243  24.586  1.00  0.00     0.130 A 
ATOM     18  C   UNL A   1      34.858  20.024  24.857  1.00  0.00     0.047 A 
ATOM     19  C   UNL A   1      36.216  20.001  25.123  1.00  0.00     0.008 A 
ATOM     20  C   UNL A   1      36.316  22.445  24.890  1.00  0.00     0.130 A 
ATOM     21  C   UNL A   1      36.927  21.198  25.147  1.00  0.00     0.047 A 
BRANCH  17  22
ATOM     22  O   UNL A   1      32.871  21.234  24.382  1.00  0.00    -0.493 OA
BRANCH  22  23
ATOM     23  C   UNL A   1      32.407  20.054  23.717  1.00  0.00     0.226 C 
ATOM     24  C   UNL A   1      32.085  20.405  22.274  1.00  0.00     0.049 C 
ENDBRANCH  22  23
ENDBRANCH  17  22
BRANCH  20  25
ATOM     25  O   UNL A   1      37.247  23.439  25.037  1.00  0.00    -0.493 OA
BRANCH  25  26
ATOM     26  C   UNL A   1      37.732  23.924  26.277  1.00  0.00     0.226 C 
ATOM     27  C   UNL A   1      39.144  24.482  26.136  1.00  0.00     0.049 C 
ENDBRANCH  25  26
ENDBRANCH  20  25
ENDBRANCH  10  16
ENDBRANCH   7   9
ENDBRANCH   4   7
ENDBRANCH   2   3
ENDBRANCH   1   2
BRANCH   1  28
ATOM     28  C   UNL A   1      33.262  31.258  27.635  1.00  0.00     0.023 C 
BRANCH  28  29
ATOM     29  C   UNL A   1      33.920  32.618  27.466  1.00  0.00     0.116 C 
BRANCH  29  30
ATOM     30  N   UNL A   1      33.248  33.701  28.169  1.00  0.00    -0.352 N 
ATOM     31  C   UNL A   1      33.578  34.254  29.387  1.00  0.00     0.251 C 
ATOM     32  H   UNL A   1      32.461  34.087  27.719  1.00  0.00     0.163 HD
ATOM     33  O   UNL A   1      32.864  35.121  29.883  1.00  0.00    -0.269 OA
BRANCH  31  34
ATOM     34  C   UNL A   1      34.770  33.757  30.110  1.00  0.00     0.039 A 
ATOM     35  C   UNL A   1      34.628  32.688  30.998  1.00  0.00     0.014 A 
ATOM     36  C   UNL A   1      36.030  34.314  29.881  1.00  0.00     0.014 A 
ATOM     37  C   UNL A   1      35.760  32.143  31.608  1.00  0.00     0.010 A 
ATOM     38  C   UNL A   1      37.164  33.708  30.408  1.00  0.00     0.010 A 
ATOM     39  C   UNL A   1      37.040  32.631  31.295  1.00  0.00    -0.014 A 
BRANCH  39  40
ATOM     40  C   UNL A   1      38.257  32.073  31.935  1.00  0.00     0.031 A 
ATOM     41  C   UNL A   1      38.643  32.528  33.320  1.00  0.00     0.074 A 
ATOM     42  C   UNL A   1      39.034  31.198  31.266  1.00  0.00     0.049 A 
ATOM     43  N   UNL A   1      39.688  32.201  34.036  1.00  0.00    -0.248 NA
ATOM     44  C   UNL A   1      37.752  33.505  33.974  1.00  0.00     0.031 C 
ATOM     45  C   UNL A   1      38.802  30.723  29.899  1.00  0.00     0.029 A 
ATOM     46  N   UNL A   1      40.180  30.548  31.650  1.00  0.00    -0.354 N 
ATOM     47  C   UNL A   1      39.583  32.935  35.212  1.00  0.00     0.074 A 
ATOM     48  C   UNL A   1      38.417  33.779  35.086  1.00  0.00     0.031 C 
ATOM     49  C   UNL A   1      39.757  29.836  29.573  1.00  0.00     0.029 A 
ATOM     50  C   UNL A   1      40.681  29.698  30.693  1.00  0.00     0.049 A 
ATOM     51  H   UNL A   1      40.604  30.679  32.529  1.00  0.00     0.167 HD
ATOM     52  C   UNL A   1      40.363  32.886  36.318  1.00  0.00     0.031 A 
ATOM     53  C   UNL A   1      41.761  28.893  30.721  1.00  0.00     0.031 A 
ATOM     54  C   UNL A   1      41.504  32.024  36.457  1.00  0.00     0.049 A 
ATOM     55  C   UNL A   1      42.596  28.837  31.973  1.00  0.00     0.074 A 
ATOM     56  C   UNL A   1      42.343  31.874  37.546  1.00  0.00     0.029 A 
ATOM     57  N   UNL A   1      41.952  31.148  35.481  1.00  0.00    -0.354 N 
ATOM     58  N   UNL A   1      42.452  29.508  33.092  1.00  0.00    -0.248 NA
ATOM     59  C   UNL A   1      43.724  27.896  31.974  1.00  0.00     0.031 C 
ATOM     60  C   UNL A   1      43.317  30.923  37.219  1.00  0.00     0.029 A 
ATOM     61  C   UNL A   1      43.053  30.451  35.944  1.00  0.00     0.049 A 
ATOM     62  H   UNL A   1      41.547  31.039  34.591  1.00  0.00     0.167 HD
ATOM     63  C   UNL A   1      43.454  29.046  33.940  1.00  0.00     0.074 A 
ATOM     64  C   UNL A   1      44.179  28.024  33.212  1.00  0.00     0.031 C 
ATOM     65  C   UNL A   1      43.752  29.432  35.205  1.00  0.00     0.031 A 
BRANCH  52  66
ATOM     66  C   UNL A   1      39.979  33.766  37.476  1.00  0.00    -0.014 A 
ATOM     67  C   UNL A   1      39.070  33.311  38.450  1.00  0.00     0.010 A 
ATOM     68  C   UNL A   1      40.555  35.041  37.620  1.00  0.00     0.010 A 
ATOM     69  C   UNL A   1      38.720  34.127  39.528  1.00  0.00     0.020 A 
ATOM     70  C   UNL A   1      40.229  35.850  38.712  1.00  0.00     0.020 A 
ATOM     71  C   UNL A   1      39.302  35.392  39.652  1.00  0.00     0.054 A 
BRANCH  71  72
ATOM     72  S   UNL A   1      38.859  36.412  41.085  1.00  0.00     0.124 S 
ATOM     73  O   UNL A   1      40.142  36.534  41.774  1.00  0.00    -0.237 OA
ATOM     74  O   UNL A   1      38.361  37.637  40.465  1.00  0.00    -0.237 OA
ATOM     75  O   UNL A   1      37.852  35.614  41.780  1.00  0.00    -0.744 OA
ENDBRANCH  71  72
ENDBRANCH  52  66
BRANCH  53  76
ATOM     76  C   UNL A   1      42.112  28.055  29.541  1.00  0.00    -0.014 A 
ATOM     77  C   UNL A   1      43.032  28.518  28.582  1.00  0.00     0.010 A 
ATOM     78  C   UNL A   1      41.499  26.805  29.350  1.00  0.00     0.010 A 
ATOM     79  C   UNL A   1      43.293  27.771  27.430  1.00  0.00     0.020 A 
ATOM     80  C   UNL A   1      41.780  26.040  28.213  1.00  0.00     0.020 A 
ATOM     81  C   UNL A   1      42.658  26.539  27.249  1.00  0.00     0.054 A 
BRANCH  81  82
ATOM     82  S   UNL A   1      43.009  25.581  25.748  1.00  0.00     0.124 S 
ATOM     83  O   UNL A   1      42.034  26.124  24.808  1.00  0.00    -0.237 OA
ATOM     84  O   UNL A   1      44.405  25.914  25.477  1.00  0.00    -0.237 OA
ATOM     85  O   UNL A   1      42.776  24.200  26.166  1.00  0.00    -0.744 OA
ENDBRANCH  81  82
ENDBRANCH  53  76
BRANCH  65  86
ATOM     86  C   UNL A   1      44.879  28.712  35.892  1.00  0.00    -0.014 A 
ATOM     87  C   UNL A   1      44.645  27.562  36.665  1.00  0.00     0.010 A 
ATOM     88  C   UNL A   1      46.196  29.185  35.742  1.00  0.00     0.010 A 
ATOM     89  C   UNL A   1      45.703  26.927  37.321  1.00  0.00     0.020 A 
ATOM     90  C   UNL A   1      47.259  28.536  36.372  1.00  0.00     0.020 A 
ATOM     91  C   UNL A   1      47.003  27.423  37.176  1.00  0.00     0.054 A 
BRANCH  91  92
ATOM     92  S   UNL A   1      48.362  26.578  38.028  1.00  0.00     0.124 S 
ATOM     93  O   UNL A   1      48.103  25.179  37.698  1.00  0.00    -0.237 OA
ATOM     94  O   UNL A   1      49.547  27.163  37.405  1.00  0.00    -0.237 OA
ATOM     95  O   UNL A   1      48.163  26.935  39.431  1.00  0.00    -0.744 OA
ENDBRANCH  91  92
ENDBRANCH  65  86
ENDBRANCH  39  40
ENDBRANCH  31  34
ENDBRANCH  29  30
ENDBRANCH  28  29
ENDBRANCH   1  28
TORSDOF 20
ENDMDL
