MODEL 1
REMARK VINA RESULT:     -11.5      0.000      0.000
REMARK SMILES NC(=O)c1c(-c2ccc(Cl)cc2)csc1NC(=O)[C@H]1[C@@H](C(=O)NCCCCNC(=O)c2ccc(-c3c4nc(c(-c5ccc(S(=O)(=O)[O-])cc5)c5ccc([nH]5)c(-c5ccc(S(=O)(=O)[O-])cc5)c5nc(c(-c6ccc(S(=O)(=O)[O-])cc6)c6ccc3[nH]6)C=C5)C=C4)cc2)[C@@H]2CC[C@H]1O2
REMARK SMILES IDX 25 1 24 2 23 3 21 4 22 5 20 7 19 8 94 9 91 10 93 11 95 12
REMARK SMILES IDX 92 13 17 14 16 15 18 17 15 18 4 19 5 20 13 21 14 22 2 23
REMARK SMILES IDX 1 24 3 27 6 28 7 29 12 30 8 31 11 32 9 33 10 34 26 35 27 36
REMARK SMILES IDX 28 37 29 38 30 40 31 41 32 42 90 43 33 44 89 45 34 46 35 47
REMARK SMILES IDX 36 48 83 49 37 50 88 51 82 52 84 53 38 54 87 55 81 56 80 57
REMARK SMILES IDX 39 59 69 60 50 61 68 62 51 63 54 64 67 65 85 66 52 67 53 68
REMARK SMILES IDX 66 70 86 71 55 72 40 73 41 74 49 75 42 76 48 77 43 78 44 79
REMARK SMILES IDX 45 80 46 81 47 82 70 83 71 84 79 85 72 86 78 87 73 88 74 89
REMARK SMILES IDX 75 90 76 91 77 92 56 93 57 94 65 95 58 96 64 97 59 98 60 99
REMARK SMILES IDX 61 100 62 101 63 102
REMARK H PARENT 23 6 16 16 1 25 1 26 28 39 84 58 54 69
REMARK Flexibility Score: inf
ROOT
ATOM      1  C   UNL A   1      33.582  26.564  25.723  1.00  0.00     0.023 C 
ENDROOT
BRANCH   1   2
ATOM      2  C   UNL A   1      32.632  25.830  26.651  1.00  0.00     0.116 C 
BRANCH   2   3
ATOM      3  N   UNL A   1      32.362  24.462  26.315  1.00  0.00    -0.356 N 
ATOM      4  C   UNL A   1      33.253  23.502  25.964  1.00  0.00     0.226 C 
ATOM      5  O   UNL A   1      32.816  22.345  25.902  1.00  0.00    -0.275 OA
ATOM      6  H   UNL A   1      31.417  24.186  26.342  1.00  0.00     0.163 HD
BRANCH   4   7
ATOM      7  C   UNL A   1      34.683  23.769  25.506  1.00  0.00     0.122 C 
ATOM      8  C   UNL A   1      35.219  23.868  24.061  1.00  0.00     0.123 C 
ATOM      9  C   UNL A   1      36.588  23.265  24.239  1.00  0.00     0.132 C 
ATOM     10  C   UNL A   1      35.686  22.799  26.158  1.00  0.00     0.132 C 
ATOM     11  C   UNL A   1      37.505  23.987  25.226  1.00  0.00     0.035 C 
ATOM     12  O   UNL A   1      36.238  22.098  25.019  1.00  0.00    -0.373 OA
ATOM     13  C   UNL A   1      36.949  23.545  26.580  1.00  0.00     0.035 C 
BRANCH   8  14
ATOM     14  C   UNL A   1      34.374  23.385  22.875  1.00  0.00     0.231 C 
ATOM     15  N   UNL A   1      33.108  23.692  22.470  1.00  0.00    -0.317 N 
ATOM     16  H   UNL A   1      32.858  23.160  21.680  1.00  0.00     0.170 HD
ATOM     17  O   UNL A   1      34.976  22.629  22.085  1.00  0.00    -0.274 OA
BRANCH  15  18
ATOM     18  C   UNL A   1      32.061  24.536  22.843  1.00  0.00     0.108 A 
ATOM     19  C   UNL A   1      31.963  25.908  22.572  1.00  0.00     0.082 A 
ATOM     20  C   UNL A   1      30.882  26.506  23.338  1.00  0.00     0.007 A 
ATOM     21  C   UNL A   1      30.134  25.546  23.980  1.00  0.00     0.076 A 
ATOM     22  S   UNL A   1      30.584  24.001  23.462  1.00  0.00    -0.125 S 
BRANCH  19  23
ATOM     23  C   UNL A   1      32.912  26.564  21.687  1.00  0.00     0.252 C 
ATOM     24  N   UNL A   1      33.462  27.729  22.104  1.00  0.00    -0.365 N 
ATOM     25  H   UNL A   1      34.108  28.202  21.531  1.00  0.00     0.159 HD
ATOM     26  H   UNL A   1      33.216  28.104  22.981  1.00  0.00     0.159 HD
ATOM     27  O   UNL A   1      33.272  26.048  20.630  1.00  0.00    -0.269 OA
ENDBRANCH  19  23
BRANCH  20  28
ATOM     28  C   UNL A   1      30.428  27.886  23.404  1.00  0.00    -0.017 A 
ATOM     29  C   UNL A   1      30.996  28.795  24.306  1.00  0.00     0.010 A 
ATOM     30  C   UNL A   1      29.387  28.297  22.562  1.00  0.00     0.010 A 
ATOM     31  C   UNL A   1      30.515  30.107  24.366  1.00  0.00     0.021 A 
ATOM     32  C   UNL A   1      28.916  29.608  22.617  1.00  0.00     0.021 A 
ATOM     33  C   UNL A   1      29.475  30.505  23.525  1.00  0.00     0.041 A 
ATOM     34  Cl  UNL A   1      28.868  32.111  23.612  1.00  0.00    -0.084 Cl
ENDBRANCH  20  28
ENDBRANCH  15  18
ENDBRANCH   8  14
ENDBRANCH   4   7
ENDBRANCH   2   3
ENDBRANCH   1   2
BRANCH   1  35
ATOM     35  C   UNL A   1      33.885  28.016  26.076  1.00  0.00     0.023 C 
BRANCH  35  36
ATOM     36  C   UNL A   1      33.441  28.498  27.455  1.00  0.00     0.116 C 
BRANCH  36  37
ATOM     37  N   UNL A   1      33.398  29.950  27.606  1.00  0.00    -0.352 N 
ATOM     38  C   UNL A   1      34.378  30.817  28.033  1.00  0.00     0.251 C 
ATOM     39  H   UNL A   1      32.542  30.370  27.367  1.00  0.00     0.163 HD
ATOM     40  O   UNL A   1      34.176  32.016  28.199  1.00  0.00    -0.269 OA
BRANCH  38  41
ATOM     41  C   UNL A   1      35.709  30.307  28.329  1.00  0.00     0.039 A 
ATOM     42  C   UNL A   1      36.664  30.290  27.310  1.00  0.00     0.014 A 
ATOM     43  C   UNL A   1      35.989  29.851  29.615  1.00  0.00     0.014 A 
ATOM     44  C   UNL A   1      37.952  29.878  27.612  1.00  0.00     0.010 A 
ATOM     45  C   UNL A   1      37.294  29.544  29.937  1.00  0.00     0.010 A 
ATOM     46  C   UNL A   1      38.277  29.549  28.935  1.00  0.00    -0.014 A 
BRANCH  46  47
ATOM     47  C   UNL A   1      39.651  29.184  29.313  1.00  0.00     0.031 A 
ATOM     48  C   UNL A   1      40.522  30.218  29.956  1.00  0.00     0.074 A 
ATOM     49  C   UNL A   1      40.111  27.966  28.975  1.00  0.00     0.049 A 
ATOM     50  N   UNL A   1      41.793  30.156  30.242  1.00  0.00    -0.248 NA
ATOM     51  C   UNL A   1      39.891  31.512  30.282  1.00  0.00     0.031 C 
ATOM     52  C   UNL A   1      39.334  26.920  28.301  1.00  0.00     0.029 A 
ATOM     53  N   UNL A   1      41.349  27.407  29.136  1.00  0.00    -0.354 N 
ATOM     54  C   UNL A   1      42.120  31.406  30.749  1.00  0.00     0.074 A 
ATOM     55  C   UNL A   1      40.933  32.225  30.682  1.00  0.00     0.031 C 
ATOM     56  C   UNL A   1      40.108  25.837  28.132  1.00  0.00     0.029 A 
ATOM     57  C   UNL A   1      41.444  26.131  28.634  1.00  0.00     0.049 A 
ATOM     58  H   UNL A   1      42.099  27.874  29.570  1.00  0.00     0.167 HD
ATOM     59  C   UNL A   1      43.309  31.821  31.240  1.00  0.00     0.031 A 
ATOM     60  C   UNL A   1      42.502  25.304  28.574  1.00  0.00     0.031 A 
ATOM     61  C   UNL A   1      44.468  30.975  31.307  1.00  0.00     0.049 A 
ATOM     62  C   UNL A   1      43.808  25.785  29.142  1.00  0.00     0.074 A 
ATOM     63  C   UNL A   1      45.711  31.256  31.840  1.00  0.00     0.029 A 
ATOM     64  N   UNL A   1      44.520  29.674  30.824  1.00  0.00    -0.354 N 
ATOM     65  N   UNL A   1      44.090  26.950  29.678  1.00  0.00    -0.248 NA
ATOM     66  C   UNL A   1      44.929  24.841  29.112  1.00  0.00     0.031 C 
ATOM     67  C   UNL A   1      46.532  30.145  31.627  1.00  0.00     0.029 A 
ATOM     68  C   UNL A   1      45.782  29.146  31.024  1.00  0.00     0.049 A 
ATOM     69  H   UNL A   1      43.769  29.198  30.399  1.00  0.00     0.167 HD
ATOM     70  C   UNL A   1      45.419  26.872  30.074  1.00  0.00     0.074 A 
ATOM     71  C   UNL A   1      45.874  25.537  29.731  1.00  0.00     0.031 C 
ATOM     72  C   UNL A   1      46.196  27.812  30.666  1.00  0.00     0.031 A 
BRANCH  59  73
ATOM     73  C   UNL A   1      43.407  33.243  31.727  1.00  0.00    -0.014 A 
ATOM     74  C   UNL A   1      43.049  33.591  33.043  1.00  0.00     0.010 A 
ATOM     75  C   UNL A   1      43.891  34.242  30.864  1.00  0.00     0.010 A 
ATOM     76  C   UNL A   1      43.138  34.917  33.475  1.00  0.00     0.020 A 
ATOM     77  C   UNL A   1      44.013  35.564  31.302  1.00  0.00     0.020 A 
ATOM     78  C   UNL A   1      43.623  35.895  32.601  1.00  0.00     0.054 A 
BRANCH  78  79
ATOM     79  S   UNL A   1      43.770  37.599  33.205  1.00  0.00     0.124 S 
ATOM     80  O   UNL A   1      45.069  37.571  33.872  1.00  0.00    -0.237 OA
ATOM     81  O   UNL A   1      43.715  38.380  31.971  1.00  0.00    -0.237 OA
ATOM     82  O   UNL A   1      42.619  37.755  34.090  1.00  0.00    -0.744 OA
ENDBRANCH  78  79
ENDBRANCH  59  73
BRANCH  60  83
ATOM     83  C   UNL A   1      42.355  23.951  27.973  1.00  0.00    -0.014 A 
ATOM     84  C   UNL A   1      42.381  23.782  26.579  1.00  0.00     0.010 A 
ATOM     85  C   UNL A   1      42.231  22.816  28.797  1.00  0.00     0.010 A 
ATOM     86  C   UNL A   1      42.266  22.507  26.018  1.00  0.00     0.020 A 
ATOM     87  C   UNL A   1      42.146  21.537  28.241  1.00  0.00     0.020 A 
ATOM     88  C   UNL A   1      42.154  21.391  26.852  1.00  0.00     0.054 A 
BRANCH  88  89
ATOM     89  S   UNL A   1      42.061  19.742  26.100  1.00  0.00     0.124 S 
ATOM     90  O   UNL A   1      40.660  19.669  25.700  1.00  0.00    -0.237 OA
ATOM     91  O   UNL A   1      43.028  19.840  25.010  1.00  0.00    -0.237 OA
ATOM     92  O   UNL A   1      42.450  18.848  27.189  1.00  0.00    -0.744 OA
ENDBRANCH  88  89
ENDBRANCH  60  83
BRANCH  72  93
ATOM     93  C   UNL A   1      47.604  27.415  31.011  1.00  0.00    -0.014 A 
ATOM     94  C   UNL A   1      48.662  27.623  30.109  1.00  0.00     0.010 A 
ATOM     95  C   UNL A   1      47.876  26.879  32.283  1.00  0.00     0.010 A 
ATOM     96  C   UNL A   1      49.966  27.268  30.463  1.00  0.00     0.020 A 
ATOM     97  C   UNL A   1      49.182  26.555  32.652  1.00  0.00     0.020 A 
ATOM     98  C   UNL A   1      50.217  26.738  31.732  1.00  0.00     0.054 A 
BRANCH  98  99
ATOM     99  S   UNL A   1      51.924  26.326  32.181  1.00  0.00     0.124 S 
ATOM    100  O   UNL A   1      51.889  26.439  33.637  1.00  0.00    -0.237 OA
ATOM    101  O   UNL A   1      52.073  24.970  31.658  1.00  0.00    -0.237 OA
ATOM    102  O   UNL A   1      52.717  27.344  31.495  1.00  0.00    -0.744 OA
ENDBRANCH  98  99
ENDBRANCH  72  93
ENDBRANCH  46  47
ENDBRANCH  38  41
ENDBRANCH  36  37
ENDBRANCH  35  36
ENDBRANCH   1  35
TORSDOF 18
ENDMDL
MODEL 2
REMARK VINA RESULT:     -11.2      4.250      9.513
REMARK SMILES NC(=O)c1c(-c2ccc(Cl)cc2)csc1NC(=O)[C@H]1[C@@H](C(=O)NCCCCNC(=O)c2ccc(-c3c4nc(c(-c5ccc(S(=O)(=O)[O-])cc5)c5ccc([nH]5)c(-c5ccc(S(=O)(=O)[O-])cc5)c5nc(c(-c6ccc(S(=O)(=O)[O-])cc6)c6ccc3[nH]6)C=C5)C=C4)cc2)[C@@H]2CC[C@H]1O2
REMARK SMILES IDX 25 1 24 2 23 3 21 4 22 5 20 7 19 8 94 9 91 10 93 11 95 12
REMARK SMILES IDX 92 13 17 14 16 15 18 17 15 18 4 19 5 20 13 21 14 22 2 23
REMARK SMILES IDX 1 24 3 27 6 28 7 29 12 30 8 31 11 32 9 33 10 34 26 35 27 36
REMARK SMILES IDX 28 37 29 38 30 40 31 41 32 42 90 43 33 44 89 45 34 46 35 47
REMARK SMILES IDX 36 48 83 49 37 50 88 51 82 52 84 53 38 54 87 55 81 56 80 57
REMARK SMILES IDX 39 59 69 60 50 61 68 62 51 63 54 64 67 65 85 66 52 67 53 68
REMARK SMILES IDX 66 70 86 71 55 72 40 73 41 74 49 75 42 76 48 77 43 78 44 79
REMARK SMILES IDX 45 80 46 81 47 82 70 83 71 84 79 85 72 86 78 87 73 88 74 89
REMARK SMILES IDX 75 90 76 91 77 92 56 93 57 94 65 95 58 96 64 97 59 98 60 99
REMARK SMILES IDX 61 100 62 101 63 102
REMARK H PARENT 23 6 16 16 1 25 1 26 28 39 84 58 54 69
REMARK Flexibility Score: inf
ROOT
ATOM      1  C   UNL A   1      36.998  23.707  24.895  1.00  0.00     0.023 C 
ENDROOT
BRANCH   1   2
ATOM      2  C   UNL A   1      36.706  22.458  24.082  1.00  0.00     0.116 C 
BRANCH   2   3
ATOM      3  N   UNL A   1      37.031  21.211  24.712  1.00  0.00    -0.356 N 
ATOM      4  C   UNL A   1      36.283  20.082  24.751  1.00  0.00     0.226 C 
ATOM      5  O   UNL A   1      36.844  19.068  25.188  1.00  0.00    -0.275 OA
ATOM      6  H   UNL A   1      37.901  21.171  25.171  1.00  0.00     0.163 HD
BRANCH   4   7
ATOM      7  C   UNL A   1      34.790  20.016  24.444  1.00  0.00     0.122 C 
ATOM      8  C   UNL A   1      33.666  20.935  24.969  1.00  0.00     0.123 C 
ATOM      9  C   UNL A   1      32.537  19.944  25.083  1.00  0.00     0.132 C 
ATOM     10  C   UNL A   1      34.210  18.613  24.706  1.00  0.00     0.132 C 
ATOM     11  C   UNL A   1      32.131  19.253  23.781  1.00  0.00     0.035 C 
ATOM     12  O   UNL A   1      33.232  18.861  25.743  1.00  0.00    -0.373 OA
ATOM     13  C   UNL A   1      33.244  18.221  23.592  1.00  0.00     0.035 C 
BRANCH   8  14
ATOM     14  C   UNL A   1      33.912  21.877  26.155  1.00  0.00     0.231 C 
ATOM     15  N   UNL A   1      33.295  23.028  26.551  1.00  0.00    -0.317 N 
ATOM     16  H   UNL A   1      33.740  23.405  27.344  1.00  0.00     0.170 HD
ATOM     17  O   UNL A   1      34.786  21.484  26.955  1.00  0.00    -0.274 OA
BRANCH  15  18
ATOM     18  C   UNL A   1      32.220  23.831  26.164  1.00  0.00     0.108 A 
ATOM     19  C   UNL A   1      32.267  24.907  25.268  1.00  0.00     0.082 A 
ATOM     20  C   UNL A   1      31.030  25.668  25.315  1.00  0.00     0.007 A 
ATOM     21  C   UNL A   1      30.081  25.032  26.083  1.00  0.00     0.076 A 
ATOM     22  S   UNL A   1      30.604  23.481  26.504  1.00  0.00    -0.125 S 
BRANCH  19  23
ATOM     23  C   UNL A   1      33.468  25.185  24.497  1.00  0.00     0.252 C 
ATOM     24  N   UNL A   1      33.472  24.837  23.188  1.00  0.00    -0.365 N 
ATOM     25  H   UNL A   1      34.267  25.010  22.634  1.00  0.00     0.159 HD
ATOM     26  H   UNL A   1      32.678  24.411  22.789  1.00  0.00     0.159 HD
ATOM     27  O   UNL A   1      34.423  25.789  24.984  1.00  0.00    -0.269 OA
ENDBRANCH  19  23
BRANCH  20  28
ATOM     28  C   UNL A   1      30.635  26.867  24.593  1.00  0.00    -0.017 A 
ATOM     29  C   UNL A   1      31.414  28.030  24.637  1.00  0.00     0.010 A 
ATOM     30  C   UNL A   1      29.440  26.855  23.863  1.00  0.00     0.010 A 
ATOM     31  C   UNL A   1      30.990  29.177  23.957  1.00  0.00     0.021 A 
ATOM     32  C   UNL A   1      29.025  27.995  23.178  1.00  0.00     0.021 A 
ATOM     33  C   UNL A   1      29.796  29.154  23.236  1.00  0.00     0.041 A 
ATOM     34  Cl  UNL A   1      29.262  30.569  22.416  1.00  0.00    -0.084 Cl
ENDBRANCH  20  28
ENDBRANCH  15  18
ENDBRANCH   8  14
ENDBRANCH   4   7
ENDBRANCH   2   3
ENDBRANCH   1   2
BRANCH   1  35
ATOM     35  C   UNL A   1      37.521  23.487  26.309  1.00  0.00     0.023 C 
BRANCH  35  36
ATOM     36  C   UNL A   1      38.530  24.505  26.837  1.00  0.00     0.116 C 
BRANCH  36  37
ATOM     37  N   UNL A   1      39.756  24.610  26.050  1.00  0.00    -0.352 N 
ATOM     38  C   UNL A   1      40.838  25.442  26.217  1.00  0.00     0.251 C 
ATOM     39  H   UNL A   1      39.816  23.993  25.286  1.00  0.00     0.163 HD
ATOM     40  O   UNL A   1      41.770  25.488  25.420  1.00  0.00    -0.269 OA
BRANCH  38  41
ATOM     41  C   UNL A   1      40.886  26.334  27.368  1.00  0.00     0.039 A 
ATOM     42  C   UNL A   1      41.678  27.482  27.295  1.00  0.00     0.014 A 
ATOM     43  C   UNL A   1      40.146  26.016  28.503  1.00  0.00     0.014 A 
ATOM     44  C   UNL A   1      41.663  28.369  28.358  1.00  0.00     0.010 A 
ATOM     45  C   UNL A   1      40.049  26.949  29.513  1.00  0.00     0.010 A 
ATOM     46  C   UNL A   1      40.813  28.125  29.447  1.00  0.00    -0.014 A 
BRANCH  46  47
ATOM     47  C   UNL A   1      40.707  29.081  30.559  1.00  0.00     0.031 A 
ATOM     48  C   UNL A   1      41.595  28.903  31.753  1.00  0.00     0.074 A 
ATOM     49  C   UNL A   1      39.746  30.021  30.513  1.00  0.00     0.049 A 
ATOM     50  N   UNL A   1      41.575  29.539  32.891  1.00  0.00    -0.248 NA
ATOM     51  C   UNL A   1      42.613  27.838  31.673  1.00  0.00     0.031 C 
ATOM     52  C   UNL A   1      38.810  30.225  29.403  1.00  0.00     0.029 A 
ATOM     53  N   UNL A   1      39.387  30.971  31.429  1.00  0.00    -0.354 N 
ATOM     54  C   UNL A   1      42.550  28.933  33.671  1.00  0.00     0.074 A 
ATOM     55  C   UNL A   1      43.107  27.845  32.901  1.00  0.00     0.031 C 
ATOM     56  C   UNL A   1      38.001  31.256  29.694  1.00  0.00     0.029 A 
ATOM     57  C   UNL A   1      38.325  31.746  31.027  1.00  0.00     0.049 A 
ATOM     58  H   UNL A   1      39.844  31.088  32.292  1.00  0.00     0.167 HD
ATOM     59  C   UNL A   1      42.951  29.272  34.917  1.00  0.00     0.031 A 
ATOM     60  C   UNL A   1      37.680  32.730  31.677  1.00  0.00     0.031 A 
ATOM     61  C   UNL A   1      42.387  30.371  35.649  1.00  0.00     0.049 A 
ATOM     62  C   UNL A   1      38.157  33.098  33.054  1.00  0.00     0.074 A 
ATOM     63  C   UNL A   1      42.749  30.856  36.891  1.00  0.00     0.029 A 
ATOM     64  N   UNL A   1      41.337  31.161  35.198  1.00  0.00    -0.354 N 
ATOM     65  N   UNL A   1      39.124  32.558  33.759  1.00  0.00    -0.248 NA
ATOM     66  C   UNL A   1      37.470  34.211  33.716  1.00  0.00     0.031 C 
ATOM     67  C   UNL A   1      41.880  31.901  37.216  1.00  0.00     0.029 A 
ATOM     68  C   UNL A   1      41.021  32.115  36.147  1.00  0.00     0.049 A 
ATOM     69  H   UNL A   1      40.883  31.055  34.330  1.00  0.00     0.167 HD
ATOM     70  C   UNL A   1      39.180  33.283  34.942  1.00  0.00     0.074 A 
ATOM     71  C   UNL A   1      38.160  34.311  34.845  1.00  0.00     0.031 C 
ATOM     72  C   UNL A   1      39.996  33.119  36.013  1.00  0.00     0.031 A 
BRANCH  59  73
ATOM     73  C   UNL A   1      44.034  28.442  35.554  1.00  0.00    -0.014 A 
ATOM     74  C   UNL A   1      45.393  28.771  35.399  1.00  0.00     0.010 A 
ATOM     75  C   UNL A   1      43.686  27.331  36.342  1.00  0.00     0.010 A 
ATOM     76  C   UNL A   1      46.385  27.984  35.990  1.00  0.00     0.020 A 
ATOM     77  C   UNL A   1      44.673  26.560  36.963  1.00  0.00     0.020 A 
ATOM     78  C   UNL A   1      46.018  26.884  36.771  1.00  0.00     0.054 A 
BRANCH  78  79
ATOM     79  S   UNL A   1      47.326  25.909  37.563  1.00  0.00     0.124 S 
ATOM     80  O   UNL A   1      48.129  25.494  36.416  1.00  0.00    -0.237 OA
ATOM     81  O   UNL A   1      47.955  26.882  38.452  1.00  0.00    -0.237 OA
ATOM     82  O   UNL A   1      46.599  24.834  38.235  1.00  0.00    -0.744 OA
ENDBRANCH  78  79
ENDBRANCH  59  73
BRANCH  60  83
ATOM     83  C   UNL A   1      36.542  33.431  31.024  1.00  0.00    -0.014 A 
ATOM     84  C   UNL A   1      35.329  33.614  31.709  1.00  0.00     0.010 A 
ATOM     85  C   UNL A   1      36.680  33.959  29.727  1.00  0.00     0.010 A 
ATOM     86  C   UNL A   1      34.269  34.294  31.103  1.00  0.00     0.020 A 
ATOM     87  C   UNL A   1      35.633  34.665  29.129  1.00  0.00     0.020 A 
ATOM     88  C   UNL A   1      34.428  34.819  29.817  1.00  0.00     0.054 A 
BRANCH  88  89
ATOM     89  S   UNL A   1      33.056  35.744  29.073  1.00  0.00     0.124 S 
ATOM     90  O   UNL A   1      33.756  36.820  28.380  1.00  0.00    -0.237 OA
ATOM     91  O   UNL A   1      32.429  34.740  28.218  1.00  0.00    -0.237 OA
ATOM     92  O   UNL A   1      32.257  36.156  30.225  1.00  0.00    -0.744 OA
ENDBRANCH  88  89
ENDBRANCH  60  83
BRANCH  72  93
ATOM     93  C   UNL A   1      39.840  34.096  37.145  1.00  0.00    -0.014 A 
ATOM     94  C   UNL A   1      40.428  35.372  37.093  1.00  0.00     0.010 A 
ATOM     95  C   UNL A   1      39.043  33.748  38.250  1.00  0.00     0.010 A 
ATOM     96  C   UNL A   1      40.248  36.271  38.146  1.00  0.00     0.020 A 
ATOM     97  C   UNL A   1      38.833  34.655  39.288  1.00  0.00     0.020 A 
ATOM     98  C   UNL A   1      39.451  35.907  39.236  1.00  0.00     0.054 A 
BRANCH  98  99
ATOM     99  S   UNL A   1      39.198  37.108  40.569  1.00  0.00     0.124 S 
ATOM    100  O   UNL A   1      38.196  37.998  39.989  1.00  0.00    -0.237 OA
ATOM    101  O   UNL A   1      38.732  36.269  41.671  1.00  0.00    -0.237 OA
ATOM    102  O   UNL A   1      40.522  37.698  40.759  1.00  0.00    -0.744 OA
ENDBRANCH  98  99
ENDBRANCH  72  93
ENDBRANCH  46  47
ENDBRANCH  38  41
ENDBRANCH  36  37
ENDBRANCH  35  36
ENDBRANCH   1  35
TORSDOF 18
ENDMDL
MODEL 3
REMARK VINA RESULT:     -11.1      4.207      9.562
REMARK SMILES NC(=O)c1c(-c2ccc(Cl)cc2)csc1NC(=O)[C@H]1[C@@H](C(=O)NCCCCNC(=O)c2ccc(-c3c4nc(c(-c5ccc(S(=O)(=O)[O-])cc5)c5ccc([nH]5)c(-c5ccc(S(=O)(=O)[O-])cc5)c5nc(c(-c6ccc(S(=O)(=O)[O-])cc6)c6ccc3[nH]6)C=C5)C=C4)cc2)[C@@H]2CC[C@H]1O2
REMARK SMILES IDX 25 1 24 2 23 3 21 4 22 5 20 7 19 8 94 9 91 10 93 11 95 12
REMARK SMILES IDX 92 13 17 14 16 15 18 17 15 18 4 19 5 20 13 21 14 22 2 23
REMARK SMILES IDX 1 24 3 27 6 28 7 29 12 30 8 31 11 32 9 33 10 34 26 35 27 36
REMARK SMILES IDX 28 37 29 38 30 40 31 41 32 42 90 43 33 44 89 45 34 46 35 47
REMARK SMILES IDX 36 48 83 49 37 50 88 51 82 52 84 53 38 54 87 55 81 56 80 57
REMARK SMILES IDX 39 59 69 60 50 61 68 62 51 63 54 64 67 65 85 66 52 67 53 68
REMARK SMILES IDX 66 70 86 71 55 72 40 73 41 74 49 75 42 76 48 77 43 78 44 79
REMARK SMILES IDX 45 80 46 81 47 82 70 83 71 84 79 85 72 86 78 87 73 88 74 89
REMARK SMILES IDX 75 90 76 91 77 92 56 93 57 94 65 95 58 96 64 97 59 98 60 99
REMARK SMILES IDX 61 100 62 101 63 102
REMARK H PARENT 23 6 16 16 1 25 1 26 28 39 84 58 54 69
REMARK Flexibility Score: inf
ROOT
ATOM      1  C   UNL A   1      38.091  22.924  26.111  1.00  0.00     0.023 C 
ENDROOT
BRANCH   1   2
ATOM      2  C   UNL A   1      37.591  22.085  24.949  1.00  0.00     0.116 C 
BRANCH   2   3
ATOM      3  N   UNL A   1      36.929  22.802  23.898  1.00  0.00    -0.356 N 
ATOM      4  C   UNL A   1      35.598  22.867  23.649  1.00  0.00     0.226 C 
ATOM      5  O   UNL A   1      35.239  23.698  22.804  1.00  0.00    -0.275 OA
ATOM      6  H   UNL A   1      37.510  23.307  23.284  1.00  0.00     0.163 HD
BRANCH   4   7
ATOM      7  C   UNL A   1      34.559  21.905  24.215  1.00  0.00     0.122 C 
ATOM      8  C   UNL A   1      33.094  21.711  23.768  1.00  0.00     0.123 C 
ATOM      9  C   UNL A   1      32.444  21.410  25.094  1.00  0.00     0.132 C 
ATOM     10  C   UNL A   1      34.415  22.046  25.742  1.00  0.00     0.132 C 
ATOM     11  C   UNL A   1      32.973  20.175  25.823  1.00  0.00     0.035 C 
ATOM     12  O   UNL A   1      33.037  22.456  25.896  1.00  0.00    -0.373 OA
ATOM     13  C   UNL A   1      34.302  20.672  26.395  1.00  0.00     0.035 C 
BRANCH   8  14
ATOM     14  C   UNL A   1      32.410  22.735  22.854  1.00  0.00     0.231 C 
ATOM     15  N   UNL A   1      31.891  23.974  23.097  1.00  0.00    -0.317 N 
ATOM     16  H   UNL A   1      31.483  24.345  22.281  1.00  0.00     0.170 HD
ATOM     17  O   UNL A   1      32.387  22.418  21.647  1.00  0.00    -0.274 OA
BRANCH  15  18
ATOM     18  C   UNL A   1      31.768  24.872  24.158  1.00  0.00     0.108 A 
ATOM     19  C   UNL A   1      32.327  26.155  24.230  1.00  0.00     0.082 A 
ATOM     20  C   UNL A   1      32.218  26.688  25.578  1.00  0.00     0.007 A 
ATOM     21  C   UNL A   1      31.443  25.876  26.374  1.00  0.00     0.076 A 
ATOM     22  S   UNL A   1      30.695  24.677  25.446  1.00  0.00    -0.125 S 
BRANCH  19  23
ATOM     23  C   UNL A   1      32.972  26.755  23.072  1.00  0.00     0.252 C 
ATOM     24  N   UNL A   1      34.211  26.316  22.743  1.00  0.00    -0.365 N 
ATOM     25  H   UNL A   1      34.678  26.699  21.966  1.00  0.00     0.159 HD
ATOM     26  H   UNL A   1      34.643  25.614  23.281  1.00  0.00     0.159 HD
ATOM     27  O   UNL A   1      32.391  27.573  22.361  1.00  0.00    -0.269 OA
ENDBRANCH  19  23
BRANCH  20  28
ATOM     28  C   UNL A   1      32.675  27.954  26.129  1.00  0.00    -0.017 A 
ATOM     29  C   UNL A   1      34.022  28.159  26.457  1.00  0.00     0.010 A 
ATOM     30  C   UNL A   1      31.739  28.972  26.352  1.00  0.00     0.010 A 
ATOM     31  C   UNL A   1      34.422  29.377  27.015  1.00  0.00     0.021 A 
ATOM     32  C   UNL A   1      32.144  30.188  26.899  1.00  0.00     0.021 A 
ATOM     33  C   UNL A   1      33.482  30.383  27.236  1.00  0.00     0.041 A 
ATOM     34  Cl  UNL A   1      33.969  31.874  27.941  1.00  0.00    -0.084 Cl
ENDBRANCH  20  28
ENDBRANCH  15  18
ENDBRANCH   8  14
ENDBRANCH   4   7
ENDBRANCH   2   3
ENDBRANCH   1   2
BRANCH   1  35
ATOM     35  C   UNL A   1      39.433  22.521  26.709  1.00  0.00     0.023 C 
BRANCH  35  36
ATOM     36  C   UNL A   1      40.361  23.652  27.148  1.00  0.00     0.116 C 
BRANCH  36  37
ATOM     37  N   UNL A   1      41.063  24.320  26.057  1.00  0.00    -0.352 N 
ATOM     38  C   UNL A   1      41.403  25.645  25.912  1.00  0.00     0.251 C 
ATOM     39  H   UNL A   1      41.335  23.735  25.314  1.00  0.00     0.163 HD
ATOM     40  O   UNL A   1      41.919  26.091  24.892  1.00  0.00    -0.269 OA
BRANCH  38  41
ATOM     41  C   UNL A   1      41.123  26.580  26.994  1.00  0.00     0.039 A 
ATOM     42  C   UNL A   1      40.247  26.189  28.009  1.00  0.00     0.014 A 
ATOM     43  C   UNL A   1      41.735  27.830  26.984  1.00  0.00     0.014 A 
ATOM     44  C   UNL A   1      40.042  27.046  29.077  1.00  0.00     0.010 A 
ATOM     45  C   UNL A   1      41.613  28.635  28.097  1.00  0.00     0.010 A 
ATOM     46  C   UNL A   1      40.760  28.249  29.143  1.00  0.00    -0.014 A 
BRANCH  46  47
ATOM     47  C   UNL A   1      40.632  29.150  30.298  1.00  0.00     0.031 A 
ATOM     48  C   UNL A   1      41.498  28.914  31.498  1.00  0.00     0.074 A 
ATOM     49  C   UNL A   1      39.671  30.090  30.281  1.00  0.00     0.049 A 
ATOM     50  N   UNL A   1      41.456  29.493  32.665  1.00  0.00    -0.248 NA
ATOM     51  C   UNL A   1      42.519  27.854  31.384  1.00  0.00     0.031 C 
ATOM     52  C   UNL A   1      38.755  30.348  29.164  1.00  0.00     0.029 A 
ATOM     53  N   UNL A   1      39.293  30.994  31.235  1.00  0.00    -0.354 N 
ATOM     54  C   UNL A   1      42.417  28.850  33.433  1.00  0.00     0.074 A 
ATOM     55  C   UNL A   1      42.990  27.802  32.621  1.00  0.00     0.031 C 
ATOM     56  C   UNL A   1      37.939  31.363  29.490  1.00  0.00     0.029 A 
ATOM     57  C   UNL A   1      38.238  31.787  30.852  1.00  0.00     0.049 A 
ATOM     58  H   UNL A   1      39.735  31.069  32.111  1.00  0.00     0.167 HD
ATOM     59  C   UNL A   1      42.795  29.128  34.700  1.00  0.00     0.031 A 
ATOM     60  C   UNL A   1      37.580  32.738  31.537  1.00  0.00     0.031 A 
ATOM     61  C   UNL A   1      42.216  30.190  35.475  1.00  0.00     0.049 A 
ATOM     62  C   UNL A   1      38.031  33.038  32.939  1.00  0.00     0.074 A 
ATOM     63  C   UNL A   1      42.555  30.613  36.746  1.00  0.00     0.029 A 
ATOM     64  N   UNL A   1      41.173  31.000  35.044  1.00  0.00    -0.354 N 
ATOM     65  N   UNL A   1      38.985  32.465  33.635  1.00  0.00    -0.248 NA
ATOM     66  C   UNL A   1      37.330  34.117  33.642  1.00  0.00     0.031 C 
ATOM     67  C   UNL A   1      41.679  31.642  37.105  1.00  0.00     0.029 A 
ATOM     68  C   UNL A   1      40.839  31.906  36.033  1.00  0.00     0.049 A 
ATOM     69  H   UNL A   1      40.736  30.937  34.164  1.00  0.00     0.167 HD
ATOM     70  C   UNL A   1      39.018  33.131  34.853  1.00  0.00     0.074 A 
ATOM     71  C   UNL A   1      37.999  34.162  34.787  1.00  0.00     0.031 C 
ATOM     72  C   UNL A   1      39.815  32.916  35.929  1.00  0.00     0.031 A 
BRANCH  59  73
ATOM     73  C   UNL A   1      43.868  28.269  35.316  1.00  0.00    -0.014 A 
ATOM     74  C   UNL A   1      45.229  28.604  35.200  1.00  0.00     0.010 A 
ATOM     75  C   UNL A   1      43.507  27.122  36.045  1.00  0.00     0.010 A 
ATOM     76  C   UNL A   1      46.211  27.791  35.771  1.00  0.00     0.020 A 
ATOM     77  C   UNL A   1      44.484  26.322  36.645  1.00  0.00     0.020 A 
ATOM     78  C   UNL A   1      45.831  26.654  36.492  1.00  0.00     0.054 A 
BRANCH  78  79
ATOM     79  S   UNL A   1      47.126  25.642  37.259  1.00  0.00     0.124 S 
ATOM     80  O   UNL A   1      47.407  24.667  36.210  1.00  0.00    -0.237 OA
ATOM     81  O   UNL A   1      48.185  26.617  37.511  1.00  0.00    -0.237 OA
ATOM     82  O   UNL A   1      46.482  25.103  38.454  1.00  0.00    -0.744 OA
ENDBRANCH  78  79
ENDBRANCH  59  73
BRANCH  60  83
ATOM     83  C   UNL A   1      36.453  33.469  30.899  1.00  0.00    -0.014 A 
ATOM     84  C   UNL A   1      35.174  33.459  31.481  1.00  0.00     0.010 A 
ATOM     85  C   UNL A   1      36.663  34.217  29.725  1.00  0.00     0.010 A 
ATOM     86  C   UNL A   1      34.122  34.167  30.892  1.00  0.00     0.020 A 
ATOM     87  C   UNL A   1      35.621  34.950  29.150  1.00  0.00     0.020 A 
ATOM     88  C   UNL A   1      34.353  34.911  29.732  1.00  0.00     0.054 A 
BRANCH  88  89
ATOM     89  S   UNL A   1      32.984  35.865  29.017  1.00  0.00     0.124 S 
ATOM     90  O   UNL A   1      32.363  34.887  28.131  1.00  0.00    -0.237 OA
ATOM     91  O   UNL A   1      32.208  36.233  30.199  1.00  0.00    -0.237 OA
ATOM     92  O   UNL A   1      33.655  36.979  28.351  1.00  0.00    -0.744 OA
ENDBRANCH  88  89
ENDBRANCH  60  83
BRANCH  72  93
ATOM     93  C   UNL A   1      39.637  33.836  37.104  1.00  0.00    -0.014 A 
ATOM     94  C   UNL A   1      40.195  35.126  37.111  1.00  0.00     0.010 A 
ATOM     95  C   UNL A   1      38.848  33.419  38.192  1.00  0.00     0.010 A 
ATOM     96  C   UNL A   1      39.995  35.972  38.204  1.00  0.00     0.020 A 
ATOM     97  C   UNL A   1      38.618  34.273  39.270  1.00  0.00     0.020 A 
ATOM     98  C   UNL A   1      39.206  35.540  39.276  1.00  0.00     0.054 A 
BRANCH  98  99
ATOM     99  S   UNL A   1      38.927  36.673  40.662  1.00  0.00     0.124 S 
ATOM    100  O   UNL A   1      38.036  35.892  41.516  1.00  0.00    -0.237 OA
ATOM    101  O   UNL A   1      40.276  36.880  41.182  1.00  0.00    -0.237 OA
ATOM    102  O   UNL A   1      38.320  37.845  40.035  1.00  0.00    -0.744 OA
ENDBRANCH  98  99
ENDBRANCH  72  93
ENDBRANCH  46  47
ENDBRANCH  38  41
ENDBRANCH  36  37
ENDBRANCH  35  36
ENDBRANCH   1  35
TORSDOF 18
ENDMDL
