MODEL 1
REMARK VINA RESULT:     -10.7      0.000      0.000
REMARK SMILES C[C@@H](C(=O)NCCCCNC(=O)c1ccc(-c2c3nc(c(-c4ccc(S(=O)(=O)[O-])cc4)c4ccc([nH]4)c(-c4ccc(S(=O)(=O)[O-])cc4)c4nc(c(-c5ccc(S(=O)(=O)[O-])cc5)c5ccc2[nH]5)C=C4)C=C3)cc1)c1ccc(N[C@H]2CCC[C@@H]2O)cc1F
REMARK SMILES IDX 7 1 6 2 5 3 3 4 4 5 2 7 1 8 73 9 74 10 85 11 75 12 84 13
REMARK SMILES IDX 86 14 76 15 77 16 78 18 79 19 82 20 80 21 81 22 83 23 8 25
REMARK SMILES IDX 9 26 10 27 11 28 12 30 13 31 14 32 72 33 15 34 71 35 16 36
REMARK SMILES IDX 17 37 18 38 65 39 19 40 70 41 64 42 66 43 20 44 69 45 63 46
REMARK SMILES IDX 62 47 21 49 51 50 32 51 50 52 33 53 36 54 49 55 67 56 34 57
REMARK SMILES IDX 35 58 48 60 68 61 37 62 22 63 23 64 31 65 24 66 30 67 25 68
REMARK SMILES IDX 26 69 27 70 28 71 29 72 52 73 53 74 61 75 54 76 60 77 55 78
REMARK SMILES IDX 56 79 57 80 58 81 59 82 38 83 39 84 47 85 40 86 46 87 41 88
REMARK SMILES IDX 42 89 43 90 44 91 45 92
REMARK H PARENT 5 6 77 17 83 24 10 29 66 48 36 59
REMARK Flexibility Score: inf
ROOT
ATOM      1  C   UNL A   1      33.999  28.540  24.763  1.00  0.00     0.023 C 
ENDROOT
BRANCH   1   2
ATOM      2  C   UNL A   1      33.074  29.056  23.655  1.00  0.00     0.116 C 
BRANCH   2   3
ATOM      3  N   UNL A   1      31.930  29.727  24.235  1.00  0.00    -0.356 N 
ATOM      4  C   UNL A   1      30.622  29.696  23.842  1.00  0.00     0.227 C 
ATOM      5  O   UNL A   1      29.877  30.562  24.304  1.00  0.00    -0.274 OA
ATOM      6  H   UNL A   1      32.122  30.285  25.023  1.00  0.00     0.163 HD
BRANCH   4   7
ATOM      7  C   UNL A   1      30.138  28.590  22.885  1.00  0.00     0.108 C 
ATOM      8  C   UNL A   1      28.665  28.802  22.498  1.00  0.00     0.023 C 
BRANCH   7   9
ATOM      9  C   UNL A   1      30.377  27.198  23.462  1.00  0.00     0.000 A 
ATOM     10  C   UNL A   1      29.982  26.855  24.755  1.00  0.00     0.009 A 
ATOM     11  C   UNL A   1      31.013  26.204  22.710  1.00  0.00     0.129 A 
ATOM     12  C   UNL A   1      30.225  25.585  25.269  1.00  0.00     0.026 A 
ATOM     13  C   UNL A   1      31.269  24.932  23.237  1.00  0.00     0.065 A 
ATOM     14  F   UNL A   1      31.382  26.458  21.445  1.00  0.00    -0.207 F 
ATOM     15  C   UNL A   1      30.881  24.597  24.538  1.00  0.00     0.037 A 
BRANCH  15  16
ATOM     16  N   UNL A   1      31.098  23.321  25.017  1.00  0.00    -0.380 N 
ATOM     17  H   UNL A   1      30.327  22.710  24.989  1.00  0.00     0.160 HD
BRANCH  16  18
ATOM     18  C   UNL A   1      32.338  22.770  25.564  1.00  0.00     0.107 C 
ATOM     19  C   UNL A   1      33.604  23.150  24.782  1.00  0.00     0.027 C 
ATOM     20  C   UNL A   1      32.605  23.160  27.032  1.00  0.00     0.136 C 
ATOM     21  C   UNL A   1      34.634  23.572  25.834  1.00  0.00     0.005 C 
ATOM     22  C   UNL A   1      34.115  23.021  27.154  1.00  0.00     0.034 C 
BRANCH  20  23
ATOM     23  O   UNL A   1      31.930  22.304  27.943  1.00  0.00    -0.391 OA
ATOM     24  H   UNL A   1      31.141  22.755  28.285  1.00  0.00     0.211 HD
ENDBRANCH  20  23
ENDBRANCH  16  18
ENDBRANCH  15  16
ENDBRANCH   7   9
ENDBRANCH   4   7
ENDBRANCH   2   3
ENDBRANCH   1   2
BRANCH   1  25
ATOM     25  C   UNL A   1      33.293  27.705  25.833  1.00  0.00     0.023 C 
BRANCH  25  26
ATOM     26  C   UNL A   1      33.577  28.141  27.263  1.00  0.00     0.116 C 
BRANCH  26  27
ATOM     27  N   UNL A   1      33.470  29.580  27.437  1.00  0.00    -0.352 N 
ATOM     28  C   UNL A   1      34.398  30.462  27.924  1.00  0.00     0.251 C 
ATOM     29  H   UNL A   1      32.611  29.977  27.167  1.00  0.00     0.163 HD
ATOM     30  O   UNL A   1      34.070  31.627  28.148  1.00  0.00    -0.269 OA
BRANCH  28  31
ATOM     31  C   UNL A   1      35.774  30.005  28.208  1.00  0.00     0.039 A 
ATOM     32  C   UNL A   1      36.723  30.078  27.189  1.00  0.00     0.014 A 
ATOM     33  C   UNL A   1      36.132  29.511  29.468  1.00  0.00     0.014 A 
ATOM     34  C   UNL A   1      38.040  29.702  27.447  1.00  0.00     0.010 A 
ATOM     35  C   UNL A   1      37.464  29.218  29.747  1.00  0.00     0.010 A 
ATOM     36  C   UNL A   1      38.431  29.300  28.737  1.00  0.00    -0.014 A 
BRANCH  36  37
ATOM     37  C   UNL A   1      39.852  28.981  29.023  1.00  0.00     0.031 A 
ATOM     38  C   UNL A   1      40.754  29.996  29.673  1.00  0.00     0.074 A 
ATOM     39  C   UNL A   1      40.331  27.767  28.686  1.00  0.00     0.049 A 
ATOM     40  N   UNL A   1      42.000  29.863  30.050  1.00  0.00    -0.248 NA
ATOM     41  C   UNL A   1      40.195  31.337  29.913  1.00  0.00     0.031 C 
ATOM     42  C   UNL A   1      39.573  26.723  27.989  1.00  0.00     0.029 A 
ATOM     43  N   UNL A   1      41.562  27.200  28.892  1.00  0.00    -0.354 N 
ATOM     44  C   UNL A   1      42.369  31.095  30.578  1.00  0.00     0.074 A 
ATOM     45  C   UNL A   1      41.241  31.983  30.407  1.00  0.00     0.031 C 
ATOM     46  C   UNL A   1      40.342  25.629  27.868  1.00  0.00     0.029 A 
ATOM     47  C   UNL A   1      41.654  25.903  28.443  1.00  0.00     0.049 A 
ATOM     48  H   UNL A   1      42.309  27.676  29.321  1.00  0.00     0.167 HD
ATOM     49  C   UNL A   1      43.532  31.447  31.178  1.00  0.00     0.031 A 
ATOM     50  C   UNL A   1      42.678  25.030  28.491  1.00  0.00     0.031 A 
ATOM     51  C   UNL A   1      44.656  30.563  31.339  1.00  0.00     0.049 A 
ATOM     52  C   UNL A   1      43.957  25.446  29.162  1.00  0.00     0.074 A 
ATOM     53  C   UNL A   1      45.867  30.813  31.962  1.00  0.00     0.029 A 
ATOM     54  N   UNL A   1      44.711  29.258  30.872  1.00  0.00    -0.354 N 
ATOM     55  N   UNL A   1      44.261  26.593  29.722  1.00  0.00    -0.248 NA
ATOM     56  C   UNL A   1      45.026  24.439  29.228  1.00  0.00     0.031 C 
ATOM     57  C   UNL A   1      46.672  29.677  31.825  1.00  0.00     0.029 A 
ATOM     58  C   UNL A   1      45.941  28.696  31.176  1.00  0.00     0.049 A 
ATOM     59  H   UNL A   1      43.983  28.798  30.395  1.00  0.00     0.167 HD
ATOM     60  C   UNL A   1      45.549  26.441  30.222  1.00  0.00     0.074 A 
ATOM     61  C   UNL A   1      45.951  25.080  29.928  1.00  0.00     0.031 C 
ATOM     62  C   UNL A   1      46.333  27.346  30.860  1.00  0.00     0.031 A 
BRANCH  49  63
ATOM     63  C   UNL A   1      43.640  32.851  31.717  1.00  0.00    -0.014 A 
ATOM     64  C   UNL A   1      44.115  33.900  30.907  1.00  0.00     0.010 A 
ATOM     65  C   UNL A   1      43.216  33.140  33.026  1.00  0.00     0.010 A 
ATOM     66  C   UNL A   1      44.195  35.203  31.407  1.00  0.00     0.020 A 
ATOM     67  C   UNL A   1      43.266  34.448  33.520  1.00  0.00     0.020 A 
ATOM     68  C   UNL A   1      43.767  35.469  32.710  1.00  0.00     0.054 A 
BRANCH  68  69
ATOM     69  S   UNL A   1      43.848  37.177  33.316  1.00  0.00     0.124 S 
ATOM     70  O   UNL A   1      45.117  37.182  34.039  1.00  0.00    -0.237 OA
ATOM     71  O   UNL A   1      43.827  37.955  32.080  1.00  0.00    -0.237 OA
ATOM     72  O   UNL A   1      42.656  37.307  34.151  1.00  0.00    -0.744 OA
ENDBRANCH  68  69
ENDBRANCH  49  63
BRANCH  50  73
ATOM     73  C   UNL A   1      42.528  23.674  27.893  1.00  0.00    -0.014 A 
ATOM     74  C   UNL A   1      42.956  23.410  26.579  1.00  0.00     0.010 A 
ATOM     75  C   UNL A   1      41.954  22.633  28.645  1.00  0.00     0.010 A 
ATOM     76  C   UNL A   1      42.784  22.140  26.019  1.00  0.00     0.020 A 
ATOM     77  C   UNL A   1      41.813  21.354  28.101  1.00  0.00     0.020 A 
ATOM     78  C   UNL A   1      42.214  21.120  26.786  1.00  0.00     0.054 A 
BRANCH  78  79
ATOM     79  S   UNL A   1      42.034  19.469  26.054  1.00  0.00     0.124 S 
ATOM     80  O   UNL A   1      42.555  18.609  27.111  1.00  0.00    -0.237 OA
ATOM     81  O   UNL A   1      40.595  19.384  25.817  1.00  0.00    -0.237 OA
ATOM     82  O   UNL A   1      42.852  19.542  24.845  1.00  0.00    -0.744 OA
ENDBRANCH  78  79
ENDBRANCH  50  73
BRANCH  62  83
ATOM     83  C   UNL A   1      47.697  26.879  31.297  1.00  0.00    -0.014 A 
ATOM     84  C   UNL A   1      47.897  26.288  32.558  1.00  0.00     0.010 A 
ATOM     85  C   UNL A   1      48.795  27.030  30.431  1.00  0.00     0.010 A 
ATOM     86  C   UNL A   1      49.179  25.913  32.968  1.00  0.00     0.020 A 
ATOM     87  C   UNL A   1      50.074  26.625  30.824  1.00  0.00     0.020 A 
ATOM     88  C   UNL A   1      50.260  26.093  32.101  1.00  0.00     0.054 A 
BRANCH  88  89
ATOM     89  S   UNL A   1      51.916  25.604  32.658  1.00  0.00     0.124 S 
ATOM     90  O   UNL A   1      51.920  24.171  32.378  1.00  0.00    -0.237 OA
ATOM     91  O   UNL A   1      52.791  26.412  31.811  1.00  0.00    -0.237 OA
ATOM     92  O   UNL A   1      51.924  25.963  34.074  1.00  0.00    -0.744 OA
ENDBRANCH  88  89
ENDBRANCH  62  83
ENDBRANCH  36  37
ENDBRANCH  28  31
ENDBRANCH  26  27
ENDBRANCH  25  26
ENDBRANCH   1  25
TORSDOF 18
ENDMDL
MODEL 2
REMARK VINA RESULT:     -10.5      1.995      2.576
REMARK SMILES C[C@@H](C(=O)NCCCCNC(=O)c1ccc(-c2c3nc(c(-c4ccc(S(=O)(=O)[O-])cc4)c4ccc([nH]4)c(-c4ccc(S(=O)(=O)[O-])cc4)c4nc(c(-c5ccc(S(=O)(=O)[O-])cc5)c5ccc2[nH]5)C=C4)C=C3)cc1)c1ccc(N[C@H]2CCC[C@@H]2O)cc1F
REMARK SMILES IDX 7 1 6 2 5 3 3 4 4 5 2 7 1 8 73 9 74 10 85 11 75 12 84 13
REMARK SMILES IDX 86 14 76 15 77 16 78 18 79 19 82 20 80 21 81 22 83 23 8 25
REMARK SMILES IDX 9 26 10 27 11 28 12 30 13 31 14 32 72 33 15 34 71 35 16 36
REMARK SMILES IDX 17 37 18 38 65 39 19 40 70 41 64 42 66 43 20 44 69 45 63 46
REMARK SMILES IDX 62 47 21 49 51 50 32 51 50 52 33 53 36 54 49 55 67 56 34 57
REMARK SMILES IDX 35 58 48 60 68 61 37 62 22 63 23 64 31 65 24 66 30 67 25 68
REMARK SMILES IDX 26 69 27 70 28 71 29 72 52 73 53 74 61 75 54 76 60 77 55 78
REMARK SMILES IDX 56 79 57 80 58 81 59 82 38 83 39 84 47 85 40 86 46 87 41 88
REMARK SMILES IDX 42 89 43 90 44 91 45 92
REMARK H PARENT 5 6 77 17 83 24 10 29 66 48 36 59
REMARK Flexibility Score: inf
ROOT
ATOM      1  C   UNL A   1      31.646  27.962  26.197  1.00  0.00     0.023 C 
ENDROOT
BRANCH   1   2
ATOM      2  C   UNL A   1      30.778  26.711  26.025  1.00  0.00     0.116 C 
BRANCH   2   3
ATOM      3  N   UNL A   1      30.434  26.533  24.630  1.00  0.00    -0.356 N 
ATOM      4  C   UNL A   1      31.244  26.209  23.577  1.00  0.00     0.227 C 
ATOM      5  O   UNL A   1      30.791  26.391  22.446  1.00  0.00    -0.274 OA
ATOM      6  H   UNL A   1      29.484  26.664  24.409  1.00  0.00     0.163 HD
BRANCH   4   7
ATOM      7  C   UNL A   1      32.641  25.617  23.842  1.00  0.00     0.108 C 
ATOM      8  C   UNL A   1      33.641  26.065  22.763  1.00  0.00     0.023 C 
BRANCH   7   9
ATOM      9  C   UNL A   1      32.595  24.098  23.978  1.00  0.00     0.000 A 
ATOM     10  C   UNL A   1      32.117  23.278  22.956  1.00  0.00     0.009 A 
ATOM     11  C   UNL A   1      33.031  23.465  25.147  1.00  0.00     0.129 A 
ATOM     12  C   UNL A   1      32.068  21.895  23.107  1.00  0.00     0.026 A 
ATOM     13  C   UNL A   1      32.966  22.074  25.300  1.00  0.00     0.065 A 
ATOM     14  F   UNL A   1      33.539  24.195  26.151  1.00  0.00    -0.207 F 
ATOM     15  C   UNL A   1      32.474  21.257  24.277  1.00  0.00     0.037 A 
BRANCH  15  16
ATOM     16  N   UNL A   1      32.467  19.886  24.430  1.00  0.00    -0.380 N 
ATOM     17  H   UNL A   1      31.806  19.523  25.063  1.00  0.00     0.160 HD
BRANCH  16  18
ATOM     18  C   UNL A   1      33.328  18.908  23.764  1.00  0.00     0.107 C 
ATOM     19  C   UNL A   1      34.589  18.527  24.552  1.00  0.00     0.027 C 
ATOM     20  C   UNL A   1      32.621  17.583  23.417  1.00  0.00     0.136 C 
ATOM     21  C   UNL A   1      34.682  16.999  24.481  1.00  0.00     0.005 C 
ATOM     22  C   UNL A   1      33.771  16.591  23.332  1.00  0.00     0.034 C 
BRANCH  20  23
ATOM     23  O   UNL A   1      31.912  17.661  22.188  1.00  0.00    -0.391 OA
ATOM     24  H   UNL A   1      31.684  18.586  22.005  1.00  0.00     0.211 HD
ENDBRANCH  20  23
ENDBRANCH  16  18
ENDBRANCH  15  16
ENDBRANCH   7   9
ENDBRANCH   4   7
ENDBRANCH   2   3
ENDBRANCH   1   2
BRANCH   1  25
ATOM     25  C   UNL A   1      33.036  27.689  26.774  1.00  0.00     0.023 C 
BRANCH  25  26
ATOM     26  C   UNL A   1      34.091  28.718  26.395  1.00  0.00     0.116 C 
BRANCH  26  27
ATOM     27  N   UNL A   1      33.873  30.002  27.040  1.00  0.00    -0.352 N 
ATOM     28  C   UNL A   1      34.669  30.664  27.937  1.00  0.00     0.251 C 
ATOM     29  H   UNL A   1      33.035  30.460  26.799  1.00  0.00     0.163 HD
ATOM     30  O   UNL A   1      34.242  31.672  28.499  1.00  0.00    -0.269 OA
BRANCH  28  31
ATOM     31  C   UNL A   1      36.018  30.150  28.247  1.00  0.00     0.039 A 
ATOM     32  C   UNL A   1      37.012  30.258  27.273  1.00  0.00     0.014 A 
ATOM     33  C   UNL A   1      36.309  29.570  29.486  1.00  0.00     0.014 A 
ATOM     34  C   UNL A   1      38.306  29.828  27.560  1.00  0.00     0.010 A 
ATOM     35  C   UNL A   1      37.620  29.221  29.800  1.00  0.00     0.010 A 
ATOM     36  C   UNL A   1      38.630  29.337  28.838  1.00  0.00    -0.014 A 
BRANCH  36  37
ATOM     37  C   UNL A   1      40.029  28.959  29.160  1.00  0.00     0.031 A 
ATOM     38  C   UNL A   1      40.945  29.923  29.865  1.00  0.00     0.074 A 
ATOM     39  C   UNL A   1      40.475  27.737  28.806  1.00  0.00     0.049 A 
ATOM     40  N   UNL A   1      42.172  29.735  30.279  1.00  0.00    -0.248 NA
ATOM     41  C   UNL A   1      40.426  31.277  30.123  1.00  0.00     0.031 C 
ATOM     42  C   UNL A   1      39.704  26.739  28.058  1.00  0.00     0.029 A 
ATOM     43  N   UNL A   1      41.678  27.120  29.036  1.00  0.00    -0.354 N 
ATOM     44  C   UNL A   1      42.568  30.939  30.851  1.00  0.00     0.074 A 
ATOM     45  C   UNL A   1      41.478  31.871  30.668  1.00  0.00     0.031 C 
ATOM     46  C   UNL A   1      40.437  25.621  27.933  1.00  0.00     0.029 A 
ATOM     47  C   UNL A   1      41.738  25.833  28.556  1.00  0.00     0.049 A 
ATOM     48  H   UNL A   1      42.427  27.558  29.501  1.00  0.00     0.167 HD
ATOM     49  C   UNL A   1      43.721  31.233  31.497  1.00  0.00     0.031 A 
ATOM     50  C   UNL A   1      42.728  24.922  28.614  1.00  0.00     0.031 A 
ATOM     51  C   UNL A   1      44.808  30.305  31.670  1.00  0.00     0.049 A 
ATOM     52  C   UNL A   1      43.999  25.273  29.336  1.00  0.00     0.074 A 
ATOM     53  C   UNL A   1      46.005  30.495  32.338  1.00  0.00     0.029 A 
ATOM     54  N   UNL A   1      44.831  29.011  31.170  1.00  0.00    -0.354 N 
ATOM     55  N   UNL A   1      44.324  26.394  29.936  1.00  0.00    -0.248 NA
ATOM     56  C   UNL A   1      45.028  24.228  29.410  1.00  0.00     0.031 C 
ATOM     57  C   UNL A   1      46.774  29.333  32.197  1.00  0.00     0.029 A 
ATOM     58  C   UNL A   1      46.029  28.397  31.498  1.00  0.00     0.049 A 
ATOM     59  H   UNL A   1      44.104  28.590  30.658  1.00  0.00     0.167 HD
ATOM     60  C   UNL A   1      45.589  26.183  30.472  1.00  0.00     0.074 A 
ATOM     61  C   UNL A   1      45.952  24.816  30.156  1.00  0.00     0.031 C 
ATOM     62  C   UNL A   1      46.384  27.042  31.159  1.00  0.00     0.031 A 
BRANCH  49  63
ATOM     63  C   UNL A   1      43.862  32.618  32.076  1.00  0.00    -0.014 A 
ATOM     64  C   UNL A   1      44.407  33.668  31.312  1.00  0.00     0.010 A 
ATOM     65  C   UNL A   1      43.399  32.891  33.376  1.00  0.00     0.010 A 
ATOM     66  C   UNL A   1      44.516  34.954  31.849  1.00  0.00     0.020 A 
ATOM     67  C   UNL A   1      43.479  34.183  33.905  1.00  0.00     0.020 A 
ATOM     68  C   UNL A   1      44.050  35.204  33.142  1.00  0.00     0.054 A 
BRANCH  68  69
ATOM     69  S   UNL A   1      44.171  36.891  33.795  1.00  0.00     0.124 S 
ATOM     70  O   UNL A   1      44.910  36.682  35.038  1.00  0.00    -0.237 OA
ATOM     71  O   UNL A   1      44.902  37.590  32.740  1.00  0.00    -0.237 OA
ATOM     72  O   UNL A   1      42.779  37.301  33.962  1.00  0.00    -0.744 OA
ENDBRANCH  68  69
ENDBRANCH  49  63
BRANCH  50  73
ATOM     73  C   UNL A   1      42.550  23.588  27.975  1.00  0.00    -0.014 A 
ATOM     74  C   UNL A   1      43.107  23.308  26.714  1.00  0.00     0.010 A 
ATOM     75  C   UNL A   1      41.818  22.584  28.635  1.00  0.00     0.010 A 
ATOM     76  C   UNL A   1      42.909  22.061  26.113  1.00  0.00     0.020 A 
ATOM     77  C   UNL A   1      41.648  21.326  28.054  1.00  0.00     0.020 A 
ATOM     78  C   UNL A   1      42.180  21.078  26.789  1.00  0.00     0.054 A 
BRANCH  78  79
ATOM     79  S   UNL A   1      41.967  19.454  26.007  1.00  0.00     0.124 S 
ATOM     80  O   UNL A   1      40.527  19.417  25.771  1.00  0.00    -0.237 OA
ATOM     81  O   UNL A   1      42.804  19.564  24.815  1.00  0.00    -0.237 OA
ATOM     82  O   UNL A   1      42.460  18.521  27.019  1.00  0.00    -0.744 OA
ENDBRANCH  78  79
ENDBRANCH  50  73
BRANCH  62  83
ATOM     83  C   UNL A   1      47.715  26.515  31.627  1.00  0.00    -0.014 A 
ATOM     84  C   UNL A   1      48.856  26.578  30.806  1.00  0.00     0.010 A 
ATOM     85  C   UNL A   1      47.828  25.952  32.912  1.00  0.00     0.010 A 
ATOM     86  C   UNL A   1      50.068  26.033  31.236  1.00  0.00     0.020 A 
ATOM     87  C   UNL A   1      49.047  25.436  33.359  1.00  0.00     0.020 A 
ATOM     88  C   UNL A   1      50.153  25.458  32.508  1.00  0.00     0.054 A 
BRANCH  88  89
ATOM     89  S   UNL A   1      51.736  24.751  33.041  1.00  0.00     0.124 S 
ATOM     90  O   UNL A   1      51.696  23.424  32.435  1.00  0.00    -0.237 OA
ATOM     91  O   UNL A   1      52.710  25.676  32.466  1.00  0.00    -0.237 OA
ATOM     92  O   UNL A   1      51.651  24.773  34.500  1.00  0.00    -0.744 OA
ENDBRANCH  88  89
ENDBRANCH  62  83
ENDBRANCH  36  37
ENDBRANCH  28  31
ENDBRANCH  26  27
ENDBRANCH  25  26
ENDBRANCH   1  25
TORSDOF 18
ENDMDL
MODEL 3
REMARK VINA RESULT:     -10.4      0.839      8.267
REMARK SMILES C[C@@H](C(=O)NCCCCNC(=O)c1ccc(-c2c3nc(c(-c4ccc(S(=O)(=O)[O-])cc4)c4ccc([nH]4)c(-c4ccc(S(=O)(=O)[O-])cc4)c4nc(c(-c5ccc(S(=O)(=O)[O-])cc5)c5ccc2[nH]5)C=C4)C=C3)cc1)c1ccc(N[C@H]2CCC[C@@H]2O)cc1F
REMARK SMILES IDX 7 1 6 2 5 3 3 4 4 5 2 7 1 8 73 9 74 10 85 11 75 12 84 13
REMARK SMILES IDX 86 14 76 15 77 16 78 18 79 19 82 20 80 21 81 22 83 23 8 25
REMARK SMILES IDX 9 26 10 27 11 28 12 30 13 31 14 32 72 33 15 34 71 35 16 36
REMARK SMILES IDX 17 37 18 38 65 39 19 40 70 41 64 42 66 43 20 44 69 45 63 46
REMARK SMILES IDX 62 47 21 49 51 50 32 51 50 52 33 53 36 54 49 55 67 56 34 57
REMARK SMILES IDX 35 58 48 60 68 61 37 62 22 63 23 64 31 65 24 66 30 67 25 68
REMARK SMILES IDX 26 69 27 70 28 71 29 72 52 73 53 74 61 75 54 76 60 77 55 78
REMARK SMILES IDX 56 79 57 80 58 81 59 82 38 83 39 84 47 85 40 86 46 87 41 88
REMARK SMILES IDX 42 89 43 90 44 91 45 92
REMARK H PARENT 5 6 77 17 83 24 10 29 66 48 36 59
REMARK Flexibility Score: inf
ROOT
ATOM      1  C   UNL A   1      33.944  28.314  24.418  1.00  0.00     0.023 C 
ENDROOT
BRANCH   1   2
ATOM      2  C   UNL A   1      33.015  28.942  23.373  1.00  0.00     0.116 C 
BRANCH   2   3
ATOM      3  N   UNL A   1      31.930  29.641  24.029  1.00  0.00    -0.356 N 
ATOM      4  C   UNL A   1      30.592  29.607  23.755  1.00  0.00     0.227 C 
ATOM      5  O   UNL A   1      29.895  30.494  24.252  1.00  0.00    -0.274 OA
ATOM      6  H   UNL A   1      32.194  30.223  24.778  1.00  0.00     0.163 HD
BRANCH   4   7
ATOM      7  C   UNL A   1      30.019  28.474  22.882  1.00  0.00     0.108 C 
ATOM      8  C   UNL A   1      28.516  28.676  22.634  1.00  0.00     0.023 C 
BRANCH   7   9
ATOM      9  C   UNL A   1      30.316  27.099  23.474  1.00  0.00     0.000 A 
ATOM     10  C   UNL A   1      29.888  26.735  24.751  1.00  0.00     0.009 A 
ATOM     11  C   UNL A   1      31.042  26.144  22.754  1.00  0.00     0.129 A 
ATOM     12  C   UNL A   1      30.184  25.482  25.279  1.00  0.00     0.026 A 
ATOM     13  C   UNL A   1      31.350  24.890  23.295  1.00  0.00     0.065 A 
ATOM     14  F   UNL A   1      31.448  26.419  21.505  1.00  0.00    -0.207 F 
ATOM     15  C   UNL A   1      30.928  24.534  24.580  1.00  0.00     0.037 A 
BRANCH  15  16
ATOM     16  N   UNL A   1      31.199  23.274  25.073  1.00  0.00    -0.380 N 
ATOM     17  H   UNL A   1      30.419  22.724  25.313  1.00  0.00     0.160 HD
BRANCH  16  18
ATOM     18  C   UNL A   1      32.511  22.660  25.282  1.00  0.00     0.107 C 
ATOM     19  C   UNL A   1      33.587  23.618  25.813  1.00  0.00     0.027 C 
ATOM     20  C   UNL A   1      32.494  21.456  26.245  1.00  0.00     0.136 C 
ATOM     21  C   UNL A   1      34.291  22.869  26.948  1.00  0.00     0.005 C 
ATOM     22  C   UNL A   1      33.926  21.404  26.755  1.00  0.00     0.034 C 
BRANCH  20  23
ATOM     23  O   UNL A   1      32.135  20.249  25.586  1.00  0.00    -0.391 OA
ATOM     24  H   UNL A   1      31.613  20.457  24.795  1.00  0.00     0.211 HD
ENDBRANCH  20  23
ENDBRANCH  16  18
ENDBRANCH  15  16
ENDBRANCH   7   9
ENDBRANCH   4   7
ENDBRANCH   2   3
ENDBRANCH   1   2
BRANCH   1  25
ATOM     25  C   UNL A   1      33.225  27.775  25.656  1.00  0.00     0.023 C 
BRANCH  25  26
ATOM     26  C   UNL A   1      33.875  28.154  26.978  1.00  0.00     0.116 C 
BRANCH  26  27
ATOM     27  N   UNL A   1      33.675  29.553  27.316  1.00  0.00    -0.352 N 
ATOM     28  C   UNL A   1      34.520  30.415  27.964  1.00  0.00     0.251 C 
ATOM     29  H   UNL A   1      32.810  29.936  27.039  1.00  0.00     0.163 HD
ATOM     30  O   UNL A   1      34.112  31.526  28.303  1.00  0.00    -0.269 OA
BRANCH  28  31
ATOM     31  C   UNL A   1      35.900  29.997  28.281  1.00  0.00     0.039 A 
ATOM     32  C   UNL A   1      36.866  30.074  27.276  1.00  0.00     0.014 A 
ATOM     33  C   UNL A   1      36.248  29.537  29.556  1.00  0.00     0.014 A 
ATOM     34  C   UNL A   1      38.186  29.735  27.564  1.00  0.00     0.010 A 
ATOM     35  C   UNL A   1      37.581  29.282  29.864  1.00  0.00     0.010 A 
ATOM     36  C   UNL A   1      38.563  29.369  28.869  1.00  0.00    -0.014 A 
BRANCH  36  37
ATOM     37  C   UNL A   1      39.987  29.090  29.185  1.00  0.00     0.031 A 
ATOM     38  C   UNL A   1      40.600  27.753  28.867  1.00  0.00     0.074 A 
ATOM     39  C   UNL A   1      40.728  30.053  29.771  1.00  0.00     0.049 A 
ATOM     40  N   UNL A   1      41.839  27.362  29.017  1.00  0.00    -0.248 NA
ATOM     41  C   UNL A   1      39.705  26.714  28.330  1.00  0.00     0.031 C 
ATOM     42  C   UNL A   1      40.229  31.366  30.190  1.00  0.00     0.029 A 
ATOM     43  N   UNL A   1      42.057  30.082  30.104  1.00  0.00    -0.354 N 
ATOM     44  C   UNL A   1      41.875  26.041  28.587  1.00  0.00     0.074 A 
ATOM     45  C   UNL A   1      40.521  25.674  28.238  1.00  0.00     0.031 C 
ATOM     46  C   UNL A   1      41.249  32.087  30.682  1.00  0.00     0.029 A 
ATOM     47  C   UNL A   1      42.463  31.279  30.648  1.00  0.00     0.049 A 
ATOM     48  H   UNL A   1      42.664  29.319  29.968  1.00  0.00     0.167 HD
ATOM     49  C   UNL A   1      42.944  25.217  28.465  1.00  0.00     0.031 A 
ATOM     50  C   UNL A   1      43.677  31.684  31.067  1.00  0.00     0.031 A 
ATOM     51  C   UNL A   1      44.289  25.582  28.821  1.00  0.00     0.049 A 
ATOM     52  C   UNL A   1      44.846  30.750  30.921  1.00  0.00     0.074 A 
ATOM     53  C   UNL A   1      45.446  24.832  28.704  1.00  0.00     0.029 A 
ATOM     54  N   UNL A   1      44.660  26.803  29.367  1.00  0.00    -0.354 N 
ATOM     55  N   UNL A   1      44.871  29.528  30.442  1.00  0.00    -0.248 NA
ATOM     56  C   UNL A   1      46.155  31.258  31.351  1.00  0.00     0.031 C 
ATOM     57  C   UNL A   1      46.508  25.579  29.227  1.00  0.00     0.029 A 
ATOM     58  C   UNL A   1      46.024  26.820  29.610  1.00  0.00     0.049 A 
ATOM     59  H   UNL A   1      44.045  27.548  29.554  1.00  0.00     0.167 HD
ATOM     60  C   UNL A   1      46.202  29.128  30.497  1.00  0.00     0.074 A 
ATOM     61  C   UNL A   1      46.952  30.251  31.023  1.00  0.00     0.031 C 
ATOM     62  C   UNL A   1      46.754  27.938  30.152  1.00  0.00     0.031 A 
BRANCH  49  63
ATOM     63  C   UNL A   1      42.698  23.836  27.909  1.00  0.00    -0.014 A 
ATOM     64  C   UNL A   1      42.354  22.768  28.759  1.00  0.00     0.010 A 
ATOM     65  C   UNL A   1      42.761  23.611  26.523  1.00  0.00     0.010 A 
ATOM     66  C   UNL A   1      42.109  21.495  28.236  1.00  0.00     0.020 A 
ATOM     67  C   UNL A   1      42.487  22.346  25.992  1.00  0.00     0.020 A 
ATOM     68  C   UNL A   1      42.175  21.293  26.854  1.00  0.00     0.054 A 
BRANCH  68  69
ATOM     69  S   UNL A   1      41.815  19.639  26.203  1.00  0.00     0.124 S 
ATOM     70  O   UNL A   1      42.640  19.602  24.999  1.00  0.00    -0.237 OA
ATOM     71  O   UNL A   1      42.253  18.766  27.291  1.00  0.00    -0.237 OA
ATOM     72  O   UNL A   1      40.373  19.663  25.969  1.00  0.00    -0.744 OA
ENDBRANCH  68  69
ENDBRANCH  49  63
BRANCH  50  73
ATOM     73  C   UNL A   1      43.846  33.041  31.657  1.00  0.00    -0.014 A 
ATOM     74  C   UNL A   1      43.695  33.254  33.039  1.00  0.00     0.010 A 
ATOM     75  C   UNL A   1      44.164  34.133  30.829  1.00  0.00     0.010 A 
ATOM     76  C   UNL A   1      43.828  34.538  33.577  1.00  0.00     0.020 A 
ATOM     77  C   UNL A   1      44.332  35.411  31.367  1.00  0.00     0.020 A 
ATOM     78  C   UNL A   1      44.147  35.609  32.735  1.00  0.00     0.054 A 
BRANCH  78  79
ATOM     79  S   UNL A   1      44.353  37.260  33.458  1.00  0.00     0.124 S 
ATOM     80  O   UNL A   1      45.804  37.417  33.451  1.00  0.00    -0.237 OA
ATOM     81  O   UNL A   1      43.618  38.108  32.523  1.00  0.00    -0.237 OA
ATOM     82  O   UNL A   1      43.743  37.132  34.780  1.00  0.00    -0.744 OA
ENDBRANCH  78  79
ENDBRANCH  50  73
BRANCH  62  83
ATOM     83  C   UNL A   1      48.245  27.804  30.317  1.00  0.00    -0.014 A 
ATOM     84  C   UNL A   1      49.131  28.163  29.285  1.00  0.00     0.010 A 
ATOM     85  C   UNL A   1      48.770  27.314  31.527  1.00  0.00     0.010 A 
ATOM     86  C   UNL A   1      50.507  27.978  29.436  1.00  0.00     0.020 A 
ATOM     87  C   UNL A   1      50.148  27.160  31.696  1.00  0.00     0.020 A 
ATOM     88  C   UNL A   1      51.005  27.469  30.639  1.00  0.00     0.054 A 
BRANCH  88  89
ATOM     89  S   UNL A   1      52.796  27.232  30.810  1.00  0.00     0.124 S 
ATOM     90  O   UNL A   1      53.085  26.310  29.714  1.00  0.00    -0.237 OA
ATOM     91  O   UNL A   1      53.316  28.587  30.645  1.00  0.00    -0.237 OA
ATOM     92  O   UNL A   1      52.945  26.673  32.151  1.00  0.00    -0.744 OA
ENDBRANCH  88  89
ENDBRANCH  62  83
ENDBRANCH  36  37
ENDBRANCH  28  31
ENDBRANCH  26  27
ENDBRANCH  25  26
ENDBRANCH   1  25
TORSDOF 18
ENDMDL
