MODEL 1
REMARK VINA RESULT:     -10.4      0.000      0.000
REMARK SMILES C[C@H]1CN(c2ccc(C(=O)NCCCCNC(=O)c3ccc(-c4c5nc(c(-c6ccc(S(=O)(=O)[O-])cc6)c6ccc([nH]6)c(-c6ccc(S(=O)(=O)[O-])cc6)c6nc(c(-c7ccc(S(=O)(=O)[O-])cc7)c7ccc4[nH]7)C=C6)C=C5)cc3)cc2[N+](=O)[O-])C[C@@H]1C
REMARK SMILES IDX 14 1 13 2 12 3 11 4 9 5 10 6 8 8 5 9 6 10 80 11 7 12 79 13
REMARK SMILES IDX 4 14 1 15 2 16 3 17 85 18 84 19 86 20 81 21 82 22 83 23
REMARK SMILES IDX 15 24 16 25 17 26 18 28 19 29 20 30 78 31 21 32 77 33 22 34
REMARK SMILES IDX 23 35 24 36 71 37 25 38 76 39 70 40 72 41 26 42 75 43 69 44
REMARK SMILES IDX 68 45 27 47 57 48 38 49 56 50 39 51 42 52 55 53 73 54 40 55
REMARK SMILES IDX 41 56 54 58 74 59 43 60 28 61 29 62 37 63 30 64 36 65 31 66
REMARK SMILES IDX 32 67 33 68 34 69 35 70 58 71 59 72 67 73 60 74 66 75 61 76
REMARK SMILES IDX 62 77 63 78 64 79 65 80 44 81 45 82 53 83 46 84 52 85 47 86
REMARK SMILES IDX 48 87 49 88 50 89 51 90
REMARK H PARENT 11 7 16 27 72 46 42 57
REMARK Flexibility Score: inf
ROOT
ATOM      1  C   UNL A   1      34.319  33.900  27.953  1.00  0.00     0.023 C 
ENDROOT
BRANCH   1   2
ATOM      2  C   UNL A   1      33.086  34.696  28.384  1.00  0.00     0.023 C 
BRANCH   2   3
ATOM      3  C   UNL A   1      33.416  36.061  28.993  1.00  0.00     0.116 C 
BRANCH   3   4
ATOM      4  N   UNL A   1      32.526  36.339  30.102  1.00  0.00    -0.352 N 
ATOM      5  C   UNL A   1      32.632  36.107  31.448  1.00  0.00     0.251 C 
ATOM      6  O   UNL A   1      31.694  36.451  32.165  1.00  0.00    -0.269 OA
ATOM      7  H   UNL A   1      31.685  36.779  29.839  1.00  0.00     0.163 HD
BRANCH   5   8
ATOM      8  C   UNL A   1      33.840  35.509  32.084  1.00  0.00     0.046 A 
ATOM      9  C   UNL A   1      36.132  34.489  33.474  1.00  0.00     0.116 A 
ATOM     10  C   UNL A   1      35.192  35.324  34.101  1.00  0.00     0.034 A 
ATOM     11  C   UNL A   1      35.880  34.188  32.131  1.00  0.00     0.293 A 
ATOM     12  C   UNL A   1      34.081  35.839  33.422  1.00  0.00     0.016 A 
ATOM     13  C   UNL A   1      34.727  34.638  31.460  1.00  0.00     0.101 A 
BRANCH   9  14
ATOM     14  N   UNL A   1      37.157  33.994  34.232  1.00  0.00    -0.365 N 
ATOM     15  C   UNL A   1      40.040  32.570  34.138  1.00  0.00     0.010 C 
ATOM     16  C   UNL A   1      39.280  33.466  35.121  1.00  0.00     0.010 C 
ATOM     17  C   UNL A   1      38.491  34.567  34.383  1.00  0.00     0.120 C 
ATOM     18  C   UNL A   1      38.191  32.680  35.873  1.00  0.00     0.010 C 
ATOM     19  C   UNL A   1      37.015  32.702  34.893  1.00  0.00     0.120 C 
ATOM     20  C   UNL A   1      37.809  33.352  37.195  1.00  0.00     0.010 C 
ENDBRANCH   9  14
BRANCH  11  21
ATOM     21  N   UNL A   1      36.797  33.384  31.341  1.00  0.00     0.065 N 
ATOM     22  O   UNL A   1      37.568  34.004  30.592  1.00  0.00    -0.258 OA
ATOM     23  O   UNL A   1      36.716  32.152  31.415  1.00  0.00    -0.258 OA
ENDBRANCH  11  21
ENDBRANCH   5   8
ENDBRANCH   3   4
ENDBRANCH   2   3
ENDBRANCH   1   2
BRANCH   1  24
ATOM     24  C   UNL A   1      34.537  32.604  28.726  1.00  0.00     0.116 C 
BRANCH  24  25
ATOM     25  N   UNL A   1      33.787  31.485  28.179  1.00  0.00    -0.352 N 
ATOM     26  C   UNL A   1      34.238  30.237  27.828  1.00  0.00     0.251 C 
ATOM     27  H   UNL A   1      32.826  31.645  28.040  1.00  0.00     0.163 HD
ATOM     28  O   UNL A   1      33.489  29.459  27.251  1.00  0.00    -0.269 OA
BRANCH  26  29
ATOM     29  C   UNL A   1      35.637  29.857  28.116  1.00  0.00     0.039 A 
ATOM     30  C   UNL A   1      36.592  30.034  27.114  1.00  0.00     0.014 A 
ATOM     31  C   UNL A   1      36.008  29.339  29.360  1.00  0.00     0.014 A 
ATOM     32  C   UNL A   1      37.928  29.735  27.378  1.00  0.00     0.010 A 
ATOM     33  C   UNL A   1      37.353  29.121  29.648  1.00  0.00     0.010 A 
ATOM     34  C   UNL A   1      38.325  29.306  28.657  1.00  0.00    -0.014 A 
BRANCH  34  35
ATOM     35  C   UNL A   1      39.761  29.067  28.952  1.00  0.00     0.031 A 
ATOM     36  C   UNL A   1      40.407  27.751  28.617  1.00  0.00     0.074 A 
ATOM     37  C   UNL A   1      40.480  30.046  29.536  1.00  0.00     0.049 A 
ATOM     38  N   UNL A   1      41.664  27.403  28.725  1.00  0.00    -0.248 NA
ATOM     39  C   UNL A   1      39.531  26.679  28.118  1.00  0.00     0.031 C 
ATOM     40  C   UNL A   1      39.948  31.340  29.971  1.00  0.00     0.029 A 
ATOM     41  N   UNL A   1      41.813  30.113  29.851  1.00  0.00    -0.354 N 
ATOM     42  C   UNL A   1      41.728  26.076  28.314  1.00  0.00     0.074 A 
ATOM     43  C   UNL A   1      40.376  25.663  28.013  1.00  0.00     0.031 C 
ATOM     44  C   UNL A   1      40.954  32.092  30.444  1.00  0.00     0.029 A 
ATOM     45  C   UNL A   1      42.193  31.324  30.382  1.00  0.00     0.049 A 
ATOM     46  H   UNL A   1      42.439  29.367  29.708  1.00  0.00     0.167 HD
ATOM     47  C   UNL A   1      42.816  25.281  28.179  1.00  0.00     0.031 A 
ATOM     48  C   UNL A   1      43.404  31.772  30.764  1.00  0.00     0.031 A 
ATOM     49  C   UNL A   1      44.160  25.699  28.483  1.00  0.00     0.049 A 
ATOM     50  C   UNL A   1      44.599  30.878  30.586  1.00  0.00     0.074 A 
ATOM     51  C   UNL A   1      45.339  24.992  28.324  1.00  0.00     0.029 A 
ATOM     52  N   UNL A   1      44.505  26.933  29.017  1.00  0.00    -0.354 N 
ATOM     53  N   UNL A   1      44.653  29.655  30.111  1.00  0.00    -0.248 NA
ATOM     54  C   UNL A   1      45.902  31.434  30.972  1.00  0.00     0.031 C 
ATOM     55  C   UNL A   1      46.388  25.773  28.821  1.00  0.00     0.029 A 
ATOM     56  C   UNL A   1      45.874  26.996  29.219  1.00  0.00     0.049 A 
ATOM     57  H   UNL A   1      43.870  27.656  29.222  1.00  0.00     0.167 HD
ATOM     58  C   UNL A   1      45.998  29.307  30.116  1.00  0.00     0.074 A 
ATOM     59  C   UNL A   1      46.723  30.456  30.619  1.00  0.00     0.031 C 
ATOM     60  C   UNL A   1      46.582  28.141  29.738  1.00  0.00     0.031 A 
BRANCH  47  61
ATOM     61  C   UNL A   1      42.596  23.871  27.688  1.00  0.00    -0.014 A 
ATOM     62  C   UNL A   1      42.501  22.791  28.585  1.00  0.00     0.010 A 
ATOM     63  C   UNL A   1      42.441  23.628  26.310  1.00  0.00     0.010 A 
ATOM     64  C   UNL A   1      42.298  21.492  28.112  1.00  0.00     0.020 A 
ATOM     65  C   UNL A   1      42.207  22.334  25.836  1.00  0.00     0.020 A 
ATOM     66  C   UNL A   1      42.154  21.272  26.739  1.00  0.00     0.054 A 
BRANCH  66  67
ATOM     67  S   UNL A   1      41.867  19.577  26.156  1.00  0.00     0.124 S 
ATOM     68  O   UNL A   1      42.267  18.788  27.318  1.00  0.00    -0.237 OA
ATOM     69  O   UNL A   1      40.436  19.579  25.861  1.00  0.00    -0.237 OA
ATOM     70  O   UNL A   1      42.741  19.458  24.992  1.00  0.00    -0.744 OA
ENDBRANCH  66  67
ENDBRANCH  47  61
BRANCH  48  71
ATOM     71  C   UNL A   1      43.543  33.144  31.325  1.00  0.00    -0.014 A 
ATOM     72  C   UNL A   1      43.750  34.251  30.482  1.00  0.00     0.010 A 
ATOM     73  C   UNL A   1      43.446  33.353  32.713  1.00  0.00     0.010 A 
ATOM     74  C   UNL A   1      43.878  35.536  31.018  1.00  0.00     0.020 A 
ATOM     75  C   UNL A   1      43.541  34.640  33.250  1.00  0.00     0.020 A 
ATOM     76  C   UNL A   1      43.769  35.723  32.399  1.00  0.00     0.054 A 
BRANCH  76  77
ATOM     77  S   UNL A   1      43.883  37.405  33.067  1.00  0.00     0.124 S 
ATOM     78  O   UNL A   1      42.725  37.460  33.952  1.00  0.00    -0.237 OA
ATOM     79  O   UNL A   1      45.186  37.394  33.727  1.00  0.00    -0.237 OA
ATOM     80  O   UNL A   1      43.804  38.251  31.878  1.00  0.00    -0.744 OA
ENDBRANCH  76  77
ENDBRANCH  48  71
BRANCH  60  81
ATOM     81  C   UNL A   1      48.085  28.068  29.822  1.00  0.00    -0.014 A 
ATOM     82  C   UNL A   1      48.736  27.621  30.986  1.00  0.00     0.010 A 
ATOM     83  C   UNL A   1      48.858  28.450  28.710  1.00  0.00     0.010 A 
ATOM     84  C   UNL A   1      50.133  27.618  31.057  1.00  0.00     0.020 A 
ATOM     85  C   UNL A   1      50.253  28.413  28.764  1.00  0.00     0.020 A 
ATOM     86  C   UNL A   1      50.882  28.023  29.948  1.00  0.00     0.054 A 
BRANCH  86  87
ATOM     87  S   UNL A   1      52.690  28.019  30.067  1.00  0.00     0.124 S 
ATOM     88  O   UNL A   1      53.086  27.821  28.675  1.00  0.00    -0.237 OA
ATOM     89  O   UNL A   1      52.978  29.340  30.620  1.00  0.00    -0.237 OA
ATOM     90  O   UNL A   1      52.978  26.900  30.960  1.00  0.00    -0.744 OA
ENDBRANCH  86  87
ENDBRANCH  60  81
ENDBRANCH  34  35
ENDBRANCH  26  29
ENDBRANCH  24  25
ENDBRANCH   1  24
TORSDOF 16
ENDMDL
MODEL 2
REMARK VINA RESULT:     -10.2      5.087     11.632
REMARK SMILES C[C@H]1CN(c2ccc(C(=O)NCCCCNC(=O)c3ccc(-c4c5nc(c(-c6ccc(S(=O)(=O)[O-])cc6)c6ccc([nH]6)c(-c6ccc(S(=O)(=O)[O-])cc6)c6nc(c(-c7ccc(S(=O)(=O)[O-])cc7)c7ccc4[nH]7)C=C6)C=C5)cc3)cc2[N+](=O)[O-])C[C@@H]1C
REMARK SMILES IDX 14 1 13 2 12 3 11 4 9 5 10 6 8 8 5 9 6 10 80 11 7 12 79 13
REMARK SMILES IDX 4 14 1 15 2 16 3 17 85 18 84 19 86 20 81 21 82 22 83 23
REMARK SMILES IDX 15 24 16 25 17 26 18 28 19 29 20 30 78 31 21 32 77 33 22 34
REMARK SMILES IDX 23 35 24 36 71 37 25 38 76 39 70 40 72 41 26 42 75 43 69 44
REMARK SMILES IDX 68 45 27 47 57 48 38 49 56 50 39 51 42 52 55 53 73 54 40 55
REMARK SMILES IDX 41 56 54 58 74 59 43 60 28 61 29 62 37 63 30 64 36 65 31 66
REMARK SMILES IDX 32 67 33 68 34 69 35 70 58 71 59 72 67 73 60 74 66 75 61 76
REMARK SMILES IDX 62 77 63 78 64 79 65 80 44 81 45 82 53 83 46 84 52 85 47 86
REMARK SMILES IDX 48 87 49 88 50 89 51 90
REMARK H PARENT 11 7 16 27 72 46 42 57
REMARK Flexibility Score: inf
ROOT
ATOM      1  C   UNL A   1      39.490  22.442  26.309  1.00  0.00     0.023 C 
ENDROOT
BRANCH   1   2
ATOM      2  C   UNL A   1      38.009  22.575  25.950  1.00  0.00     0.023 C 
BRANCH   2   3
ATOM      3  C   UNL A   1      37.643  21.942  24.605  1.00  0.00     0.116 C 
BRANCH   3   4
ATOM      4  N   UNL A   1      36.563  20.991  24.781  1.00  0.00    -0.352 N 
ATOM      5  C   UNL A   1      35.212  21.151  24.939  1.00  0.00     0.251 C 
ATOM      6  O   UNL A   1      34.527  20.139  25.078  1.00  0.00    -0.269 OA
ATOM      7  H   UNL A   1      36.857  20.051  24.788  1.00  0.00     0.163 HD
BRANCH   5   8
ATOM      8  C   UNL A   1      34.534  22.477  24.899  1.00  0.00     0.046 A 
ATOM      9  C   UNL A   1      33.185  25.005  25.030  1.00  0.00     0.116 A 
ATOM     10  C   UNL A   1      33.521  24.280  26.185  1.00  0.00     0.034 A 
ATOM     11  C   UNL A   1      33.547  24.416  23.814  1.00  0.00     0.293 A 
ATOM     12  C   UNL A   1      34.163  23.038  26.126  1.00  0.00     0.016 A 
ATOM     13  C   UNL A   1      34.261  23.205  23.745  1.00  0.00     0.101 A 
BRANCH   9  14
ATOM     14  N   UNL A   1      32.604  26.232  25.189  1.00  0.00    -0.365 N 
ATOM     15  C   UNL A   1      31.647  28.900  23.668  1.00  0.00     0.010 C 
ATOM     16  C   UNL A   1      31.264  28.164  24.955  1.00  0.00     0.010 C 
ATOM     17  C   UNL A   1      31.271  26.635  24.750  1.00  0.00     0.120 C 
ATOM     18  C   UNL A   1      32.310  28.387  26.064  1.00  0.00     0.010 C 
ATOM     19  C   UNL A   1      33.378  27.338  25.742  1.00  0.00     0.120 C 
ATOM     20  C   UNL A   1      31.724  28.154  27.459  1.00  0.00     0.010 C 
ENDBRANCH   9  14
BRANCH  11  21
ATOM     21  N   UNL A   1      33.212  25.024  22.538  1.00  0.00     0.065 N 
ATOM     22  O   UNL A   1      34.039  25.826  22.076  1.00  0.00    -0.258 OA
ATOM     23  O   UNL A   1      32.118  24.758  22.026  1.00  0.00    -0.258 OA
ENDBRANCH  11  21
ENDBRANCH   5   8
ENDBRANCH   3   4
ENDBRANCH   2   3
ENDBRANCH   1   2
BRANCH   1  24
ATOM     24  C   UNL A   1      40.112  23.701  26.902  1.00  0.00     0.116 C 
BRANCH  24  25
ATOM     25  N   UNL A   1      40.879  24.465  25.931  1.00  0.00    -0.352 N 
ATOM     26  C   UNL A   1      41.342  25.754  26.022  1.00  0.00     0.251 C 
ATOM     27  H   UNL A   1      41.096  23.993  25.095  1.00  0.00     0.163 HD
ATOM     28  O   UNL A   1      41.858  26.286  25.048  1.00  0.00    -0.269 OA
BRANCH  26  29
ATOM     29  C   UNL A   1      41.180  26.501  27.288  1.00  0.00     0.039 A 
ATOM     30  C   UNL A   1      41.980  27.625  27.501  1.00  0.00     0.014 A 
ATOM     31  C   UNL A   1      40.247  26.107  28.250  1.00  0.00     0.014 A 
ATOM     32  C   UNL A   1      41.809  28.379  28.661  1.00  0.00     0.010 A 
ATOM     33  C   UNL A   1      40.020  26.908  29.366  1.00  0.00     0.010 A 
ATOM     34  C   UNL A   1      40.807  28.046  29.589  1.00  0.00    -0.014 A 
BRANCH  34  35
ATOM     35  C   UNL A   1      40.579  28.902  30.781  1.00  0.00     0.031 A 
ATOM     36  C   UNL A   1      41.429  28.748  32.013  1.00  0.00     0.074 A 
ATOM     37  C   UNL A   1      39.589  29.815  30.750  1.00  0.00     0.049 A 
ATOM     38  N   UNL A   1      41.426  29.466  33.107  1.00  0.00    -0.248 NA
ATOM     39  C   UNL A   1      42.392  27.635  32.032  1.00  0.00     0.031 C 
ATOM     40  C   UNL A   1      38.653  30.011  29.640  1.00  0.00     0.029 A 
ATOM     41  N   UNL A   1      39.213  30.762  31.670  1.00  0.00    -0.354 N 
ATOM     42  C   UNL A   1      42.376  28.891  33.942  1.00  0.00     0.074 A 
ATOM     43  C   UNL A   1      42.894  27.729  33.255  1.00  0.00     0.031 C 
ATOM     44  C   UNL A   1      37.850  31.048  29.920  1.00  0.00     0.029 A 
ATOM     45  C   UNL A   1      38.185  31.568  31.241  1.00  0.00     0.049 A 
ATOM     46  H   UNL A   1      39.640  30.855  32.552  1.00  0.00     0.167 HD
ATOM     47  C   UNL A   1      42.796  29.305  35.162  1.00  0.00     0.031 A 
ATOM     48  C   UNL A   1      37.586  32.616  31.837  1.00  0.00     0.031 A 
ATOM     49  C   UNL A   1      42.275  30.462  35.841  1.00  0.00     0.049 A 
ATOM     50  C   UNL A   1      38.083  33.069  33.182  1.00  0.00     0.074 A 
ATOM     51  C   UNL A   1      42.673  31.002  37.052  1.00  0.00     0.029 A 
ATOM     52  N   UNL A   1      41.235  31.254  35.374  1.00  0.00    -0.354 N 
ATOM     53  N   UNL A   1      39.046  32.565  33.919  1.00  0.00    -0.248 NA
ATOM     54  C   UNL A   1      37.429  34.247  33.764  1.00  0.00     0.031 C 
ATOM     55  C   UNL A   1      41.832  32.081  37.347  1.00  0.00     0.029 A 
ATOM     56  C   UNL A   1      40.960  32.261  36.286  1.00  0.00     0.049 A 
ATOM     57  H   UNL A   1      40.763  31.120  34.522  1.00  0.00     0.167 HD
ATOM     58  C   UNL A   1      39.131  33.383  35.039  1.00  0.00     0.074 A 
ATOM     59  C   UNL A   1      38.138  34.425  34.870  1.00  0.00     0.031 C 
ATOM     60  C   UNL A   1      39.956  33.282  36.112  1.00  0.00     0.031 A 
BRANCH  47  61
ATOM     61  C   UNL A   1      43.869  28.493  35.845  1.00  0.00    -0.014 A 
ATOM     62  C   UNL A   1      45.234  28.761  35.635  1.00  0.00     0.010 A 
ATOM     63  C   UNL A   1      43.505  27.471  36.742  1.00  0.00     0.010 A 
ATOM     64  C   UNL A   1      46.215  27.997  36.275  1.00  0.00     0.020 A 
ATOM     65  C   UNL A   1      44.483  26.725  37.408  1.00  0.00     0.020 A 
ATOM     66  C   UNL A   1      45.831  26.982  37.157  1.00  0.00     0.054 A 
BRANCH  66  67
ATOM     67  S   UNL A   1      47.125  26.022  37.992  1.00  0.00     0.124 S 
ATOM     68  O   UNL A   1      48.338  26.549  37.371  1.00  0.00    -0.237 OA
ATOM     69  O   UNL A   1      46.933  26.381  39.395  1.00  0.00    -0.237 OA
ATOM     70  O   UNL A   1      46.804  24.638  37.655  1.00  0.00    -0.744 OA
ENDBRANCH  66  67
ENDBRANCH  47  61
BRANCH  48  71
ATOM     71  C   UNL A   1      36.471  33.323  31.149  1.00  0.00    -0.014 A 
ATOM     72  C   UNL A   1      35.317  33.709  31.853  1.00  0.00     0.010 A 
ATOM     73  C   UNL A   1      36.572  33.636  29.780  1.00  0.00     0.010 A 
ATOM     74  C   UNL A   1      34.276  34.374  31.197  1.00  0.00     0.020 A 
ATOM     75  C   UNL A   1      35.549  34.329  29.129  1.00  0.00     0.020 A 
ATOM     76  C   UNL A   1      34.401  34.684  29.840  1.00  0.00     0.054 A 
BRANCH  76  77
ATOM     77  S   UNL A   1      33.062  35.595  29.023  1.00  0.00     0.124 S 
ATOM     78  O   UNL A   1      32.223  35.980  30.153  1.00  0.00    -0.237 OA
ATOM     79  O   UNL A   1      33.779  36.685  28.365  1.00  0.00    -0.237 OA
ATOM     80  O   UNL A   1      32.479  34.608  28.117  1.00  0.00    -0.744 OA
ENDBRANCH  76  77
ENDBRANCH  48  71
BRANCH  60  81
ATOM     81  C   UNL A   1      39.840  34.351  37.169  1.00  0.00    -0.014 A 
ATOM     82  C   UNL A   1      40.552  35.561  37.073  1.00  0.00     0.010 A 
ATOM     83  C   UNL A   1      38.996  34.140  38.274  1.00  0.00     0.010 A 
ATOM     84  C   UNL A   1      40.470  36.510  38.096  1.00  0.00     0.020 A 
ATOM     85  C   UNL A   1      38.883  35.103  39.280  1.00  0.00     0.020 A 
ATOM     86  C   UNL A   1      39.642  36.271  39.197  1.00  0.00     0.054 A 
BRANCH  86  87
ATOM     87  S   UNL A   1      39.560  37.513  40.515  1.00  0.00     0.124 S 
ATOM     88  O   UNL A   1      40.969  37.849  40.703  1.00  0.00    -0.237 OA
ATOM     89  O   UNL A   1      38.738  38.562  39.916  1.00  0.00    -0.237 OA
ATOM     90  O   UNL A   1      38.936  36.799  41.626  1.00  0.00    -0.744 OA
ENDBRANCH  86  87
ENDBRANCH  60  81
ENDBRANCH  34  35
ENDBRANCH  26  29
ENDBRANCH  24  25
ENDBRANCH   1  24
TORSDOF 16
ENDMDL
MODEL 3
REMARK VINA RESULT:     -10.2      5.009     11.387
REMARK SMILES C[C@H]1CN(c2ccc(C(=O)NCCCCNC(=O)c3ccc(-c4c5nc(c(-c6ccc(S(=O)(=O)[O-])cc6)c6ccc([nH]6)c(-c6ccc(S(=O)(=O)[O-])cc6)c6nc(c(-c7ccc(S(=O)(=O)[O-])cc7)c7ccc4[nH]7)C=C6)C=C5)cc3)cc2[N+](=O)[O-])C[C@@H]1C
REMARK SMILES IDX 14 1 13 2 12 3 11 4 9 5 10 6 8 8 5 9 6 10 80 11 7 12 79 13
REMARK SMILES IDX 4 14 1 15 2 16 3 17 85 18 84 19 86 20 81 21 82 22 83 23
REMARK SMILES IDX 15 24 16 25 17 26 18 28 19 29 20 30 78 31 21 32 77 33 22 34
REMARK SMILES IDX 23 35 24 36 71 37 25 38 76 39 70 40 72 41 26 42 75 43 69 44
REMARK SMILES IDX 68 45 27 47 57 48 38 49 56 50 39 51 42 52 55 53 73 54 40 55
REMARK SMILES IDX 41 56 54 58 74 59 43 60 28 61 29 62 37 63 30 64 36 65 31 66
REMARK SMILES IDX 32 67 33 68 34 69 35 70 58 71 59 72 67 73 60 74 66 75 61 76
REMARK SMILES IDX 62 77 63 78 64 79 65 80 44 81 45 82 53 83 46 84 52 85 47 86
REMARK SMILES IDX 48 87 49 88 50 89 51 90
REMARK H PARENT 11 7 16 27 72 46 42 57
REMARK Flexibility Score: inf
ROOT
ATOM      1  C   UNL A   1      37.777  24.051  26.174  1.00  0.00     0.023 C 
ENDROOT
BRANCH   1   2
ATOM      2  C   UNL A   1      37.896  22.565  25.831  1.00  0.00     0.023 C 
BRANCH   2   3
ATOM      3  C   UNL A   1      37.308  22.200  24.465  1.00  0.00     0.116 C 
BRANCH   3   4
ATOM      4  N   UNL A   1      36.116  21.393  24.637  1.00  0.00    -0.352 N 
ATOM      5  C   UNL A   1      34.792  21.721  24.755  1.00  0.00     0.251 C 
ATOM      6  O   UNL A   1      33.984  20.804  24.902  1.00  0.00    -0.269 OA
ATOM      7  H   UNL A   1      36.292  20.425  24.677  1.00  0.00     0.163 HD
BRANCH   5   8
ATOM      8  C   UNL A   1      34.282  23.118  24.662  1.00  0.00     0.046 A 
ATOM      9  C   UNL A   1      33.270  25.802  24.696  1.00  0.00     0.116 A 
ATOM     10  C   UNL A   1      33.603  25.117  25.876  1.00  0.00     0.034 A 
ATOM     11  C   UNL A   1      33.461  25.092  23.506  1.00  0.00     0.293 A 
ATOM     12  C   UNL A   1      34.080  23.801  25.867  1.00  0.00     0.016 A 
ATOM     13  C   UNL A   1      34.012  23.797  23.479  1.00  0.00     0.101 A 
BRANCH   9  14
ATOM     14  N   UNL A   1      32.860  27.102  24.802  1.00  0.00    -0.365 N 
ATOM     15  C   UNL A   1      32.862  29.710  26.686  1.00  0.00     0.010 C 
ATOM     16  C   UNL A   1      32.751  29.430  25.184  1.00  0.00     0.010 C 
ATOM     17  C   UNL A   1      33.701  28.294  24.753  1.00  0.00     0.120 C 
ATOM     18  C   UNL A   1      31.355  28.898  24.811  1.00  0.00     0.010 C 
ATOM     19  C   UNL A   1      31.467  27.402  25.115  1.00  0.00     0.120 C 
ATOM     20  C   UNL A   1      31.029  29.129  23.333  1.00  0.00     0.010 C 
ENDBRANCH   9  14
BRANCH  11  21
ATOM     21  N   UNL A   1      33.105  25.654  22.214  1.00  0.00     0.065 N 
ATOM     22  O   UNL A   1      32.019  25.291  21.736  1.00  0.00    -0.258 OA
ATOM     23  O   UNL A   1      33.916  26.399  21.650  1.00  0.00    -0.258 OA
ENDBRANCH  11  21
ENDBRANCH   5   8
ENDBRANCH   3   4
ENDBRANCH   2   3
ENDBRANCH   1   2
BRANCH   1  24
ATOM     24  C   UNL A   1      38.959  24.617  26.952  1.00  0.00     0.116 C 
BRANCH  24  25
ATOM     25  N   UNL A   1      39.998  25.157  26.091  1.00  0.00    -0.352 N 
ATOM     26  C   UNL A   1      40.739  26.302  26.250  1.00  0.00     0.251 C 
ATOM     27  H   UNL A   1      40.196  24.632  25.283  1.00  0.00     0.163 HD
ATOM     28  O   UNL A   1      41.481  26.677  25.351  1.00  0.00    -0.269 OA
BRANCH  26  29
ATOM     29  C   UNL A   1      40.607  27.092  27.493  1.00  0.00     0.039 A 
ATOM     30  C   UNL A   1      39.923  26.524  28.569  1.00  0.00     0.014 A 
ATOM     31  C   UNL A   1      41.155  28.372  27.602  1.00  0.00     0.014 A 
ATOM     32  C   UNL A   1      39.831  27.226  29.770  1.00  0.00     0.010 A 
ATOM     33  C   UNL A   1      41.135  29.034  28.827  1.00  0.00     0.010 A 
ATOM     34  C   UNL A   1      40.463  28.473  29.921  1.00  0.00    -0.014 A 
BRANCH  34  35
ATOM     35  C   UNL A   1      40.428  29.175  31.228  1.00  0.00     0.031 A 
ATOM     36  C   UNL A   1      41.485  28.920  32.268  1.00  0.00     0.074 A 
ATOM     37  C   UNL A   1      39.425  30.039  31.479  1.00  0.00     0.049 A 
ATOM     38  N   UNL A   1      41.656  29.507  33.425  1.00  0.00    -0.248 NA
ATOM     39  C   UNL A   1      42.463  27.857  31.987  1.00  0.00     0.031 C 
ATOM     40  C   UNL A   1      38.304  30.318  30.577  1.00  0.00     0.029 A 
ATOM     41  N   UNL A   1      39.193  30.856  32.557  1.00  0.00    -0.354 N 
ATOM     42  C   UNL A   1      42.752  28.884  34.010  1.00  0.00     0.074 A 
ATOM     43  C   UNL A   1      43.170  27.833  33.108  1.00  0.00     0.031 C 
ATOM     44  C   UNL A   1      37.536  31.278  31.115  1.00  0.00     0.029 A 
ATOM     45  C   UNL A   1      38.085  31.657  32.412  1.00  0.00     0.049 A 
ATOM     46  H   UNL A   1      39.766  30.867  33.357  1.00  0.00     0.167 HD
ATOM     47  C   UNL A   1      43.370  29.174  35.180  1.00  0.00     0.031 A 
ATOM     48  C   UNL A   1      37.574  32.602  33.224  1.00  0.00     0.031 A 
ATOM     49  C   UNL A   1      42.947  30.221  36.074  1.00  0.00     0.049 A 
ATOM     50  C   UNL A   1      38.289  32.920  34.509  1.00  0.00     0.074 A 
ATOM     51  C   UNL A   1      43.538  30.636  37.254  1.00  0.00     0.029 A 
ATOM     52  N   UNL A   1      41.822  31.012  35.891  1.00  0.00    -0.354 N 
ATOM     53  N   UNL A   1      39.379  32.380  35.003  1.00  0.00    -0.248 NA
ATOM     54  C   UNL A   1      37.718  33.992  35.332  1.00  0.00     0.031 C 
ATOM     55  C   UNL A   1      42.736  31.634  37.817  1.00  0.00     0.029 A 
ATOM     56  C   UNL A   1      41.686  31.895  36.952  1.00  0.00     0.049 A 
ATOM     57  H   UNL A   1      41.210  30.955  35.123  1.00  0.00     0.167 HD
ATOM     58  C   UNL A   1      39.639  33.067  36.182  1.00  0.00     0.074 A 
ATOM     59  C   UNL A   1      38.606  34.075  36.313  1.00  0.00     0.031 C 
ATOM     60  C   UNL A   1      40.642  32.881  37.078  1.00  0.00     0.031 A 
BRANCH  47  61
ATOM     61  C   UNL A   1      44.566  28.339  35.565  1.00  0.00    -0.014 A 
ATOM     62  C   UNL A   1      44.426  27.179  36.350  1.00  0.00     0.010 A 
ATOM     63  C   UNL A   1      45.846  28.698  35.102  1.00  0.00     0.010 A 
ATOM     64  C   UNL A   1      45.546  26.419  36.699  1.00  0.00     0.020 A 
ATOM     65  C   UNL A   1      46.964  27.922  35.423  1.00  0.00     0.020 A 
ATOM     66  C   UNL A   1      46.809  26.797  36.233  1.00  0.00     0.054 A 
BRANCH  66  67
ATOM     67  S   UNL A   1      48.241  25.777  36.682  1.00  0.00     0.124 S 
ATOM     68  O   UNL A   1      47.740  24.428  36.430  1.00  0.00    -0.237 OA
ATOM     69  O   UNL A   1      49.270  26.247  35.757  1.00  0.00    -0.237 OA
ATOM     70  O   UNL A   1      48.473  26.102  38.087  1.00  0.00    -0.744 OA
ENDBRANCH  66  67
ENDBRANCH  47  61
BRANCH  48  71
ATOM     71  C   UNL A   1      36.339  33.332  32.828  1.00  0.00    -0.014 A 
ATOM     72  C   UNL A   1      35.080  32.939  33.318  1.00  0.00     0.010 A 
ATOM     73  C   UNL A   1      36.420  34.444  31.970  1.00  0.00     0.010 A 
ATOM     74  C   UNL A   1      33.926  33.632  32.941  1.00  0.00     0.020 A 
ATOM     75  C   UNL A   1      35.273  35.159  31.617  1.00  0.00     0.020 A 
ATOM     76  C   UNL A   1      34.030  34.741  32.095  1.00  0.00     0.054 A 
BRANCH  76  77
ATOM     77  S   UNL A   1      32.525  35.657  31.664  1.00  0.00     0.124 S 
ATOM     78  O   UNL A   1      32.357  35.318  30.255  1.00  0.00    -0.237 OA
ATOM     79  O   UNL A   1      31.537  35.087  32.576  1.00  0.00    -0.237 OA
ATOM     80  O   UNL A   1      32.882  37.048  31.935  1.00  0.00    -0.744 OA
ENDBRANCH  76  77
ENDBRANCH  48  71
BRANCH  60  81
ATOM     81  C   UNL A   1      40.687  33.816  38.260  1.00  0.00    -0.014 A 
ATOM     82  C   UNL A   1      41.381  35.039  38.206  1.00  0.00     0.010 A 
ATOM     83  C   UNL A   1      40.015  33.463  39.444  1.00  0.00     0.010 A 
ATOM     84  C   UNL A   1      41.454  35.859  39.335  1.00  0.00     0.020 A 
ATOM     85  C   UNL A   1      40.055  34.298  40.564  1.00  0.00     0.020 A 
ATOM     86  C   UNL A   1      40.797  35.479  40.510  1.00  0.00     0.054 A 
BRANCH  86  87
ATOM     87  S   UNL A   1      40.915  36.554  41.964  1.00  0.00     0.124 S 
ATOM     88  O   UNL A   1      39.572  37.126  42.028  1.00  0.00    -0.237 OA
ATOM     89  O   UNL A   1      41.250  35.615  43.032  1.00  0.00    -0.237 OA
ATOM     90  O   UNL A   1      41.976  37.496  41.615  1.00  0.00    -0.744 OA
ENDBRANCH  86  87
ENDBRANCH  60  81
ENDBRANCH  34  35
ENDBRANCH  26  29
ENDBRANCH  24  25
ENDBRANCH   1  24
TORSDOF 16
ENDMDL
