MODEL 1
REMARK VINA RESULT:     -11.5      0.000      0.000
REMARK SMILES O=C(NCCCCNC(=O)c1cccnc1C(=O)Nc1ccc(Cl)cn1)c1ccc(-c2c3nc(c(-c4ccc(S(=O)(=O)[O-])cc4)c4ccc([nH]4)c(-c4ccc(S(=O)(=O)[O-])cc4)c4nc(c(-c5ccc(S(=O)(=O)[O-])cc5)c5ccc2[nH]5)C=C4)C=C3)cc1
REMARK SMILES IDX 5 1 4 2 3 3 1 4 2 5 27 7 28 8 86 9 29 10 85 11 30 12 31 13
REMARK SMILES IDX 32 14 79 15 33 16 84 17 78 18 80 19 34 20 83 21 77 22 76 23
REMARK SMILES IDX 35 25 65 26 46 27 64 28 47 29 50 30 63 31 81 32 48 33 49 34
REMARK SMILES IDX 62 36 82 37 51 38 36 39 37 40 45 41 38 42 44 43 39 44 40 45
REMARK SMILES IDX 41 46 42 47 43 48 66 49 67 50 75 51 68 52 74 53 69 54 70 55
REMARK SMILES IDX 71 56 72 57 73 58 52 59 53 60 61 61 54 62 60 63 55 64 56 65
REMARK SMILES IDX 57 66 58 67 59 68 6 69 7 70 8 71 9 72 10 74 11 75 12 76
REMARK SMILES IDX 16 77 13 78 15 79 14 80 17 81 18 82 19 83 20 85 21 86 26 87
REMARK SMILES IDX 22 88 25 89 23 90 24 91
REMARK H PARENT 3 6 80 24 50 35 8 73 19 84
REMARK Flexibility Score: inf
ROOT
ATOM      1  C   UNL A   1      33.951  27.554  25.564  1.00  0.00     0.023 C 
ENDROOT
BRANCH   1   2
ATOM      2  C   UNL A   1      33.691  27.887  27.026  1.00  0.00     0.116 C 
BRANCH   2   3
ATOM      3  N   UNL A   1      33.396  29.287  27.264  1.00  0.00    -0.352 N 
ATOM      4  O   UNL A   1      33.735  31.385  28.002  1.00  0.00    -0.269 OA
ATOM      5  C   UNL A   1      34.204  30.272  27.788  1.00  0.00     0.251 C 
ATOM      6  H   UNL A   1      32.487  29.575  27.016  1.00  0.00     0.163 HD
BRANCH   5   7
ATOM      7  C   UNL A   1      35.620  29.984  28.125  1.00  0.00     0.039 A 
ATOM      8  C   UNL A   1      36.631  30.103  27.171  1.00  0.00     0.014 A 
ATOM      9  C   UNL A   1      35.942  29.595  29.431  1.00  0.00     0.014 A 
ATOM     10  C   UNL A   1      37.925  29.690  27.475  1.00  0.00     0.010 A 
ATOM     11  C   UNL A   1      37.265  29.273  29.761  1.00  0.00     0.010 A 
ATOM     12  C   UNL A   1      38.265  29.289  28.778  1.00  0.00    -0.014 A 
BRANCH  12  13
ATOM     13  C   UNL A   1      39.687  28.978  29.089  1.00  0.00     0.031 A 
ATOM     14  C   UNL A   1      40.304  27.651  28.738  1.00  0.00     0.074 A 
ATOM     15  C   UNL A   1      40.443  29.941  29.655  1.00  0.00     0.049 A 
ATOM     16  N   UNL A   1      41.549  27.264  28.876  1.00  0.00    -0.248 NA
ATOM     17  C   UNL A   1      39.419  26.621  28.172  1.00  0.00     0.031 C 
ATOM     18  C   UNL A   1      39.953  31.261  30.069  1.00  0.00     0.029 A 
ATOM     19  N   UNL A   1      41.780  29.979  29.954  1.00  0.00    -0.354 N 
ATOM     20  C   UNL A   1      41.598  25.953  28.414  1.00  0.00     0.074 A 
ATOM     21  C   UNL A   1      40.248  25.595  28.029  1.00  0.00     0.031 C 
ATOM     22  C   UNL A   1      40.984  31.994  30.511  1.00  0.00     0.029 A 
ATOM     23  C   UNL A   1      42.194  31.184  30.470  1.00  0.00     0.049 A 
ATOM     24  H   UNL A   1      42.386  29.216  29.811  1.00  0.00     0.167 HD
ATOM     25  C   UNL A   1      42.669  25.127  28.312  1.00  0.00     0.031 A 
ATOM     26  C   UNL A   1      43.409  31.596  30.879  1.00  0.00     0.031 A 
ATOM     27  C   UNL A   1      44.009  25.482  28.709  1.00  0.00     0.049 A 
ATOM     28  C   UNL A   1      44.574  30.657  30.764  1.00  0.00     0.074 A 
ATOM     29  C   UNL A   1      45.160  24.714  28.637  1.00  0.00     0.029 A 
ATOM     30  N   UNL A   1      44.381  26.702  29.252  1.00  0.00    -0.354 N 
ATOM     31  N   UNL A   1      44.599  29.431  30.297  1.00  0.00    -0.248 NA
ATOM     32  C   UNL A   1      45.875  31.159  31.225  1.00  0.00     0.031 C 
ATOM     33  C   UNL A   1      46.217  25.454  29.176  1.00  0.00     0.029 A 
ATOM     34  C   UNL A   1      45.738  26.704  29.533  1.00  0.00     0.049 A 
ATOM     35  H   UNL A   1      43.771  27.457  29.414  1.00  0.00     0.167 HD
ATOM     36  C   UNL A   1      45.922  29.017  30.401  1.00  0.00     0.074 A 
ATOM     37  C   UNL A   1      46.669  30.136  30.941  1.00  0.00     0.031 C 
ATOM     38  C   UNL A   1      46.466  27.817  30.085  1.00  0.00     0.031 A 
BRANCH  25  39
ATOM     39  C   UNL A   1      42.439  23.747  27.750  1.00  0.00    -0.014 A 
ATOM     40  C   UNL A   1      42.581  23.494  26.375  1.00  0.00     0.010 A 
ATOM     41  C   UNL A   1      42.144  22.676  28.614  1.00  0.00     0.010 A 
ATOM     42  C   UNL A   1      42.404  22.203  25.868  1.00  0.00     0.020 A 
ATOM     43  C   UNL A   1      41.990  21.378  28.115  1.00  0.00     0.020 A 
ATOM     44  C   UNL A   1      42.109  21.152  26.742  1.00  0.00     0.054 A 
BRANCH  44  45
ATOM     45  S   UNL A   1      41.918  19.482  26.061  1.00  0.00     0.124 S 
ATOM     46  O   UNL A   1      40.476  19.412  25.836  1.00  0.00    -0.237 OA
ATOM     47  O   UNL A   1      42.740  19.531  24.854  1.00  0.00    -0.237 OA
ATOM     48  O   UNL A   1      42.424  18.613  27.121  1.00  0.00    -0.744 OA
ENDBRANCH  44  45
ENDBRANCH  25  39
BRANCH  26  49
ATOM     49  C   UNL A   1      43.571  32.957  31.456  1.00  0.00    -0.014 A 
ATOM     50  C   UNL A   1      43.565  33.163  32.846  1.00  0.00     0.010 A 
ATOM     51  C   UNL A   1      43.748  34.062  30.601  1.00  0.00     0.010 A 
ATOM     52  C   UNL A   1      43.709  34.450  33.371  1.00  0.00     0.020 A 
ATOM     53  C   UNL A   1      43.925  35.345  31.123  1.00  0.00     0.020 A 
ATOM     54  C   UNL A   1      43.887  35.533  32.505  1.00  0.00     0.054 A 
BRANCH  54  55
ATOM     55  S   UNL A   1      44.113  37.191  33.204  1.00  0.00     0.124 S 
ATOM     56  O   UNL A   1      44.420  37.981  32.017  1.00  0.00    -0.237 OA
ATOM     57  O   UNL A   1      42.817  37.455  33.824  1.00  0.00    -0.237 OA
ATOM     58  O   UNL A   1      45.219  37.016  34.145  1.00  0.00    -0.744 OA
ENDBRANCH  54  55
ENDBRANCH  26  49
BRANCH  38  59
ATOM     59  C   UNL A   1      47.948  27.663  30.306  1.00  0.00    -0.014 A 
ATOM     60  C   UNL A   1      48.872  28.017  29.305  1.00  0.00     0.010 A 
ATOM     61  C   UNL A   1      48.422  27.164  31.532  1.00  0.00     0.010 A 
ATOM     62  C   UNL A   1      50.241  27.828  29.510  1.00  0.00     0.020 A 
ATOM     63  C   UNL A   1      49.792  27.000  31.750  1.00  0.00     0.020 A 
ATOM     64  C   UNL A   1      50.692  27.314  30.730  1.00  0.00     0.054 A 
BRANCH  64  65
ATOM     65  S   UNL A   1      52.475  27.086  30.976  1.00  0.00     0.124 S 
ATOM     66  O   UNL A   1      52.511  25.940  31.880  1.00  0.00    -0.237 OA
ATOM     67  O   UNL A   1      52.957  26.833  29.620  1.00  0.00    -0.237 OA
ATOM     68  O   UNL A   1      52.908  28.354  31.558  1.00  0.00    -0.744 OA
ENDBRANCH  64  65
ENDBRANCH  38  59
ENDBRANCH  12  13
ENDBRANCH   5   7
ENDBRANCH   2   3
ENDBRANCH   1   2
BRANCH   1  69
ATOM     69  C   UNL A   1      34.270  26.102  25.217  1.00  0.00     0.023 C 
BRANCH  69  70
ATOM     70  C   UNL A   1      33.116  25.210  24.770  1.00  0.00     0.116 C 
BRANCH  70  71
ATOM     71  N   UNL A   1      33.152  24.795  23.376  1.00  0.00    -0.352 N 
ATOM     72  C   UNL A   1      33.761  23.709  22.797  1.00  0.00     0.253 C 
ATOM     73  H   UNL A   1      32.666  25.382  22.753  1.00  0.00     0.163 HD
ATOM     74  O   UNL A   1      33.430  23.328  21.682  1.00  0.00    -0.269 OA
BRANCH  72  75
ATOM     75  C   UNL A   1      34.712  22.917  23.563  1.00  0.00     0.071 A 
ATOM     76  C   UNL A   1      36.032  23.396  23.526  1.00  0.00     0.018 A 
ATOM     77  C   UNL A   1      34.419  21.775  24.304  1.00  0.00     0.141 A 
ATOM     78  C   UNL A   1      37.040  22.702  24.175  1.00  0.00     0.021 A 
ATOM     79  N   UNL A   1      35.423  21.086  24.935  1.00  0.00    -0.250 NA
ATOM     80  C   UNL A   1      36.688  21.554  24.855  1.00  0.00     0.112 A 
BRANCH  77  81
ATOM     81  C   UNL A   1      33.062  21.136  24.542  1.00  0.00     0.276 C 
ATOM     82  O   UNL A   1      32.170  21.784  25.091  1.00  0.00    -0.267 OA
ATOM     83  N   UNL A   1      32.755  19.982  23.868  1.00  0.00    -0.305 N 
ATOM     84  H   UNL A   1      32.327  20.094  22.988  1.00  0.00     0.171 HD
BRANCH  83  85
ATOM     85  C   UNL A   1      32.978  18.670  24.279  1.00  0.00     0.132 A 
ATOM     86  C   UNL A   1      33.598  17.728  23.469  1.00  0.00     0.049 A 
ATOM     87  N   UNL A   1      32.478  18.377  25.497  1.00  0.00    -0.238 NA
ATOM     88  C   UNL A   1      33.568  16.388  23.860  1.00  0.00     0.026 A 
ATOM     89  C   UNL A   1      32.433  17.064  25.837  1.00  0.00     0.134 A 
ATOM     90  C   UNL A   1      32.933  16.045  25.046  1.00  0.00     0.059 A 
ATOM     91  Cl  UNL A   1      32.754  14.399  25.493  1.00  0.00    -0.083 Cl
ENDBRANCH  83  85
ENDBRANCH  77  81
ENDBRANCH  72  75
ENDBRANCH  70  71
ENDBRANCH  69  70
ENDBRANCH   1  69
TORSDOF 16
ENDMDL
MODEL 2
REMARK VINA RESULT:     -11.3      0.723      8.235
REMARK SMILES O=C(NCCCCNC(=O)c1cccnc1C(=O)Nc1ccc(Cl)cn1)c1ccc(-c2c3nc(c(-c4ccc(S(=O)(=O)[O-])cc4)c4ccc([nH]4)c(-c4ccc(S(=O)(=O)[O-])cc4)c4nc(c(-c5ccc(S(=O)(=O)[O-])cc5)c5ccc2[nH]5)C=C4)C=C3)cc1
REMARK SMILES IDX 5 1 4 2 3 3 1 4 2 5 27 7 28 8 86 9 29 10 85 11 30 12 31 13
REMARK SMILES IDX 32 14 79 15 33 16 84 17 78 18 80 19 34 20 83 21 77 22 76 23
REMARK SMILES IDX 35 25 65 26 46 27 64 28 47 29 50 30 63 31 81 32 48 33 49 34
REMARK SMILES IDX 62 36 82 37 51 38 36 39 37 40 45 41 38 42 44 43 39 44 40 45
REMARK SMILES IDX 41 46 42 47 43 48 66 49 67 50 75 51 68 52 74 53 69 54 70 55
REMARK SMILES IDX 71 56 72 57 73 58 52 59 53 60 61 61 54 62 60 63 55 64 56 65
REMARK SMILES IDX 57 66 58 67 59 68 6 69 7 70 8 71 9 72 10 74 11 75 12 76
REMARK SMILES IDX 16 77 13 78 15 79 14 80 17 81 18 82 19 83 20 85 21 86 26 87
REMARK SMILES IDX 22 88 25 89 23 90 24 91
REMARK H PARENT 3 6 80 24 50 35 8 73 19 84
REMARK Flexibility Score: inf
ROOT
ATOM      1  C   UNL A   1      32.636  27.146  26.000  1.00  0.00     0.023 C 
ENDROOT
BRANCH   1   2
ATOM      2  C   UNL A   1      33.687  27.892  26.809  1.00  0.00     0.116 C 
BRANCH   2   3
ATOM      3  N   UNL A   1      33.326  29.263  27.116  1.00  0.00    -0.352 N 
ATOM      4  O   UNL A   1      33.560  31.331  27.970  1.00  0.00    -0.269 OA
ATOM      5  C   UNL A   1      34.081  30.251  27.706  1.00  0.00     0.251 C 
ATOM      6  H   UNL A   1      32.409  29.523  26.866  1.00  0.00     0.163 HD
BRANCH   5   7
ATOM      7  C   UNL A   1      35.503  30.007  28.054  1.00  0.00     0.039 A 
ATOM      8  C   UNL A   1      36.517  30.159  27.106  1.00  0.00     0.014 A 
ATOM      9  C   UNL A   1      35.827  29.627  29.361  1.00  0.00     0.014 A 
ATOM     10  C   UNL A   1      37.821  29.787  27.420  1.00  0.00     0.010 A 
ATOM     11  C   UNL A   1      37.157  29.346  29.701  1.00  0.00     0.010 A 
ATOM     12  C   UNL A   1      38.164  29.395  28.726  1.00  0.00    -0.014 A 
BRANCH  12  13
ATOM     13  C   UNL A   1      39.593  29.128  29.047  1.00  0.00     0.031 A 
ATOM     14  C   UNL A   1      40.445  30.135  29.771  1.00  0.00     0.074 A 
ATOM     15  C   UNL A   1      40.107  27.926  28.716  1.00  0.00     0.049 A 
ATOM     16  N   UNL A   1      41.681  30.012  30.188  1.00  0.00    -0.248 NA
ATOM     17  C   UNL A   1      39.845  31.447  30.058  1.00  0.00     0.031 C 
ATOM     18  C   UNL A   1      39.390  26.874  27.986  1.00  0.00     0.029 A 
ATOM     19  N   UNL A   1      41.334  27.369  28.972  1.00  0.00    -0.354 N 
ATOM     20  C   UNL A   1      42.008  31.226  30.785  1.00  0.00     0.074 A 
ATOM     21  C   UNL A   1      40.852  32.086  30.641  1.00  0.00     0.031 C 
ATOM     22  C   UNL A   1      40.167  25.785  27.906  1.00  0.00     0.029 A 
ATOM     23  C   UNL A   1      41.455  26.076  28.522  1.00  0.00     0.049 A 
ATOM     24  H   UNL A   1      42.058  27.850  29.435  1.00  0.00     0.167 HD
ATOM     25  C   UNL A   1      43.160  31.585  31.404  1.00  0.00     0.031 A 
ATOM     26  C   UNL A   1      42.489  25.215  28.584  1.00  0.00     0.031 A 
ATOM     27  C   UNL A   1      44.314  30.731  31.533  1.00  0.00     0.049 A 
ATOM     28  C   UNL A   1      43.755  25.644  29.265  1.00  0.00     0.074 A 
ATOM     29  C   UNL A   1      45.524  31.006  32.150  1.00  0.00     0.029 A 
ATOM     30  N   UNL A   1      44.406  29.438  31.041  1.00  0.00    -0.354 N 
ATOM     31  N   UNL A   1      44.028  26.788  29.848  1.00  0.00    -0.248 NA
ATOM     32  C   UNL A   1      44.849  24.666  29.304  1.00  0.00     0.031 C 
ATOM     33  C   UNL A   1      46.361  29.896  31.991  1.00  0.00     0.029 A 
ATOM     34  C   UNL A   1      45.654  28.908  31.325  1.00  0.00     0.049 A 
ATOM     35  H   UNL A   1      43.689  28.965  30.560  1.00  0.00     0.167 HD
ATOM     36  C   UNL A   1      45.326  26.663  30.330  1.00  0.00     0.074 A 
ATOM     37  C   UNL A   1      45.766  25.322  30.002  1.00  0.00     0.031 C 
ATOM     38  C   UNL A   1      46.086  27.579  30.979  1.00  0.00     0.031 A 
BRANCH  25  39
ATOM     39  C   UNL A   1      43.236  32.973  31.989  1.00  0.00    -0.014 A 
ATOM     40  C   UNL A   1      42.878  33.214  33.327  1.00  0.00     0.010 A 
ATOM     41  C   UNL A   1      43.737  34.036  31.215  1.00  0.00     0.010 A 
ATOM     42  C   UNL A   1      42.990  34.496  33.873  1.00  0.00     0.020 A 
ATOM     43  C   UNL A   1      43.875  35.316  31.765  1.00  0.00     0.020 A 
ATOM     44  C   UNL A   1      43.487  35.540  33.088  1.00  0.00     0.054 A 
BRANCH  44  45
ATOM     45  S   UNL A   1      43.653  37.186  33.832  1.00  0.00     0.124 S 
ATOM     46  O   UNL A   1      42.443  37.270  34.648  1.00  0.00    -0.237 OA
ATOM     47  O   UNL A   1      44.905  37.077  34.576  1.00  0.00    -0.237 OA
ATOM     48  O   UNL A   1      43.691  38.086  32.683  1.00  0.00    -0.744 OA
ENDBRANCH  44  45
ENDBRANCH  25  39
BRANCH  26  49
ATOM     49  C   UNL A   1      42.368  23.870  27.960  1.00  0.00    -0.014 A 
ATOM     50  C   UNL A   1      42.599  23.684  26.586  1.00  0.00     0.010 A 
ATOM     51  C   UNL A   1      42.030  22.758  28.755  1.00  0.00     0.010 A 
ATOM     52  C   UNL A   1      42.471  22.414  26.015  1.00  0.00     0.020 A 
ATOM     53  C   UNL A   1      41.934  21.484  28.194  1.00  0.00     0.020 A 
ATOM     54  C   UNL A   1      42.139  21.323  26.823  1.00  0.00     0.054 A 
BRANCH  54  55
ATOM     55  S   UNL A   1      42.018  19.677  26.071  1.00  0.00     0.124 S 
ATOM     56  O   UNL A   1      42.962  19.780  24.964  1.00  0.00    -0.237 OA
ATOM     57  O   UNL A   1      42.418  18.797  27.166  1.00  0.00    -0.237 OA
ATOM     58  O   UNL A   1      40.610  19.579  25.690  1.00  0.00    -0.744 OA
ENDBRANCH  54  55
ENDBRANCH  26  49
BRANCH  38  59
ATOM     59  C   UNL A   1      47.470  27.148  31.386  1.00  0.00    -0.014 A 
ATOM     60  C   UNL A   1      48.570  27.336  30.530  1.00  0.00     0.010 A 
ATOM     61  C   UNL A   1      47.673  26.554  32.644  1.00  0.00     0.010 A 
ATOM     62  C   UNL A   1      49.841  26.892  30.906  1.00  0.00     0.020 A 
ATOM     63  C   UNL A   1      48.947  26.134  33.035  1.00  0.00     0.020 A 
ATOM     64  C   UNL A   1      50.020  26.287  32.154  1.00  0.00     0.054 A 
BRANCH  64  65
ATOM     65  S   UNL A   1      51.680  25.727  32.624  1.00  0.00     0.124 S 
ATOM     66  O   UNL A   1      51.695  25.995  34.059  1.00  0.00    -0.237 OA
ATOM     67  O   UNL A   1      51.662  24.316  32.247  1.00  0.00    -0.237 OA
ATOM     68  O   UNL A   1      52.567  26.568  31.824  1.00  0.00    -0.744 OA
ENDBRANCH  64  65
ENDBRANCH  38  59
ENDBRANCH  12  13
ENDBRANCH   5   7
ENDBRANCH   2   3
ENDBRANCH   1   2
BRANCH   1  69
ATOM     69  C   UNL A   1      33.089  26.467  24.710  1.00  0.00     0.023 C 
BRANCH  69  70
ATOM     70  C   UNL A   1      32.531  25.080  24.404  1.00  0.00     0.116 C 
BRANCH  70  71
ATOM     71  N   UNL A   1      32.771  24.596  23.053  1.00  0.00    -0.352 N 
ATOM     72  C   UNL A   1      33.544  23.548  22.618  1.00  0.00     0.253 C 
ATOM     73  H   UNL A   1      32.308  25.096  22.342  1.00  0.00     0.163 HD
ATOM     74  O   UNL A   1      33.384  23.075  21.501  1.00  0.00    -0.269 OA
BRANCH  72  75
ATOM     75  C   UNL A   1      34.469  22.900  23.536  1.00  0.00     0.071 A 
ATOM     76  C   UNL A   1      35.750  23.475  23.573  1.00  0.00     0.018 A 
ATOM     77  C   UNL A   1      34.186  21.806  24.348  1.00  0.00     0.141 A 
ATOM     78  C   UNL A   1      36.737  22.918  24.371  1.00  0.00     0.021 A 
ATOM     79  N   UNL A   1      35.170  21.253  25.128  1.00  0.00    -0.250 NA
ATOM     80  C   UNL A   1      36.401  21.808  25.119  1.00  0.00     0.112 A 
BRANCH  77  81
ATOM     81  C   UNL A   1      32.860  21.086  24.521  1.00  0.00     0.276 C 
ATOM     82  O   UNL A   1      31.904  21.679  25.024  1.00  0.00    -0.267 OA
ATOM     83  N   UNL A   1      32.656  19.916  23.836  1.00  0.00    -0.305 N 
ATOM     84  H   UNL A   1      32.266  20.002  22.935  1.00  0.00     0.171 HD
BRANCH  83  85
ATOM     85  C   UNL A   1      32.937  18.620  24.260  1.00  0.00     0.132 A 
ATOM     86  C   UNL A   1      33.683  17.728  23.499  1.00  0.00     0.049 A 
ATOM     87  N   UNL A   1      32.366  18.284  25.435  1.00  0.00    -0.238 NA
ATOM     88  C   UNL A   1      33.715  16.387  23.885  1.00  0.00     0.026 A 
ATOM     89  C   UNL A   1      32.386  16.969  25.768  1.00  0.00     0.134 A 
ATOM     90  C   UNL A   1      33.016  15.992  25.017  1.00  0.00     0.059 A 
ATOM     91  Cl  UNL A   1      32.917  14.335  25.445  1.00  0.00    -0.083 Cl
ENDBRANCH  83  85
ENDBRANCH  77  81
ENDBRANCH  72  75
ENDBRANCH  70  71
ENDBRANCH  69  70
ENDBRANCH   1  69
TORSDOF 16
ENDMDL
MODEL 3
REMARK VINA RESULT:     -11.1      3.074      7.678
REMARK SMILES O=C(NCCCCNC(=O)c1cccnc1C(=O)Nc1ccc(Cl)cn1)c1ccc(-c2c3nc(c(-c4ccc(S(=O)(=O)[O-])cc4)c4ccc([nH]4)c(-c4ccc(S(=O)(=O)[O-])cc4)c4nc(c(-c5ccc(S(=O)(=O)[O-])cc5)c5ccc2[nH]5)C=C4)C=C3)cc1
REMARK SMILES IDX 5 1 4 2 3 3 1 4 2 5 27 7 28 8 86 9 29 10 85 11 30 12 31 13
REMARK SMILES IDX 32 14 79 15 33 16 84 17 78 18 80 19 34 20 83 21 77 22 76 23
REMARK SMILES IDX 35 25 65 26 46 27 64 28 47 29 50 30 63 31 81 32 48 33 49 34
REMARK SMILES IDX 62 36 82 37 51 38 36 39 37 40 45 41 38 42 44 43 39 44 40 45
REMARK SMILES IDX 41 46 42 47 43 48 66 49 67 50 75 51 68 52 74 53 69 54 70 55
REMARK SMILES IDX 71 56 72 57 73 58 52 59 53 60 61 61 54 62 60 63 55 64 56 65
REMARK SMILES IDX 57 66 58 67 59 68 6 69 7 70 8 71 9 72 10 74 11 75 12 76
REMARK SMILES IDX 16 77 13 78 15 79 14 80 17 81 18 82 19 83 20 85 21 86 26 87
REMARK SMILES IDX 22 88 25 89 23 90 24 91
REMARK H PARENT 3 6 80 24 50 35 8 73 19 84
REMARK Flexibility Score: inf
ROOT
ATOM      1  C   UNL A   1      38.243  20.277  25.089  1.00  0.00     0.023 C 
ENDROOT
BRANCH   1   2
ATOM      2  C   UNL A   1      39.394  20.513  26.056  1.00  0.00     0.116 C 
BRANCH   2   3
ATOM      3  N   UNL A   1      40.442  19.512  25.976  1.00  0.00    -0.352 N 
ATOM      4  O   UNL A   1      42.540  18.704  25.901  1.00  0.00    -0.269 OA
ATOM      5  C   UNL A   1      41.805  19.666  26.097  1.00  0.00     0.251 C 
ATOM      6  H   UNL A   1      40.133  18.592  25.810  1.00  0.00     0.163 HD
BRANCH   5   7
ATOM      7  C   UNL A   1      42.387  20.990  26.428  1.00  0.00     0.039 A 
ATOM      8  C   UNL A   1      42.684  21.343  27.746  1.00  0.00     0.014 A 
ATOM      9  C   UNL A   1      42.649  21.895  25.393  1.00  0.00     0.014 A 
ATOM     10  C   UNL A   1      43.095  22.639  28.042  1.00  0.00     0.010 A 
ATOM     11  C   UNL A   1      43.155  23.168  25.685  1.00  0.00     0.010 A 
ATOM     12  C   UNL A   1      43.356  23.564  27.016  1.00  0.00    -0.014 A 
BRANCH  12  13
ATOM     13  C   UNL A   1      43.914  24.897  27.372  1.00  0.00     0.031 A 
ATOM     14  C   UNL A   1      45.371  25.223  27.183  1.00  0.00     0.074 A 
ATOM     15  C   UNL A   1      43.067  25.843  27.828  1.00  0.00     0.049 A 
ATOM     16  N   UNL A   1      45.986  26.364  27.374  1.00  0.00    -0.248 NA
ATOM     17  C   UNL A   1      46.255  24.137  26.733  1.00  0.00     0.031 C 
ATOM     18  C   UNL A   1      41.636  25.641  28.082  1.00  0.00     0.029 A 
ATOM     19  N   UNL A   1      43.271  27.164  28.131  1.00  0.00    -0.354 N 
ATOM     20  C   UNL A   1      47.324  26.137  27.069  1.00  0.00     0.074 A 
ATOM     21  C   UNL A   1      47.439  24.737  26.717  1.00  0.00     0.031 C 
ATOM     22  C   UNL A   1      41.084  26.806  28.444  1.00  0.00     0.029 A 
ATOM     23  C   UNL A   1      42.125  27.824  28.507  1.00  0.00     0.049 A 
ATOM     24  H   UNL A   1      44.153  27.599  28.083  1.00  0.00     0.167 HD
ATOM     25  C   UNL A   1      48.358  27.015  27.071  1.00  0.00     0.031 A 
ATOM     26  C   UNL A   1      41.927  29.104  28.875  1.00  0.00     0.031 A 
ATOM     27  C   UNL A   1      48.242  28.405  27.435  1.00  0.00     0.049 A 
ATOM     28  C   UNL A   1      43.091  30.050  28.879  1.00  0.00     0.074 A 
ATOM     29  C   UNL A   1      49.233  29.373  27.461  1.00  0.00     0.029 A 
ATOM     30  N   UNL A   1      47.070  29.028  27.835  1.00  0.00    -0.354 N 
ATOM     31  N   UNL A   1      44.342  29.816  28.558  1.00  0.00    -0.248 NA
ATOM     32  C   UNL A   1      42.817  31.434  29.288  1.00  0.00     0.031 C 
ATOM     33  C   UNL A   1      48.668  30.568  27.919  1.00  0.00     0.029 A 
ATOM     34  C   UNL A   1      47.314  30.361  28.124  1.00  0.00     0.049 A 
ATOM     35  H   UNL A   1      46.192  28.588  27.903  1.00  0.00     0.167 HD
ATOM     36  C   UNL A   1      45.003  31.028  28.719  1.00  0.00     0.074 A 
ATOM     37  C   UNL A   1      44.007  31.997  29.131  1.00  0.00     0.031 C 
ATOM     38  C   UNL A   1      46.318  31.310  28.549  1.00  0.00     0.031 A 
BRANCH  25  39
ATOM     39  C   UNL A   1      49.717  26.498  26.672  1.00  0.00    -0.014 A 
ATOM     40  C   UNL A   1      50.603  25.977  27.631  1.00  0.00     0.010 A 
ATOM     41  C   UNL A   1      50.087  26.467  25.314  1.00  0.00     0.010 A 
ATOM     42  C   UNL A   1      51.845  25.464  27.247  1.00  0.00     0.020 A 
ATOM     43  C   UNL A   1      51.318  25.931  24.922  1.00  0.00     0.020 A 
ATOM     44  C   UNL A   1      52.196  25.444  25.894  1.00  0.00     0.054 A 
BRANCH  44  45
ATOM     45  S   UNL A   1      53.799  24.741  25.420  1.00  0.00     0.124 S 
ATOM     46  O   UNL A   1      53.427  23.388  25.015  1.00  0.00    -0.237 OA
ATOM     47  O   UNL A   1      54.231  25.624  24.340  1.00  0.00    -0.237 OA
ATOM     48  O   UNL A   1      54.592  24.827  26.644  1.00  0.00    -0.744 OA
ENDBRANCH  44  45
ENDBRANCH  25  39
BRANCH  26  49
ATOM     49  C   UNL A   1      40.570  29.551  29.290  1.00  0.00    -0.014 A 
ATOM     50  C   UNL A   1      39.586  29.865  28.337  1.00  0.00     0.010 A 
ATOM     51  C   UNL A   1      40.254  29.650  30.659  1.00  0.00     0.010 A 
ATOM     52  C   UNL A   1      38.319  30.292  28.745  1.00  0.00     0.020 A 
ATOM     53  C   UNL A   1      38.980  30.045  31.069  1.00  0.00     0.020 A 
ATOM     54  C   UNL A   1      38.025  30.380  30.109  1.00  0.00     0.054 A 
BRANCH  54  55
ATOM     55  S   UNL A   1      36.363  30.897  30.620  1.00  0.00     0.124 S 
ATOM     56  O   UNL A   1      35.614  30.780  29.374  1.00  0.00    -0.237 OA
ATOM     57  O   UNL A   1      36.030  29.921  31.655  1.00  0.00    -0.237 OA
ATOM     58  O   UNL A   1      36.565  32.261  31.105  1.00  0.00    -0.744 OA
ENDBRANCH  54  55
ENDBRANCH  26  49
BRANCH  38  59
ATOM     59  C   UNL A   1      46.746  32.732  28.798  1.00  0.00    -0.014 A 
ATOM     60  C   UNL A   1      47.166  33.152  30.074  1.00  0.00     0.010 A 
ATOM     61  C   UNL A   1      46.735  33.659  27.741  1.00  0.00     0.010 A 
ATOM     62  C   UNL A   1      47.520  34.485  30.298  1.00  0.00     0.020 A 
ATOM     63  C   UNL A   1      47.115  34.986  27.954  1.00  0.00     0.020 A 
ATOM     64  C   UNL A   1      47.485  35.396  29.237  1.00  0.00     0.054 A 
BRANCH  64  65
ATOM     65  S   UNL A   1      47.957  37.119  29.549  1.00  0.00     0.124 S 
ATOM     66  O   UNL A   1      47.712  37.740  28.251  1.00  0.00    -0.237 OA
ATOM     67  O   UNL A   1      47.043  37.514  30.618  1.00  0.00    -0.237 OA
ATOM     68  O   UNL A   1      49.362  37.026  29.941  1.00  0.00    -0.744 OA
ENDBRANCH  64  65
ENDBRANCH  38  59
ENDBRANCH  12  13
ENDBRANCH   5   7
ENDBRANCH   2   3
ENDBRANCH   1   2
BRANCH   1  69
ATOM     69  C   UNL A   1      37.249  21.417  24.883  1.00  0.00     0.023 C 
BRANCH  69  70
ATOM     70  C   UNL A   1      35.770  21.119  25.115  1.00  0.00     0.116 C 
BRANCH  70  71
ATOM     71  N   UNL A   1      35.288  21.371  26.464  1.00  0.00    -0.352 N 
ATOM     72  C   UNL A   1      34.354  22.273  26.911  1.00  0.00     0.253 C 
ATOM     73  H   UNL A   1      35.694  20.809  27.164  1.00  0.00     0.163 HD
ATOM     74  O   UNL A   1      33.830  22.139  28.008  1.00  0.00    -0.269 OA
BRANCH  72  75
ATOM     75  C   UNL A   1      33.876  23.322  26.022  1.00  0.00     0.071 A 
ATOM     76  C   UNL A   1      34.778  24.383  25.837  1.00  0.00     0.018 A 
ATOM     77  C   UNL A   1      32.650  23.344  25.365  1.00  0.00     0.141 A 
ATOM     78  C   UNL A   1      34.421  25.468  25.053  1.00  0.00     0.021 A 
ATOM     79  N   UNL A   1      32.297  24.425  24.598  1.00  0.00    -0.250 NA
ATOM     80  C   UNL A   1      33.173  25.446  24.464  1.00  0.00     0.112 A 
BRANCH  77  81
ATOM     81  C   UNL A   1      31.570  22.276  25.361  1.00  0.00     0.276 C 
ATOM     82  O   UNL A   1      30.560  22.427  26.051  1.00  0.00    -0.267 OA
ATOM     83  N   UNL A   1      31.585  21.334  24.365  1.00  0.00    -0.305 N 
ATOM     84  H   UNL A   1      31.087  21.560  23.546  1.00  0.00     0.171 HD
BRANCH  83  85
ATOM     85  C   UNL A   1      32.221  20.095  24.374  1.00  0.00     0.132 A 
ATOM     86  C   UNL A   1      32.479  19.379  23.212  1.00  0.00     0.049 A 
ATOM     87  N   UNL A   1      32.499  19.622  25.606  1.00  0.00    -0.238 NA
ATOM     88  C   UNL A   1      32.900  18.052  23.325  1.00  0.00     0.026 A 
ATOM     89  C   UNL A   1      32.876  18.321  25.687  1.00  0.00     0.134 A 
ATOM     90  C   UNL A   1      33.058  17.500  24.589  1.00  0.00     0.059 A 
ATOM     91  Cl  UNL A   1      33.439  15.838  24.770  1.00  0.00    -0.083 Cl
ENDBRANCH  83  85
ENDBRANCH  77  81
ENDBRANCH  72  75
ENDBRANCH  70  71
ENDBRANCH  69  70
ENDBRANCH   1  69
TORSDOF 16
ENDMDL
