MODEL 1
REMARK VINA RESULT:     -10.4      0.000      0.000
REMARK SMILES CNC(=O)c1ccc(N(CCC(=O)NCCCCNC(=O)c2ccc(-c3c4nc(c(-c5ccc(S(=O)(=O)[O-])cc5)c5ccc([nH]5)c(-c5ccc(S(=O)(=O)[O-])cc5)c5nc(c(-c6ccc(S(=O)(=O)[O-])cc6)c6ccc3[nH]6)C=C5)C=C4)cc2)C2CC2)nn1
REMARK SMILES IDX 16 1 15 2 14 3 12 4 13 5 11 7 10 8 9 9 8 10 5 11 6 12 86 13
REMARK SMILES IDX 7 14 85 15 3 16 1 17 2 18 4 20 82 21 83 22 84 23 17 24 18 25
REMARK SMILES IDX 19 26 20 27 21 29 22 30 23 31 81 32 24 33 80 34 25 35 26 36
REMARK SMILES IDX 27 37 74 38 28 39 79 40 73 41 75 42 29 43 78 44 72 45 71 46
REMARK SMILES IDX 30 48 60 49 41 50 59 51 42 52 45 53 58 54 76 55 43 56 44 57
REMARK SMILES IDX 57 59 77 60 46 61 31 62 32 63 40 64 33 65 39 66 34 67 35 68
REMARK SMILES IDX 36 69 37 70 38 71 61 72 62 73 70 74 63 75 69 76 64 77 65 78
REMARK SMILES IDX 66 79 67 80 68 81 47 82 48 83 56 84 49 85 55 86 50 87 51 88
REMARK SMILES IDX 52 89 53 90 54 91
REMARK H PARENT 14 6 2 19 19 28 75 47 45 58
REMARK Flexibility Score: inf
ROOT
ATOM      1  C   UNL A   1      33.778  28.215  24.086  1.00  0.00     0.023 C 
ENDROOT
BRANCH   1   2
ATOM      2  C   UNL A   1      32.767  28.171  22.948  1.00  0.00     0.116 C 
BRANCH   2   3
ATOM      3  N   UNL A   1      33.155  27.281  21.872  1.00  0.00    -0.356 N 
ATOM      4  C   UNL A   1      32.798  25.986  21.634  1.00  0.00     0.221 C 
ATOM      5  O   UNL A   1      33.290  25.416  20.657  1.00  0.00    -0.275 OA
ATOM      6  H   UNL A   1      33.772  27.671  21.211  1.00  0.00     0.163 HD
BRANCH   4   7
ATOM      7  C   UNL A   1      31.826  25.260  22.537  1.00  0.00     0.121 C 
BRANCH   7   8
ATOM      8  C   UNL A   1      32.183  23.785  22.691  1.00  0.00     0.128 C 
BRANCH   8   9
ATOM      9  N   UNL A   1      32.637  23.439  24.058  1.00  0.00    -0.352 N 
BRANCH   9  10
ATOM     10  C   UNL A   1      33.864  22.735  24.116  1.00  0.00     0.151 A 
ATOM     11  C   UNL A   1      36.338  21.560  24.672  1.00  0.00     0.150 A 
ATOM     12  C   UNL A   1      36.283  22.622  23.790  1.00  0.00     0.040 A 
ATOM     13  N   UNL A   1      35.214  21.068  25.219  1.00  0.00    -0.143 NA
ATOM     14  C   UNL A   1      35.022  23.169  23.468  1.00  0.00     0.051 A 
ATOM     15  N   UNL A   1      33.995  21.690  24.966  1.00  0.00    -0.132 NA
BRANCH  11  16
ATOM     16  C   UNL A   1      37.589  20.819  24.991  1.00  0.00     0.271 C 
ATOM     17  C   UNL A   1      38.767  22.734  26.208  1.00  0.00     0.143 C 
ATOM     18  N   UNL A   1      38.662  21.430  25.599  1.00  0.00    -0.354 N 
ATOM     19  H   UNL A   1      39.487  20.894  25.622  1.00  0.00     0.163 HD
ATOM     20  O   UNL A   1      37.683  19.627  24.705  1.00  0.00    -0.267 OA
ENDBRANCH  11  16
ENDBRANCH   9  10
BRANCH   9  21
ATOM     21  C   UNL A   1      32.036  24.278  25.120  1.00  0.00     0.084 C 
ATOM     22  C   UNL A   1      30.953  23.642  25.980  1.00  0.00     0.027 C 
ATOM     23  C   UNL A   1      32.170  24.229  26.614  1.00  0.00     0.027 C 
ENDBRANCH   9  21
ENDBRANCH   8   9
ENDBRANCH   7   8
ENDBRANCH   4   7
ENDBRANCH   2   3
ENDBRANCH   1   2
BRANCH   1  24
ATOM     24  C   UNL A   1      33.399  27.608  25.427  1.00  0.00     0.023 C 
BRANCH  24  25
ATOM     25  C   UNL A   1      34.167  28.174  26.592  1.00  0.00     0.116 C 
BRANCH  25  26
ATOM     26  N   UNL A   1      33.755  29.536  26.903  1.00  0.00    -0.352 N 
ATOM     27  C   UNL A   1      34.393  30.449  27.711  1.00  0.00     0.251 C 
ATOM     28  H   UNL A   1      32.919  29.841  26.484  1.00  0.00     0.163 HD
ATOM     29  O   UNL A   1      33.825  31.472  28.063  1.00  0.00    -0.269 OA
BRANCH  27  30
ATOM     30  C   UNL A   1      35.769  30.142  28.150  1.00  0.00     0.039 A 
ATOM     31  C   UNL A   1      35.990  29.618  29.423  1.00  0.00     0.014 A 
ATOM     32  C   UNL A   1      36.827  30.309  27.251  1.00  0.00     0.014 A 
ATOM     33  C   UNL A   1      37.280  29.219  29.776  1.00  0.00     0.010 A 
ATOM     34  C   UNL A   1      38.072  29.788  27.556  1.00  0.00     0.010 A 
ATOM     35  C   UNL A   1      38.322  29.282  28.836  1.00  0.00    -0.014 A 
BRANCH  35  36
ATOM     36  C   UNL A   1      39.711  28.909  29.189  1.00  0.00     0.031 A 
ATOM     37  C   UNL A   1      40.572  29.910  29.914  1.00  0.00     0.074 A 
ATOM     38  C   UNL A   1      40.205  27.714  28.814  1.00  0.00     0.049 A 
ATOM     39  N   UNL A   1      41.823  29.812  30.277  1.00  0.00    -0.248 NA
ATOM     40  C   UNL A   1      39.958  31.212  30.238  1.00  0.00     0.031 C 
ATOM     41  C   UNL A   1      39.478  26.691  28.057  1.00  0.00     0.029 A 
ATOM     42  N   UNL A   1      41.440  27.157  29.022  1.00  0.00    -0.354 N 
ATOM     43  C   UNL A   1      42.144  31.038  30.848  1.00  0.00     0.074 A 
ATOM     44  C   UNL A   1      40.988  31.891  30.713  1.00  0.00     0.031 C 
ATOM     45  C   UNL A   1      40.267  25.615  27.902  1.00  0.00     0.029 A 
ATOM     46  C   UNL A   1      41.564  25.884  28.513  1.00  0.00     0.049 A 
ATOM     47  H   UNL A   1      42.169  27.622  29.491  1.00  0.00     0.167 HD
ATOM     48  C   UNL A   1      43.290  31.411  31.464  1.00  0.00     0.031 A 
ATOM     49  C   UNL A   1      42.608  25.035  28.544  1.00  0.00     0.031 A 
ATOM     50  C   UNL A   1      44.422  30.543  31.620  1.00  0.00     0.049 A 
ATOM     51  C   UNL A   1      43.868  25.466  29.244  1.00  0.00     0.074 A 
ATOM     52  C   UNL A   1      45.610  30.788  32.281  1.00  0.00     0.029 A 
ATOM     53  N   UNL A   1      44.502  29.256  31.107  1.00  0.00    -0.354 N 
ATOM     54  N   UNL A   1      44.128  26.603  29.848  1.00  0.00    -0.248 NA
ATOM     55  C   UNL A   1      44.971  24.497  29.281  1.00  0.00     0.031 C 
ATOM     56  C   UNL A   1      46.432  29.669  32.123  1.00  0.00     0.029 A 
ATOM     57  C   UNL A   1      45.731  28.703  31.416  1.00  0.00     0.049 A 
ATOM     58  H   UNL A   1      43.789  28.805  30.599  1.00  0.00     0.167 HD
ATOM     59  C   UNL A   1      45.415  26.475  30.357  1.00  0.00     0.074 A 
ATOM     60  C   UNL A   1      45.872  25.145  30.008  1.00  0.00     0.031 C 
ATOM     61  C   UNL A   1      46.156  27.375  31.051  1.00  0.00     0.031 A 
BRANCH  48  62
ATOM     62  C   UNL A   1      43.359  32.811  32.014  1.00  0.00    -0.014 A 
ATOM     63  C   UNL A   1      43.009  33.088  33.349  1.00  0.00     0.010 A 
ATOM     64  C   UNL A   1      43.799  33.864  31.192  1.00  0.00     0.010 A 
ATOM     65  C   UNL A   1      43.053  34.397  33.837  1.00  0.00     0.020 A 
ATOM     66  C   UNL A   1      43.876  35.169  31.686  1.00  0.00     0.020 A 
ATOM     67  C   UNL A   1      43.486  35.430  33.002  1.00  0.00     0.054 A 
BRANCH  67  68
ATOM     68  S   UNL A   1      43.558  37.113  33.671  1.00  0.00     0.124 S 
ATOM     69  O   UNL A   1      44.660  37.010  34.625  1.00  0.00    -0.237 OA
ATOM     70  O   UNL A   1      43.829  37.917  32.483  1.00  0.00    -0.237 OA
ATOM     71  O   UNL A   1      42.237  37.307  34.264  1.00  0.00    -0.744 OA
ENDBRANCH  67  68
ENDBRANCH  48  62
BRANCH  49  72
ATOM     72  C   UNL A   1      42.493  23.688  27.920  1.00  0.00    -0.014 A 
ATOM     73  C   UNL A   1      42.975  23.459  26.618  1.00  0.00     0.010 A 
ATOM     74  C   UNL A   1      41.916  22.620  28.631  1.00  0.00     0.010 A 
ATOM     75  C   UNL A   1      42.863  22.194  26.032  1.00  0.00     0.020 A 
ATOM     76  C   UNL A   1      41.830  21.347  28.060  1.00  0.00     0.020 A 
ATOM     77  C   UNL A   1      42.293  21.145  26.758  1.00  0.00     0.054 A 
BRANCH  77  78
ATOM     78  S   UNL A   1      42.205  19.500  25.997  1.00  0.00     0.124 S 
ATOM     79  O   UNL A   1      40.779  19.375  25.709  1.00  0.00    -0.237 OA
ATOM     80  O   UNL A   1      43.076  19.644  24.834  1.00  0.00    -0.237 OA
ATOM     81  O   UNL A   1      42.713  18.612  27.040  1.00  0.00    -0.744 OA
ENDBRANCH  77  78
ENDBRANCH  49  72
BRANCH  61  82
ATOM     82  C   UNL A   1      47.525  26.942  31.501  1.00  0.00    -0.014 A 
ATOM     83  C   UNL A   1      47.720  26.330  32.751  1.00  0.00     0.010 A 
ATOM     84  C   UNL A   1      48.619  27.091  30.628  1.00  0.00     0.010 A 
ATOM     85  C   UNL A   1      48.993  25.905  33.135  1.00  0.00     0.020 A 
ATOM     86  C   UNL A   1      49.887  26.639  30.995  1.00  0.00     0.020 A 
ATOM     87  C   UNL A   1      50.069  26.062  32.254  1.00  0.00     0.054 A 
BRANCH  87  88
ATOM     88  S   UNL A   1      51.702  25.459  32.759  1.00  0.00     0.124 S 
ATOM     89  O   UNL A   1      51.734  24.130  32.156  1.00  0.00    -0.237 OA
ATOM     90  O   UNL A   1      52.604  26.443  32.165  1.00  0.00    -0.237 OA
ATOM     91  O   UNL A   1      51.642  25.480  34.219  1.00  0.00    -0.744 OA
ENDBRANCH  87  88
ENDBRANCH  61  82
ENDBRANCH  35  36
ENDBRANCH  27  30
ENDBRANCH  25  26
ENDBRANCH  24  25
ENDBRANCH   1  24
TORSDOF 19
ENDMDL
MODEL 2
REMARK VINA RESULT:     -10.3      1.675      2.223
REMARK SMILES CNC(=O)c1ccc(N(CCC(=O)NCCCCNC(=O)c2ccc(-c3c4nc(c(-c5ccc(S(=O)(=O)[O-])cc5)c5ccc([nH]5)c(-c5ccc(S(=O)(=O)[O-])cc5)c5nc(c(-c6ccc(S(=O)(=O)[O-])cc6)c6ccc3[nH]6)C=C5)C=C4)cc2)C2CC2)nn1
REMARK SMILES IDX 16 1 15 2 14 3 12 4 13 5 11 7 10 8 9 9 8 10 5 11 6 12 86 13
REMARK SMILES IDX 7 14 85 15 3 16 1 17 2 18 4 20 82 21 83 22 84 23 17 24 18 25
REMARK SMILES IDX 19 26 20 27 21 29 22 30 23 31 81 32 24 33 80 34 25 35 26 36
REMARK SMILES IDX 27 37 74 38 28 39 79 40 73 41 75 42 29 43 78 44 72 45 71 46
REMARK SMILES IDX 30 48 60 49 41 50 59 51 42 52 45 53 58 54 76 55 43 56 44 57
REMARK SMILES IDX 57 59 77 60 46 61 31 62 32 63 40 64 33 65 39 66 34 67 35 68
REMARK SMILES IDX 36 69 37 70 38 71 61 72 62 73 70 74 63 75 69 76 64 77 65 78
REMARK SMILES IDX 66 79 67 80 68 81 47 82 48 83 56 84 49 85 55 86 50 87 51 88
REMARK SMILES IDX 52 89 53 90 54 91
REMARK H PARENT 14 6 2 19 19 28 75 47 45 58
REMARK Flexibility Score: inf
ROOT
ATOM      1  C   UNL A   1      32.383  26.734  25.892  1.00  0.00     0.023 C 
ENDROOT
BRANCH   1   2
ATOM      2  C   UNL A   1      31.872  25.731  24.867  1.00  0.00     0.116 C 
BRANCH   2   3
ATOM      3  N   UNL A   1      32.437  25.926  23.546  1.00  0.00    -0.356 N 
ATOM      4  C   UNL A   1      33.521  25.340  22.961  1.00  0.00     0.221 C 
ATOM      5  O   UNL A   1      33.832  25.696  21.822  1.00  0.00    -0.275 OA
ATOM      6  H   UNL A   1      31.964  26.583  22.984  1.00  0.00     0.163 HD
BRANCH   4   7
ATOM      7  C   UNL A   1      34.327  24.282  23.681  1.00  0.00     0.121 C 
BRANCH   7   8
ATOM      8  C   UNL A   1      33.749  22.886  23.473  1.00  0.00     0.128 C 
BRANCH   8   9
ATOM      9  N   UNL A   1      33.535  22.153  24.742  1.00  0.00    -0.352 N 
BRANCH   9  10
ATOM     10  C   UNL A   1      33.467  20.744  24.610  1.00  0.00     0.151 A 
ATOM     11  C   UNL A   1      33.598  18.034  23.938  1.00  0.00     0.150 A 
ATOM     12  C   UNL A   1      32.427  18.728  23.704  1.00  0.00     0.040 A 
ATOM     13  N   UNL A   1      34.644  18.641  24.524  1.00  0.00    -0.143 NA
ATOM     14  C   UNL A   1      32.349  20.080  24.103  1.00  0.00     0.051 A 
ATOM     15  N   UNL A   1      34.580  20.000  24.814  1.00  0.00    -0.132 NA
BRANCH  11  16
ATOM     16  C   UNL A   1      33.758  16.578  23.681  1.00  0.00     0.271 C 
ATOM     17  C   UNL A   1      32.584  15.770  25.803  1.00  0.00     0.143 C 
ATOM     18  N   UNL A   1      33.361  15.629  24.596  1.00  0.00    -0.354 N 
ATOM     19  H   UNL A   1      33.653  14.711  24.394  1.00  0.00     0.163 HD
ATOM     20  O   UNL A   1      34.263  16.195  22.626  1.00  0.00    -0.267 OA
ENDBRANCH  11  16
ENDBRANCH   9  10
BRANCH   9  21
ATOM     21  C   UNL A   1      33.916  22.920  25.951  1.00  0.00     0.084 C 
ATOM     22  C   UNL A   1      32.873  23.046  27.052  1.00  0.00     0.027 C 
ATOM     23  C   UNL A   1      34.219  22.474  27.351  1.00  0.00     0.027 C 
ENDBRANCH   9  21
ENDBRANCH   8   9
ENDBRANCH   7   8
ENDBRANCH   4   7
ENDBRANCH   2   3
ENDBRANCH   1   2
BRANCH   1  24
ATOM     24  C   UNL A   1      33.394  27.780  25.454  1.00  0.00     0.023 C 
BRANCH  24  25
ATOM     25  C   UNL A   1      34.237  28.322  26.578  1.00  0.00     0.116 C 
BRANCH  25  26
ATOM     26  N   UNL A   1      33.826  29.664  26.968  1.00  0.00    -0.352 N 
ATOM     27  C   UNL A   1      34.469  30.531  27.820  1.00  0.00     0.251 C 
ATOM     28  H   UNL A   1      32.985  29.989  26.575  1.00  0.00     0.163 HD
ATOM     29  O   UNL A   1      33.903  31.532  28.233  1.00  0.00    -0.269 OA
BRANCH  27  30
ATOM     30  C   UNL A   1      35.850  30.204  28.228  1.00  0.00     0.039 A 
ATOM     31  C   UNL A   1      36.084  29.607  29.467  1.00  0.00     0.014 A 
ATOM     32  C   UNL A   1      36.899  30.427  27.331  1.00  0.00     0.014 A 
ATOM     33  C   UNL A   1      37.378  29.193  29.785  1.00  0.00     0.010 A 
ATOM     34  C   UNL A   1      38.149  29.894  27.594  1.00  0.00     0.010 A 
ATOM     35  C   UNL A   1      38.412  29.315  28.841  1.00  0.00    -0.014 A 
BRANCH  35  36
ATOM     36  C   UNL A   1      39.805  28.927  29.159  1.00  0.00     0.031 A 
ATOM     37  C   UNL A   1      40.702  29.928  29.838  1.00  0.00     0.074 A 
ATOM     38  C   UNL A   1      40.269  27.717  28.792  1.00  0.00     0.049 A 
ATOM     39  N   UNL A   1      41.962  29.817  30.166  1.00  0.00    -0.248 NA
ATOM     40  C   UNL A   1      40.117  31.245  30.156  1.00  0.00     0.031 C 
ATOM     41  C   UNL A   1      39.505  26.692  28.077  1.00  0.00     0.029 A 
ATOM     42  N   UNL A   1      41.502  27.145  28.974  1.00  0.00    -0.354 N 
ATOM     43  C   UNL A   1      42.318  31.048  30.704  1.00  0.00     0.074 A 
ATOM     44  C   UNL A   1      41.172  31.917  30.588  1.00  0.00     0.031 C 
ATOM     45  C   UNL A   1      40.272  25.601  27.919  1.00  0.00     0.029 A 
ATOM     46  C   UNL A   1      41.591  25.862  28.486  1.00  0.00     0.049 A 
ATOM     47  H   UNL A   1      42.251  27.608  29.412  1.00  0.00     0.167 HD
ATOM     48  C   UNL A   1      43.487  31.415  31.278  1.00  0.00     0.031 A 
ATOM     49  C   UNL A   1      42.623  24.997  28.502  1.00  0.00     0.031 A 
ATOM     50  C   UNL A   1      44.611  30.533  31.417  1.00  0.00     0.049 A 
ATOM     51  C   UNL A   1      43.910  25.422  29.156  1.00  0.00     0.074 A 
ATOM     52  C   UNL A   1      45.821  30.772  32.038  1.00  0.00     0.029 A 
ATOM     53  N   UNL A   1      44.656  29.235  30.927  1.00  0.00    -0.354 N 
ATOM     54  N   UNL A   1      44.204  26.565  29.731  1.00  0.00    -0.248 NA
ATOM     55  C   UNL A   1      44.999  24.436  29.178  1.00  0.00     0.031 C 
ATOM     56  C   UNL A   1      46.621  29.636  31.877  1.00  0.00     0.029 A 
ATOM     57  C   UNL A   1      45.885  28.669  31.209  1.00  0.00     0.049 A 
ATOM     58  H   UNL A   1      43.922  28.786  30.449  1.00  0.00     0.167 HD
ATOM     59  C   UNL A   1      45.504  26.427  30.203  1.00  0.00     0.074 A 
ATOM     60  C   UNL A   1      45.930  25.084  29.865  1.00  0.00     0.031 C 
ATOM     61  C   UNL A   1      46.279  27.328  30.858  1.00  0.00     0.031 A 
BRANCH  48  62
ATOM     62  C   UNL A   1      43.594  32.824  31.800  1.00  0.00    -0.014 A 
ATOM     63  C   UNL A   1      44.067  33.869  30.985  1.00  0.00     0.010 A 
ATOM     64  C   UNL A   1      43.198  33.112  33.119  1.00  0.00     0.010 A 
ATOM     65  C   UNL A   1      44.187  35.165  31.492  1.00  0.00     0.020 A 
ATOM     66  C   UNL A   1      43.285  34.415  33.619  1.00  0.00     0.020 A 
ATOM     67  C   UNL A   1      43.795  35.430  32.807  1.00  0.00     0.054 A 
BRANCH  67  68
ATOM     68  S   UNL A   1      43.936  37.127  33.429  1.00  0.00     0.124 S 
ATOM     69  O   UNL A   1      44.042  37.893  32.189  1.00  0.00    -0.237 OA
ATOM     70  O   UNL A   1      42.690  37.300  34.169  1.00  0.00    -0.237 OA
ATOM     71  O   UNL A   1      45.146  37.098  34.247  1.00  0.00    -0.744 OA
ENDBRANCH  67  68
ENDBRANCH  48  62
BRANCH  49  72
ATOM     72  C   UNL A   1      42.469  23.641  27.907  1.00  0.00    -0.014 A 
ATOM     73  C   UNL A   1      42.884  23.387  26.587  1.00  0.00     0.010 A 
ATOM     74  C   UNL A   1      41.922  22.588  28.664  1.00  0.00     0.010 A 
ATOM     75  C   UNL A   1      42.736  22.113  26.029  1.00  0.00     0.020 A 
ATOM     76  C   UNL A   1      41.800  21.306  28.120  1.00  0.00     0.020 A 
ATOM     77  C   UNL A   1      42.197  21.080  26.800  1.00  0.00     0.054 A 
BRANCH  77  78
ATOM     78  S   UNL A   1      42.061  19.423  26.073  1.00  0.00     0.124 S 
ATOM     79  O   UNL A   1      42.579  18.578  27.144  1.00  0.00    -0.237 OA
ATOM     80  O   UNL A   1      40.627  19.310  25.813  1.00  0.00    -0.237 OA
ATOM     81  O   UNL A   1      42.898  19.504  24.878  1.00  0.00    -0.744 OA
ENDBRANCH  77  78
ENDBRANCH  49  72
BRANCH  61  82
ATOM     82  C   UNL A   1      47.654  26.882  31.274  1.00  0.00    -0.014 A 
ATOM     83  C   UNL A   1      47.836  25.992  32.346  1.00  0.00     0.010 A 
ATOM     84  C   UNL A   1      48.773  27.311  30.537  1.00  0.00     0.010 A 
ATOM     85  C   UNL A   1      49.118  25.564  32.696  1.00  0.00     0.020 A 
ATOM     86  C   UNL A   1      50.053  26.861  30.863  1.00  0.00     0.020 A 
ATOM     87  C   UNL A   1      50.219  26.001  31.951  1.00  0.00     0.054 A 
BRANCH  87  88
ATOM     88  S   UNL A   1      51.868  25.394  32.397  1.00  0.00     0.124 S 
ATOM     89  O   UNL A   1      51.586  24.018  32.797  1.00  0.00    -0.237 OA
ATOM     90  O   UNL A   1      52.613  25.547  31.151  1.00  0.00    -0.237 OA
ATOM     91  O   UNL A   1      52.284  26.284  33.479  1.00  0.00    -0.744 OA
ENDBRANCH  87  88
ENDBRANCH  61  82
ENDBRANCH  35  36
ENDBRANCH  27  30
ENDBRANCH  25  26
ENDBRANCH  24  25
ENDBRANCH   1  24
TORSDOF 19
ENDMDL
MODEL 3
REMARK VINA RESULT:     -10.1      2.864      3.608
REMARK SMILES CNC(=O)c1ccc(N(CCC(=O)NCCCCNC(=O)c2ccc(-c3c4nc(c(-c5ccc(S(=O)(=O)[O-])cc5)c5ccc([nH]5)c(-c5ccc(S(=O)(=O)[O-])cc5)c5nc(c(-c6ccc(S(=O)(=O)[O-])cc6)c6ccc3[nH]6)C=C5)C=C4)cc2)C2CC2)nn1
REMARK SMILES IDX 16 1 15 2 14 3 12 4 13 5 11 7 10 8 9 9 8 10 5 11 6 12 86 13
REMARK SMILES IDX 7 14 85 15 3 16 1 17 2 18 4 20 82 21 83 22 84 23 17 24 18 25
REMARK SMILES IDX 19 26 20 27 21 29 22 30 23 31 81 32 24 33 80 34 25 35 26 36
REMARK SMILES IDX 27 37 74 38 28 39 79 40 73 41 75 42 29 43 78 44 72 45 71 46
REMARK SMILES IDX 30 48 60 49 41 50 59 51 42 52 45 53 58 54 76 55 43 56 44 57
REMARK SMILES IDX 57 59 77 60 46 61 31 62 32 63 40 64 33 65 39 66 34 67 35 68
REMARK SMILES IDX 36 69 37 70 38 71 61 72 62 73 70 74 63 75 69 76 64 77 65 78
REMARK SMILES IDX 66 79 67 80 68 81 47 82 48 83 56 84 49 85 55 86 50 87 51 88
REMARK SMILES IDX 52 89 53 90 54 91
REMARK H PARENT 14 6 2 19 19 28 75 47 45 58
REMARK Flexibility Score: inf
ROOT
ATOM      1  C   UNL A   1      31.993  28.169  26.100  1.00  0.00     0.023 C 
ENDROOT
BRANCH   1   2
ATOM      2  C   UNL A   1      31.113  27.025  25.616  1.00  0.00     0.116 C 
BRANCH   2   3
ATOM      3  N   UNL A   1      31.052  25.917  26.549  1.00  0.00    -0.356 N 
ATOM      4  C   UNL A   1      31.068  24.573  26.317  1.00  0.00     0.221 C 
ATOM      5  O   UNL A   1      30.970  23.813  27.283  1.00  0.00    -0.275 OA
ATOM      6  H   UNL A   1      30.988  26.175  27.498  1.00  0.00     0.163 HD
BRANCH   4   7
ATOM      7  C   UNL A   1      31.203  24.019  24.915  1.00  0.00     0.121 C 
BRANCH   7   8
ATOM      8  C   UNL A   1      31.551  22.534  24.921  1.00  0.00     0.128 C 
BRANCH   8   9
ATOM      9  N   UNL A   1      32.978  22.273  24.620  1.00  0.00    -0.352 N 
BRANCH   9  10
ATOM     10  C   UNL A   1      33.278  20.929  24.291  1.00  0.00     0.151 A 
ATOM     11  C   UNL A   1      33.537  18.163  23.984  1.00  0.00     0.150 A 
ATOM     12  C   UNL A   1      34.510  18.855  24.679  1.00  0.00     0.040 A 
ATOM     13  N   UNL A   1      32.505  18.816  23.424  1.00  0.00    -0.143 NA
ATOM     14  C   UNL A   1      34.403  20.260  24.775  1.00  0.00     0.051 A 
ATOM     15  N   UNL A   1      32.367  20.186  23.620  1.00  0.00    -0.132 NA
BRANCH  11  16
ATOM     16  C   UNL A   1      33.605  16.703  23.706  1.00  0.00     0.271 C 
ATOM     17  C   UNL A   1      32.251  15.948  25.738  1.00  0.00     0.143 C 
ATOM     18  N   UNL A   1      33.086  15.771  24.575  1.00  0.00    -0.354 N 
ATOM     19  H   UNL A   1      33.322  14.837  24.372  1.00  0.00     0.163 HD
ATOM     20  O   UNL A   1      34.142  16.302  22.674  1.00  0.00    -0.267 OA
ENDBRANCH  11  16
ENDBRANCH   9  10
BRANCH   9  21
ATOM     21  C   UNL A   1      33.740  23.482  24.231  1.00  0.00     0.084 C 
ATOM     22  C   UNL A   1      34.819  23.964  25.190  1.00  0.00     0.027 C 
ATOM     23  C   UNL A   1      35.159  23.651  23.771  1.00  0.00     0.027 C 
ENDBRANCH   9  21
ENDBRANCH   8   9
ENDBRANCH   7   8
ENDBRANCH   4   7
ENDBRANCH   2   3
ENDBRANCH   1   2
BRANCH   1  24
ATOM     24  C   UNL A   1      33.393  27.857  26.600  1.00  0.00     0.023 C 
BRANCH  24  25
ATOM     25  C   UNL A   1      34.414  28.908  26.253  1.00  0.00     0.116 C 
BRANCH  25  26
ATOM     26  N   UNL A   1      33.938  30.250  26.560  1.00  0.00    -0.352 N 
ATOM     27  C   UNL A   1      34.351  31.083  27.574  1.00  0.00     0.251 C 
ATOM     28  H   UNL A   1      33.235  30.604  25.970  1.00  0.00     0.163 HD
ATOM     29  O   UNL A   1      33.713  32.087  27.853  1.00  0.00    -0.269 OA
BRANCH  27  30
ATOM     30  C   UNL A   1      35.571  30.713  28.319  1.00  0.00     0.039 A 
ATOM     31  C   UNL A   1      35.501  29.764  29.338  1.00  0.00     0.014 A 
ATOM     32  C   UNL A   1      36.798  31.266  27.939  1.00  0.00     0.014 A 
ATOM     33  C   UNL A   1      36.681  29.337  29.948  1.00  0.00     0.010 A 
ATOM     34  C   UNL A   1      37.972  30.743  28.451  1.00  0.00     0.010 A 
ATOM     35  C   UNL A   1      37.924  29.808  29.492  1.00  0.00    -0.014 A 
BRANCH  35  36
ATOM     36  C   UNL A   1      39.193  29.411  30.143  1.00  0.00     0.031 A 
ATOM     37  C   UNL A   1      39.628  30.136  31.390  1.00  0.00     0.074 A 
ATOM     38  C   UNL A   1      39.965  28.456  29.591  1.00  0.00     0.049 A 
ATOM     39  N   UNL A   1      40.719  29.984  32.093  1.00  0.00    -0.248 NA
ATOM     40  C   UNL A   1      38.740  31.202  31.891  1.00  0.00     0.031 C 
ATOM     41  C   UNL A   1      39.668  27.731  28.354  1.00  0.00     0.029 A 
ATOM     42  N   UNL A   1      41.161  27.930  30.005  1.00  0.00    -0.354 N 
ATOM     43  C   UNL A   1      40.653  30.943  33.097  1.00  0.00     0.074 A 
ATOM     44  C   UNL A   1      39.461  31.724  32.869  1.00  0.00     0.031 C 
ATOM     45  C   UNL A   1      40.635  26.825  28.133  1.00  0.00     0.029 A 
ATOM     46  C   UNL A   1      41.636  26.930  29.188  1.00  0.00     0.049 A 
ATOM     47  H   UNL A   1      41.635  28.238  30.810  1.00  0.00     0.167 HD
ATOM     48  C   UNL A   1      41.493  31.135  34.140  1.00  0.00     0.031 A 
ATOM     49  C   UNL A   1      42.752  26.184  29.288  1.00  0.00     0.031 A 
ATOM     50  C   UNL A   1      42.659  30.332  34.375  1.00  0.00     0.049 A 
ATOM     51  C   UNL A   1      43.666  26.407  30.463  1.00  0.00     0.074 A 
ATOM     52  C   UNL A   1      43.547  30.392  35.432  1.00  0.00     0.029 A 
ATOM     53  N   UNL A   1      43.097  29.317  33.535  1.00  0.00    -0.354 N 
ATOM     54  N   UNL A   1      43.547  27.268  31.447  1.00  0.00    -0.248 NA
ATOM     55  C   UNL A   1      44.856  25.550  30.549  1.00  0.00     0.031 C 
ATOM     56  C   UNL A   1      44.553  29.448  35.205  1.00  0.00     0.029 A 
ATOM     57  C   UNL A   1      44.257  28.759  34.038  1.00  0.00     0.049 A 
ATOM     58  H   UNL A   1      42.646  29.038  32.705  1.00  0.00     0.167 HD
ATOM     59  C   UNL A   1      44.635  27.039  32.283  1.00  0.00     0.074 A 
ATOM     60  C   UNL A   1      45.387  25.946  31.698  1.00  0.00     0.031 C 
ATOM     61  C   UNL A   1      44.983  27.673  33.430  1.00  0.00     0.031 A 
BRANCH  48  62
ATOM     62  C   UNL A   1      41.168  32.250  35.099  1.00  0.00    -0.014 A 
ATOM     63  C   UNL A   1      41.756  33.522  34.966  1.00  0.00     0.010 A 
ATOM     64  C   UNL A   1      40.245  32.031  36.138  1.00  0.00     0.010 A 
ATOM     65  C   UNL A   1      41.465  34.538  35.880  1.00  0.00     0.020 A 
ATOM     66  C   UNL A   1      39.926  33.055  37.035  1.00  0.00     0.020 A 
ATOM     67  C   UNL A   1      40.551  34.297  36.909  1.00  0.00     0.054 A 
BRANCH  67  68
ATOM     68  S   UNL A   1      40.172  35.643  38.063  1.00  0.00     0.124 S 
ATOM     69  O   UNL A   1      41.460  35.843  38.724  1.00  0.00    -0.237 OA
ATOM     70  O   UNL A   1      39.751  36.719  37.172  1.00  0.00    -0.237 OA
ATOM     71  O   UNL A   1      39.118  35.088  38.909  1.00  0.00    -0.744 OA
ENDBRANCH  67  68
ENDBRANCH  48  62
BRANCH  49  72
ATOM     72  C   UNL A   1      43.048  25.142  28.266  1.00  0.00    -0.014 A 
ATOM     73  C   UNL A   1      43.923  25.415  27.199  1.00  0.00     0.010 A 
ATOM     74  C   UNL A   1      42.468  23.864  28.363  1.00  0.00     0.010 A 
ATOM     75  C   UNL A   1      44.197  24.436  26.239  1.00  0.00     0.020 A 
ATOM     76  C   UNL A   1      42.763  22.873  27.421  1.00  0.00     0.020 A 
ATOM     77  C   UNL A   1      43.617  23.170  26.357  1.00  0.00     0.054 A 
BRANCH  77  78
ATOM     78  S   UNL A   1      44.026  21.900  25.128  1.00  0.00     0.124 S 
ATOM     79  O   UNL A   1      43.119  20.817  25.497  1.00  0.00    -0.237 OA
ATOM     80  O   UNL A   1      43.726  22.575  23.867  1.00  0.00    -0.237 OA
ATOM     81  O   UNL A   1      45.443  21.638  25.364  1.00  0.00    -0.744 OA
ENDBRANCH  77  78
ENDBRANCH  49  72
BRANCH  61  82
ATOM     82  C   UNL A   1      46.216  27.184  34.142  1.00  0.00    -0.014 A 
ATOM     83  C   UNL A   1      47.478  27.743  33.877  1.00  0.00     0.010 A 
ATOM     84  C   UNL A   1      46.093  26.196  35.137  1.00  0.00     0.010 A 
ATOM     85  C   UNL A   1      48.604  27.299  34.572  1.00  0.00     0.020 A 
ATOM     86  C   UNL A   1      47.211  25.772  35.856  1.00  0.00     0.020 A 
ATOM     87  C   UNL A   1      48.463  26.316  35.559  1.00  0.00     0.054 A 
BRANCH  87  88
ATOM     88  S   UNL A   1      49.934  25.790  36.479  1.00  0.00     0.124 S 
ATOM     89  O   UNL A   1      50.867  25.472  35.402  1.00  0.00    -0.237 OA
ATOM     90  O   UNL A   1      50.260  26.977  37.265  1.00  0.00    -0.237 OA
ATOM     91  O   UNL A   1      49.465  24.645  37.256  1.00  0.00    -0.744 OA
ENDBRANCH  87  88
ENDBRANCH  61  82
ENDBRANCH  35  36
ENDBRANCH  27  30
ENDBRANCH  25  26
ENDBRANCH  24  25
ENDBRANCH   1  24
TORSDOF 19
ENDMDL
