MODEL 1
REMARK VINA RESULT:     -11.9      0.000      0.000
REMARK SMILES CC(=O)N1C[C@@H]2C[N@H+](CC(=O)NCc3ccccc3)C[C@]2(C(=O)NCCCCNC(=O)c2ccc(-c3c4nc(c(-c5ccc(S(=O)(=O)[O-])cc5)c5ccc([nH]5)c(-c5ccc(S(=O)(=O)[O-])cc5)c5nc(c(-c6ccc(S(=O)(=O)[O-])cc6)c6ccc3[nH]6)C=C5)C=C4)cc2)C1
REMARK SMILES IDX 26 1 25 2 24 3 22 4 23 5 21 7 4 8 5 9 92 10 6 11 7 12 20 13
REMARK SMILES IDX 8 14 2 16 1 17 3 18 9 19 10 20 11 21 12 22 13 24 14 25 15 26
REMARK SMILES IDX 19 27 16 28 18 29 17 30 27 31 28 32 29 33 30 34 31 36 32 37
REMARK SMILES IDX 33 38 91 39 34 40 90 41 35 42 36 43 37 44 84 45 38 46 89 47
REMARK SMILES IDX 83 48 85 49 39 50 88 51 82 52 81 53 40 55 70 56 51 57 69 58
REMARK SMILES IDX 52 59 55 60 68 61 86 62 53 63 54 64 67 66 87 67 56 68 41 69
REMARK SMILES IDX 42 70 50 71 43 72 49 73 44 74 45 75 46 76 47 77 48 78 71 79
REMARK SMILES IDX 72 80 80 81 73 82 79 83 74 84 75 85 76 86 77 87 78 88 57 89
REMARK SMILES IDX 58 90 66 91 59 92 65 93 60 94 61 95 62 96 63 97 64 98
REMARK H PARENT 24 6 8 15 12 23 29 35 85 54 55 65
REMARK Flexibility Score: inf
ROOT
ATOM      1  C   UNL A   1      37.694  22.439  25.451  1.00  0.00     0.023 C 
ENDROOT
BRANCH   1   2
ATOM      2  C   UNL A   1      36.750  22.212  24.240  1.00  0.00     0.116 C 
BRANCH   2   3
ATOM      3  N   UNL A   1      35.493  21.369  24.510  1.00  0.00    -0.355 N 
ATOM      4  C   UNL A   1      34.147  21.510  24.928  1.00  0.00     0.234 C 
ATOM      5  O   UNL A   1      33.485  20.466  24.965  1.00  0.00    -0.274 OA
ATOM      6  H   UNL A   1      35.687  20.420  24.335  1.00  0.00     0.163 HD
BRANCH   4   7
ATOM      7  C   UNL A   1      33.425  22.900  25.139  1.00  0.00     0.125 C 
ATOM      8  N   UNL A   1      31.618  23.768  26.516  1.00  0.00    -0.341 N 
ATOM      9  C   UNL A   1      32.400  24.916  26.173  1.00  0.00     0.130 C 
ATOM     10  C   UNL A   1      32.441  22.601  26.340  1.00  0.00     0.143 C 
ATOM     11  C   UNL A   1      33.759  24.361  25.628  1.00  0.00     0.087 C 
ATOM     12  C   UNL A   1      34.054  25.267  24.422  1.00  0.00     0.269 C 
ATOM     13  C   UNL A   1      33.185  23.250  23.696  1.00  0.00     0.282 C 
ATOM     14  N   UNL A   1      33.373  24.610  23.342  1.00  0.00    -0.326 N 
ATOM     15  H   UNL A   1      34.046  24.951  22.655  1.00  0.00     0.348 HD
BRANCH   8  16
ATOM     16  C   UNL A   1      30.269  23.881  26.778  1.00  0.00     0.219 C 
ATOM     17  C   UNL A   1      29.546  22.692  27.353  1.00  0.00     0.114 C 
ATOM     18  O   UNL A   1      29.652  24.932  26.599  1.00  0.00    -0.275 OA
ENDBRANCH   8  16
BRANCH  14  19
ATOM     19  C   UNL A   1      32.356  25.081  22.407  1.00  0.00     0.363 C 
BRANCH  19  20
ATOM     20  C   UNL A   1      32.851  26.148  21.399  1.00  0.00     0.275 C 
ATOM     21  O   UNL A   1      33.084  25.781  20.240  1.00  0.00    -0.268 OA
ATOM     22  N   UNL A   1      33.099  27.474  21.691  1.00  0.00    -0.347 N 
ATOM     23  H   UNL A   1      33.844  27.845  21.165  1.00  0.00     0.164 HD
BRANCH  22  24
ATOM     24  C   UNL A   1      32.503  28.465  22.614  1.00  0.00     0.151 C 
BRANCH  24  25
ATOM     25  C   UNL A   1      30.966  28.494  22.668  1.00  0.00    -0.029 A 
ATOM     26  C   UNL A   1      30.246  29.547  22.113  1.00  0.00     0.005 A 
ATOM     27  C   UNL A   1      30.183  27.557  23.349  1.00  0.00     0.005 A 
ATOM     28  C   UNL A   1      28.852  29.683  22.145  1.00  0.00     0.000 A 
ATOM     29  C   UNL A   1      28.771  27.666  23.394  1.00  0.00     0.000 A 
ATOM     30  C   UNL A   1      28.102  28.719  22.776  1.00  0.00     0.000 A 
ENDBRANCH  24  25
ENDBRANCH  22  24
ENDBRANCH  19  20
ENDBRANCH  14  19
ENDBRANCH   4   7
ENDBRANCH   2   3
ENDBRANCH   1   2
BRANCH   1  31
ATOM     31  C   UNL A   1      37.450  23.755  26.239  1.00  0.00     0.023 C 
BRANCH  31  32
ATOM     32  C   UNL A   1      38.623  24.417  26.982  1.00  0.00     0.116 C 
BRANCH  32  33
ATOM     33  N   UNL A   1      39.668  24.966  26.123  1.00  0.00    -0.352 N 
ATOM     34  C   UNL A   1      40.436  26.116  26.263  1.00  0.00     0.251 C 
ATOM     35  H   UNL A   1      39.861  24.435  25.317  1.00  0.00     0.163 HD
ATOM     36  O   UNL A   1      41.233  26.422  25.395  1.00  0.00    -0.269 OA
BRANCH  34  37
ATOM     37  C   UNL A   1      40.265  27.001  27.447  1.00  0.00     0.039 A 
ATOM     38  C   UNL A   1      39.635  26.492  28.588  1.00  0.00     0.014 A 
ATOM     39  C   UNL A   1      40.726  28.317  27.442  1.00  0.00     0.014 A 
ATOM     40  C   UNL A   1      39.578  27.262  29.758  1.00  0.00     0.010 A 
ATOM     41  C   UNL A   1      40.729  29.057  28.627  1.00  0.00     0.010 A 
ATOM     42  C   UNL A   1      40.178  28.530  29.808  1.00  0.00    -0.014 A 
BRANCH  42  43
ATOM     43  C   UNL A   1      40.280  29.295  31.085  1.00  0.00     0.031 A 
ATOM     44  C   UNL A   1      41.383  29.007  32.070  1.00  0.00     0.074 A 
ATOM     45  C   UNL A   1      39.332  30.205  31.395  1.00  0.00     0.049 A 
ATOM     46  N   UNL A   1      41.590  29.529  33.253  1.00  0.00    -0.248 NA
ATOM     47  C   UNL A   1      42.367  27.983  31.686  1.00  0.00     0.031 C 
ATOM     48  C   UNL A   1      38.184  30.556  30.554  1.00  0.00     0.029 A 
ATOM     49  N   UNL A   1      39.176  31.001  32.507  1.00  0.00    -0.354 N 
ATOM     50  C   UNL A   1      42.716  28.889  33.759  1.00  0.00     0.074 A 
ATOM     51  C   UNL A   1      43.114  27.903  32.777  1.00  0.00     0.031 C 
ATOM     52  C   UNL A   1      37.465  31.514  31.162  1.00  0.00     0.029 A 
ATOM     53  C   UNL A   1      38.068  31.816  32.456  1.00  0.00     0.049 A 
ATOM     54  H   UNL A   1      39.800  30.988  33.268  1.00  0.00     0.167 HD
ATOM     55  C   UNL A   1      43.374  29.114  34.922  1.00  0.00     0.031 A 
ATOM     56  C   UNL A   1      37.584  32.704  33.349  1.00  0.00     0.031 A 
ATOM     57  C   UNL A   1      42.981  30.097  35.898  1.00  0.00     0.049 A 
ATOM     58  C   UNL A   1      38.317  32.920  34.644  1.00  0.00     0.074 A 
ATOM     59  C   UNL A   1      43.612  30.433  37.084  1.00  0.00     0.029 A 
ATOM     60  N   UNL A   1      41.855  30.901  35.806  1.00  0.00    -0.354 N 
ATOM     61  N   UNL A   1      39.419  32.349  35.072  1.00  0.00    -0.248 NA
ATOM     62  C   UNL A   1      37.751  33.908  35.574  1.00  0.00     0.031 C 
ATOM     63  C   UNL A   1      42.836  31.396  37.737  1.00  0.00     0.029 A 
ATOM     64  C   UNL A   1      41.759  31.712  36.925  1.00  0.00     0.049 A 
ATOM     65  H   UNL A   1      41.218  30.897  35.055  1.00  0.00     0.167 HD
ATOM     66  C   UNL A   1      39.693  32.932  36.305  1.00  0.00     0.074 A 
ATOM     67  C   UNL A   1      38.652  33.909  36.547  1.00  0.00     0.031 C 
ATOM     68  C   UNL A   1      40.718  32.682  37.158  1.00  0.00     0.031 A 
BRANCH  55  69
ATOM     69  C   UNL A   1      44.594  28.273  35.209  1.00  0.00    -0.014 A 
ATOM     70  C   UNL A   1      44.473  26.975  35.742  1.00  0.00     0.010 A 
ATOM     71  C   UNL A   1      45.875  28.768  34.904  1.00  0.00     0.010 A 
ATOM     72  C   UNL A   1      45.611  26.209  36.007  1.00  0.00     0.020 A 
ATOM     73  C   UNL A   1      47.014  27.991  35.137  1.00  0.00     0.020 A 
ATOM     74  C   UNL A   1      46.875  26.723  35.705  1.00  0.00     0.054 A 
BRANCH  74  75
ATOM     75  S   UNL A   1      48.332  25.697  36.043  1.00  0.00     0.124 S 
ATOM     76  O   UNL A   1      49.234  26.655  36.676  1.00  0.00    -0.237 OA
ATOM     77  O   UNL A   1      47.796  24.662  36.923  1.00  0.00    -0.237 OA
ATOM     78  O   UNL A   1      48.746  25.234  34.721  1.00  0.00    -0.744 OA
ENDBRANCH  74  75
ENDBRANCH  55  69
BRANCH  56  79
ATOM     79  C   UNL A   1      36.342  33.473  33.041  1.00  0.00    -0.014 A 
ATOM     80  C   UNL A   1      36.419  34.780  32.529  1.00  0.00     0.010 A 
ATOM     81  C   UNL A   1      35.076  32.900  33.257  1.00  0.00     0.010 A 
ATOM     82  C   UNL A   1      35.255  35.507  32.257  1.00  0.00     0.020 A 
ATOM     83  C   UNL A   1      33.910  33.610  32.957  1.00  0.00     0.020 A 
ATOM     84  C   UNL A   1      34.007  34.915  32.469  1.00  0.00     0.054 A 
BRANCH  84  85
ATOM     85  S   UNL A   1      32.510  35.858  32.061  1.00  0.00     0.124 S 
ATOM     86  O   UNL A   1      32.575  35.914  30.605  1.00  0.00    -0.237 OA
ATOM     87  O   UNL A   1      31.452  35.021  32.618  1.00  0.00    -0.237 OA
ATOM     88  O   UNL A   1      32.713  37.132  32.747  1.00  0.00    -0.744 OA
ENDBRANCH  84  85
ENDBRANCH  56  79
BRANCH  68  89
ATOM     89  C   UNL A   1      40.793  33.504  38.418  1.00  0.00    -0.014 A 
ATOM     90  C   UNL A   1      41.646  34.616  38.520  1.00  0.00     0.010 A 
ATOM     91  C   UNL A   1      39.949  33.187  39.500  1.00  0.00     0.010 A 
ATOM     92  C   UNL A   1      41.676  35.379  39.691  1.00  0.00     0.020 A 
ATOM     93  C   UNL A   1      39.952  33.967  40.660  1.00  0.00     0.020 A 
ATOM     94  C   UNL A   1      40.827  35.050  40.753  1.00  0.00     0.054 A 
BRANCH  94  95
ATOM     95  S   UNL A   1      40.853  36.085  42.243  1.00  0.00     0.124 S 
ATOM     96  O   UNL A   1      39.811  35.469  43.059  1.00  0.00    -0.237 OA
ATOM     97  O   UNL A   1      42.219  35.908  42.731  1.00  0.00    -0.237 OA
ATOM     98  O   UNL A   1      40.544  37.422  41.742  1.00  0.00    -0.744 OA
ENDBRANCH  94  95
ENDBRANCH  68  89
ENDBRANCH  42  43
ENDBRANCH  34  37
ENDBRANCH  32  33
ENDBRANCH  31  32
ENDBRANCH   1  31
TORSDOF 19
ENDMDL
MODEL 2
REMARK VINA RESULT:     -11.8      4.582     10.499
REMARK SMILES CC(=O)N1C[C@@H]2C[N@H+](CC(=O)NCc3ccccc3)C[C@]2(C(=O)NCCCCNC(=O)c2ccc(-c3c4nc(c(-c5ccc(S(=O)(=O)[O-])cc5)c5ccc([nH]5)c(-c5ccc(S(=O)(=O)[O-])cc5)c5nc(c(-c6ccc(S(=O)(=O)[O-])cc6)c6ccc3[nH]6)C=C5)C=C4)cc2)C1
REMARK SMILES IDX 26 1 25 2 24 3 22 4 23 5 21 7 4 8 5 9 92 10 6 11 7 12 20 13
REMARK SMILES IDX 8 14 2 16 1 17 3 18 9 19 10 20 11 21 12 22 13 24 14 25 15 26
REMARK SMILES IDX 19 27 16 28 18 29 17 30 27 31 28 32 29 33 30 34 31 36 32 37
REMARK SMILES IDX 33 38 91 39 34 40 90 41 35 42 36 43 37 44 84 45 38 46 89 47
REMARK SMILES IDX 83 48 85 49 39 50 88 51 82 52 81 53 40 55 70 56 51 57 69 58
REMARK SMILES IDX 52 59 55 60 68 61 86 62 53 63 54 64 67 66 87 67 56 68 41 69
REMARK SMILES IDX 42 70 50 71 43 72 49 73 44 74 45 75 46 76 47 77 48 78 71 79
REMARK SMILES IDX 72 80 80 81 73 82 79 83 74 84 75 85 76 86 77 87 78 88 57 89
REMARK SMILES IDX 58 90 66 91 59 92 65 93 60 94 61 95 62 96 63 97 64 98
REMARK H PARENT 24 6 8 15 12 23 29 35 85 54 55 65
REMARK Flexibility Score: inf
ROOT
ATOM      1  C   UNL A   1      31.641  29.837  25.433  1.00  0.00     0.023 C 
ENDROOT
BRANCH   1   2
ATOM      2  C   UNL A   1      31.195  29.284  24.053  1.00  0.00     0.116 C 
BRANCH   2   3
ATOM      3  N   UNL A   1      30.165  28.142  24.083  1.00  0.00    -0.355 N 
ATOM      4  C   UNL A   1      30.094  26.727  24.058  1.00  0.00     0.234 C 
ATOM      5  O   UNL A   1      28.958  26.246  24.136  1.00  0.00    -0.274 OA
ATOM      6  H   UNL A   1      29.257  28.517  24.138  1.00  0.00     0.163 HD
BRANCH   4   7
ATOM      7  C   UNL A   1      31.353  25.775  24.141  1.00  0.00     0.125 C 
ATOM      8  N   UNL A   1      32.774  24.574  22.575  1.00  0.00    -0.341 N 
ATOM      9  C   UNL A   1      33.575  24.729  23.750  1.00  0.00     0.130 C 
ATOM     10  C   UNL A   1      31.725  25.558  22.620  1.00  0.00     0.143 C 
ATOM     11  C   UNL A   1      32.855  25.813  24.620  1.00  0.00     0.087 C 
ATOM     12  C   UNL A   1      32.969  25.257  26.048  1.00  0.00     0.269 C 
ATOM     13  C   UNL A   1      30.856  24.837  25.206  1.00  0.00     0.282 C 
ATOM     14  N   UNL A   1      31.810  24.417  26.168  1.00  0.00    -0.326 N 
ATOM     15  H   UNL A   1      31.743  24.582  27.172  1.00  0.00     0.348 HD
BRANCH   8  16
ATOM     16  C   UNL A   1      32.969  23.513  21.717  1.00  0.00     0.219 C 
ATOM     17  C   UNL A   1      32.569  22.136  22.173  1.00  0.00     0.114 C 
ATOM     18  O   UNL A   1      33.417  23.664  20.578  1.00  0.00    -0.275 OA
ENDBRANCH   8  16
BRANCH  14  19
ATOM     19  C   UNL A   1      31.665  23.006  26.507  1.00  0.00     0.363 C 
BRANCH  19  20
ATOM     20  C   UNL A   1      32.919  22.366  27.152  1.00  0.00     0.275 C 
ATOM     21  O   UNL A   1      32.900  22.165  28.374  1.00  0.00    -0.268 OA
ATOM     22  N   UNL A   1      34.084  22.036  26.490  1.00  0.00    -0.347 N 
ATOM     23  H   UNL A   1      34.885  22.148  27.051  1.00  0.00     0.164 HD
BRANCH  22  24
ATOM     24  C   UNL A   1      34.405  21.552  25.128  1.00  0.00     0.151 C 
BRANCH  24  25
ATOM     25  C   UNL A   1      34.105  20.069  24.853  1.00  0.00    -0.029 A 
ATOM     26  C   UNL A   1      32.799  19.592  24.828  1.00  0.00     0.005 A 
ATOM     27  C   UNL A   1      35.083  19.079  24.716  1.00  0.00     0.005 A 
ATOM     28  C   UNL A   1      32.427  18.255  24.627  1.00  0.00     0.000 A 
ATOM     29  C   UNL A   1      34.737  17.722  24.505  1.00  0.00     0.000 A 
ATOM     30  C   UNL A   1      33.408  17.310  24.441  1.00  0.00     0.000 A 
ENDBRANCH  24  25
ENDBRANCH  22  24
ENDBRANCH  19  20
ENDBRANCH  14  19
ENDBRANCH   4   7
ENDBRANCH   2   3
ENDBRANCH   1   2
BRANCH   1  31
ATOM     31  C   UNL A   1      32.258  28.787  26.396  1.00  0.00     0.023 C 
BRANCH  31  32
ATOM     32  C   UNL A   1      33.567  29.118  27.134  1.00  0.00     0.116 C 
BRANCH  32  33
ATOM     33  N   UNL A   1      33.598  30.424  27.785  1.00  0.00    -0.352 N 
ATOM     34  C   UNL A   1      34.615  31.053  28.493  1.00  0.00     0.251 C 
ATOM     35  H   UNL A   1      32.764  30.942  27.710  1.00  0.00     0.163 HD
ATOM     36  O   UNL A   1      34.415  32.139  29.005  1.00  0.00    -0.269 OA
BRANCH  34  37
ATOM     37  C   UNL A   1      35.937  30.391  28.666  1.00  0.00     0.039 A 
ATOM     38  C   UNL A   1      36.863  30.442  27.618  1.00  0.00     0.014 A 
ATOM     39  C   UNL A   1      36.270  29.733  29.850  1.00  0.00     0.014 A 
ATOM     40  C   UNL A   1      38.158  29.940  27.804  1.00  0.00     0.010 A 
ATOM     41  C   UNL A   1      37.580  29.295  30.057  1.00  0.00     0.010 A 
ATOM     42  C   UNL A   1      38.549  29.416  29.046  1.00  0.00    -0.014 A 
BRANCH  42  43
ATOM     43  C   UNL A   1      39.965  29.034  29.321  1.00  0.00     0.031 A 
ATOM     44  C   UNL A   1      40.925  30.021  29.931  1.00  0.00     0.074 A 
ATOM     45  C   UNL A   1      40.411  27.813  28.952  1.00  0.00     0.049 A 
ATOM     46  N   UNL A   1      42.203  29.884  30.181  1.00  0.00    -0.248 NA
ATOM     47  C   UNL A   1      40.385  31.344  30.282  1.00  0.00     0.031 C 
ATOM     48  C   UNL A   1      39.602  26.771  28.315  1.00  0.00     0.029 A 
ATOM     49  N   UNL A   1      41.658  27.241  29.055  1.00  0.00    -0.354 N 
ATOM     50  C   UNL A   1      42.622  31.102  30.706  1.00  0.00     0.074 A 
ATOM     51  C   UNL A   1      41.474  31.983  30.685  1.00  0.00     0.031 C 
ATOM     52  C   UNL A   1      40.361  25.682  28.113  1.00  0.00     0.029 A 
ATOM     53  C   UNL A   1      41.722  25.957  28.563  1.00  0.00     0.049 A 
ATOM     54  H   UNL A   1      42.432  27.707  29.445  1.00  0.00     0.167 HD
ATOM     55  C   UNL A   1      43.841  31.451  31.182  1.00  0.00     0.031 A 
ATOM     56  C   UNL A   1      42.757  25.096  28.474  1.00  0.00     0.031 A 
ATOM     57  C   UNL A   1      44.983  30.574  31.207  1.00  0.00     0.049 A 
ATOM     58  C   UNL A   1      44.108  25.515  28.987  1.00  0.00     0.074 A 
ATOM     59  C   UNL A   1      46.247  30.821  31.715  1.00  0.00     0.029 A 
ATOM     60  N   UNL A   1      45.003  29.284  30.701  1.00  0.00    -0.354 N 
ATOM     61  N   UNL A   1      44.463  26.650  29.540  1.00  0.00    -0.248 NA
ATOM     62  C   UNL A   1      45.195  24.532  28.877  1.00  0.00     0.031 C 
ATOM     63  C   UNL A   1      47.048  29.703  31.462  1.00  0.00     0.029 A 
ATOM     64  C   UNL A   1      46.264  28.732  30.859  1.00  0.00     0.049 A 
ATOM     65  H   UNL A   1      44.234  28.826  30.289  1.00  0.00     0.167 HD
ATOM     66  C   UNL A   1      45.807  26.506  29.871  1.00  0.00     0.074 A 
ATOM     67  C   UNL A   1      46.195  25.170  29.471  1.00  0.00     0.031 C 
ATOM     68  C   UNL A   1      46.642  27.400  30.458  1.00  0.00     0.031 A 
BRANCH  55  69
ATOM     69  C   UNL A   1      44.008  32.853  31.716  1.00  0.00    -0.014 A 
ATOM     70  C   UNL A   1      43.798  33.142  33.078  1.00  0.00     0.010 A 
ATOM     71  C   UNL A   1      44.419  33.888  30.855  1.00  0.00     0.010 A 
ATOM     72  C   UNL A   1      43.951  34.445  33.557  1.00  0.00     0.020 A 
ATOM     73  C   UNL A   1      44.604  35.186  31.338  1.00  0.00     0.020 A 
ATOM     74  C   UNL A   1      44.351  35.460  32.684  1.00  0.00     0.054 A 
BRANCH  74  75
ATOM     75  S   UNL A   1      44.559  37.138  33.341  1.00  0.00     0.124 S 
ATOM     76  O   UNL A   1      44.493  36.907  34.781  1.00  0.00    -0.237 OA
ATOM     77  O   UNL A   1      45.870  37.522  32.825  1.00  0.00    -0.237 OA
ATOM     78  O   UNL A   1      43.430  37.874  32.777  1.00  0.00    -0.744 OA
ENDBRANCH  74  75
ENDBRANCH  55  69
BRANCH  56  79
ATOM     79  C   UNL A   1      42.553  23.739  27.888  1.00  0.00    -0.014 A 
ATOM     80  C   UNL A   1      42.283  22.636  28.717  1.00  0.00     0.010 A 
ATOM     81  C   UNL A   1      42.626  23.544  26.497  1.00  0.00     0.010 A 
ATOM     82  C   UNL A   1      42.109  21.360  28.168  1.00  0.00     0.020 A 
ATOM     83  C   UNL A   1      42.422  22.277  25.942  1.00  0.00     0.020 A 
ATOM     84  C   UNL A   1      42.176  21.190  26.783  1.00  0.00     0.054 A 
BRANCH  84  85
ATOM     85  S   UNL A   1      41.897  19.536  26.090  1.00  0.00     0.124 S 
ATOM     86  O   UNL A   1      42.281  18.673  27.201  1.00  0.00    -0.237 OA
ATOM     87  O   UNL A   1      40.472  19.566  25.773  1.00  0.00    -0.237 OA
ATOM     88  O   UNL A   1      42.785  19.498  24.931  1.00  0.00    -0.744 OA
ENDBRANCH  84  85
ENDBRANCH  56  79
BRANCH  68  89
ATOM     89  C   UNL A   1      48.052  26.954  30.742  1.00  0.00    -0.014 A 
ATOM     90  C   UNL A   1      49.094  27.185  29.827  1.00  0.00     0.010 A 
ATOM     91  C   UNL A   1      48.349  26.344  31.976  1.00  0.00     0.010 A 
ATOM     92  C   UNL A   1      50.400  26.786  30.127  1.00  0.00     0.020 A 
ATOM     93  C   UNL A   1      49.658  25.973  32.293  1.00  0.00     0.020 A 
ATOM     94  C   UNL A   1      50.674  26.184  31.359  1.00  0.00     0.054 A 
BRANCH  94  95
ATOM     95  S   UNL A   1      52.385  25.719  31.742  1.00  0.00     0.124 S 
ATOM     96  O   UNL A   1      53.057  25.957  30.468  1.00  0.00    -0.237 OA
ATOM     97  O   UNL A   1      52.734  26.644  32.818  1.00  0.00    -0.237 OA
ATOM     98  O   UNL A   1      52.283  24.317  32.140  1.00  0.00    -0.744 OA
ENDBRANCH  94  95
ENDBRANCH  68  89
ENDBRANCH  42  43
ENDBRANCH  34  37
ENDBRANCH  32  33
ENDBRANCH  31  32
ENDBRANCH   1  31
TORSDOF 19
ENDMDL
MODEL 3
REMARK VINA RESULT:     -11.7      6.509     11.564
REMARK SMILES CC(=O)N1C[C@@H]2C[N@H+](CC(=O)NCc3ccccc3)C[C@]2(C(=O)NCCCCNC(=O)c2ccc(-c3c4nc(c(-c5ccc(S(=O)(=O)[O-])cc5)c5ccc([nH]5)c(-c5ccc(S(=O)(=O)[O-])cc5)c5nc(c(-c6ccc(S(=O)(=O)[O-])cc6)c6ccc3[nH]6)C=C5)C=C4)cc2)C1
REMARK SMILES IDX 26 1 25 2 24 3 22 4 23 5 21 7 4 8 5 9 92 10 6 11 7 12 20 13
REMARK SMILES IDX 8 14 2 16 1 17 3 18 9 19 10 20 11 21 12 22 13 24 14 25 15 26
REMARK SMILES IDX 19 27 16 28 18 29 17 30 27 31 28 32 29 33 30 34 31 36 32 37
REMARK SMILES IDX 33 38 91 39 34 40 90 41 35 42 36 43 37 44 84 45 38 46 89 47
REMARK SMILES IDX 83 48 85 49 39 50 88 51 82 52 81 53 40 55 70 56 51 57 69 58
REMARK SMILES IDX 52 59 55 60 68 61 86 62 53 63 54 64 67 66 87 67 56 68 41 69
REMARK SMILES IDX 42 70 50 71 43 72 49 73 44 74 45 75 46 76 47 77 48 78 71 79
REMARK SMILES IDX 72 80 80 81 73 82 79 83 74 84 75 85 76 86 77 87 78 88 57 89
REMARK SMILES IDX 58 90 66 91 59 92 65 93 60 94 61 95 62 96 63 97 64 98
REMARK H PARENT 24 6 8 15 12 23 29 35 85 54 55 65
REMARK Flexibility Score: inf
ROOT
ATOM      1  C   UNL A   1      34.912  29.594  27.314  1.00  0.00     0.023 C 
ENDROOT
BRANCH   1   2
ATOM      2  C   UNL A   1      33.550  28.867  27.159  1.00  0.00     0.116 C 
BRANCH   2   3
ATOM      3  N   UNL A   1      33.051  28.665  25.718  1.00  0.00    -0.355 N 
ATOM      4  C   UNL A   1      32.758  27.633  24.793  1.00  0.00     0.234 C 
ATOM      5  O   UNL A   1      32.330  28.004  23.694  1.00  0.00    -0.274 OA
ATOM      6  H   UNL A   1      32.877  29.540  25.303  1.00  0.00     0.163 HD
BRANCH   4   7
ATOM      7  C   UNL A   1      32.755  26.094  25.154  1.00  0.00     0.125 C 
ATOM      8  N   UNL A   1      34.413  24.388  25.657  1.00  0.00    -0.341 N 
ATOM      9  C   UNL A   1      33.202  23.905  26.246  1.00  0.00     0.130 C 
ATOM     10  C   UNL A   1      34.279  25.807  25.464  1.00  0.00     0.143 C 
ATOM     11  C   UNL A   1      32.226  25.129  26.283  1.00  0.00     0.087 C 
ATOM     12  C   UNL A   1      30.877  24.520  25.869  1.00  0.00     0.269 C 
ATOM     13  C   UNL A   1      31.834  25.610  24.067  1.00  0.00     0.282 C 
ATOM     14  N   UNL A   1      30.903  24.606  24.436  1.00  0.00    -0.326 N 
ATOM     15  H   UNL A   1      29.888  24.698  24.382  1.00  0.00     0.348 HD
BRANCH   8  16
ATOM     16  C   UNL A   1      35.392  23.516  25.230  1.00  0.00     0.219 C 
ATOM     17  C   UNL A   1      36.799  23.716  25.723  1.00  0.00     0.114 C 
ATOM     18  O   UNL A   1      35.141  22.557  24.497  1.00  0.00    -0.275 OA
ENDBRANCH   8  16
BRANCH  14  19
ATOM     19  C   UNL A   1      30.750  23.591  23.400  1.00  0.00     0.363 C 
BRANCH  19  20
ATOM     20  C   UNL A   1      32.057  22.849  23.025  1.00  0.00     0.275 C 
ATOM     21  O   UNL A   1      32.863  23.437  22.291  1.00  0.00    -0.268 OA
ATOM     22  N   UNL A   1      32.387  21.563  23.402  1.00  0.00    -0.347 N 
ATOM     23  H   UNL A   1      32.912  21.090  22.717  1.00  0.00     0.164 HD
BRANCH  22  24
ATOM     24  C   UNL A   1      32.132  20.733  24.601  1.00  0.00     0.151 C 
BRANCH  24  25
ATOM     25  C   UNL A   1      32.576  19.263  24.508  1.00  0.00    -0.029 A 
ATOM     26  C   UNL A   1      32.618  18.600  23.286  1.00  0.00     0.005 A 
ATOM     27  C   UNL A   1      32.864  18.455  25.612  1.00  0.00     0.005 A 
ATOM     28  C   UNL A   1      32.970  17.255  23.104  1.00  0.00     0.000 A 
ATOM     29  C   UNL A   1      33.229  17.095  25.459  1.00  0.00     0.000 A 
ATOM     30  C   UNL A   1      33.300  16.498  24.203  1.00  0.00     0.000 A 
ENDBRANCH  24  25
ENDBRANCH  22  24
ENDBRANCH  19  20
ENDBRANCH  14  19
ENDBRANCH   4   7
ENDBRANCH   2   3
ENDBRANCH   1   2
BRANCH   1  31
ATOM     31  C   UNL A   1      34.818  31.100  27.680  1.00  0.00     0.023 C 
BRANCH  31  32
ATOM     32  C   UNL A   1      35.642  31.642  28.861  1.00  0.00     0.116 C 
BRANCH  32  33
ATOM     33  N   UNL A   1      35.592  30.830  30.074  1.00  0.00    -0.352 N 
ATOM     34  C   UNL A   1      36.583  30.079  30.695  1.00  0.00     0.251 C 
ATOM     35  H   UNL A   1      34.717  30.814  30.524  1.00  0.00     0.163 HD
ATOM     36  O   UNL A   1      36.316  29.427  31.688  1.00  0.00    -0.269 OA
BRANCH  34  37
ATOM     37  C   UNL A   1      37.960  30.032  30.134  1.00  0.00     0.039 A 
ATOM     38  C   UNL A   1      39.051  30.102  31.008  1.00  0.00     0.014 A 
ATOM     39  C   UNL A   1      38.181  29.912  28.762  1.00  0.00     0.014 A 
ATOM     40  C   UNL A   1      40.353  29.931  30.517  1.00  0.00     0.010 A 
ATOM     41  C   UNL A   1      39.473  29.673  28.284  1.00  0.00     0.010 A 
ATOM     42  C   UNL A   1      40.573  29.654  29.158  1.00  0.00    -0.014 A 
BRANCH  42  43
ATOM     43  C   UNL A   1      41.928  29.300  28.644  1.00  0.00     0.031 A 
ATOM     44  C   UNL A   1      42.241  27.894  28.201  1.00  0.00     0.074 A 
ATOM     45  C   UNL A   1      42.906  30.230  28.643  1.00  0.00     0.049 A 
ATOM     46  N   UNL A   1      43.377  27.393  27.786  1.00  0.00    -0.248 NA
ATOM     47  C   UNL A   1      41.140  26.919  28.255  1.00  0.00     0.031 C 
ATOM     48  C   UNL A   1      42.756  31.620  29.082  1.00  0.00     0.029 A 
ATOM     49  N   UNL A   1      44.227  30.149  28.264  1.00  0.00    -0.354 N 
ATOM     50  C   UNL A   1      43.133  26.045  27.543  1.00  0.00     0.074 A 
ATOM     51  C   UNL A   1      41.755  25.797  27.910  1.00  0.00     0.031 C 
ATOM     52  C   UNL A   1      43.922  32.266  28.919  1.00  0.00     0.029 A 
ATOM     53  C   UNL A   1      44.919  31.331  28.408  1.00  0.00     0.049 A 
ATOM     54  H   UNL A   1      44.637  29.323  27.922  1.00  0.00     0.167 HD
ATOM     55  C   UNL A   1      43.968  25.104  27.040  1.00  0.00     0.031 A 
ATOM     56  C   UNL A   1      46.211  31.632  28.163  1.00  0.00     0.031 A 
ATOM     57  C   UNL A   1      45.338  25.351  26.671  1.00  0.00     0.049 A 
ATOM     58  C   UNL A   1      47.126  30.564  27.628  1.00  0.00     0.074 A 
ATOM     59  C   UNL A   1      46.249  24.474  26.107  1.00  0.00     0.029 A 
ATOM     60  N   UNL A   1      45.997  26.560  26.831  1.00  0.00    -0.354 N 
ATOM     61  N   UNL A   1      46.854  29.313  27.344  1.00  0.00    -0.248 NA
ATOM     62  C   UNL A   1      48.521  30.953  27.368  1.00  0.00     0.031 C 
ATOM     63  C   UNL A   1      47.475  25.135  25.982  1.00  0.00     0.029 A 
ATOM     64  C   UNL A   1      47.310  26.445  26.402  1.00  0.00     0.049 A 
ATOM     65  H   UNL A   1      45.592  27.381  27.196  1.00  0.00     0.167 HD
ATOM     66  C   UNL A   1      48.035  28.773  26.842  1.00  0.00     0.074 A 
ATOM     67  C   UNL A   1      49.017  29.838  26.849  1.00  0.00     0.031 C 
ATOM     68  C   UNL A   1      48.281  27.511  26.412  1.00  0.00     0.031 A 
BRANCH  55  69
ATOM     69  C   UNL A   1      43.422  23.709  26.861  1.00  0.00    -0.014 A 
ATOM     70  C   UNL A   1      43.064  23.226  25.588  1.00  0.00     0.010 A 
ATOM     71  C   UNL A   1      43.304  22.854  27.973  1.00  0.00     0.010 A 
ATOM     72  C   UNL A   1      42.555  21.934  25.438  1.00  0.00     0.020 A 
ATOM     73  C   UNL A   1      42.826  21.549  27.821  1.00  0.00     0.020 A 
ATOM     74  C   UNL A   1      42.437  21.103  26.556  1.00  0.00     0.054 A 
BRANCH  74  75
ATOM     75  S   UNL A   1      41.791  19.425  26.326  1.00  0.00     0.124 S 
ATOM     76  O   UNL A   1      42.188  18.776  27.573  1.00  0.00    -0.237 OA
ATOM     77  O   UNL A   1      40.358  19.654  26.166  1.00  0.00    -0.237 OA
ATOM     78  O   UNL A   1      42.481  18.947  25.130  1.00  0.00    -0.744 OA
ENDBRANCH  74  75
ENDBRANCH  55  69
BRANCH  56  79
ATOM     79  C   UNL A   1      46.716  33.014  28.407  1.00  0.00    -0.014 A 
ATOM     80  C   UNL A   1      47.207  33.383  29.672  1.00  0.00     0.010 A 
ATOM     81  C   UNL A   1      46.708  33.970  27.375  1.00  0.00     0.010 A 
ATOM     82  C   UNL A   1      47.665  34.684  29.905  1.00  0.00     0.020 A 
ATOM     83  C   UNL A   1      47.193  35.262  27.595  1.00  0.00     0.020 A 
ATOM     84  C   UNL A   1      47.658  35.616  28.864  1.00  0.00     0.054 A 
BRANCH  84  85
ATOM     85  S   UNL A   1      48.304  37.283  29.175  1.00  0.00     0.124 S 
ATOM     86  O   UNL A   1      48.536  37.254  30.615  1.00  0.00    -0.237 OA
ATOM     87  O   UNL A   1      49.500  37.317  28.340  1.00  0.00    -0.237 OA
ATOM     88  O   UNL A   1      47.219  38.156  28.734  1.00  0.00    -0.744 OA
ENDBRANCH  84  85
ENDBRANCH  56  79
BRANCH  68  89
ATOM     89  C   UNL A   1      49.655  27.213  25.873  1.00  0.00    -0.014 A 
ATOM     90  C   UNL A   1      50.689  26.754  26.708  1.00  0.00     0.010 A 
ATOM     91  C   UNL A   1      49.898  27.341  24.492  1.00  0.00     0.010 A 
ATOM     92  C   UNL A   1      51.948  26.458  26.178  1.00  0.00     0.020 A 
ATOM     93  C   UNL A   1      51.146  27.015  23.953  1.00  0.00     0.020 A 
ATOM     94  C   UNL A   1      52.168  26.589  24.803  1.00  0.00     0.054 A 
BRANCH  94  95
ATOM     95  S   UNL A   1      53.797  26.154  24.135  1.00  0.00     0.124 S 
ATOM     96  O   UNL A   1      54.621  27.269  24.591  1.00  0.00    -0.237 OA
ATOM     97  O   UNL A   1      54.071  24.868  24.774  1.00  0.00    -0.237 OA
ATOM     98  O   UNL A   1      53.575  26.092  22.692  1.00  0.00    -0.744 OA
ENDBRANCH  94  95
ENDBRANCH  68  89
ENDBRANCH  42  43
ENDBRANCH  34  37
ENDBRANCH  32  33
ENDBRANCH  31  32
ENDBRANCH   1  31
TORSDOF 19
ENDMDL
