MODEL 1
REMARK VINA RESULT:     -10.2      0.000      0.000
REMARK SMILES [NH3+][C@H](CCC(=O)NCCCCNC(=O)c1ccc(-c2c3nc(c(-c4ccc(S(=O)(=O)[O-])cc4)c4ccc([nH]4)c(-c4ccc(S(=O)(=O)[O-])cc4)c4nc(c(-c5ccc(S(=O)(=O)[O-])cc5)c5ccc2[nH]5)C=C4)C=C3)cc1)c1nccc2[nH]ccc12
REMARK SMILES IDX 9 1 8 2 7 3 5 4 6 5 4 7 3 8 2 9 1 10 75 14 76 15 83 16 77 17
REMARK SMILES IDX 79 18 82 19 78 20 80 21 81 22 10 24 11 25 12 26 13 27 14 29
REMARK SMILES IDX 15 30 16 31 74 32 17 33 73 34 18 35 19 36 20 37 67 38 21 39
REMARK SMILES IDX 72 40 66 41 68 42 22 43 71 44 65 45 64 46 23 48 53 49 34 50
REMARK SMILES IDX 52 51 35 52 38 53 51 54 69 55 36 56 37 57 50 59 70 60 39 61
REMARK SMILES IDX 24 62 25 63 33 64 26 65 32 66 27 67 28 68 29 69 30 70 31 71
REMARK SMILES IDX 54 72 55 73 63 74 56 75 62 76 57 77 58 78 59 79 60 80 61 81
REMARK SMILES IDX 40 82 41 83 49 84 42 85 48 86 43 87 44 88 45 89 46 90 47 91
REMARK H PARENT 7 6 1 11 1 12 1 13 80 23 12 28 68 47 38 58
REMARK Flexibility Score: inf
ROOT
ATOM      1  C   UNL A   1      34.033  28.594  23.909  1.00  0.00     0.023 C 
ENDROOT
BRANCH   1   2
ATOM      2  C   UNL A   1      33.293  27.694  22.925  1.00  0.00     0.116 C 
BRANCH   2   3
ATOM      3  N   UNL A   1      32.103  28.263  22.345  1.00  0.00    -0.356 N 
ATOM      4  C   UNL A   1      30.812  27.855  22.514  1.00  0.00     0.220 C 
ATOM      5  O   UNL A   1      29.928  28.526  21.975  1.00  0.00    -0.275 OA
ATOM      6  H   UNL A   1      32.238  29.040  21.755  1.00  0.00     0.163 HD
BRANCH   4   7
ATOM      7  C   UNL A   1      30.436  26.638  23.370  1.00  0.00     0.106 C 
BRANCH   7   8
ATOM      8  C   UNL A   1      30.284  26.874  24.877  1.00  0.00     0.082 C 
BRANCH   8   9
ATOM      9  C   UNL A   1      30.811  25.833  25.916  1.00  0.00     0.232 C 
BRANCH   9  10
ATOM     10  N   UNL A   1      29.685  24.916  26.253  1.00  0.00    -0.350 N 
ATOM     11  H   UNL A   1      30.048  24.098  26.743  1.00  0.00     0.345 HD
ATOM     12  H   UNL A   1      29.218  24.621  25.396  1.00  0.00     0.345 HD
ATOM     13  H   UNL A   1      29.018  25.403  26.853  1.00  0.00     0.345 HD
ENDBRANCH   9  10
BRANCH   9  14
ATOM     14  C   UNL A   1      32.068  24.996  25.652  1.00  0.00     0.107 A 
ATOM     15  N   UNL A   1      33.257  25.463  26.146  1.00  0.00    -0.254 NA
ATOM     16  C   UNL A   1      32.158  24.005  24.642  1.00  0.00     0.027 A 
ATOM     17  C   UNL A   1      34.414  25.240  25.496  1.00  0.00     0.114 A 
ATOM     18  C   UNL A   1      33.359  23.904  23.932  1.00  0.00     0.049 A 
ATOM     19  C   UNL A   1      31.288  23.019  24.091  1.00  0.00     0.030 A 
ATOM     20  C   UNL A   1      34.512  24.588  24.292  1.00  0.00     0.047 A 
ATOM     21  N   UNL A   1      33.133  23.069  22.865  1.00  0.00    -0.361 N 
ATOM     22  C   UNL A   1      31.950  22.406  23.049  1.00  0.00     0.083 A 
ATOM     23  H   UNL A   1      33.729  22.962  22.090  1.00  0.00     0.166 HD
ENDBRANCH   9  14
ENDBRANCH   8   9
ENDBRANCH   7   8
ENDBRANCH   4   7
ENDBRANCH   2   3
ENDBRANCH   1   2
BRANCH   1  24
ATOM     24  C   UNL A   1      33.169  29.165  25.029  1.00  0.00     0.023 C 
BRANCH  24  25
ATOM     25  C   UNL A   1      33.757  29.083  26.438  1.00  0.00     0.116 C 
BRANCH  25  26
ATOM     26  N   UNL A   1      33.657  30.310  27.221  1.00  0.00    -0.352 N 
ATOM     27  C   UNL A   1      34.602  30.845  28.073  1.00  0.00     0.251 C 
ATOM     28  H   UNL A   1      32.816  30.815  27.132  1.00  0.00     0.163 HD
ATOM     29  O   UNL A   1      34.377  31.872  28.709  1.00  0.00    -0.269 OA
BRANCH  27  30
ATOM     30  C   UNL A   1      35.889  30.136  28.236  1.00  0.00     0.039 A 
ATOM     31  C   UNL A   1      36.836  30.188  27.212  1.00  0.00     0.014 A 
ATOM     32  C   UNL A   1      36.194  29.528  29.456  1.00  0.00     0.014 A 
ATOM     33  C   UNL A   1      38.130  29.718  27.450  1.00  0.00     0.010 A 
ATOM     34  C   UNL A   1      37.503  29.136  29.715  1.00  0.00     0.010 A 
ATOM     35  C   UNL A   1      38.489  29.239  28.721  1.00  0.00    -0.014 A 
BRANCH  35  36
ATOM     36  C   UNL A   1      39.891  28.858  29.042  1.00  0.00     0.031 A 
ATOM     37  C   UNL A   1      40.818  29.864  29.669  1.00  0.00     0.074 A 
ATOM     38  C   UNL A   1      40.356  27.641  28.692  1.00  0.00     0.049 A 
ATOM     39  N   UNL A   1      42.091  29.751  29.948  1.00  0.00    -0.248 NA
ATOM     40  C   UNL A   1      40.248  31.182  29.993  1.00  0.00     0.031 C 
ATOM     41  C   UNL A   1      39.579  26.593  28.024  1.00  0.00     0.029 A 
ATOM     42  N   UNL A   1      41.602  27.081  28.841  1.00  0.00    -0.354 N 
ATOM     43  C   UNL A   1      42.478  30.986  30.455  1.00  0.00     0.074 A 
ATOM     44  C   UNL A   1      41.318  31.849  30.394  1.00  0.00     0.031 C 
ATOM     45  C   UNL A   1      40.356  25.511  27.849  1.00  0.00     0.029 A 
ATOM     46  C   UNL A   1      41.694  25.797  28.357  1.00  0.00     0.049 A 
ATOM     47  H   UNL A   1      42.358  27.555  29.256  1.00  0.00     0.167 HD
ATOM     48  C   UNL A   1      43.679  31.364  30.953  1.00  0.00     0.031 A 
ATOM     49  C   UNL A   1      42.737  24.943  28.323  1.00  0.00     0.031 A 
ATOM     50  C   UNL A   1      44.826  30.498  31.035  1.00  0.00     0.049 A 
ATOM     51  C   UNL A   1      44.058  25.376  28.900  1.00  0.00     0.074 A 
ATOM     52  C   UNL A   1      46.068  30.767  31.580  1.00  0.00     0.029 A 
ATOM     53  N   UNL A   1      44.866  29.195  30.565  1.00  0.00    -0.354 N 
ATOM     54  N   UNL A   1      44.382  26.527  29.439  1.00  0.00    -0.248 NA
ATOM     55  C   UNL A   1      45.148  24.391  28.876  1.00  0.00     0.031 C 
ATOM     56  C   UNL A   1      46.875  29.638  31.402  1.00  0.00     0.029 A 
ATOM     57  C   UNL A   1      46.117  28.649  30.793  1.00  0.00     0.049 A 
ATOM     58  H   UNL A   1      44.116  28.727  30.133  1.00  0.00     0.167 HD
ATOM     59  C   UNL A   1      45.707  26.395  29.842  1.00  0.00     0.074 A 
ATOM     60  C   UNL A   1      46.118  25.050  29.497  1.00  0.00     0.031 C 
ATOM     61  C   UNL A   1      46.510  27.307  30.445  1.00  0.00     0.031 A 
BRANCH  48  62
ATOM     62  C   UNL A   1      43.806  32.780  31.449  1.00  0.00    -0.014 A 
ATOM     63  C   UNL A   1      44.116  33.831  30.567  1.00  0.00     0.010 A 
ATOM     64  C   UNL A   1      43.600  33.068  32.811  1.00  0.00     0.010 A 
ATOM     65  C   UNL A   1      44.274  35.134  31.045  1.00  0.00     0.020 A 
ATOM     66  C   UNL A   1      43.727  34.376  33.288  1.00  0.00     0.020 A 
ATOM     67  C   UNL A   1      44.085  35.397  32.404  1.00  0.00     0.054 A 
BRANCH  67  68
ATOM     68  S   UNL A   1      44.294  37.098  32.997  1.00  0.00     0.124 S 
ATOM     69  O   UNL A   1      43.021  37.340  33.670  1.00  0.00    -0.237 OA
ATOM     70  O   UNL A   1      45.457  36.992  33.875  1.00  0.00    -0.237 OA
ATOM     71  O   UNL A   1      44.509  37.867  31.774  1.00  0.00    -0.744 OA
ENDBRANCH  67  68
ENDBRANCH  48  62
BRANCH  49  72
ATOM     72  C   UNL A   1      42.566  23.580  27.749  1.00  0.00    -0.014 A 
ATOM     73  C   UNL A   1      42.947  23.313  26.422  1.00  0.00     0.010 A 
ATOM     74  C   UNL A   1      42.038  22.536  28.531  1.00  0.00     0.010 A 
ATOM     75  C   UNL A   1      42.790  22.033  25.882  1.00  0.00     0.020 A 
ATOM     76  C   UNL A   1      41.902  21.248  28.001  1.00  0.00     0.020 A 
ATOM     77  C   UNL A   1      42.270  21.008  26.677  1.00  0.00     0.054 A 
BRANCH  77  78
ATOM     78  S   UNL A   1      42.133  19.340  25.974  1.00  0.00     0.124 S 
ATOM     79  O   UNL A   1      42.651  18.510  27.056  1.00  0.00    -0.237 OA
ATOM     80  O   UNL A   1      40.699  19.222  25.717  1.00  0.00    -0.237 OA
ATOM     81  O   UNL A   1      42.968  19.404  24.776  1.00  0.00    -0.744 OA
ENDBRANCH  77  78
ENDBRANCH  49  72
BRANCH  61  82
ATOM     82  C   UNL A   1      47.906  26.874  30.803  1.00  0.00    -0.014 A 
ATOM     83  C   UNL A   1      48.976  27.058  29.911  1.00  0.00     0.010 A 
ATOM     84  C   UNL A   1      48.157  26.331  32.077  1.00  0.00     0.010 A 
ATOM     85  C   UNL A   1      50.271  26.683  30.277  1.00  0.00     0.020 A 
ATOM     86  C   UNL A   1      49.454  25.978  32.456  1.00  0.00     0.020 A 
ATOM     87  C   UNL A   1      50.503  26.145  31.549  1.00  0.00     0.054 A 
BRANCH  87  88
ATOM     88  S   UNL A   1      52.199  25.712  32.020  1.00  0.00     0.124 S 
ATOM     89  O   UNL A   1      52.445  26.620  33.138  1.00  0.00    -0.237 OA
ATOM     90  O   UNL A   1      52.084  24.299  32.372  1.00  0.00    -0.237 OA
ATOM     91  O   UNL A   1      52.974  25.987  30.813  1.00  0.00    -0.744 OA
ENDBRANCH  87  88
ENDBRANCH  61  82
ENDBRANCH  35  36
ENDBRANCH  27  30
ENDBRANCH  25  26
ENDBRANCH  24  25
ENDBRANCH   1  24
TORSDOF 18
ENDMDL
MODEL 2
REMARK VINA RESULT:     -10.1      1.454      2.155
REMARK SMILES [NH3+][C@H](CCC(=O)NCCCCNC(=O)c1ccc(-c2c3nc(c(-c4ccc(S(=O)(=O)[O-])cc4)c4ccc([nH]4)c(-c4ccc(S(=O)(=O)[O-])cc4)c4nc(c(-c5ccc(S(=O)(=O)[O-])cc5)c5ccc2[nH]5)C=C4)C=C3)cc1)c1nccc2[nH]ccc12
REMARK SMILES IDX 9 1 8 2 7 3 5 4 6 5 4 7 3 8 2 9 1 10 75 14 76 15 83 16 77 17
REMARK SMILES IDX 79 18 82 19 78 20 80 21 81 22 10 24 11 25 12 26 13 27 14 29
REMARK SMILES IDX 15 30 16 31 74 32 17 33 73 34 18 35 19 36 20 37 67 38 21 39
REMARK SMILES IDX 72 40 66 41 68 42 22 43 71 44 65 45 64 46 23 48 53 49 34 50
REMARK SMILES IDX 52 51 35 52 38 53 51 54 69 55 36 56 37 57 50 59 70 60 39 61
REMARK SMILES IDX 24 62 25 63 33 64 26 65 32 66 27 67 28 68 29 69 30 70 31 71
REMARK SMILES IDX 54 72 55 73 63 74 56 75 62 76 57 77 58 78 59 79 60 80 61 81
REMARK SMILES IDX 40 82 41 83 49 84 42 85 48 86 43 87 44 88 45 89 46 90 47 91
REMARK H PARENT 7 6 1 11 1 12 1 13 80 23 12 28 68 47 38 58
REMARK Flexibility Score: inf
ROOT
ATOM      1  C   UNL A   1      33.779  27.950  24.740  1.00  0.00     0.023 C 
ENDROOT
BRANCH   1   2
ATOM      2  C   UNL A   1      33.033  26.679  24.351  1.00  0.00     0.116 C 
BRANCH   2   3
ATOM      3  N   UNL A   1      31.627  26.668  24.667  1.00  0.00    -0.356 N 
ATOM      4  C   UNL A   1      30.881  25.624  25.129  1.00  0.00     0.220 C 
ATOM      5  O   UNL A   1      29.698  25.846  25.400  1.00  0.00    -0.275 OA
ATOM      6  H   UNL A   1      31.148  27.517  24.531  1.00  0.00     0.163 HD
BRANCH   4   7
ATOM      7  C   UNL A   1      31.469  24.225  25.356  1.00  0.00     0.106 C 
BRANCH   7   8
ATOM      8  C   UNL A   1      31.865  23.866  26.792  1.00  0.00     0.082 C 
BRANCH   8   9
ATOM      9  C   UNL A   1      33.147  23.026  27.093  1.00  0.00     0.232 C 
BRANCH   9  10
ATOM     10  N   UNL A   1      32.766  21.936  28.035  1.00  0.00    -0.350 N 
ATOM     11  H   UNL A   1      32.659  22.320  28.974  1.00  0.00     0.345 HD
ATOM     12  H   UNL A   1      33.494  21.221  28.041  1.00  0.00     0.345 HD
ATOM     13  H   UNL A   1      31.884  21.519  27.735  1.00  0.00     0.345 HD
ENDBRANCH   9  10
BRANCH   9  14
ATOM     14  C   UNL A   1      34.003  22.431  25.968  1.00  0.00     0.107 A 
ATOM     15  N   UNL A   1      33.582  21.256  25.405  1.00  0.00    -0.254 NA
ATOM     16  C   UNL A   1      35.355  22.787  25.734  1.00  0.00     0.027 A 
ATOM     17  C   UNL A   1      34.466  20.351  24.944  1.00  0.00     0.114 A 
ATOM     18  C   UNL A   1      36.242  21.770  25.363  1.00  0.00     0.049 A 
ATOM     19  C   UNL A   1      36.128  23.983  25.798  1.00  0.00     0.030 A 
ATOM     20  C   UNL A   1      35.829  20.487  25.032  1.00  0.00     0.047 A 
ATOM     21  N   UNL A   1      37.511  22.291  25.433  1.00  0.00    -0.361 N 
ATOM     22  C   UNL A   1      37.439  23.655  25.529  1.00  0.00     0.083 A 
ATOM     23  H   UNL A   1      38.343  21.766  25.416  1.00  0.00     0.166 HD
ENDBRANCH   9  14
ENDBRANCH   8   9
ENDBRANCH   7   8
ENDBRANCH   4   7
ENDBRANCH   2   3
ENDBRANCH   1   2
BRANCH   1  24
ATOM     24  C   UNL A   1      33.054  28.836  25.748  1.00  0.00     0.023 C 
BRANCH  24  25
ATOM     25  C   UNL A   1      33.655  28.885  27.152  1.00  0.00     0.116 C 
BRANCH  25  26
ATOM     26  N   UNL A   1      33.629  30.198  27.790  1.00  0.00    -0.352 N 
ATOM     27  C   UNL A   1      34.654  30.826  28.468  1.00  0.00     0.251 C 
ATOM     28  H   UNL A   1      32.780  30.693  27.730  1.00  0.00     0.163 HD
ATOM     29  O   UNL A   1      34.490  31.923  28.996  1.00  0.00    -0.269 OA
BRANCH  27  30
ATOM     30  C   UNL A   1      35.956  30.134  28.579  1.00  0.00     0.039 A 
ATOM     31  C   UNL A   1      36.839  30.157  27.497  1.00  0.00     0.014 A 
ATOM     32  C   UNL A   1      36.340  29.574  29.799  1.00  0.00     0.014 A 
ATOM     33  C   UNL A   1      38.150  29.707  27.674  1.00  0.00     0.010 A 
ATOM     34  C   UNL A   1      37.667  29.204  29.992  1.00  0.00     0.010 A 
ATOM     35  C   UNL A   1      38.590  29.278  28.937  1.00  0.00    -0.014 A 
BRANCH  35  36
ATOM     36  C   UNL A   1      40.013  28.921  29.187  1.00  0.00     0.031 A 
ATOM     37  C   UNL A   1      40.953  29.943  29.767  1.00  0.00     0.074 A 
ATOM     38  C   UNL A   1      40.481  27.713  28.812  1.00  0.00     0.049 A 
ATOM     39  N   UNL A   1      42.241  29.852  29.981  1.00  0.00    -0.248 NA
ATOM     40  C   UNL A   1      40.377  31.250  30.122  1.00  0.00     0.031 C 
ATOM     41  C   UNL A   1      39.689  26.652  28.182  1.00  0.00     0.029 A 
ATOM     42  N   UNL A   1      41.742  27.175  28.897  1.00  0.00    -0.354 N 
ATOM     43  C   UNL A   1      42.631  31.093  30.471  1.00  0.00     0.074 A 
ATOM     44  C   UNL A   1      41.455  31.936  30.469  1.00  0.00     0.031 C 
ATOM     45  C   UNL A   1      40.475  25.584  27.967  1.00  0.00     0.029 A 
ATOM     46  C   UNL A   1      41.832  25.892  28.407  1.00  0.00     0.049 A 
ATOM     47  H   UNL A   1      42.510  27.661  29.274  1.00  0.00     0.167 HD
ATOM     48  C   UNL A   1      43.849  31.491  30.907  1.00  0.00     0.031 A 
ATOM     49  C   UNL A   1      42.887  25.056  28.319  1.00  0.00     0.031 A 
ATOM     50  C   UNL A   1      45.013  30.646  30.931  1.00  0.00     0.049 A 
ATOM     51  C   UNL A   1      44.227  25.512  28.830  1.00  0.00     0.074 A 
ATOM     52  C   UNL A   1      46.277  30.936  31.413  1.00  0.00     0.029 A 
ATOM     53  N   UNL A   1      45.052  29.343  30.457  1.00  0.00    -0.354 N 
ATOM     54  N   UNL A   1      44.558  26.669  29.354  1.00  0.00    -0.248 NA
ATOM     55  C   UNL A   1      45.331  24.546  28.749  1.00  0.00     0.031 C 
ATOM     56  C   UNL A   1      47.093  29.821  31.193  1.00  0.00     0.029 A 
ATOM     57  C   UNL A   1      46.322  28.819  30.621  1.00  0.00     0.049 A 
ATOM     58  H   UNL A   1      44.289  28.863  30.063  1.00  0.00     0.167 HD
ATOM     59  C   UNL A   1      45.903  26.559  29.689  1.00  0.00     0.074 A 
ATOM     60  C   UNL A   1      46.320  25.221  29.322  1.00  0.00     0.031 C 
ATOM     61  C   UNL A   1      46.720  27.484  30.252  1.00  0.00     0.031 A 
BRANCH  48  62
ATOM     62  C   UNL A   1      43.976  32.910  31.398  1.00  0.00    -0.014 A 
ATOM     63  C   UNL A   1      43.952  33.205  32.773  1.00  0.00     0.010 A 
ATOM     64  C   UNL A   1      44.134  33.961  30.476  1.00  0.00     0.010 A 
ATOM     65  C   UNL A   1      44.026  34.528  33.216  1.00  0.00     0.020 A 
ATOM     66  C   UNL A   1      44.239  35.283  30.916  1.00  0.00     0.020 A 
ATOM     67  C   UNL A   1      44.163  35.559  32.283  1.00  0.00     0.054 A 
BRANCH  67  68
ATOM     68  S   UNL A   1      44.259  37.267  32.885  1.00  0.00     0.124 S 
ATOM     69  O   UNL A   1      44.420  38.015  31.641  1.00  0.00    -0.237 OA
ATOM     70  O   UNL A   1      42.976  37.442  33.561  1.00  0.00    -0.237 OA
ATOM     71  O   UNL A   1      45.427  37.259  33.763  1.00  0.00    -0.744 OA
ENDBRANCH  67  68
ENDBRANCH  48  62
BRANCH  49  72
ATOM     72  C   UNL A   1      42.710  23.691  27.753  1.00  0.00    -0.014 A 
ATOM     73  C   UNL A   1      42.523  22.587  28.604  1.00  0.00     0.010 A 
ATOM     74  C   UNL A   1      42.711  23.489  26.361  1.00  0.00     0.010 A 
ATOM     75  C   UNL A   1      42.354  21.303  28.074  1.00  0.00     0.020 A 
ATOM     76  C   UNL A   1      42.518  22.210  25.827  1.00  0.00     0.020 A 
ATOM     77  C   UNL A   1      42.350  21.124  26.688  1.00  0.00     0.054 A 
BRANCH  77  78
ATOM     78  S   UNL A   1      42.068  19.459  26.022  1.00  0.00     0.124 S 
ATOM     79  O   UNL A   1      42.491  18.612  27.132  1.00  0.00    -0.237 OA
ATOM     80  O   UNL A   1      40.633  19.469  25.745  1.00  0.00    -0.237 OA
ATOM     81  O   UNL A   1      42.922  19.416  24.838  1.00  0.00    -0.744 OA
ENDBRANCH  77  78
ENDBRANCH  49  72
BRANCH  61  82
ATOM     82  C   UNL A   1      48.139  27.075  30.539  1.00  0.00    -0.014 A 
ATOM     83  C   UNL A   1      49.184  27.405  29.658  1.00  0.00     0.010 A 
ATOM     84  C   UNL A   1      48.438  26.404  31.739  1.00  0.00     0.010 A 
ATOM     85  C   UNL A   1      50.500  27.049  29.961  1.00  0.00     0.020 A 
ATOM     86  C   UNL A   1      49.755  26.068  32.057  1.00  0.00     0.020 A 
ATOM     87  C   UNL A   1      50.778  26.382  31.159  1.00  0.00     0.054 A 
BRANCH  87  88
ATOM     88  S   UNL A   1      52.501  25.974  31.554  1.00  0.00     0.124 S 
ATOM     89  O   UNL A   1      52.373  24.635  32.124  1.00  0.00    -0.237 OA
ATOM     90  O   UNL A   1      53.154  26.041  30.249  1.00  0.00    -0.237 OA
ATOM     91  O   UNL A   1      52.896  27.017  32.497  1.00  0.00    -0.744 OA
ENDBRANCH  87  88
ENDBRANCH  61  82
ENDBRANCH  35  36
ENDBRANCH  27  30
ENDBRANCH  25  26
ENDBRANCH  24  25
ENDBRANCH   1  24
TORSDOF 18
ENDMDL
MODEL 3
REMARK VINA RESULT:     -10.0      2.695      9.394
REMARK SMILES [NH3+][C@H](CCC(=O)NCCCCNC(=O)c1ccc(-c2c3nc(c(-c4ccc(S(=O)(=O)[O-])cc4)c4ccc([nH]4)c(-c4ccc(S(=O)(=O)[O-])cc4)c4nc(c(-c5ccc(S(=O)(=O)[O-])cc5)c5ccc2[nH]5)C=C4)C=C3)cc1)c1nccc2[nH]ccc12
REMARK SMILES IDX 9 1 8 2 7 3 5 4 6 5 4 7 3 8 2 9 1 10 75 14 76 15 83 16 77 17
REMARK SMILES IDX 79 18 82 19 78 20 80 21 81 22 10 24 11 25 12 26 13 27 14 29
REMARK SMILES IDX 15 30 16 31 74 32 17 33 73 34 18 35 19 36 20 37 67 38 21 39
REMARK SMILES IDX 72 40 66 41 68 42 22 43 71 44 65 45 64 46 23 48 53 49 34 50
REMARK SMILES IDX 52 51 35 52 38 53 51 54 69 55 36 56 37 57 50 59 70 60 39 61
REMARK SMILES IDX 24 62 25 63 33 64 26 65 32 66 27 67 28 68 29 69 30 70 31 71
REMARK SMILES IDX 54 72 55 73 63 74 56 75 62 76 57 77 58 78 59 79 60 80 61 81
REMARK SMILES IDX 40 82 41 83 49 84 42 85 48 86 43 87 44 88 45 89 46 90 47 91
REMARK H PARENT 7 6 1 11 1 12 1 13 80 23 12 28 68 47 38 58
REMARK Flexibility Score: inf
ROOT
ATOM      1  C   UNL A   1      35.025  22.193  24.267  1.00  0.00     0.023 C 
ENDROOT
BRANCH   1   2
ATOM      2  C   UNL A   1      33.783  22.962  23.833  1.00  0.00     0.116 C 
BRANCH   2   3
ATOM      3  N   UNL A   1      32.878  23.321  24.895  1.00  0.00    -0.356 N 
ATOM      4  C   UNL A   1      32.944  24.405  25.720  1.00  0.00     0.220 C 
ATOM      5  O   UNL A   1      32.023  24.562  26.527  1.00  0.00    -0.275 OA
ATOM      6  H   UNL A   1      32.121  22.709  25.042  1.00  0.00     0.163 HD
BRANCH   4   7
ATOM      7  C   UNL A   1      34.081  25.432  25.646  1.00  0.00     0.106 C 
BRANCH   7   8
ATOM      8  C   UNL A   1      34.035  26.431  24.484  1.00  0.00     0.082 C 
BRANCH   8   9
ATOM      9  C   UNL A   1      33.585  27.910  24.704  1.00  0.00     0.232 C 
BRANCH   9  10
ATOM     10  N   UNL A   1      34.302  28.757  23.709  1.00  0.00    -0.350 N 
ATOM     11  H   UNL A   1      35.049  28.214  23.275  1.00  0.00     0.345 HD
ATOM     12  H   UNL A   1      34.701  29.570  24.178  1.00  0.00     0.345 HD
ATOM     13  H   UNL A   1      33.646  29.068  22.991  1.00  0.00     0.345 HD
ENDBRANCH   9  10
BRANCH   9  14
ATOM     14  C   UNL A   1      32.105  28.309  24.718  1.00  0.00     0.107 A 
ATOM     15  N   UNL A   1      31.246  27.587  23.933  1.00  0.00    -0.254 NA
ATOM     16  C   UNL A   1      31.632  29.567  25.167  1.00  0.00     0.027 A 
ATOM     17  C   UNL A   1      30.172  28.165  23.364  1.00  0.00     0.114 A 
ATOM     18  C   UNL A   1      30.581  30.161  24.457  1.00  0.00     0.049 A 
ATOM     19  C   UNL A   1      31.969  30.479  26.210  1.00  0.00     0.030 A 
ATOM     20  C   UNL A   1      29.866  29.499  23.469  1.00  0.00     0.047 A 
ATOM     21  N   UNL A   1      30.463  31.452  24.909  1.00  0.00    -0.361 N 
ATOM     22  C   UNL A   1      31.175  31.596  26.070  1.00  0.00     0.083 A 
ATOM     23  H   UNL A   1      29.946  32.164  24.468  1.00  0.00     0.166 HD
ENDBRANCH   9  14
ENDBRANCH   8   9
ENDBRANCH   7   8
ENDBRANCH   4   7
ENDBRANCH   2   3
ENDBRANCH   1   2
BRANCH   1  24
ATOM     24  C   UNL A   1      36.350  22.836  23.869  1.00  0.00     0.023 C 
BRANCH  24  25
ATOM     25  C   UNL A   1      37.203  23.380  25.015  1.00  0.00     0.116 C 
BRANCH  25  26
ATOM     26  N   UNL A   1      38.236  22.471  25.501  1.00  0.00    -0.352 N 
ATOM     27  C   UNL A   1      39.285  22.765  26.349  1.00  0.00     0.251 C 
ATOM     28  H   UNL A   1      38.178  21.540  25.187  1.00  0.00     0.163 HD
ATOM     29  O   UNL A   1      40.115  21.912  26.653  1.00  0.00    -0.269 OA
BRANCH  27  30
ATOM     30  C   UNL A   1      39.414  24.146  26.862  1.00  0.00     0.039 A 
ATOM     31  C   UNL A   1      38.986  24.439  28.158  1.00  0.00     0.014 A 
ATOM     32  C   UNL A   1      40.074  25.109  26.095  1.00  0.00     0.014 A 
ATOM     33  C   UNL A   1      39.312  25.674  28.724  1.00  0.00     0.010 A 
ATOM     34  C   UNL A   1      40.466  26.303  26.691  1.00  0.00     0.010 A 
ATOM     35  C   UNL A   1      40.102  26.595  28.015  1.00  0.00    -0.014 A 
BRANCH  35  36
ATOM     36  C   UNL A   1      40.578  27.858  28.641  1.00  0.00     0.031 A 
ATOM     37  C   UNL A   1      41.980  27.949  29.179  1.00  0.00     0.074 A 
ATOM     38  C   UNL A   1      39.726  28.891  28.805  1.00  0.00     0.049 A 
ATOM     39  N   UNL A   1      42.552  28.929  29.830  1.00  0.00    -0.248 NA
ATOM     40  C   UNL A   1      42.841  26.769  28.992  1.00  0.00     0.031 C 
ATOM     41  C   UNL A   1      38.323  28.912  28.383  1.00  0.00     0.029 A 
ATOM     42  N   UNL A   1      39.914  30.124  29.381  1.00  0.00    -0.354 N 
ATOM     43  C   UNL A   1      43.827  28.477  30.149  1.00  0.00     0.074 A 
ATOM     44  C   UNL A   1      43.925  27.115  29.670  1.00  0.00     0.031 C 
ATOM     45  C   UNL A   1      37.788  30.106  28.687  1.00  0.00     0.029 A 
ATOM     46  C   UNL A   1      38.794  30.924  29.357  1.00  0.00     0.049 A 
ATOM     47  H   UNL A   1      40.770  30.410  29.774  1.00  0.00     0.167 HD
ATOM     48  C   UNL A   1      44.837  29.139  30.762  1.00  0.00     0.031 A 
ATOM     49  C   UNL A   1      38.597  32.174  29.822  1.00  0.00     0.031 A 
ATOM     50  C   UNL A   1      44.748  30.501  31.217  1.00  0.00     0.049 A 
ATOM     51  C   UNL A   1      39.739  32.900  30.481  1.00  0.00     0.074 A 
ATOM     52  C   UNL A   1      45.735  31.281  31.792  1.00  0.00     0.029 A 
ATOM     53  N   UNL A   1      43.607  31.285  31.142  1.00  0.00    -0.354 N 
ATOM     54  N   UNL A   1      40.960  32.476  30.711  1.00  0.00    -0.248 NA
ATOM     55  C   UNL A   1      39.481  34.275  30.930  1.00  0.00     0.031 C 
ATOM     56  C   UNL A   1      45.179  32.527  32.104  1.00  0.00     0.029 A 
ATOM     57  C   UNL A   1      43.860  32.537  31.675  1.00  0.00     0.049 A 
ATOM     58  H   UNL A   1      42.746  30.994  30.766  1.00  0.00     0.167 HD
ATOM     59  C   UNL A   1      41.623  33.543  31.309  1.00  0.00     0.074 A 
ATOM     60  C   UNL A   1      40.672  34.633  31.392  1.00  0.00     0.031 C 
ATOM     61  C   UNL A   1      42.904  33.613  31.748  1.00  0.00     0.031 A 
BRANCH  48  62
ATOM     62  C   UNL A   1      46.128  28.390  30.969  1.00  0.00    -0.014 A 
ATOM     63  C   UNL A   1      46.359  27.659  32.148  1.00  0.00     0.010 A 
ATOM     64  C   UNL A   1      47.117  28.406  29.968  1.00  0.00     0.010 A 
ATOM     65  C   UNL A   1      47.577  27.005  32.348  1.00  0.00     0.020 A 
ATOM     66  C   UNL A   1      48.325  27.727  30.152  1.00  0.00     0.020 A 
ATOM     67  C   UNL A   1      48.555  27.048  31.351  1.00  0.00     0.054 A 
BRANCH  67  68
ATOM     68  S   UNL A   1      50.125  26.188  31.637  1.00  0.00     0.124 S 
ATOM     69  O   UNL A   1      50.835  26.435  30.385  1.00  0.00    -0.237 OA
ATOM     70  O   UNL A   1      50.661  26.877  32.808  1.00  0.00    -0.237 OA
ATOM     71  O   UNL A   1      49.724  24.801  31.862  1.00  0.00    -0.744 OA
ENDBRANCH  67  68
ENDBRANCH  48  62
BRANCH  49  72
ATOM     72  C   UNL A   1      37.273  32.832  29.653  1.00  0.00    -0.014 A 
ATOM     73  C   UNL A   1      36.450  33.074  30.767  1.00  0.00     0.010 A 
ATOM     74  C   UNL A   1      36.833  33.236  28.379  1.00  0.00     0.010 A 
ATOM     75  C   UNL A   1      35.207  33.694  30.611  1.00  0.00     0.020 A 
ATOM     76  C   UNL A   1      35.600  33.879  28.222  1.00  0.00     0.020 A 
ATOM     77  C   UNL A   1      34.790  34.095  29.338  1.00  0.00     0.054 A 
BRANCH  77  78
ATOM     78  S   UNL A   1      33.200  34.953  29.167  1.00  0.00     0.124 S 
ATOM     79  O   UNL A   1      32.659  34.862  30.519  1.00  0.00    -0.237 OA
ATOM     80  O   UNL A   1      33.607  36.289  28.737  1.00  0.00    -0.237 OA
ATOM     81  O   UNL A   1      32.497  34.169  28.155  1.00  0.00    -0.744 OA
ENDBRANCH  77  78
ENDBRANCH  49  72
BRANCH  61  82
ATOM     82  C   UNL A   1      43.368  34.921  32.329  1.00  0.00    -0.014 A 
ATOM     83  C   UNL A   1      43.880  35.941  31.508  1.00  0.00     0.010 A 
ATOM     84  C   UNL A   1      43.231  35.153  33.710  1.00  0.00     0.010 A 
ATOM     85  C   UNL A   1      44.270  37.162  32.063  1.00  0.00     0.020 A 
ATOM     86  C   UNL A   1      43.596  36.382  34.264  1.00  0.00     0.020 A 
ATOM     87  C   UNL A   1      44.126  37.376  33.438  1.00  0.00     0.054 A 
BRANCH  87  88
ATOM     88  S   UNL A   1      44.593  38.987  34.128  1.00  0.00     0.124 S 
ATOM     89  O   UNL A   1      44.066  38.900  35.487  1.00  0.00    -0.237 OA
ATOM     90  O   UNL A   1      46.050  38.973  34.017  1.00  0.00    -0.237 OA
ATOM     91  O   UNL A   1      43.916  39.944  33.257  1.00  0.00    -0.744 OA
ENDBRANCH  87  88
ENDBRANCH  61  82
ENDBRANCH  35  36
ENDBRANCH  27  30
ENDBRANCH  25  26
ENDBRANCH  24  25
ENDBRANCH   1  24
TORSDOF 18
ENDMDL
