MODEL 1
REMARK VINA RESULT:     -12.7      0.000      0.000
REMARK SMILES NS(=O)(=O)c1ccc(-n2nc(C(=O)NCCCC(=O)NCCCCNC(=O)c3ccc(-c4c5nc(c(-c6ccc(S(=O)(=O)[O-])cc6)c6ccc([nH]6)c(-c6ccc(S(=O)(=O)[O-])cc6)c6nc(c(-c7ccc(S(=O)(=O)[O-])cc7)c7ccc4[nH]7)C=C6)C=C5)cc3)cc2-c2ccccc2)cc1
REMARK SMILES IDX 18 1 19 2 20 3 17 5 16 6 15 7 14 8 12 9 13 10 11 12 9 13
REMARK SMILES IDX 10 14 89 15 88 16 8 17 5 18 6 19 97 20 7 21 96 22 2 23 3 24
REMARK SMILES IDX 4 25 1 26 90 29 91 30 95 31 92 32 94 33 93 34 21 35 22 36
REMARK SMILES IDX 23 37 24 38 25 39 26 40 27 42 28 43 29 44 87 45 30 46 86 47
REMARK SMILES IDX 31 48 32 49 33 50 80 51 34 52 85 53 79 54 81 55 35 56 84 57
REMARK SMILES IDX 78 58 77 59 36 61 66 62 47 63 65 64 48 65 51 66 64 67 82 68
REMARK SMILES IDX 49 69 50 70 63 72 83 73 52 74 37 75 38 76 46 77 39 78 45 79
REMARK SMILES IDX 40 80 41 81 42 82 43 83 44 84 67 85 68 86 76 87 69 88 75 89
REMARK SMILES IDX 70 90 71 91 72 92 73 93 74 94 53 95 54 96 62 97 55 98 61 99
REMARK SMILES IDX 56 100 57 101 58 102 59 103 60 104
REMARK H PARENT 20 4 14 11 1 27 1 28 25 41 81 60 51 71
REMARK Flexibility Score: inf
ROOT
ATOM      1  C   UNL A   1      35.134  21.564  26.154  1.00  0.00     0.220 C 
ATOM      2  O   UNL A   1      34.387  21.710  27.123  1.00  0.00    -0.275 OA
ATOM      3  N   UNL A   1      36.407  22.037  26.250  1.00  0.00    -0.356 N 
ATOM      4  H   UNL A   1      36.665  22.342  27.149  1.00  0.00     0.163 HD
ENDROOT
BRANCH   1   5
ATOM      5  C   UNL A   1      34.641  20.868  24.900  1.00  0.00     0.102 C 
BRANCH   5   6
ATOM      6  C   UNL A   1      34.175  21.814  23.791  1.00  0.00     0.031 C 
BRANCH   6   7
ATOM      7  C   UNL A   1      32.703  21.719  23.409  1.00  0.00     0.116 C 
BRANCH   7   8
ATOM      8  N   UNL A   1      31.811  21.430  24.514  1.00  0.00    -0.351 N 
ATOM      9  C   UNL A   1      31.144  22.293  25.357  1.00  0.00     0.271 C 
ATOM     10  O   UNL A   1      30.440  21.795  26.235  1.00  0.00    -0.267 OA
ATOM     11  H   UNL A   1      31.658  20.473  24.689  1.00  0.00     0.163 HD
BRANCH   9  12
ATOM     12  C   UNL A   1      31.315  23.749  25.203  1.00  0.00     0.151 A 
ATOM     13  N   UNL A   1      30.875  25.746  24.566  1.00  0.00    -0.232 N 
ATOM     14  N   UNL A   1      30.387  24.487  24.564  1.00  0.00    -0.162 NA
ATOM     15  C   UNL A   1      31.956  25.877  25.427  1.00  0.00     0.075 A 
ATOM     16  C   UNL A   1      32.353  24.583  25.690  1.00  0.00     0.065 A 
BRANCH  13  17
ATOM     17  C   UNL A   1      30.236  26.786  23.844  1.00  0.00     0.065 A 
ATOM     18  C   UNL A   1      29.008  29.016  22.739  1.00  0.00     0.082 A 
ATOM     19  C   UNL A   1      30.395  28.882  22.648  1.00  0.00     0.024 A 
ATOM     20  C   UNL A   1      28.226  28.015  23.328  1.00  0.00     0.024 A 
ATOM     21  C   UNL A   1      31.012  27.768  23.209  1.00  0.00     0.030 A 
ATOM     22  C   UNL A   1      28.840  26.878  23.857  1.00  0.00     0.030 A 
BRANCH  18  23
ATOM     23  S   UNL A   1      28.289  30.486  22.074  1.00  0.00     0.238 S 
ATOM     24  O   UNL A   1      27.313  30.986  23.004  1.00  0.00    -0.207 OA
ATOM     25  O   UNL A   1      27.988  30.247  20.676  1.00  0.00    -0.207 OA
BRANCH  23  26
ATOM     26  N   UNL A   1      29.534  31.611  22.077  1.00  0.00    -0.225 NA
ATOM     27  H   UNL A   1      29.206  32.480  22.499  1.00  0.00     0.137 HD
ATOM     28  H   UNL A   1      29.833  31.792  21.118  1.00  0.00     0.137 HD
ENDBRANCH  23  26
ENDBRANCH  18  23
ENDBRANCH  13  17
BRANCH  15  29
ATOM     29  C   UNL A   1      32.419  27.127  26.030  1.00  0.00     0.000 A 
ATOM     30  C   UNL A   1      31.564  27.860  26.870  1.00  0.00     0.010 A 
ATOM     31  C   UNL A   1      33.722  27.587  25.825  1.00  0.00     0.010 A 
ATOM     32  C   UNL A   1      31.984  29.053  27.454  1.00  0.00     0.001 A 
ATOM     33  C   UNL A   1      34.147  28.779  26.421  1.00  0.00     0.001 A 
ATOM     34  C   UNL A   1      33.277  29.513  27.226  1.00  0.00     0.000 A 
ENDBRANCH  15  29
ENDBRANCH   9  12
ENDBRANCH   7   8
ENDBRANCH   6   7
ENDBRANCH   5   6
ENDBRANCH   1   5
BRANCH   3  35
ATOM     35  C   UNL A   1      37.448  22.166  25.246  1.00  0.00     0.116 C 
BRANCH  35  36
ATOM     36  C   UNL A   1      38.835  21.906  25.852  1.00  0.00     0.023 C 
BRANCH  36  37
ATOM     37  C   UNL A   1      39.389  22.987  26.788  1.00  0.00     0.023 C 
BRANCH  37  38
ATOM     38  C   UNL A   1      40.642  22.583  27.548  1.00  0.00     0.116 C 
BRANCH  38  39
ATOM     39  N   UNL A   1      41.779  22.283  26.672  1.00  0.00    -0.352 N 
ATOM     40  C   UNL A   1      42.469  23.181  25.875  1.00  0.00     0.251 C 
ATOM     41  H   UNL A   1      42.082  21.346  26.649  1.00  0.00     0.163 HD
ATOM     42  O   UNL A   1      43.082  22.813  24.881  1.00  0.00    -0.269 OA
BRANCH  40  43
ATOM     43  C   UNL A   1      42.456  24.595  26.283  1.00  0.00     0.039 A 
ATOM     44  C   UNL A   1      41.732  25.570  25.593  1.00  0.00     0.014 A 
ATOM     45  C   UNL A   1      43.122  24.893  27.469  1.00  0.00     0.014 A 
ATOM     46  C   UNL A   1      41.610  26.835  26.168  1.00  0.00     0.010 A 
ATOM     47  C   UNL A   1      42.845  26.066  28.115  1.00  0.00     0.010 A 
ATOM     48  C   UNL A   1      42.148  27.064  27.446  1.00  0.00    -0.014 A 
BRANCH  48  49
ATOM     49  C   UNL A   1      41.895  28.300  28.175  1.00  0.00     0.031 A 
ATOM     50  C   UNL A   1      42.909  29.364  27.946  1.00  0.00     0.074 A 
ATOM     51  C   UNL A   1      40.734  28.549  28.821  1.00  0.00     0.049 A 
ATOM     52  N   UNL A   1      43.838  29.734  28.761  1.00  0.00    -0.248 NA
ATOM     53  C   UNL A   1      43.020  29.969  26.609  1.00  0.00     0.031 C 
ATOM     54  C   UNL A   1      39.514  27.733  28.875  1.00  0.00     0.029 A 
ATOM     55  N   UNL A   1      40.360  29.667  29.493  1.00  0.00    -0.354 N 
ATOM     56  C   UNL A   1      44.491  30.796  28.143  1.00  0.00     0.074 A 
ATOM     57  C   UNL A   1      44.093  30.751  26.759  1.00  0.00     0.031 C 
ATOM     58  C   UNL A   1      38.480  28.484  29.322  1.00  0.00     0.029 A 
ATOM     59  C   UNL A   1      38.998  29.766  29.760  1.00  0.00     0.049 A 
ATOM     60  H   UNL A   1      41.006  30.357  29.771  1.00  0.00     0.167 HD
ATOM     61  C   UNL A   1      45.091  31.775  28.878  1.00  0.00     0.031 A 
ATOM     62  C   UNL A   1      38.351  30.835  30.295  1.00  0.00     0.031 A 
ATOM     63  C   UNL A   1      45.178  31.404  30.271  1.00  0.00     0.049 A 
ATOM     64  C   UNL A   1      39.380  31.635  31.006  1.00  0.00     0.074 A 
ATOM     65  C   UNL A   1      45.752  30.354  30.962  1.00  0.00     0.029 A 
ATOM     66  N   UNL A   1      44.231  31.940  31.116  1.00  0.00    -0.354 N 
ATOM     67  N   UNL A   1      40.017  31.198  32.057  1.00  0.00    -0.248 NA
ATOM     68  C   UNL A   1      40.050  32.693  30.265  1.00  0.00     0.031 C 
ATOM     69  C   UNL A   1      44.787  30.003  31.953  1.00  0.00     0.029 A 
ATOM     70  C   UNL A   1      43.733  30.916  31.880  1.00  0.00     0.049 A 
ATOM     71  H   UNL A   1      43.962  32.885  31.162  1.00  0.00     0.167 HD
ATOM     72  C   UNL A   1      41.334  31.584  31.857  1.00  0.00     0.074 A 
ATOM     73  C   UNL A   1      41.278  32.577  30.781  1.00  0.00     0.031 C 
ATOM     74  C   UNL A   1      42.373  30.862  32.372  1.00  0.00     0.031 A 
BRANCH  61  75
ATOM     75  C   UNL A   1      45.213  33.216  28.444  1.00  0.00    -0.014 A 
ATOM     76  C   UNL A   1      46.427  33.891  28.696  1.00  0.00     0.010 A 
ATOM     77  C   UNL A   1      44.112  34.006  28.060  1.00  0.00     0.010 A 
ATOM     78  C   UNL A   1      46.508  35.288  28.652  1.00  0.00     0.020 A 
ATOM     79  C   UNL A   1      44.194  35.398  27.970  1.00  0.00     0.020 A 
ATOM     80  C   UNL A   1      45.383  36.033  28.302  1.00  0.00     0.054 A 
BRANCH  80  81
ATOM     81  S   UNL A   1      45.474  37.838  28.343  1.00  0.00     0.124 S 
ATOM     82  O   UNL A   1      44.139  38.195  28.812  1.00  0.00    -0.237 OA
ATOM     83  O   UNL A   1      46.563  38.069  29.287  1.00  0.00    -0.237 OA
ATOM     84  O   UNL A   1      45.770  38.195  26.958  1.00  0.00    -0.744 OA
ENDBRANCH  80  81
ENDBRANCH  61  75
BRANCH  62  85
ATOM     85  C   UNL A   1      37.003  31.376  29.969  1.00  0.00    -0.014 A 
ATOM     86  C   UNL A   1      36.292  32.153  30.906  1.00  0.00     0.010 A 
ATOM     87  C   UNL A   1      36.554  31.396  28.633  1.00  0.00     0.010 A 
ATOM     88  C   UNL A   1      35.232  32.988  30.505  1.00  0.00     0.020 A 
ATOM     89  C   UNL A   1      35.495  32.221  28.227  1.00  0.00     0.020 A 
ATOM     90  C   UNL A   1      34.860  33.039  29.161  1.00  0.00     0.054 A 
BRANCH  90  91
ATOM     91  S   UNL A   1      33.648  34.282  28.611  1.00  0.00     0.124 S 
ATOM     92  O   UNL A   1      32.969  34.628  29.857  1.00  0.00    -0.237 OA
ATOM     93  O   UNL A   1      34.496  35.325  28.042  1.00  0.00    -0.237 OA
ATOM     94  O   UNL A   1      32.829  33.556  27.641  1.00  0.00    -0.744 OA
ENDBRANCH  90  91
ENDBRANCH  62  85
BRANCH  74  95
ATOM     95  C   UNL A   1      42.075  29.775  33.384  1.00  0.00    -0.014 A 
ATOM     96  C   UNL A   1      41.794  28.433  33.052  1.00  0.00     0.010 A 
ATOM     97  C   UNL A   1      42.250  30.103  34.740  1.00  0.00     0.010 A 
ATOM     98  C   UNL A   1      41.669  27.457  34.056  1.00  0.00     0.020 A 
ATOM     99  C   UNL A   1      42.146  29.135  35.739  1.00  0.00     0.020 A 
ATOM    100  C   UNL A   1      41.845  27.818  35.396  1.00  0.00     0.054 A 
BRANCH 100 101
ATOM    101  S   UNL A   1      41.716  26.555  36.694  1.00  0.00     0.124 S 
ATOM    102  O   UNL A   1      40.486  26.934  37.384  1.00  0.00    -0.237 OA
ATOM    103  O   UNL A   1      41.653  25.311  35.933  1.00  0.00    -0.237 OA
ATOM    104  O   UNL A   1      42.940  26.732  37.475  1.00  0.00    -0.744 OA
ENDBRANCH 100 101
ENDBRANCH  74  95
ENDBRANCH  48  49
ENDBRANCH  40  43
ENDBRANCH  38  39
ENDBRANCH  37  38
ENDBRANCH  36  37
ENDBRANCH  35  36
ENDBRANCH   3  35
TORSDOF 22
ENDMDL
MODEL 2
REMARK VINA RESULT:     -12.2      3.267      9.241
REMARK SMILES NS(=O)(=O)c1ccc(-n2nc(C(=O)NCCCC(=O)NCCCCNC(=O)c3ccc(-c4c5nc(c(-c6ccc(S(=O)(=O)[O-])cc6)c6ccc([nH]6)c(-c6ccc(S(=O)(=O)[O-])cc6)c6nc(c(-c7ccc(S(=O)(=O)[O-])cc7)c7ccc4[nH]7)C=C6)C=C5)cc3)cc2-c2ccccc2)cc1
REMARK SMILES IDX 18 1 19 2 20 3 17 5 16 6 15 7 14 8 12 9 13 10 11 12 9 13
REMARK SMILES IDX 10 14 89 15 88 16 8 17 5 18 6 19 97 20 7 21 96 22 2 23 3 24
REMARK SMILES IDX 4 25 1 26 90 29 91 30 95 31 92 32 94 33 93 34 21 35 22 36
REMARK SMILES IDX 23 37 24 38 25 39 26 40 27 42 28 43 29 44 87 45 30 46 86 47
REMARK SMILES IDX 31 48 32 49 33 50 80 51 34 52 85 53 79 54 81 55 35 56 84 57
REMARK SMILES IDX 78 58 77 59 36 61 66 62 47 63 65 64 48 65 51 66 64 67 82 68
REMARK SMILES IDX 49 69 50 70 63 72 83 73 52 74 37 75 38 76 46 77 39 78 45 79
REMARK SMILES IDX 40 80 41 81 42 82 43 83 44 84 67 85 68 86 76 87 69 88 75 89
REMARK SMILES IDX 70 90 71 91 72 92 73 93 74 94 53 95 54 96 62 97 55 98 61 99
REMARK SMILES IDX 56 100 57 101 58 102 59 103 60 104
REMARK H PARENT 20 4 14 11 1 27 1 28 25 41 81 60 51 71
REMARK Flexibility Score: inf
ROOT
ATOM      1  C   UNL A   1      30.701  29.321  23.441  1.00  0.00     0.220 C 
ATOM      2  O   UNL A   1      30.315  29.896  22.422  1.00  0.00    -0.275 OA
ATOM      3  N   UNL A   1      31.659  29.928  24.196  1.00  0.00    -0.356 N 
ATOM      4  H   UNL A   1      31.866  30.852  23.928  1.00  0.00     0.163 HD
ENDROOT
BRANCH   1   5
ATOM      5  C   UNL A   1      30.116  27.979  23.837  1.00  0.00     0.102 C 
BRANCH   5   6
ATOM      6  C   UNL A   1      30.518  26.817  22.927  1.00  0.00     0.031 C 
BRANCH   6   7
ATOM      7  C   UNL A   1      30.146  25.425  23.420  1.00  0.00     0.116 C 
BRANCH   7   8
ATOM      8  N   UNL A   1      29.642  25.381  24.778  1.00  0.00    -0.351 N 
ATOM      9  C   UNL A   1      30.088  24.653  25.861  1.00  0.00     0.271 C 
ATOM     10  O   UNL A   1      29.479  24.787  26.922  1.00  0.00    -0.267 OA
ATOM     11  H   UNL A   1      28.864  25.959  24.955  1.00  0.00     0.163 HD
BRANCH   9  12
ATOM     12  C   UNL A   1      31.233  23.738  25.709  1.00  0.00     0.151 A 
ATOM     13  N   UNL A   1      32.280  21.910  25.323  1.00  0.00    -0.232 N 
ATOM     14  N   UNL A   1      31.049  22.465  25.311  1.00  0.00    -0.162 NA
ATOM     15  C   UNL A   1      33.275  22.869  25.453  1.00  0.00     0.075 A 
ATOM     16  C   UNL A   1      32.616  24.002  25.881  1.00  0.00     0.065 A 
BRANCH  13  17
ATOM     17  C   UNL A   1      32.465  20.521  25.104  1.00  0.00     0.065 A 
ATOM     18  C   UNL A   1      33.179  17.884  24.615  1.00  0.00     0.082 A 
ATOM     19  C   UNL A   1      33.219  18.374  25.923  1.00  0.00     0.024 A 
ATOM     20  C   UNL A   1      32.730  18.687  23.560  1.00  0.00     0.024 A 
ATOM     21  C   UNL A   1      32.869  19.699  26.167  1.00  0.00     0.030 A 
ATOM     22  C   UNL A   1      32.341  20.005  23.809  1.00  0.00     0.030 A 
BRANCH  18  23
ATOM     23  S   UNL A   1      33.705  16.218  24.357  1.00  0.00     0.238 S 
ATOM     24  O   UNL A   1      34.143  16.077  22.995  1.00  0.00    -0.207 OA
ATOM     25  O   UNL A   1      32.723  15.337  24.959  1.00  0.00    -0.207 OA
BRANCH  23  26
ATOM     26  N   UNL A   1      35.087  16.054  25.295  1.00  0.00    -0.225 NA
ATOM     27  H   UNL A   1      35.682  15.325  24.900  1.00  0.00     0.137 HD
ATOM     28  H   UNL A   1      34.824  15.799  26.247  1.00  0.00     0.137 HD
ENDBRANCH  23  26
ENDBRANCH  18  23
ENDBRANCH  13  17
BRANCH  15  29
ATOM     29  C   UNL A   1      34.671  22.710  25.044  1.00  0.00     0.000 A 
ATOM     30  C   UNL A   1      35.613  22.195  25.950  1.00  0.00     0.010 A 
ATOM     31  C   UNL A   1      35.081  23.018  23.744  1.00  0.00     0.010 A 
ATOM     32  C   UNL A   1      36.947  22.037  25.582  1.00  0.00     0.001 A 
ATOM     33  C   UNL A   1      36.417  22.847  23.372  1.00  0.00     0.001 A 
ATOM     34  C   UNL A   1      37.349  22.366  24.291  1.00  0.00     0.000 A 
ENDBRANCH  15  29
ENDBRANCH   9  12
ENDBRANCH   7   8
ENDBRANCH   6   7
ENDBRANCH   5   6
ENDBRANCH   1   5
BRANCH   3  35
ATOM     35  C   UNL A   1      32.424  29.441  25.329  1.00  0.00     0.116 C 
BRANCH  35  36
ATOM     36  C   UNL A   1      31.895  30.028  26.646  1.00  0.00     0.023 C 
BRANCH  36  37
ATOM     37  C   UNL A   1      31.732  31.552  26.702  1.00  0.00     0.023 C 
BRANCH  37  38
ATOM     38  C   UNL A   1      32.871  32.284  27.393  1.00  0.00     0.116 C 
BRANCH  38  39
ATOM     39  N   UNL A   1      32.538  33.665  27.751  1.00  0.00    -0.352 N 
ATOM     40  C   UNL A   1      33.082  34.405  28.788  1.00  0.00     0.251 C 
ATOM     41  H   UNL A   1      31.857  34.113  27.198  1.00  0.00     0.163 HD
ATOM     42  O   UNL A   1      32.476  35.343  29.291  1.00  0.00    -0.269 OA
BRANCH  40  43
ATOM     43  C   UNL A   1      34.430  34.035  29.248  1.00  0.00     0.039 A 
ATOM     44  C   UNL A   1      34.656  33.354  30.447  1.00  0.00     0.014 A 
ATOM     45  C   UNL A   1      35.471  34.304  28.362  1.00  0.00     0.014 A 
ATOM     46  C   UNL A   1      35.936  32.863  30.698  1.00  0.00     0.010 A 
ATOM     47  C   UNL A   1      36.669  33.663  28.523  1.00  0.00     0.010 A 
ATOM     48  C   UNL A   1      36.931  32.998  29.714  1.00  0.00    -0.014 A 
BRANCH  48  49
ATOM     49  C   UNL A   1      38.229  32.348  29.840  1.00  0.00     0.031 A 
ATOM     50  C   UNL A   1      38.243  30.923  29.416  1.00  0.00     0.074 A 
ATOM     51  C   UNL A   1      39.369  33.027  30.099  1.00  0.00     0.049 A 
ATOM     52  N   UNL A   1      38.281  29.888  30.185  1.00  0.00    -0.248 NA
ATOM     53  C   UNL A   1      38.022  30.597  27.998  1.00  0.00     0.031 C 
ATOM     54  C   UNL A   1      39.573  34.476  30.229  1.00  0.00     0.029 A 
ATOM     55  N   UNL A   1      40.636  32.551  30.197  1.00  0.00    -0.354 N 
ATOM     56  C   UNL A   1      38.346  28.784  29.343  1.00  0.00     0.074 A 
ATOM     57  C   UNL A   1      37.971  29.262  28.036  1.00  0.00     0.031 C 
ATOM     58  C   UNL A   1      40.892  34.763  30.139  1.00  0.00     0.029 A 
ATOM     59  C   UNL A   1      41.635  33.517  30.135  1.00  0.00     0.049 A 
ATOM     60  H   UNL A   1      40.833  31.592  30.303  1.00  0.00     0.167 HD
ATOM     61  C   UNL A   1      38.960  27.632  29.739  1.00  0.00     0.031 A 
ATOM     62  C   UNL A   1      42.975  33.298  30.075  1.00  0.00     0.031 A 
ATOM     63  C   UNL A   1      39.245  27.654  31.155  1.00  0.00     0.049 A 
ATOM     64  C   UNL A   1      43.200  31.928  30.602  1.00  0.00     0.074 A 
ATOM     65  C   UNL A   1      38.480  27.792  32.297  1.00  0.00     0.029 A 
ATOM     66  N   UNL A   1      40.535  27.967  31.523  1.00  0.00    -0.354 N 
ATOM     67  N   UNL A   1      42.964  31.599  31.842  1.00  0.00    -0.248 NA
ATOM     68  C   UNL A   1      43.200  30.826  29.653  1.00  0.00     0.031 C 
ATOM     69  C   UNL A   1      39.241  28.657  33.139  1.00  0.00     0.029 A 
ATOM     70  C   UNL A   1      40.463  28.913  32.513  1.00  0.00     0.049 A 
ATOM     71  H   UNL A   1      41.358  27.581  31.145  1.00  0.00     0.167 HD
ATOM     72  C   UNL A   1      42.349  30.357  31.768  1.00  0.00     0.074 A 
ATOM     73  C   UNL A   1      42.602  29.893  30.401  1.00  0.00     0.031 C 
ATOM     74  C   UNL A   1      41.452  29.950  32.714  1.00  0.00     0.031 A 
BRANCH  61  75
ATOM     75  C   UNL A   1      39.680  26.684  28.811  1.00  0.00    -0.014 A 
ATOM     76  C   UNL A   1      38.984  25.550  28.340  1.00  0.00     0.010 A 
ATOM     77  C   UNL A   1      41.073  26.707  28.608  1.00  0.00     0.010 A 
ATOM     78  C   UNL A   1      39.660  24.461  27.778  1.00  0.00     0.020 A 
ATOM     79  C   UNL A   1      41.753  25.644  28.007  1.00  0.00     0.020 A 
ATOM     80  C   UNL A   1      41.045  24.511  27.628  1.00  0.00     0.054 A 
BRANCH  80  81
ATOM     81  S   UNL A   1      41.916  23.061  26.990  1.00  0.00     0.124 S 
ATOM     82  O   UNL A   1      42.414  22.446  28.217  1.00  0.00    -0.237 OA
ATOM     83  O   UNL A   1      40.848  22.339  26.305  1.00  0.00    -0.237 OA
ATOM     84  O   UNL A   1      42.935  23.634  26.115  1.00  0.00    -0.744 OA
ENDBRANCH  80  81
ENDBRANCH  61  75
BRANCH  62  85
ATOM     85  C   UNL A   1      44.014  34.039  29.310  1.00  0.00    -0.014 A 
ATOM     86  C   UNL A   1      45.380  33.717  29.450  1.00  0.00     0.010 A 
ATOM     87  C   UNL A   1      43.645  34.842  28.211  1.00  0.00     0.010 A 
ATOM     88  C   UNL A   1      46.323  34.106  28.480  1.00  0.00     0.020 A 
ATOM     89  C   UNL A   1      44.581  35.238  27.244  1.00  0.00     0.020 A 
ATOM     90  C   UNL A   1      45.910  34.839  27.366  1.00  0.00     0.054 A 
BRANCH  90  91
ATOM     91  S   UNL A   1      47.084  35.144  26.007  1.00  0.00     0.124 S 
ATOM     92  O   UNL A   1      46.530  34.331  24.928  1.00  0.00    -0.237 OA
ATOM     93  O   UNL A   1      46.989  36.589  25.823  1.00  0.00    -0.237 OA
ATOM     94  O   UNL A   1      48.360  34.674  26.545  1.00  0.00    -0.744 OA
ENDBRANCH  90  91
ENDBRANCH  62  85
BRANCH  74  95
ATOM     95  C   UNL A   1      41.323  30.754  33.990  1.00  0.00    -0.014 A 
ATOM     96  C   UNL A   1      40.377  31.780  34.193  1.00  0.00     0.010 A 
ATOM     97  C   UNL A   1      42.092  30.333  35.089  1.00  0.00     0.010 A 
ATOM     98  C   UNL A   1      40.228  32.381  35.455  1.00  0.00     0.020 A 
ATOM     99  C   UNL A   1      41.936  30.912  36.349  1.00  0.00     0.020 A 
ATOM    100  C   UNL A   1      41.013  31.941  36.525  1.00  0.00     0.054 A 
BRANCH 100 101
ATOM    101  S   UNL A   1      40.802  32.691  38.166  1.00  0.00     0.124 S 
ATOM    102  O   UNL A   1      41.750  31.938  38.983  1.00  0.00    -0.237 OA
ATOM    103  O   UNL A   1      41.147  34.090  37.931  1.00  0.00    -0.237 OA
ATOM    104  O   UNL A   1      39.394  32.453  38.480  1.00  0.00    -0.744 OA
ENDBRANCH 100 101
ENDBRANCH  74  95
ENDBRANCH  48  49
ENDBRANCH  40  43
ENDBRANCH  38  39
ENDBRANCH  37  38
ENDBRANCH  36  37
ENDBRANCH  35  36
ENDBRANCH   3  35
TORSDOF 22
ENDMDL
MODEL 3
REMARK VINA RESULT:     -12.0      3.324      9.536
REMARK SMILES NS(=O)(=O)c1ccc(-n2nc(C(=O)NCCCC(=O)NCCCCNC(=O)c3ccc(-c4c5nc(c(-c6ccc(S(=O)(=O)[O-])cc6)c6ccc([nH]6)c(-c6ccc(S(=O)(=O)[O-])cc6)c6nc(c(-c7ccc(S(=O)(=O)[O-])cc7)c7ccc4[nH]7)C=C6)C=C5)cc3)cc2-c2ccccc2)cc1
REMARK SMILES IDX 18 1 19 2 20 3 17 5 16 6 15 7 14 8 12 9 13 10 11 12 9 13
REMARK SMILES IDX 10 14 89 15 88 16 8 17 5 18 6 19 97 20 7 21 96 22 2 23 3 24
REMARK SMILES IDX 4 25 1 26 90 29 91 30 95 31 92 32 94 33 93 34 21 35 22 36
REMARK SMILES IDX 23 37 24 38 25 39 26 40 27 42 28 43 29 44 87 45 30 46 86 47
REMARK SMILES IDX 31 48 32 49 33 50 80 51 34 52 85 53 79 54 81 55 35 56 84 57
REMARK SMILES IDX 78 58 77 59 36 61 66 62 47 63 65 64 48 65 51 66 64 67 82 68
REMARK SMILES IDX 49 69 50 70 63 72 83 73 52 74 37 75 38 76 46 77 39 78 45 79
REMARK SMILES IDX 40 80 41 81 42 82 43 83 44 84 67 85 68 86 76 87 69 88 75 89
REMARK SMILES IDX 70 90 71 91 72 92 73 93 74 94 53 95 54 96 62 97 55 98 61 99
REMARK SMILES IDX 56 100 57 101 58 102 59 103 60 104
REMARK H PARENT 20 4 14 11 1 27 1 28 25 41 81 60 51 71
REMARK Flexibility Score: inf
ROOT
ATOM      1  C   UNL A   1      32.062  28.221  27.270  1.00  0.00     0.220 C 
ATOM      2  O   UNL A   1      31.101  27.977  28.001  1.00  0.00    -0.275 OA
ATOM      3  N   UNL A   1      33.061  29.003  27.765  1.00  0.00    -0.356 N 
ATOM      4  H   UNL A   1      32.989  29.200  28.727  1.00  0.00     0.163 HD
ENDROOT
BRANCH   1   5
ATOM      5  C   UNL A   1      32.125  27.655  25.865  1.00  0.00     0.102 C 
BRANCH   5   6
ATOM      6  C   UNL A   1      31.046  28.185  24.919  1.00  0.00     0.031 C 
BRANCH   6   7
ATOM      7  C   UNL A   1      30.274  27.133  24.132  1.00  0.00     0.116 C 
BRANCH   7   8
ATOM      8  N   UNL A   1      30.580  27.094  22.716  1.00  0.00    -0.351 N 
ATOM      9  C   UNL A   1      31.435  26.264  22.022  1.00  0.00     0.271 C 
ATOM     10  O   UNL A   1      31.527  26.437  20.807  1.00  0.00    -0.267 OA
ATOM     11  H   UNL A   1      30.105  27.759  22.167  1.00  0.00     0.163 HD
BRANCH   9  12
ATOM     12  C   UNL A   1      32.215  25.244  22.744  1.00  0.00     0.151 A 
ATOM     13  N   UNL A   1      32.767  23.303  23.463  1.00  0.00    -0.232 N 
ATOM     14  N   UNL A   1      31.890  23.939  22.656  1.00  0.00    -0.162 NA
ATOM     15  C   UNL A   1      33.811  24.134  23.845  1.00  0.00     0.075 A 
ATOM     16  C   UNL A   1      33.373  25.406  23.547  1.00  0.00     0.065 A 
BRANCH  13  17
ATOM     17  C   UNL A   1      32.638  21.919  23.744  1.00  0.00     0.065 A 
ATOM     18  C   UNL A   1      32.733  19.180  24.183  1.00  0.00     0.082 A 
ATOM     19  C   UNL A   1      33.080  20.052  25.218  1.00  0.00     0.024 A 
ATOM     20  C   UNL A   1      32.285  19.669  22.950  1.00  0.00     0.024 A 
ATOM     21  C   UNL A   1      33.041  21.425  24.995  1.00  0.00     0.030 A 
ATOM     22  C   UNL A   1      32.207  21.047  22.739  1.00  0.00     0.030 A 
BRANCH  18  23
ATOM     23  S   UNL A   1      32.874  17.448  24.501  1.00  0.00     0.238 S 
ATOM     24  O   UNL A   1      33.141  16.770  23.261  1.00  0.00    -0.207 OA
ATOM     25  O   UNL A   1      31.792  17.064  25.386  1.00  0.00    -0.207 OA
BRANCH  23  26
ATOM     26  N   UNL A   1      34.274  17.291  25.412  1.00  0.00    -0.225 NA
ATOM     27  H   UNL A   1      34.830  18.144  25.332  1.00  0.00     0.137 HD
ATOM     28  H   UNL A   1      34.817  16.499  25.069  1.00  0.00     0.137 HD
ENDBRANCH  23  26
ENDBRANCH  18  23
ENDBRANCH  13  17
BRANCH  15  29
ATOM     29  C   UNL A   1      35.131  23.692  24.295  1.00  0.00     0.000 A 
ATOM     30  C   UNL A   1      35.592  24.047  25.574  1.00  0.00     0.010 A 
ATOM     31  C   UNL A   1      35.932  22.877  23.491  1.00  0.00     0.010 A 
ATOM     32  C   UNL A   1      36.846  23.639  26.022  1.00  0.00     0.001 A 
ATOM     33  C   UNL A   1      37.185  22.457  23.946  1.00  0.00     0.001 A 
ATOM     34  C   UNL A   1      37.644  22.844  25.205  1.00  0.00     0.000 A 
ENDBRANCH  15  29
ENDBRANCH   9  12
ENDBRANCH   7   8
ENDBRANCH   6   7
ENDBRANCH   5   6
ENDBRANCH   1   5
BRANCH   3  35
ATOM     35  C   UNL A   1      34.214  29.595  27.112  1.00  0.00     0.116 C 
BRANCH  35  36
ATOM     36  C   UNL A   1      34.443  31.036  27.593  1.00  0.00     0.023 C 
BRANCH  36  37
ATOM     37  C   UNL A   1      35.890  31.433  27.906  1.00  0.00     0.023 C 
BRANCH  37  38
ATOM     38  C   UNL A   1      36.066  32.872  28.363  1.00  0.00     0.116 C 
BRANCH  38  39
ATOM     39  N   UNL A   1      35.354  33.176  29.607  1.00  0.00    -0.352 N 
ATOM     40  C   UNL A   1      35.323  32.399  30.754  1.00  0.00     0.251 C 
ATOM     41  H   UNL A   1      34.845  34.019  29.630  1.00  0.00     0.163 HD
ATOM     42  O   UNL A   1      34.399  32.479  31.554  1.00  0.00    -0.269 OA
BRANCH  40  43
ATOM     43  C   UNL A   1      36.456  31.490  30.985  1.00  0.00     0.039 A 
ATOM     44  C   UNL A   1      36.319  30.100  30.982  1.00  0.00     0.014 A 
ATOM     45  C   UNL A   1      37.707  32.092  31.098  1.00  0.00     0.014 A 
ATOM     46  C   UNL A   1      37.475  29.321  31.001  1.00  0.00     0.010 A 
ATOM     47  C   UNL A   1      38.833  31.335  30.927  1.00  0.00     0.010 A 
ATOM     48  C   UNL A   1      38.730  29.949  30.944  1.00  0.00    -0.014 A 
BRANCH  48  49
ATOM     49  C   UNL A   1      39.963  29.190  30.776  1.00  0.00     0.031 A 
ATOM     50  C   UNL A   1      40.709  28.946  32.039  1.00  0.00     0.074 A 
ATOM     51  C   UNL A   1      40.290  28.567  29.622  1.00  0.00     0.049 A 
ATOM     52  N   UNL A   1      41.788  29.536  32.425  1.00  0.00    -0.248 NA
ATOM     53  C   UNL A   1      40.108  28.079  33.066  1.00  0.00     0.031 C 
ATOM     54  C   UNL A   1      39.510  28.447  28.383  1.00  0.00     0.029 A 
ATOM     55  N   UNL A   1      41.376  27.799  29.351  1.00  0.00    -0.354 N 
ATOM     56  C   UNL A   1      42.147  28.934  33.626  1.00  0.00     0.074 A 
ATOM     57  C   UNL A   1      40.982  28.212  34.069  1.00  0.00     0.031 C 
ATOM     58  C   UNL A   1      40.029  27.467  27.607  1.00  0.00     0.029 A 
ATOM     59  C   UNL A   1      41.276  27.022  28.201  1.00  0.00     0.049 A 
ATOM     60  H   UNL A   1      42.175  27.793  29.927  1.00  0.00     0.167 HD
ATOM     61  C   UNL A   1      43.453  28.865  34.016  1.00  0.00     0.031 A 
ATOM     62  C   UNL A   1      42.157  26.077  27.780  1.00  0.00     0.031 A 
ATOM     63  C   UNL A   1      44.289  29.703  33.188  1.00  0.00     0.049 A 
ATOM     64  C   UNL A   1      43.448  26.380  28.448  1.00  0.00     0.074 A 
ATOM     65  C   UNL A   1      44.315  31.050  32.886  1.00  0.00     0.029 A 
ATOM     66  N   UNL A   1      44.997  29.075  32.187  1.00  0.00    -0.354 N 
ATOM     67  N   UNL A   1      44.134  27.463  28.205  1.00  0.00    -0.248 NA
ATOM     68  C   UNL A   1      43.717  25.745  29.729  1.00  0.00     0.031 C 
ATOM     69  C   UNL A   1      44.586  31.101  31.485  1.00  0.00     0.029 A 
ATOM     70  C   UNL A   1      44.811  29.798  31.036  1.00  0.00     0.049 A 
ATOM     71  H   UNL A   1      45.538  28.259  32.280  1.00  0.00     0.167 HD
ATOM     72  C   UNL A   1      44.569  27.892  29.451  1.00  0.00     0.074 A 
ATOM     73  C   UNL A   1      44.357  26.748  30.340  1.00  0.00     0.031 C 
ATOM     74  C   UNL A   1      44.786  29.216  29.711  1.00  0.00     0.031 A 
BRANCH  61  75
ATOM     75  C   UNL A   1      44.040  27.746  34.842  1.00  0.00    -0.014 A 
ATOM     76  C   UNL A   1      44.846  28.084  35.950  1.00  0.00     0.010 A 
ATOM     77  C   UNL A   1      44.067  26.403  34.420  1.00  0.00     0.010 A 
ATOM     78  C   UNL A   1      45.698  27.147  36.546  1.00  0.00     0.020 A 
ATOM     79  C   UNL A   1      44.881  25.448  35.036  1.00  0.00     0.020 A 
ATOM     80  C   UNL A   1      45.718  25.836  36.072  1.00  0.00     0.054 A 
BRANCH  80  81
ATOM     81  S   UNL A   1      46.892  24.659  36.786  1.00  0.00     0.124 S 
ATOM     82  O   UNL A   1      46.406  24.544  38.157  1.00  0.00    -0.237 OA
ATOM     83  O   UNL A   1      46.699  23.483  35.942  1.00  0.00    -0.237 OA
ATOM     84  O   UNL A   1      48.182  25.328  36.628  1.00  0.00    -0.744 OA
ENDBRANCH  80  81
ENDBRANCH  61  75
BRANCH  62  85
ATOM     85  C   UNL A   1      41.888  24.771  27.119  1.00  0.00    -0.014 A 
ATOM     86  C   UNL A   1      42.899  24.110  26.392  1.00  0.00     0.010 A 
ATOM     87  C   UNL A   1      40.742  24.026  27.465  1.00  0.00     0.010 A 
ATOM     88  C   UNL A   1      42.807  22.735  26.103  1.00  0.00     0.020 A 
ATOM     89  C   UNL A   1      40.642  22.658  27.175  1.00  0.00     0.020 A 
ATOM     90  C   UNL A   1      41.690  22.011  26.524  1.00  0.00     0.054 A 
BRANCH  90  91
ATOM     91  S   UNL A   1      41.678  20.198  26.350  1.00  0.00     0.124 S 
ATOM     92  O   UNL A   1      42.656  19.979  25.289  1.00  0.00    -0.237 OA
ATOM     93  O   UNL A   1      42.078  19.748  27.680  1.00  0.00    -0.237 OA
ATOM     94  O   UNL A   1      40.294  19.898  25.989  1.00  0.00    -0.744 OA
ENDBRANCH  90  91
ENDBRANCH  62  85
BRANCH  74  95
ATOM     95  C   UNL A   1      44.800  30.194  28.555  1.00  0.00    -0.014 A 
ATOM     96  C   UNL A   1      43.693  30.458  27.722  1.00  0.00     0.010 A 
ATOM     97  C   UNL A   1      45.944  30.999  28.416  1.00  0.00     0.010 A 
ATOM     98  C   UNL A   1      43.745  31.483  26.762  1.00  0.00     0.020 A 
ATOM     99  C   UNL A   1      45.996  32.030  27.478  1.00  0.00     0.020 A 
ATOM    100  C   UNL A   1      44.901  32.262  26.647  1.00  0.00     0.054 A 
BRANCH 100 101
ATOM    101  S   UNL A   1      44.963  33.609  25.430  1.00  0.00     0.124 S 
ATOM    102  O   UNL A   1      44.160  34.649  26.067  1.00  0.00    -0.237 OA
ATOM    103  O   UNL A   1      46.392  33.891  25.328  1.00  0.00    -0.237 OA
ATOM    104  O   UNL A   1      44.370  33.021  24.229  1.00  0.00    -0.744 OA
ENDBRANCH 100 101
ENDBRANCH  74  95
ENDBRANCH  48  49
ENDBRANCH  40  43
ENDBRANCH  38  39
ENDBRANCH  37  38
ENDBRANCH  36  37
ENDBRANCH  35  36
ENDBRANCH   3  35
TORSDOF 22
ENDMDL
