MODEL 1
REMARK VINA RESULT:      -9.6      0.000      0.000
REMARK SMILES CC[C@](C)(NC(=O)NC[C@@H](C)[NH+](C)C)C(=O)NCCCCNC(=O)c1ccc(-c2c3nc(c(-c4ccc(S(=O)(=O)[O-])cc4)c4ccc([nH]4)c(-c4ccc(S(=O)(=O)[O-])cc4)c4nc(c(-c5ccc(S(=O)(=O)[O-])cc5)c5ccc2[nH]5)C=C4)C=C3)cc1
REMARK SMILES IDX 19 1 18 2 17 3 15 4 16 5 3 7 4 8 2 9 1 10 5 11 6 12 7 14
REMARK SMILES IDX 8 15 9 17 10 18 11 19 12 20 13 21 14 22 20 24 21 25 22 26
REMARK SMILES IDX 23 27 24 29 25 30 26 31 84 32 27 33 83 34 28 35 29 36 30 37
REMARK SMILES IDX 77 38 31 39 82 40 76 41 78 42 32 43 81 44 75 45 74 46 33 48
REMARK SMILES IDX 63 49 44 50 62 51 45 52 48 53 61 54 79 55 46 56 47 57 60 59
REMARK SMILES IDX 80 60 49 61 34 62 35 63 43 64 36 65 42 66 37 67 38 68 39 69
REMARK SMILES IDX 40 70 41 71 64 72 65 73 73 74 66 75 72 76 67 77 68 78 69 79
REMARK SMILES IDX 70 80 71 81 50 82 51 83 59 84 52 85 58 86 53 87 54 88 55 89
REMARK SMILES IDX 56 90 57 91
REMARK H PARENT 17 6 5 13 8 16 12 23 22 28 78 47 48 58
REMARK Flexibility Score: inf
ROOT
ATOM      1  C   UNL A   1      31.981  27.257  24.949  1.00  0.00     0.023 C 
ENDROOT
BRANCH   1   2
ATOM      2  C   UNL A   1      31.738  25.746  25.040  1.00  0.00     0.116 C 
BRANCH   2   3
ATOM      3  N   UNL A   1      32.090  24.892  23.917  1.00  0.00    -0.354 N 
ATOM      4  C   UNL A   1      32.917  23.807  23.799  1.00  0.00     0.245 C 
ATOM      5  O   UNL A   1      32.629  22.981  22.924  1.00  0.00    -0.272 OA
ATOM      6  H   UNL A   1      31.646  25.145  23.076  1.00  0.00     0.163 HD
BRANCH   4   7
ATOM      7  C   UNL A   1      34.050  23.498  24.805  1.00  0.00     0.117 C 
ATOM      8  C   UNL A   1      35.094  24.627  24.945  1.00  0.00     0.045 C 
BRANCH   7   9
ATOM      9  C   UNL A   1      34.814  22.248  24.249  1.00  0.00     0.035 C 
ATOM     10  C   UNL A   1      36.342  22.344  24.317  1.00  0.00     0.007 C 
ENDBRANCH   7   9
BRANCH   7  11
ATOM     11  N   UNL A   1      33.496  23.205  26.136  1.00  0.00    -0.324 N 
ATOM     12  C   UNL A   1      32.767  22.215  26.663  1.00  0.00     0.315 C 
ATOM     13  H   UNL A   1      33.712  23.904  26.795  1.00  0.00     0.166 HD
ATOM     14  O   UNL A   1      32.323  22.410  27.799  1.00  0.00    -0.249 OA
ATOM     15  N   UNL A   1      32.518  21.023  26.111  1.00  0.00    -0.332 N 
ATOM     16  H   UNL A   1      32.080  20.421  26.756  1.00  0.00     0.165 HD
BRANCH  15  17
ATOM     17  C   UNL A   1      32.715  20.357  24.818  1.00  0.00     0.182 C 
BRANCH  17  18
ATOM     18  C   UNL A   1      33.323  18.920  24.897  1.00  0.00     0.200 C 
ATOM     19  C   UNL A   1      32.561  18.031  25.885  1.00  0.00     0.077 C 
BRANCH  18  20
ATOM     20  N   UNL A   1      33.502  18.314  23.564  1.00  0.00    -0.336 N 
ATOM     21  C   UNL A   1      34.229  17.048  23.562  1.00  0.00     0.332 C 
ATOM     22  C   UNL A   1      32.304  18.230  22.742  1.00  0.00     0.332 C 
ATOM     23  H   UNL A   1      34.103  19.002  23.109  1.00  0.00     0.347 HD
ENDBRANCH  18  20
ENDBRANCH  17  18
ENDBRANCH  15  17
ENDBRANCH   7  11
ENDBRANCH   4   7
ENDBRANCH   2   3
ENDBRANCH   1   2
BRANCH   1  24
ATOM     24  C   UNL A   1      33.395  27.814  25.117  1.00  0.00     0.023 C 
BRANCH  24  25
ATOM     25  C   UNL A   1      33.841  28.110  26.542  1.00  0.00     0.116 C 
BRANCH  25  26
ATOM     26  N   UNL A   1      33.569  29.487  26.914  1.00  0.00    -0.352 N 
ATOM     27  C   UNL A   1      34.316  30.335  27.688  1.00  0.00     0.251 C 
ATOM     28  H   UNL A   1      32.731  29.864  26.560  1.00  0.00     0.163 HD
ATOM     29  O   UNL A   1      33.817  31.402  28.065  1.00  0.00    -0.269 OA
BRANCH  27  30
ATOM     30  C   UNL A   1      35.698  29.990  28.089  1.00  0.00     0.039 A 
ATOM     31  C   UNL A   1      36.717  30.080  27.135  1.00  0.00     0.014 A 
ATOM     32  C   UNL A   1      35.991  29.525  29.376  1.00  0.00     0.014 A 
ATOM     33  C   UNL A   1      38.028  29.736  27.476  1.00  0.00     0.010 A 
ATOM     34  C   UNL A   1      37.309  29.232  29.730  1.00  0.00     0.010 A 
ATOM     35  C   UNL A   1      38.339  29.322  28.781  1.00  0.00    -0.014 A 
BRANCH  35  36
ATOM     36  C   UNL A   1      39.731  28.960  29.156  1.00  0.00     0.031 A 
ATOM     37  C   UNL A   1      40.613  29.958  29.859  1.00  0.00     0.074 A 
ATOM     38  C   UNL A   1      40.220  27.746  28.831  1.00  0.00     0.049 A 
ATOM     39  N   UNL A   1      41.863  29.837  30.231  1.00  0.00    -0.248 NA
ATOM     40  C   UNL A   1      40.019  31.269  30.167  1.00  0.00     0.031 C 
ATOM     41  C   UNL A   1      39.481  26.698  28.125  1.00  0.00     0.029 A 
ATOM     42  N   UNL A   1      41.457  27.192  29.049  1.00  0.00    -0.354 N 
ATOM     43  C   UNL A   1      42.208  31.056  30.805  1.00  0.00     0.074 A 
ATOM     44  C   UNL A   1      41.050  31.916  30.691  1.00  0.00     0.031 C 
ATOM     45  C   UNL A   1      40.274  25.623  27.983  1.00  0.00     0.029 A 
ATOM     46  C   UNL A   1      41.584  25.915  28.557  1.00  0.00     0.049 A 
ATOM     47  H   UNL A   1      42.185  27.665  29.514  1.00  0.00     0.167 HD
ATOM     48  C   UNL A   1      43.375  31.421  31.389  1.00  0.00     0.031 A 
ATOM     49  C   UNL A   1      42.637  25.072  28.560  1.00  0.00     0.031 A 
ATOM     50  C   UNL A   1      44.524  30.565  31.510  1.00  0.00     0.049 A 
ATOM     51  C   UNL A   1      43.924  25.502  29.207  1.00  0.00     0.074 A 
ATOM     52  C   UNL A   1      45.737  30.832  32.124  1.00  0.00     0.029 A 
ATOM     53  N   UNL A   1      44.607  29.275  31.007  1.00  0.00    -0.354 N 
ATOM     54  N   UNL A   1      44.212  26.640  29.792  1.00  0.00    -0.248 NA
ATOM     55  C   UNL A   1      45.024  24.528  29.209  1.00  0.00     0.031 C 
ATOM     56  C   UNL A   1      46.568  29.718  31.954  1.00  0.00     0.029 A 
ATOM     57  C   UNL A   1      45.855  28.740  31.280  1.00  0.00     0.049 A 
ATOM     58  H   UNL A   1      43.886  28.808  30.528  1.00  0.00     0.167 HD
ATOM     59  C   UNL A   1      45.518  26.512  30.249  1.00  0.00     0.074 A 
ATOM     60  C   UNL A   1      45.959  25.179  29.887  1.00  0.00     0.031 C 
ATOM     61  C   UNL A   1      46.283  27.414  30.911  1.00  0.00     0.031 A 
BRANCH  48  62
ATOM     62  C   UNL A   1      43.465  32.822  31.939  1.00  0.00    -0.014 A 
ATOM     63  C   UNL A   1      43.902  33.889  31.133  1.00  0.00     0.010 A 
ATOM     64  C   UNL A   1      43.080  33.080  33.267  1.00  0.00     0.010 A 
ATOM     65  C   UNL A   1      43.999  35.179  31.659  1.00  0.00     0.020 A 
ATOM     66  C   UNL A   1      43.150  34.375  33.790  1.00  0.00     0.020 A 
ATOM     67  C   UNL A   1      43.628  35.413  32.987  1.00  0.00     0.054 A 
BRANCH  67  68
ATOM     68  S   UNL A   1      43.757  37.100  33.644  1.00  0.00     0.124 S 
ATOM     69  O   UNL A   1      43.795  37.895  32.419  1.00  0.00    -0.237 OA
ATOM     70  O   UNL A   1      42.537  37.229  34.438  1.00  0.00    -0.237 OA
ATOM     71  O   UNL A   1      44.998  37.079  34.413  1.00  0.00    -0.744 OA
ENDBRANCH  67  68
ENDBRANCH  48  62
BRANCH  49  72
ATOM     72  C   UNL A   1      42.507  23.729  27.936  1.00  0.00    -0.014 A 
ATOM     73  C   UNL A   1      42.921  23.513  26.610  1.00  0.00     0.010 A 
ATOM     74  C   UNL A   1      41.987  22.650  28.675  1.00  0.00     0.010 A 
ATOM     75  C   UNL A   1      42.807  22.246  26.030  1.00  0.00     0.020 A 
ATOM     76  C   UNL A   1      41.896  21.377  28.108  1.00  0.00     0.020 A 
ATOM     77  C   UNL A   1      42.297  21.185  26.784  1.00  0.00     0.054 A 
BRANCH  77  78
ATOM     78  S   UNL A   1      42.219  19.535  26.033  1.00  0.00     0.124 S 
ATOM     79  O   UNL A   1      40.793  19.394  25.759  1.00  0.00    -0.237 OA
ATOM     80  O   UNL A   1      43.078  19.678  24.861  1.00  0.00    -0.237 OA
ATOM     81  O   UNL A   1      42.746  18.661  27.079  1.00  0.00    -0.744 OA
ENDBRANCH  77  78
ENDBRANCH  49  72
BRANCH  61  82
ATOM     82  C   UNL A   1      47.670  26.987  31.314  1.00  0.00    -0.014 A 
ATOM     83  C   UNL A   1      48.782  27.269  30.503  1.00  0.00     0.010 A 
ATOM     84  C   UNL A   1      47.865  26.339  32.547  1.00  0.00     0.010 A 
ATOM     85  C   UNL A   1      50.065  26.886  30.906  1.00  0.00     0.020 A 
ATOM     86  C   UNL A   1      49.149  25.977  32.964  1.00  0.00     0.020 A 
ATOM     87  C   UNL A   1      50.239  26.241  32.133  1.00  0.00     0.054 A 
BRANCH  87  88
ATOM     88  S   UNL A   1      51.918  25.793  32.656  1.00  0.00     0.124 S 
ATOM     89  O   UNL A   1      52.517  25.345  31.401  1.00  0.00    -0.237 OA
ATOM     90  O   UNL A   1      52.437  27.053  33.185  1.00  0.00    -0.237 OA
ATOM     91  O   UNL A   1      51.703  24.747  33.653  1.00  0.00    -0.744 OA
ENDBRANCH  87  88
ENDBRANCH  61  82
ENDBRANCH  35  36
ENDBRANCH  27  30
ENDBRANCH  25  26
ENDBRANCH  24  25
ENDBRANCH   1  24
TORSDOF 19
ENDMDL
MODEL 2
REMARK VINA RESULT:      -9.6      4.042      9.859
REMARK SMILES CC[C@](C)(NC(=O)NC[C@@H](C)[NH+](C)C)C(=O)NCCCCNC(=O)c1ccc(-c2c3nc(c(-c4ccc(S(=O)(=O)[O-])cc4)c4ccc([nH]4)c(-c4ccc(S(=O)(=O)[O-])cc4)c4nc(c(-c5ccc(S(=O)(=O)[O-])cc5)c5ccc2[nH]5)C=C4)C=C3)cc1
REMARK SMILES IDX 19 1 18 2 17 3 15 4 16 5 3 7 4 8 2 9 1 10 5 11 6 12 7 14
REMARK SMILES IDX 8 15 9 17 10 18 11 19 12 20 13 21 14 22 20 24 21 25 22 26
REMARK SMILES IDX 23 27 24 29 25 30 26 31 84 32 27 33 83 34 28 35 29 36 30 37
REMARK SMILES IDX 77 38 31 39 82 40 76 41 78 42 32 43 81 44 75 45 74 46 33 48
REMARK SMILES IDX 63 49 44 50 62 51 45 52 48 53 61 54 79 55 46 56 47 57 60 59
REMARK SMILES IDX 80 60 49 61 34 62 35 63 43 64 36 65 42 66 37 67 38 68 39 69
REMARK SMILES IDX 40 70 41 71 64 72 65 73 73 74 66 75 72 76 67 77 68 78 69 79
REMARK SMILES IDX 70 80 71 81 50 82 51 83 59 84 52 85 58 86 53 87 54 88 55 89
REMARK SMILES IDX 56 90 57 91
REMARK H PARENT 17 6 5 13 8 16 12 23 22 28 78 47 48 58
REMARK Flexibility Score: inf
ROOT
ATOM      1  C   UNL A   1      33.180  30.087  27.400  1.00  0.00     0.023 C 
ENDROOT
BRANCH   1   2
ATOM      2  C   UNL A   1      32.636  30.121  25.967  1.00  0.00     0.116 C 
BRANCH   2   3
ATOM      3  N   UNL A   1      33.486  29.698  24.866  1.00  0.00    -0.354 N 
ATOM      4  C   UNL A   1      33.497  28.576  24.079  1.00  0.00     0.245 C 
ATOM      5  O   UNL A   1      33.942  28.706  22.932  1.00  0.00    -0.272 OA
ATOM      6  H   UNL A   1      34.191  30.346  24.640  1.00  0.00     0.163 HD
BRANCH   4   7
ATOM      7  C   UNL A   1      32.830  27.246  24.500  1.00  0.00     0.117 C 
ATOM      8  C   UNL A   1      31.521  27.424  25.299  1.00  0.00     0.045 C 
BRANCH   7   9
ATOM      9  C   UNL A   1      33.841  26.519  25.452  1.00  0.00     0.035 C 
ATOM     10  C   UNL A   1      33.502  25.056  25.754  1.00  0.00     0.007 C 
ENDBRANCH   7   9
BRANCH   7  11
ATOM     11  N   UNL A   1      32.549  26.411  23.322  1.00  0.00    -0.324 N 
ATOM     12  C   UNL A   1      31.699  26.482  22.291  1.00  0.00     0.315 C 
ATOM     13  H   UNL A   1      33.120  25.610  23.284  1.00  0.00     0.166 HD
ATOM     14  O   UNL A   1      31.622  25.476  21.578  1.00  0.00    -0.249 OA
ATOM     15  N   UNL A   1      30.972  27.542  21.923  1.00  0.00    -0.332 N 
ATOM     16  H   UNL A   1      30.538  27.387  21.053  1.00  0.00     0.165 HD
BRANCH  15  17
ATOM     17  C   UNL A   1      30.639  28.871  22.449  1.00  0.00     0.182 C 
BRANCH  17  18
ATOM     18  C   UNL A   1      29.120  29.236  22.418  1.00  0.00     0.200 C 
ATOM     19  C   UNL A   1      28.273  28.218  23.188  1.00  0.00     0.077 C 
BRANCH  18  20
ATOM     20  N   UNL A   1      28.873  30.637  22.808  1.00  0.00    -0.336 N 
ATOM     21  C   UNL A   1      28.980  31.601  21.718  1.00  0.00     0.332 C 
ATOM     22  C   UNL A   1      27.671  30.870  23.596  1.00  0.00     0.332 C 
ATOM     23  H   UNL A   1      29.656  30.812  23.438  1.00  0.00     0.347 HD
ENDBRANCH  18  20
ENDBRANCH  17  18
ENDBRANCH  15  17
ENDBRANCH   7  11
ENDBRANCH   4   7
ENDBRANCH   2   3
ENDBRANCH   1   2
BRANCH   1  24
ATOM     24  C   UNL A   1      34.569  30.651  27.702  1.00  0.00     0.023 C 
BRANCH  24  25
ATOM     25  C   UNL A   1      35.543  29.713  28.401  1.00  0.00     0.116 C 
BRANCH  25  26
ATOM     26  N   UNL A   1      35.578  29.948  29.834  1.00  0.00    -0.352 N 
ATOM     27  C   UNL A   1      36.615  29.773  30.712  1.00  0.00     0.251 C 
ATOM     28  H   UNL A   1      34.739  30.279  30.230  1.00  0.00     0.163 HD
ATOM     29  O   UNL A   1      36.391  29.826  31.927  1.00  0.00    -0.269 OA
BRANCH  27  30
ATOM     30  C   UNL A   1      37.990  29.511  30.231  1.00  0.00     0.039 A 
ATOM     31  C   UNL A   1      38.318  29.848  28.913  1.00  0.00     0.014 A 
ATOM     32  C   UNL A   1      38.941  28.886  31.045  1.00  0.00     0.014 A 
ATOM     33  C   UNL A   1      39.601  29.589  28.422  1.00  0.00     0.010 A 
ATOM     34  C   UNL A   1      40.237  28.675  30.570  1.00  0.00     0.010 A 
ATOM     35  C   UNL A   1      40.577  29.013  29.250  1.00  0.00    -0.014 A 
BRANCH  35  36
ATOM     36  C   UNL A   1      41.946  28.739  28.740  1.00  0.00     0.031 A 
ATOM     37  C   UNL A   1      42.320  27.359  28.267  1.00  0.00     0.074 A 
ATOM     38  C   UNL A   1      42.870  29.720  28.739  1.00  0.00     0.049 A 
ATOM     39  N   UNL A   1      43.472  26.922  27.825  1.00  0.00    -0.248 NA
ATOM     40  C   UNL A   1      41.266  26.333  28.313  1.00  0.00     0.031 C 
ATOM     41  C   UNL A   1      42.648  31.093  29.198  1.00  0.00     0.029 A 
ATOM     42  N   UNL A   1      44.184  29.712  28.342  1.00  0.00    -0.354 N 
ATOM     43  C   UNL A   1      43.287  25.570  27.553  1.00  0.00     0.074 A 
ATOM     44  C   UNL A   1      41.924  25.251  27.922  1.00  0.00     0.031 C 
ATOM     45  C   UNL A   1      43.781  31.797  29.041  1.00  0.00     0.029 A 
ATOM     46  C   UNL A   1      44.818  30.921  28.502  1.00  0.00     0.049 A 
ATOM     47  H   UNL A   1      44.632  28.914  27.977  1.00  0.00     0.167 HD
ATOM     48  C   UNL A   1      44.163  24.680  27.028  1.00  0.00     0.031 A 
ATOM     49  C   UNL A   1      46.090  31.287  28.250  1.00  0.00     0.031 A 
ATOM     50  C   UNL A   1      45.516  24.997  26.655  1.00  0.00     0.049 A 
ATOM     51  C   UNL A   1      47.047  30.281  27.674  1.00  0.00     0.074 A 
ATOM     52  C   UNL A   1      46.466  24.173  26.076  1.00  0.00     0.029 A 
ATOM     53  N   UNL A   1      46.114  26.238  26.824  1.00  0.00    -0.354 N 
ATOM     54  N   UNL A   1      46.837  29.021  27.374  1.00  0.00    -0.248 NA
ATOM     55  C   UNL A   1      48.411  30.748  27.389  1.00  0.00     0.031 C 
ATOM     56  C   UNL A   1      47.651  24.903  25.934  1.00  0.00     0.029 A 
ATOM     57  C   UNL A   1      47.424  26.196  26.378  1.00  0.00     0.049 A 
ATOM     58  H   UNL A   1      45.672  27.030  27.204  1.00  0.00     0.167 HD
ATOM     59  C   UNL A   1      48.033  28.552  26.846  1.00  0.00     0.074 A 
ATOM     60  C   UNL A   1      48.960  29.667  26.853  1.00  0.00     0.031 C 
ATOM     61  C   UNL A   1      48.337  27.311  26.394  1.00  0.00     0.031 A 
BRANCH  48  62
ATOM     62  C   UNL A   1      43.681  23.266  26.834  1.00  0.00    -0.014 A 
ATOM     63  C   UNL A   1      43.235  22.496  27.925  1.00  0.00     0.010 A 
ATOM     64  C   UNL A   1      43.644  22.708  25.543  1.00  0.00     0.010 A 
ATOM     65  C   UNL A   1      42.807  21.180  27.735  1.00  0.00     0.020 A 
ATOM     66  C   UNL A   1      43.191  21.401  25.345  1.00  0.00     0.020 A 
ATOM     67  C   UNL A   1      42.794  20.639  26.446  1.00  0.00     0.054 A 
BRANCH  67  68
ATOM     68  S   UNL A   1      42.227  18.929  26.225  1.00  0.00     0.124 S 
ATOM     69  O   UNL A   1      40.859  19.127  25.752  1.00  0.00    -0.237 OA
ATOM     70  O   UNL A   1      43.164  18.404  25.234  1.00  0.00    -0.237 OA
ATOM     71  O   UNL A   1      42.347  18.348  27.560  1.00  0.00    -0.744 OA
ENDBRANCH  67  68
ENDBRANCH  48  62
BRANCH  49  72
ATOM     72  C   UNL A   1      46.526  32.681  28.531  1.00  0.00    -0.014 A 
ATOM     73  C   UNL A   1      47.003  33.038  29.805  1.00  0.00     0.010 A 
ATOM     74  C   UNL A   1      46.485  33.656  27.518  1.00  0.00     0.010 A 
ATOM     75  C   UNL A   1      47.421  34.346  30.064  1.00  0.00     0.020 A 
ATOM     76  C   UNL A   1      46.926  34.958  27.765  1.00  0.00     0.020 A 
ATOM     77  C   UNL A   1      47.383  35.298  29.040  1.00  0.00     0.054 A 
BRANCH  77  78
ATOM     78  S   UNL A   1      47.991  36.973  29.379  1.00  0.00     0.124 S 
ATOM     79  O   UNL A   1      49.308  36.951  28.751  1.00  0.00    -0.237 OA
ATOM     80  O   UNL A   1      46.991  37.813  28.724  1.00  0.00    -0.237 OA
ATOM     81  O   UNL A   1      47.993  37.046  30.838  1.00  0.00    -0.744 OA
ENDBRANCH  77  78
ENDBRANCH  49  72
BRANCH  61  82
ATOM     82  C   UNL A   1      49.721  27.093  25.842  1.00  0.00    -0.014 A 
ATOM     83  C   UNL A   1      50.793  26.747  26.683  1.00  0.00     0.010 A 
ATOM     84  C   UNL A   1      49.938  27.184  24.455  1.00  0.00     0.010 A 
ATOM     85  C   UNL A   1      52.066  26.524  26.149  1.00  0.00     0.020 A 
ATOM     86  C   UNL A   1      51.203  26.938  23.916  1.00  0.00     0.020 A 
ATOM     87  C   UNL A   1      52.262  26.622  24.768  1.00  0.00     0.054 A 
BRANCH  87  88
ATOM     88  S   UNL A   1      53.913  26.285  24.094  1.00  0.00     0.124 S 
ATOM     89  O   UNL A   1      54.684  27.417  24.598  1.00  0.00    -0.237 OA
ATOM     90  O   UNL A   1      54.242  24.988  24.682  1.00  0.00    -0.237 OA
ATOM     91  O   UNL A   1      53.699  26.270  22.648  1.00  0.00    -0.744 OA
ENDBRANCH  87  88
ENDBRANCH  61  82
ENDBRANCH  35  36
ENDBRANCH  27  30
ENDBRANCH  25  26
ENDBRANCH  24  25
ENDBRANCH   1  24
TORSDOF 19
ENDMDL
MODEL 3
REMARK VINA RESULT:      -9.6      2.519      8.611
REMARK SMILES CC[C@](C)(NC(=O)NC[C@@H](C)[NH+](C)C)C(=O)NCCCCNC(=O)c1ccc(-c2c3nc(c(-c4ccc(S(=O)(=O)[O-])cc4)c4ccc([nH]4)c(-c4ccc(S(=O)(=O)[O-])cc4)c4nc(c(-c5ccc(S(=O)(=O)[O-])cc5)c5ccc2[nH]5)C=C4)C=C3)cc1
REMARK SMILES IDX 19 1 18 2 17 3 15 4 16 5 3 7 4 8 2 9 1 10 5 11 6 12 7 14
REMARK SMILES IDX 8 15 9 17 10 18 11 19 12 20 13 21 14 22 20 24 21 25 22 26
REMARK SMILES IDX 23 27 24 29 25 30 26 31 84 32 27 33 83 34 28 35 29 36 30 37
REMARK SMILES IDX 77 38 31 39 82 40 76 41 78 42 32 43 81 44 75 45 74 46 33 48
REMARK SMILES IDX 63 49 44 50 62 51 45 52 48 53 61 54 79 55 46 56 47 57 60 59
REMARK SMILES IDX 80 60 49 61 34 62 35 63 43 64 36 65 42 66 37 67 38 68 39 69
REMARK SMILES IDX 40 70 41 71 64 72 65 73 73 74 66 75 72 76 67 77 68 78 69 79
REMARK SMILES IDX 70 80 71 81 50 82 51 83 59 84 52 85 58 86 53 87 54 88 55 89
REMARK SMILES IDX 56 90 57 91
REMARK H PARENT 17 6 5 13 8 16 12 23 22 28 78 47 48 58
REMARK Flexibility Score: inf
ROOT
ATOM      1  C   UNL A   1      33.176  26.726  24.673  1.00  0.00     0.023 C 
ENDROOT
BRANCH   1   2
ATOM      2  C   UNL A   1      33.821  25.338  24.762  1.00  0.00     0.116 C 
BRANCH   2   3
ATOM      3  N   UNL A   1      33.707  24.571  25.992  1.00  0.00    -0.354 N 
ATOM      4  C   UNL A   1      33.244  23.310  26.261  1.00  0.00     0.245 C 
ATOM      5  O   UNL A   1      33.741  22.732  27.236  1.00  0.00    -0.272 OA
ATOM      6  H   UNL A   1      34.027  25.053  26.788  1.00  0.00     0.163 HD
BRANCH   4   7
ATOM      7  C   UNL A   1      32.292  22.543  25.315  1.00  0.00     0.117 C 
ATOM      8  C   UNL A   1      32.647  22.679  23.818  1.00  0.00     0.045 C 
BRANCH   7   9
ATOM      9  C   UNL A   1      30.871  23.180  25.497  1.00  0.00     0.035 C 
ATOM     10  C   UNL A   1      30.268  23.018  26.897  1.00  0.00     0.007 C 
ENDBRANCH   7   9
BRANCH   7  11
ATOM     11  N   UNL A   1      32.257  21.114  25.660  1.00  0.00    -0.324 N 
ATOM     12  C   UNL A   1      33.101  20.084  25.520  1.00  0.00     0.315 C 
ATOM     13  H   UNL A   1      31.415  20.852  26.095  1.00  0.00     0.166 HD
ATOM     14  O   UNL A   1      32.640  18.965  25.767  1.00  0.00    -0.249 OA
ATOM     15  N   UNL A   1      34.396  20.148  25.195  1.00  0.00    -0.332 N 
ATOM     16  H   UNL A   1      34.828  19.269  25.296  1.00  0.00     0.165 HD
BRANCH  15  17
ATOM     17  C   UNL A   1      35.356  21.157  24.732  1.00  0.00     0.182 C 
BRANCH  17  18
ATOM     18  C   UNL A   1      36.814  20.979  25.263  1.00  0.00     0.200 C 
ATOM     19  C   UNL A   1      37.412  19.631  24.849  1.00  0.00     0.077 C 
BRANCH  18  20
ATOM     20  N   UNL A   1      37.672  22.136  24.943  1.00  0.00    -0.336 N 
ATOM     21  C   UNL A   1      36.978  23.251  24.306  1.00  0.00     0.332 C 
ATOM     22  C   UNL A   1      38.532  22.602  26.021  1.00  0.00     0.332 C 
ATOM     23  H   UNL A   1      38.297  21.736  24.243  1.00  0.00     0.347 HD
ENDBRANCH  18  20
ENDBRANCH  17  18
ENDBRANCH  15  17
ENDBRANCH   7  11
ENDBRANCH   4   7
ENDBRANCH   2   3
ENDBRANCH   1   2
BRANCH   1  24
ATOM     24  C   UNL A   1      33.058  27.595  25.926  1.00  0.00     0.023 C 
BRANCH  24  25
ATOM     25  C   UNL A   1      34.242  28.500  26.235  1.00  0.00     0.116 C 
BRANCH  25  26
ATOM     26  N   UNL A   1      33.814  29.847  26.572  1.00  0.00    -0.352 N 
ATOM     27  C   UNL A   1      34.332  30.709  27.502  1.00  0.00     0.251 C 
ATOM     28  H   UNL A   1      33.044  30.187  26.060  1.00  0.00     0.163 HD
ATOM     29  O   UNL A   1      33.700  31.733  27.790  1.00  0.00    -0.269 OA
BRANCH  27  30
ATOM     30  C   UNL A   1      35.621  30.430  28.172  1.00  0.00     0.039 A 
ATOM     31  C   UNL A   1      35.631  29.589  29.289  1.00  0.00     0.014 A 
ATOM     32  C   UNL A   1      36.810  31.033  27.746  1.00  0.00     0.014 A 
ATOM     33  C   UNL A   1      36.829  29.326  29.958  1.00  0.00     0.010 A 
ATOM     34  C   UNL A   1      38.015  30.729  28.384  1.00  0.00     0.010 A 
ATOM     35  C   UNL A   1      38.035  29.883  29.504  1.00  0.00    -0.014 A 
BRANCH  35  36
ATOM     36  C   UNL A   1      39.317  29.606  30.205  1.00  0.00     0.031 A 
ATOM     37  C   UNL A   1      40.226  28.507  29.721  1.00  0.00     0.074 A 
ATOM     38  C   UNL A   1      39.648  30.315  31.302  1.00  0.00     0.049 A 
ATOM     39  N   UNL A   1      41.362  28.096  30.223  1.00  0.00    -0.248 NA
ATOM     40  C   UNL A   1      39.792  27.764  28.527  1.00  0.00     0.031 C 
ATOM     41  C   UNL A   1      38.844  31.387  31.893  1.00  0.00     0.029 A 
ATOM     42  N   UNL A   1      40.749  30.237  32.119  1.00  0.00    -0.354 N 
ATOM     43  C   UNL A   1      41.773  27.039  29.417  1.00  0.00     0.074 A 
ATOM     44  C   UNL A   1      40.742  26.845  28.421  1.00  0.00     0.031 C 
ATOM     45  C   UNL A   1      39.485  31.876  32.967  1.00  0.00     0.029 A 
ATOM     46  C   UNL A   1      40.729  31.134  33.160  1.00  0.00     0.049 A 
ATOM     47  H   UNL A   1      41.484  29.598  31.973  1.00  0.00     0.167 HD
ATOM     48  C   UNL A   1      42.912  26.307  29.488  1.00  0.00     0.031 A 
ATOM     49  C   UNL A   1      41.606  31.337  34.163  1.00  0.00     0.031 A 
ATOM     50  C   UNL A   1      43.941  26.502  30.473  1.00  0.00     0.049 A 
ATOM     51  C   UNL A   1      42.859  30.508  34.226  1.00  0.00     0.074 A 
ATOM     52  C   UNL A   1      45.150  25.839  30.600  1.00  0.00     0.029 A 
ATOM     53  N   UNL A   1      43.885  27.429  31.504  1.00  0.00    -0.354 N 
ATOM     54  N   UNL A   1      43.254  29.550  33.423  1.00  0.00    -0.248 NA
ATOM     55  C   UNL A   1      43.793  30.799  35.323  1.00  0.00     0.031 C 
ATOM     56  C   UNL A   1      45.806  26.336  31.732  1.00  0.00     0.029 A 
ATOM     57  C   UNL A   1      45.029  27.343  32.280  1.00  0.00     0.049 A 
ATOM     58  H   UNL A   1      43.143  28.056  31.660  1.00  0.00     0.167 HD
ATOM     59  C   UNL A   1      44.491  29.137  33.904  1.00  0.00     0.074 A 
ATOM     60  C   UNL A   1      44.787  29.961  35.059  1.00  0.00     0.031 C 
ATOM     61  C   UNL A   1      45.310  28.166  33.431  1.00  0.00     0.031 A 
BRANCH  48  62
ATOM     62  C   UNL A   1      43.097  25.215  28.466  1.00  0.00    -0.014 A 
ATOM     63  C   UNL A   1      42.628  23.910  28.707  1.00  0.00     0.010 A 
ATOM     64  C   UNL A   1      43.722  25.502  27.239  1.00  0.00     0.010 A 
ATOM     65  C   UNL A   1      42.823  22.903  27.760  1.00  0.00     0.020 A 
ATOM     66  C   UNL A   1      43.894  24.502  26.277  1.00  0.00     0.020 A 
ATOM     67  C   UNL A   1      43.461  23.203  26.553  1.00  0.00     0.054 A 
BRANCH  67  68
ATOM     68  S   UNL A   1      43.695  21.877  25.336  1.00  0.00     0.124 S 
ATOM     69  O   UNL A   1      43.547  22.600  24.075  1.00  0.00    -0.237 OA
ATOM     70  O   UNL A   1      45.045  21.403  25.633  1.00  0.00    -0.237 OA
ATOM     71  O   UNL A   1      42.624  20.933  25.643  1.00  0.00    -0.744 OA
ENDBRANCH  67  68
ENDBRANCH  48  62
BRANCH  49  72
ATOM     72  C   UNL A   1      41.330  32.383  35.184  1.00  0.00    -0.014 A 
ATOM     73  C   UNL A   1      41.830  33.687  35.025  1.00  0.00     0.010 A 
ATOM     74  C   UNL A   1      40.544  32.083  36.312  1.00  0.00     0.010 A 
ATOM     75  C   UNL A   1      41.559  34.670  35.981  1.00  0.00     0.020 A 
ATOM     76  C   UNL A   1      40.250  33.070  37.256  1.00  0.00     0.020 A 
ATOM     77  C   UNL A   1      40.768  34.356  37.090  1.00  0.00     0.054 A 
BRANCH  77  78
ATOM     78  S   UNL A   1      40.375  35.663  38.285  1.00  0.00     0.124 S 
ATOM     79  O   UNL A   1      41.689  35.977  38.835  1.00  0.00    -0.237 OA
ATOM     80  O   UNL A   1      39.778  36.696  37.441  1.00  0.00    -0.237 OA
ATOM     81  O   UNL A   1      39.448  35.013  39.208  1.00  0.00    -0.744 OA
ENDBRANCH  77  78
ENDBRANCH  49  72
BRANCH  61  82
ATOM     82  C   UNL A   1      46.619  27.953  34.143  1.00  0.00    -0.014 A 
ATOM     83  C   UNL A   1      47.769  28.676  33.783  1.00  0.00     0.010 A 
ATOM     84  C   UNL A   1      46.683  27.052  35.222  1.00  0.00     0.010 A 
ATOM     85  C   UNL A   1      48.969  28.482  34.474  1.00  0.00     0.020 A 
ATOM     86  C   UNL A   1      47.874  26.875  35.930  1.00  0.00     0.020 A 
ATOM     87  C   UNL A   1      49.014  27.582  35.541  1.00  0.00     0.054 A 
BRANCH  87  88
ATOM     88  S   UNL A   1      50.571  27.380  36.451  1.00  0.00     0.124 S 
ATOM     89  O   UNL A   1      50.563  28.546  37.330  1.00  0.00    -0.237 OA
ATOM     90  O   UNL A   1      50.392  26.091  37.114  1.00  0.00    -0.237 OA
ATOM     91  O   UNL A   1      51.589  27.398  35.402  1.00  0.00    -0.744 OA
ENDBRANCH  87  88
ENDBRANCH  61  82
ENDBRANCH  35  36
ENDBRANCH  27  30
ENDBRANCH  25  26
ENDBRANCH  24  25
ENDBRANCH   1  24
TORSDOF 19
ENDMDL
