MODEL 1
REMARK VINA RESULT:     -11.6      0.000      0.000
REMARK SMILES CS(=O)(=O)c1ccc(/C=C(/C(=O)NCCCCNC(=O)c2ccc(-c3c4nc(c(-c5ccc(S(=O)(=O)[O-])cc5)c5ccc([nH]5)c(-c5ccc(S(=O)(=O)[O-])cc5)c5nc(c(-c6ccc(S(=O)(=O)[O-])cc6)c6ccc3[nH]6)C=C5)C=C4)cc2)c2ccccc2)cc1
REMARK SMILES IDX 16 1 15 2 14 3 13 4 11 5 12 6 10 8 9 9 8 10 5 11 6 12 88 13
REMARK SMILES IDX 7 14 87 15 2 16 1 17 3 18 4 19 81 20 82 21 86 22 83 23 85 24
REMARK SMILES IDX 84 25 17 26 18 27 19 28 20 30 21 31 22 32 80 33 23 34 79 35
REMARK SMILES IDX 24 36 25 37 26 38 73 39 27 40 78 41 72 42 74 43 28 44 77 45
REMARK SMILES IDX 71 46 70 47 29 49 59 50 40 51 58 52 41 53 44 54 57 55 75 56
REMARK SMILES IDX 42 57 43 58 56 60 76 61 45 62 30 63 31 64 39 65 32 66 38 67
REMARK SMILES IDX 33 68 34 69 35 70 36 71 37 72 60 73 61 74 69 75 62 76 68 77
REMARK SMILES IDX 63 78 64 79 65 80 66 81 67 82 46 83 47 84 55 85 48 86 54 87
REMARK SMILES IDX 49 88 50 89 51 90 52 91 53 92
REMARK H PARENT 13 7 18 29 74 48 44 59
REMARK Flexibility Score: inf
ROOT
ATOM      1  C   UNL A   1      35.293  22.904  25.634  1.00  0.00     0.023 C 
ENDROOT
BRANCH   1   2
ATOM      2  C   UNL A   1      34.724  22.508  24.264  1.00  0.00     0.023 C 
BRANCH   2   3
ATOM      3  C   UNL A   1      33.216  22.730  24.118  1.00  0.00     0.116 C 
BRANCH   3   4
ATOM      4  N   UNL A   1      32.582  22.745  25.420  1.00  0.00    -0.352 N 
ATOM      5  C   UNL A   1      31.885  23.677  26.124  1.00  0.00     0.251 C 
ATOM      6  O   UNL A   1      31.525  23.337  27.254  1.00  0.00    -0.269 OA
ATOM      7  H   UNL A   1      32.676  21.893  25.904  1.00  0.00     0.163 HD
BRANCH   5   8
ATOM      8  C   UNL A   1      31.473  25.026  25.570  1.00  0.00     0.047 C 
ATOM      9  C   UNL A   1      30.701  25.159  24.467  1.00  0.00     0.022 C 
BRANCH   9  10
ATOM     10  C   UNL A   1      30.117  26.375  23.852  1.00  0.00    -0.025 A 
ATOM     11  C   UNL A   1      28.875  28.689  22.854  1.00  0.00     0.067 A 
ATOM     12  C   UNL A   1      30.242  28.497  22.664  1.00  0.00     0.021 A 
ATOM     13  C   UNL A   1      28.104  27.710  23.481  1.00  0.00     0.021 A 
ATOM     14  C   UNL A   1      30.852  27.333  23.144  1.00  0.00     0.009 A 
ATOM     15  C   UNL A   1      28.729  26.563  23.981  1.00  0.00     0.009 A 
BRANCH  11  16
ATOM     16  S   UNL A   1      28.099  30.168  22.250  1.00  0.00     0.175 S 
ATOM     17  C   UNL A   1      29.297  31.431  22.597  1.00  0.00     0.163 C 
ATOM     18  O   UNL A   1      26.931  30.421  23.065  1.00  0.00    -0.224 OA
ATOM     19  O   UNL A   1      27.987  30.047  20.805  1.00  0.00    -0.224 OA
ENDBRANCH  11  16
ENDBRANCH   9  10
BRANCH   8  20
ATOM     20  C   UNL A   1      32.105  26.217  26.195  1.00  0.00    -0.013 A 
ATOM     21  C   UNL A   1      33.444  26.508  25.881  1.00  0.00     0.009 A 
ATOM     22  C   UNL A   1      31.396  27.101  27.018  1.00  0.00     0.009 A 
ATOM     23  C   UNL A   1      34.054  27.670  26.351  1.00  0.00     0.001 A 
ATOM     24  C   UNL A   1      32.006  28.273  27.477  1.00  0.00     0.001 A 
ATOM     25  C   UNL A   1      33.329  28.559  27.138  1.00  0.00     0.000 A 
ENDBRANCH   8  20
ENDBRANCH   5   8
ENDBRANCH   3   4
ENDBRANCH   2   3
ENDBRANCH   1   2
BRANCH   1  26
ATOM     26  C   UNL A   1      36.656  23.591  25.601  1.00  0.00     0.116 C 
BRANCH  26  27
ATOM     27  N   UNL A   1      37.764  22.667  25.793  1.00  0.00    -0.352 N 
ATOM     28  C   UNL A   1      38.994  22.901  26.358  1.00  0.00     0.251 C 
ATOM     29  H   UNL A   1      37.611  21.749  25.476  1.00  0.00     0.163 HD
ATOM     30  O   UNL A   1      39.853  22.025  26.335  1.00  0.00    -0.269 OA
BRANCH  28  31
ATOM     31  C   UNL A   1      39.290  24.222  26.953  1.00  0.00     0.039 A 
ATOM     32  C   UNL A   1      38.842  24.488  28.249  1.00  0.00     0.014 A 
ATOM     33  C   UNL A   1      40.021  25.182  26.248  1.00  0.00     0.014 A 
ATOM     34  C   UNL A   1      39.184  25.693  28.864  1.00  0.00     0.010 A 
ATOM     35  C   UNL A   1      40.415  26.357  26.885  1.00  0.00     0.010 A 
ATOM     36  C   UNL A   1      40.006  26.621  28.201  1.00  0.00    -0.014 A 
BRANCH  36  37
ATOM     37  C   UNL A   1      40.471  27.854  28.886  1.00  0.00     0.031 A 
ATOM     38  C   UNL A   1      41.847  27.920  29.488  1.00  0.00     0.074 A 
ATOM     39  C   UNL A   1      39.626  28.896  29.014  1.00  0.00     0.049 A 
ATOM     40  N   UNL A   1      42.411  28.903  30.144  1.00  0.00    -0.248 NA
ATOM     41  C   UNL A   1      42.691  26.722  29.359  1.00  0.00     0.031 C 
ATOM     42  C   UNL A   1      38.246  28.934  28.517  1.00  0.00     0.029 A 
ATOM     43  N   UNL A   1      39.798  30.122  29.603  1.00  0.00    -0.354 N 
ATOM     44  C   UNL A   1      43.667  28.440  30.514  1.00  0.00     0.074 A 
ATOM     45  C   UNL A   1      43.765  27.071  30.054  1.00  0.00     0.031 C 
ATOM     46  C   UNL A   1      37.710  30.133  28.798  1.00  0.00     0.029 A 
ATOM     47  C   UNL A   1      38.691  30.935  29.523  1.00  0.00     0.049 A 
ATOM     48  H   UNL A   1      40.635  30.396  30.043  1.00  0.00     0.167 HD
ATOM     49  C   UNL A   1      44.657  29.097  31.164  1.00  0.00     0.031 A 
ATOM     50  C   UNL A   1      38.486  32.184  29.981  1.00  0.00     0.031 A 
ATOM     51  C   UNL A   1      44.561  30.461  31.616  1.00  0.00     0.049 A 
ATOM     52  C   UNL A   1      39.601  32.895  30.695  1.00  0.00     0.074 A 
ATOM     53  C   UNL A   1      45.529  31.235  32.231  1.00  0.00     0.029 A 
ATOM     54  N   UNL A   1      43.427  31.253  31.505  1.00  0.00    -0.354 N 
ATOM     55  N   UNL A   1      40.809  32.463  30.972  1.00  0.00    -0.248 NA
ATOM     56  C   UNL A   1      39.330  34.267  31.147  1.00  0.00     0.031 C 
ATOM     57  C   UNL A   1      44.965  32.480  32.536  1.00  0.00     0.029 A 
ATOM     58  C   UNL A   1      43.664  32.499  32.061  1.00  0.00     0.049 A 
ATOM     59  H   UNL A   1      42.578  30.971  31.093  1.00  0.00     0.167 HD
ATOM     60  C   UNL A   1      41.449  33.519  31.612  1.00  0.00     0.074 A 
ATOM     61  C   UNL A   1      40.501  34.615  31.661  1.00  0.00     0.031 C 
ATOM     62  C   UNL A   1      42.708  33.576  32.112  1.00  0.00     0.031 A 
BRANCH  49  63
ATOM     63  C   UNL A   1      45.936  28.346  31.427  1.00  0.00    -0.014 A 
ATOM     64  C   UNL A   1      47.021  28.425  30.534  1.00  0.00     0.010 A 
ATOM     65  C   UNL A   1      46.070  27.579  32.599  1.00  0.00     0.010 A 
ATOM     66  C   UNL A   1      48.199  27.717  30.786  1.00  0.00     0.020 A 
ATOM     67  C   UNL A   1      47.258  26.893  32.869  1.00  0.00     0.020 A 
ATOM     68  C   UNL A   1      48.308  26.952  31.951  1.00  0.00     0.054 A 
BRANCH  68  69
ATOM     69  S   UNL A   1      49.857  26.060  32.262  1.00  0.00     0.124 S 
ATOM     70  O   UNL A   1      50.304  25.753  30.906  1.00  0.00    -0.237 OA
ATOM     71  O   UNL A   1      50.659  27.049  32.978  1.00  0.00    -0.237 OA
ATOM     72  O   UNL A   1      49.440  24.907  33.057  1.00  0.00    -0.744 OA
ENDBRANCH  68  69
ENDBRANCH  49  63
BRANCH  50  73
ATOM     73  C   UNL A   1      37.174  32.851  29.758  1.00  0.00    -0.014 A 
ATOM     74  C   UNL A   1      36.189  32.840  30.761  1.00  0.00     0.010 A 
ATOM     75  C   UNL A   1      36.909  33.513  28.545  1.00  0.00     0.010 A 
ATOM     76  C   UNL A   1      34.955  33.463  30.549  1.00  0.00     0.020 A 
ATOM     77  C   UNL A   1      35.687  34.161  28.342  1.00  0.00     0.020 A 
ATOM     78  C   UNL A   1      34.713  34.121  29.341  1.00  0.00     0.054 A 
BRANCH  78  79
ATOM     79  S   UNL A   1      33.126  34.970  29.109  1.00  0.00     0.124 S 
ATOM     80  O   UNL A   1      32.471  34.122  28.119  1.00  0.00    -0.237 OA
ATOM     81  O   UNL A   1      32.550  34.937  30.452  1.00  0.00    -0.237 OA
ATOM     82  O   UNL A   1      33.516  36.297  28.640  1.00  0.00    -0.744 OA
ENDBRANCH  78  79
ENDBRANCH  50  73
BRANCH  62  83
ATOM     83  C   UNL A   1      43.141  34.876  32.737  1.00  0.00    -0.014 A 
ATOM     84  C   UNL A   1      43.750  35.885  31.970  1.00  0.00     0.010 A 
ATOM     85  C   UNL A   1      42.903  35.103  34.104  1.00  0.00     0.010 A 
ATOM     86  C   UNL A   1      44.151  37.082  32.569  1.00  0.00     0.020 A 
ATOM     87  C   UNL A   1      43.277  36.309  34.701  1.00  0.00     0.020 A 
ATOM     88  C   UNL A   1      43.915  37.284  33.932  1.00  0.00     0.054 A 
BRANCH  88  89
ATOM     89  S   UNL A   1      44.420  38.858  34.683  1.00  0.00     0.124 S 
ATOM     90  O   UNL A   1      44.266  38.575  36.108  1.00  0.00    -0.237 OA
ATOM     91  O   UNL A   1      45.796  39.010  34.217  1.00  0.00    -0.237 OA
ATOM     92  O   UNL A   1      43.472  39.823  34.132  1.00  0.00    -0.744 OA
ENDBRANCH  88  89
ENDBRANCH  62  83
ENDBRANCH  36  37
ENDBRANCH  28  31
ENDBRANCH  26  27
ENDBRANCH   1  26
TORSDOF 17
ENDMDL
MODEL 2
REMARK VINA RESULT:     -11.2      2.011      2.609
REMARK SMILES CS(=O)(=O)c1ccc(/C=C(/C(=O)NCCCCNC(=O)c2ccc(-c3c4nc(c(-c5ccc(S(=O)(=O)[O-])cc5)c5ccc([nH]5)c(-c5ccc(S(=O)(=O)[O-])cc5)c5nc(c(-c6ccc(S(=O)(=O)[O-])cc6)c6ccc3[nH]6)C=C5)C=C4)cc2)c2ccccc2)cc1
REMARK SMILES IDX 16 1 15 2 14 3 13 4 11 5 12 6 10 8 9 9 8 10 5 11 6 12 88 13
REMARK SMILES IDX 7 14 87 15 2 16 1 17 3 18 4 19 81 20 82 21 86 22 83 23 85 24
REMARK SMILES IDX 84 25 17 26 18 27 19 28 20 30 21 31 22 32 80 33 23 34 79 35
REMARK SMILES IDX 24 36 25 37 26 38 73 39 27 40 78 41 72 42 74 43 28 44 77 45
REMARK SMILES IDX 71 46 70 47 29 49 59 50 40 51 58 52 41 53 44 54 57 55 75 56
REMARK SMILES IDX 42 57 43 58 56 60 76 61 45 62 30 63 31 64 39 65 32 66 38 67
REMARK SMILES IDX 33 68 34 69 35 70 36 71 37 72 60 73 61 74 69 75 62 76 68 77
REMARK SMILES IDX 63 78 64 79 65 80 66 81 67 82 46 83 47 84 55 85 48 86 54 87
REMARK SMILES IDX 49 88 50 89 51 90 52 91 53 92
REMARK H PARENT 13 7 18 29 74 48 44 59
REMARK Flexibility Score: inf
ROOT
ATOM      1  C   UNL A   1      34.997  22.976  25.792  1.00  0.00     0.023 C 
ENDROOT
BRANCH   1   2
ATOM      2  C   UNL A   1      34.496  22.823  24.348  1.00  0.00     0.023 C 
BRANCH   2   3
ATOM      3  C   UNL A   1      32.994  23.057  24.172  1.00  0.00     0.116 C 
BRANCH   3   4
ATOM      4  N   UNL A   1      32.333  23.072  25.461  1.00  0.00    -0.352 N 
ATOM      5  C   UNL A   1      31.652  24.015  26.165  1.00  0.00     0.251 C 
ATOM      6  O   UNL A   1      31.258  23.668  27.282  1.00  0.00    -0.269 OA
ATOM      7  H   UNL A   1      32.390  22.210  25.932  1.00  0.00     0.163 HD
BRANCH   5   8
ATOM      8  C   UNL A   1      31.295  25.385  25.625  1.00  0.00     0.047 C 
ATOM      9  C   UNL A   1      30.511  25.561  24.537  1.00  0.00     0.022 C 
BRANCH   9  10
ATOM     10  C   UNL A   1      29.975  26.807  23.939  1.00  0.00    -0.025 A 
ATOM     11  C   UNL A   1      28.792  29.151  22.940  1.00  0.00     0.067 A 
ATOM     12  C   UNL A   1      30.179  29.057  23.028  1.00  0.00     0.021 A 
ATOM     13  C   UNL A   1      27.986  28.066  23.284  1.00  0.00     0.021 A 
ATOM     14  C   UNL A   1      30.764  27.879  23.507  1.00  0.00     0.009 A 
ATOM     15  C   UNL A   1      28.580  26.904  23.787  1.00  0.00     0.009 A 
BRANCH  11  16
ATOM     16  S   UNL A   1      28.046  30.647  22.338  1.00  0.00     0.175 S 
ATOM     17  C   UNL A   1      29.315  31.863  22.578  1.00  0.00     0.163 C 
ATOM     18  O   UNL A   1      26.940  30.974  23.211  1.00  0.00    -0.224 OA
ATOM     19  O   UNL A   1      27.843  30.491  20.906  1.00  0.00    -0.224 OA
ENDBRANCH  11  16
ENDBRANCH   9  10
BRANCH   8  20
ATOM     20  C   UNL A   1      31.994  26.541  26.245  1.00  0.00    -0.013 A 
ATOM     21  C   UNL A   1      33.332  26.784  25.891  1.00  0.00     0.009 A 
ATOM     22  C   UNL A   1      31.348  27.440  27.104  1.00  0.00     0.009 A 
ATOM     23  C   UNL A   1      34.003  27.914  26.355  1.00  0.00     0.001 A 
ATOM     24  C   UNL A   1      32.019  28.580  27.558  1.00  0.00     0.001 A 
ATOM     25  C   UNL A   1      33.340  28.819  27.179  1.00  0.00     0.000 A 
ENDBRANCH   8  20
ENDBRANCH   5   8
ENDBRANCH   3   4
ENDBRANCH   2   3
ENDBRANCH   1   2
BRANCH   1  26
ATOM     26  C   UNL A   1      36.396  23.568  25.939  1.00  0.00     0.116 C 
BRANCH  26  27
ATOM     27  N   UNL A   1      37.437  22.555  26.032  1.00  0.00    -0.352 N 
ATOM     28  C   UNL A   1      38.760  22.706  26.368  1.00  0.00     0.251 C 
ATOM     29  H   UNL A   1      37.153  21.635  25.826  1.00  0.00     0.163 HD
ATOM     30  O   UNL A   1      39.523  21.748  26.286  1.00  0.00    -0.269 OA
BRANCH  28  31
ATOM     31  C   UNL A   1      39.265  24.030  26.788  1.00  0.00     0.039 A 
ATOM     32  C   UNL A   1      39.151  24.395  28.131  1.00  0.00     0.014 A 
ATOM     33  C   UNL A   1      39.864  24.896  25.869  1.00  0.00     0.014 A 
ATOM     34  C   UNL A   1      39.699  25.603  28.567  1.00  0.00     0.010 A 
ATOM     35  C   UNL A   1      40.466  26.070  26.316  1.00  0.00     0.010 A 
ATOM     36  C   UNL A   1      40.395  26.433  27.670  1.00  0.00    -0.014 A 
BRANCH  36  37
ATOM     37  C   UNL A   1      41.079  27.662  28.143  1.00  0.00     0.031 A 
ATOM     38  C   UNL A   1      42.578  27.770  28.090  1.00  0.00     0.074 A 
ATOM     39  C   UNL A   1      40.348  28.661  28.676  1.00  0.00     0.049 A 
ATOM     40  N   UNL A   1      43.346  28.755  28.482  1.00  0.00    -0.248 NA
ATOM     41  C   UNL A   1      43.312  26.615  27.549  1.00  0.00     0.031 C 
ATOM     42  C   UNL A   1      38.890  28.654  28.831  1.00  0.00     0.029 A 
ATOM     43  N   UNL A   1      40.729  29.874  29.190  1.00  0.00    -0.354 N 
ATOM     44  C   UNL A   1      44.650  28.336  28.247  1.00  0.00     0.074 A 
ATOM     45  C   UNL A   1      44.572  26.989  27.724  1.00  0.00     0.031 C 
ATOM     46  C   UNL A   1      38.499  29.818  29.374  1.00  0.00     0.029 A 
ATOM     47  C   UNL A   1      39.677  30.639  29.639  1.00  0.00     0.049 A 
ATOM     48  H   UNL A   1      41.667  30.170  29.235  1.00  0.00     0.167 HD
ATOM     49  C   UNL A   1      45.807  29.016  28.432  1.00  0.00     0.031 A 
ATOM     50  C   UNL A   1      39.660  31.863  30.200  1.00  0.00     0.031 A 
ATOM     51  C   UNL A   1      45.882  30.358  28.947  1.00  0.00     0.049 A 
ATOM     52  C   UNL A   1      40.956  32.599  30.392  1.00  0.00     0.074 A 
ATOM     53  C   UNL A   1      47.001  31.155  29.116  1.00  0.00     0.029 A 
ATOM     54  N   UNL A   1      44.793  31.103  29.378  1.00  0.00    -0.354 N 
ATOM     55  N   UNL A   1      42.174  32.212  30.095  1.00  0.00    -0.248 NA
ATOM     56  C   UNL A   1      40.873  33.942  30.982  1.00  0.00     0.031 C 
ATOM     57  C   UNL A   1      46.595  32.363  29.696  1.00  0.00     0.029 A 
ATOM     58  C   UNL A   1      45.217  32.339  29.835  1.00  0.00     0.049 A 
ATOM     59  H   UNL A   1      43.857  30.796  29.363  1.00  0.00     0.167 HD
ATOM     60  C   UNL A   1      43.002  33.274  30.443  1.00  0.00     0.074 A 
ATOM     61  C   UNL A   1      42.143  34.325  30.952  1.00  0.00     0.031 C 
ATOM     62  C   UNL A   1      44.351  33.371  30.349  1.00  0.00     0.031 A 
BRANCH  49  63
ATOM     63  C   UNL A   1      47.091  28.313  28.077  1.00  0.00    -0.014 A 
ATOM     64  C   UNL A   1      47.804  27.574  29.039  1.00  0.00     0.010 A 
ATOM     65  C   UNL A   1      47.574  28.362  26.756  1.00  0.00     0.010 A 
ATOM     66  C   UNL A   1      48.997  26.932  28.698  1.00  0.00     0.020 A 
ATOM     67  C   UNL A   1      48.753  27.697  26.404  1.00  0.00     0.020 A 
ATOM     68  C   UNL A   1      49.466  27.001  27.383  1.00  0.00     0.054 A 
BRANCH  68  69
ATOM     69  S   UNL A   1      51.008  26.142  26.963  1.00  0.00     0.124 S 
ATOM     70  O   UNL A   1      50.670  24.753  27.269  1.00  0.00    -0.237 OA
ATOM     71  O   UNL A   1      51.172  26.449  25.545  1.00  0.00    -0.237 OA
ATOM     72  O   UNL A   1      51.997  26.751  27.849  1.00  0.00    -0.744 OA
ENDBRANCH  68  69
ENDBRANCH  49  63
BRANCH  50  73
ATOM     73  C   UNL A   1      38.365  32.477  30.602  1.00  0.00    -0.014 A 
ATOM     74  C   UNL A   1      37.578  33.162  29.659  1.00  0.00     0.010 A 
ATOM     75  C   UNL A   1      37.904  32.367  31.927  1.00  0.00     0.010 A 
ATOM     76  C   UNL A   1      36.364  33.742  30.038  1.00  0.00     0.020 A 
ATOM     77  C   UNL A   1      36.677  32.921  32.301  1.00  0.00     0.020 A 
ATOM     78  C   UNL A   1      35.921  33.616  31.356  1.00  0.00     0.054 A 
BRANCH  78  79
ATOM     79  S   UNL A   1      34.315  34.330  31.813  1.00  0.00     0.124 S 
ATOM     80  O   UNL A   1      34.712  35.567  32.476  1.00  0.00    -0.237 OA
ATOM     81  O   UNL A   1      33.659  34.488  30.517  1.00  0.00    -0.237 OA
ATOM     82  O   UNL A   1      33.725  33.313  32.680  1.00  0.00    -0.744 OA
ENDBRANCH  78  79
ENDBRANCH  50  73
BRANCH  62  83
ATOM     83  C   UNL A   1      44.979  34.668  30.785  1.00  0.00    -0.014 A 
ATOM     84  C   UNL A   1      45.140  35.737  29.886  1.00  0.00     0.010 A 
ATOM     85  C   UNL A   1      45.383  34.829  32.122  1.00  0.00     0.010 A 
ATOM     86  C   UNL A   1      45.732  36.931  30.308  1.00  0.00     0.020 A 
ATOM     87  C   UNL A   1      45.949  36.031  32.555  1.00  0.00     0.020 A 
ATOM     88  C   UNL A   1      46.136  37.068  31.640  1.00  0.00     0.054 A 
BRANCH  88  89
ATOM     89  S   UNL A   1      46.876  38.637  32.172  1.00  0.00     0.124 S 
ATOM     90  O   UNL A   1      48.299  38.388  31.954  1.00  0.00    -0.237 OA
ATOM     91  O   UNL A   1      46.262  39.606  31.266  1.00  0.00    -0.237 OA
ATOM     92  O   UNL A   1      46.470  38.755  33.569  1.00  0.00    -0.744 OA
ENDBRANCH  88  89
ENDBRANCH  62  83
ENDBRANCH  36  37
ENDBRANCH  28  31
ENDBRANCH  26  27
ENDBRANCH   1  26
TORSDOF 17
ENDMDL
MODEL 3
REMARK VINA RESULT:     -10.9      3.910      9.340
REMARK SMILES CS(=O)(=O)c1ccc(/C=C(/C(=O)NCCCCNC(=O)c2ccc(-c3c4nc(c(-c5ccc(S(=O)(=O)[O-])cc5)c5ccc([nH]5)c(-c5ccc(S(=O)(=O)[O-])cc5)c5nc(c(-c6ccc(S(=O)(=O)[O-])cc6)c6ccc3[nH]6)C=C5)C=C4)cc2)c2ccccc2)cc1
REMARK SMILES IDX 16 1 15 2 14 3 13 4 11 5 12 6 10 8 9 9 8 10 5 11 6 12 88 13
REMARK SMILES IDX 7 14 87 15 2 16 1 17 3 18 4 19 81 20 82 21 86 22 83 23 85 24
REMARK SMILES IDX 84 25 17 26 18 27 19 28 20 30 21 31 22 32 80 33 23 34 79 35
REMARK SMILES IDX 24 36 25 37 26 38 73 39 27 40 78 41 72 42 74 43 28 44 77 45
REMARK SMILES IDX 71 46 70 47 29 49 59 50 40 51 58 52 41 53 44 54 57 55 75 56
REMARK SMILES IDX 42 57 43 58 56 60 76 61 45 62 30 63 31 64 39 65 32 66 38 67
REMARK SMILES IDX 33 68 34 69 35 70 36 71 37 72 60 73 61 74 69 75 62 76 68 77
REMARK SMILES IDX 63 78 64 79 65 80 66 81 67 82 46 83 47 84 55 85 48 86 54 87
REMARK SMILES IDX 49 88 50 89 51 90 52 91 53 92
REMARK H PARENT 13 7 18 29 74 48 44 59
REMARK Flexibility Score: inf
ROOT
ATOM      1  C   UNL A   1      37.793  20.959  25.273  1.00  0.00     0.023 C 
ENDROOT
BRANCH   1   2
ATOM      2  C   UNL A   1      37.210  22.220  24.618  1.00  0.00     0.023 C 
BRANCH   2   3
ATOM      3  C   UNL A   1      36.812  23.319  25.606  1.00  0.00     0.116 C 
BRANCH   3   4
ATOM      4  N   UNL A   1      35.903  22.793  26.605  1.00  0.00    -0.352 N 
ATOM      5  C   UNL A   1      34.579  22.961  26.863  1.00  0.00     0.251 C 
ATOM      6  O   UNL A   1      34.147  22.368  27.855  1.00  0.00    -0.269 OA
ATOM      7  H   UNL A   1      36.341  22.178  27.237  1.00  0.00     0.163 HD
BRANCH   5   8
ATOM      8  C   UNL A   1      33.633  23.742  25.973  1.00  0.00     0.047 C 
ATOM      9  C   UNL A   1      32.959  24.833  26.402  1.00  0.00     0.022 C 
BRANCH   9  10
ATOM     10  C   UNL A   1      32.090  25.773  25.654  1.00  0.00    -0.025 A 
ATOM     11  C   UNL A   1      30.612  27.602  24.117  1.00  0.00     0.067 A 
ATOM     12  C   UNL A   1      30.002  26.443  24.594  1.00  0.00     0.021 A 
ATOM     13  C   UNL A   1      31.935  27.893  24.449  1.00  0.00     0.021 A 
ATOM     14  C   UNL A   1      30.736  25.546  25.377  1.00  0.00     0.009 A 
ATOM     15  C   UNL A   1      32.667  26.976  25.210  1.00  0.00     0.009 A 
BRANCH  11  16
ATOM     16  S   UNL A   1      29.684  28.739  23.117  1.00  0.00     0.175 S 
ATOM     17  C   UNL A   1      28.030  28.102  23.197  1.00  0.00     0.163 C 
ATOM     18  O   UNL A   1      30.148  28.614  21.753  1.00  0.00    -0.224 OA
ATOM     19  O   UNL A   1      29.697  30.028  23.792  1.00  0.00    -0.224 OA
ENDBRANCH  11  16
ENDBRANCH   9  10
BRANCH   8  20
ATOM     20  C   UNL A   1      33.337  23.149  24.643  1.00  0.00    -0.013 A 
ATOM     21  C   UNL A   1      32.598  21.953  24.591  1.00  0.00     0.009 A 
ATOM     22  C   UNL A   1      33.695  23.774  23.442  1.00  0.00     0.009 A 
ATOM     23  C   UNL A   1      32.198  21.411  23.371  1.00  0.00     0.001 A 
ATOM     24  C   UNL A   1      33.281  23.235  22.220  1.00  0.00     0.001 A 
ATOM     25  C   UNL A   1      32.529  22.060  22.186  1.00  0.00     0.000 A 
ENDBRANCH   8  20
ENDBRANCH   5   8
ENDBRANCH   3   4
ENDBRANCH   2   3
ENDBRANCH   1   2
BRANCH   1  26
ATOM     26  C   UNL A   1      39.098  21.165  26.038  1.00  0.00     0.116 C 
BRANCH  26  27
ATOM     27  N   UNL A   1      39.971  20.002  25.999  1.00  0.00    -0.352 N 
ATOM     28  C   UNL A   1      41.338  19.945  26.121  1.00  0.00     0.251 C 
ATOM     29  H   UNL A   1      39.521  19.137  25.869  1.00  0.00     0.163 HD
ATOM     30  O   UNL A   1      41.922  18.880  25.950  1.00  0.00    -0.269 OA
BRANCH  28  31
ATOM     31  C   UNL A   1      42.102  21.176  26.416  1.00  0.00     0.039 A 
ATOM     32  C   UNL A   1      42.454  22.016  25.358  1.00  0.00     0.014 A 
ATOM     33  C   UNL A   1      42.450  21.510  27.728  1.00  0.00     0.014 A 
ATOM     34  C   UNL A   1      43.097  23.226  25.622  1.00  0.00     0.010 A 
ATOM     35  C   UNL A   1      43.035  22.745  27.996  1.00  0.00     0.010 A 
ATOM     36  C   UNL A   1      43.359  23.619  26.946  1.00  0.00    -0.014 A 
BRANCH  36  37
ATOM     37  C   UNL A   1      43.939  24.952  27.246  1.00  0.00     0.031 A 
ATOM     38  C   UNL A   1      43.069  26.065  27.761  1.00  0.00     0.074 A 
ATOM     39  C   UNL A   1      45.245  25.174  26.998  1.00  0.00     0.049 A 
ATOM     40  N   UNL A   1      43.397  27.298  28.053  1.00  0.00    -0.248 NA
ATOM     41  C   UNL A   1      41.641  25.763  27.951  1.00  0.00     0.031 C 
ATOM     42  C   UNL A   1      46.183  24.189  26.450  1.00  0.00     0.029 A 
ATOM     43  N   UNL A   1      46.011  26.299  27.171  1.00  0.00    -0.354 N 
ATOM     44  C   UNL A   1      42.220  27.921  28.448  1.00  0.00     0.074 A 
ATOM     45  C   UNL A   1      41.160  26.944  28.313  1.00  0.00     0.031 C 
ATOM     46  C   UNL A   1      47.402  24.745  26.359  1.00  0.00     0.029 A 
ATOM     47  C   UNL A   1      47.327  26.133  26.807  1.00  0.00     0.049 A 
ATOM     48  H   UNL A   1      45.652  27.147  27.521  1.00  0.00     0.167 HD
ATOM     49  C   UNL A   1      42.038  29.185  28.900  1.00  0.00     0.031 A 
ATOM     50  C   UNL A   1      48.359  26.997  26.830  1.00  0.00     0.031 A 
ATOM     51  C   UNL A   1      43.095  30.153  29.040  1.00  0.00     0.049 A 
ATOM     52  C   UNL A   1      48.133  28.393  27.340  1.00  0.00     0.074 A 
ATOM     53  C   UNL A   1      43.023  31.440  29.543  1.00  0.00     0.029 A 
ATOM     54  N   UNL A   1      44.416  29.941  28.672  1.00  0.00    -0.354 N 
ATOM     55  N   UNL A   1      47.024  28.941  27.778  1.00  0.00    -0.248 NA
ATOM     56  C   UNL A   1      49.302  29.284  27.370  1.00  0.00     0.031 C 
ATOM     57  C   UNL A   1      44.291  32.024  29.435  1.00  0.00     0.029 A 
ATOM     58  C   UNL A   1      45.163  31.082  28.916  1.00  0.00     0.049 A 
ATOM     59  H   UNL A   1      44.770  29.104  28.292  1.00  0.00     0.167 HD
ATOM     60  C   UNL A   1      47.367  30.234  28.157  1.00  0.00     0.074 A 
ATOM     61  C   UNL A   1      48.789  30.378  27.915  1.00  0.00     0.031 C 
ATOM     62  C   UNL A   1      46.575  31.214  28.660  1.00  0.00     0.031 A 
BRANCH  49  63
ATOM     63  C   UNL A   1      40.638  29.595  29.275  1.00  0.00    -0.014 A 
ATOM     64  C   UNL A   1      39.617  29.656  28.309  1.00  0.00     0.010 A 
ATOM     65  C   UNL A   1      40.329  29.887  30.616  1.00  0.00     0.010 A 
ATOM     66  C   UNL A   1      38.324  30.044  28.669  1.00  0.00     0.020 A 
ATOM     67  C   UNL A   1      39.029  30.248  30.985  1.00  0.00     0.020 A 
ATOM     68  C   UNL A   1      38.039  30.341  30.005  1.00  0.00     0.054 A 
BRANCH  68  69
ATOM     69  S   UNL A   1      36.347  30.823  30.447  1.00  0.00     0.124 S 
ATOM     70  O   UNL A   1      36.534  32.204  30.887  1.00  0.00    -0.237 OA
ATOM     71  O   UNL A   1      35.626  30.658  29.188  1.00  0.00    -0.237 OA
ATOM     72  O   UNL A   1      35.981  29.878  31.500  1.00  0.00    -0.744 OA
ENDBRANCH  68  69
ENDBRANCH  49  63
BRANCH  50  73
ATOM     73  C   UNL A   1      49.706  26.558  26.376  1.00  0.00    -0.014 A 
ATOM     74  C   UNL A   1      50.583  25.913  27.265  1.00  0.00     0.010 A 
ATOM     75  C   UNL A   1      50.113  26.768  25.045  1.00  0.00     0.010 A 
ATOM     76  C   UNL A   1      51.850  25.504  26.838  1.00  0.00     0.020 A 
ATOM     77  C   UNL A   1      51.368  26.335  24.608  1.00  0.00     0.020 A 
ATOM     78  C   UNL A   1      52.233  25.716  25.512  1.00  0.00     0.054 A 
BRANCH  78  79
ATOM     79  S   UNL A   1      53.861  25.128  24.965  1.00  0.00     0.124 S 
ATOM     80  O   UNL A   1      54.018  25.817  23.688  1.00  0.00    -0.237 OA
ATOM     81  O   UNL A   1      54.739  25.580  26.042  1.00  0.00    -0.237 OA
ATOM     82  O   UNL A   1      53.688  23.680  24.880  1.00  0.00    -0.744 OA
ENDBRANCH  78  79
ENDBRANCH  50  73
BRANCH  62  83
ATOM     83  C   UNL A   1      47.236  32.522  29.004  1.00  0.00    -0.014 A 
ATOM     84  C   UNL A   1      47.398  33.532  28.039  1.00  0.00     0.010 A 
ATOM     85  C   UNL A   1      47.671  32.756  30.321  1.00  0.00     0.010 A 
ATOM     86  C   UNL A   1      48.020  34.737  28.376  1.00  0.00     0.020 A 
ATOM     87  C   UNL A   1      48.268  33.970  30.668  1.00  0.00     0.020 A 
ATOM     88  C   UNL A   1      48.455  34.946  29.688  1.00  0.00     0.054 A 
BRANCH  88  89
ATOM     89  S   UNL A   1      49.235  36.529  30.109  1.00  0.00     0.124 S 
ATOM     90  O   UNL A   1      48.217  37.489  29.691  1.00  0.00    -0.237 OA
ATOM     91  O   UNL A   1      49.437  36.415  31.552  1.00  0.00    -0.237 OA
ATOM     92  O   UNL A   1      50.460  36.534  29.314  1.00  0.00    -0.744 OA
ENDBRANCH  88  89
ENDBRANCH  62  83
ENDBRANCH  36  37
ENDBRANCH  28  31
ENDBRANCH  26  27
ENDBRANCH   1  26
TORSDOF 17
ENDMDL
