MODEL 1
REMARK VINA RESULT:      -8.8      0.000      0.000
REMARK SMILES NS(=O)(=O)c1ccc(NS(=O)(=O)c2cccc(C(=O)NCCCCNC(=O)c3ccc(-c4c5nc(c(-c6ccc(S(=O)(=O)[O-])cc6)c6ccc([nH]6)c(-c6ccc(S(=O)(=O)[O-])cc6)c6nc(c(-c7ccc(S(=O)(=O)[O-])cc7)c7ccc4[nH]7)C=C6)C=C5)cc3)c2)cc1
REMARK SMILES IDX 21 1 20 2 18 3 19 4 17 6 13 7 14 8 88 9 15 10 16 11 10 12
REMARK SMILES IDX 11 13 12 14 9 15 8 17 5 18 6 19 90 20 7 21 89 22 2 23 3 24
REMARK SMILES IDX 4 25 1 26 22 29 23 30 24 31 25 32 26 33 27 35 28 36 29 37
REMARK SMILES IDX 87 38 30 39 86 40 31 41 32 42 33 43 80 44 34 45 85 46 79 47
REMARK SMILES IDX 81 48 35 49 84 50 78 51 77 52 36 54 66 55 47 56 65 57 48 58
REMARK SMILES IDX 51 59 64 60 82 61 49 62 50 63 63 65 83 66 52 67 37 68 38 69
REMARK SMILES IDX 46 70 39 71 45 72 40 73 41 74 42 75 43 76 44 77 67 78 68 79
REMARK SMILES IDX 76 80 69 81 75 82 70 83 71 84 72 85 73 86 74 87 53 88 54 89
REMARK SMILES IDX 62 90 55 91 61 92 56 93 57 94 58 95 59 96 60 97
REMARK H PARENT 20 5 9 16 1 27 1 28 25 34 81 53 51 64
REMARK Flexibility Score: inf
ROOT
ATOM      1  C   UNL A   1      35.237  32.370  31.724  1.00  0.00     0.116 C 
ENDROOT
BRANCH   1   2
ATOM      2  N   UNL A   1      35.036  33.476  32.653  1.00  0.00    -0.352 N 
ATOM      3  C   UNL A   1      35.921  34.267  33.352  1.00  0.00     0.251 C 
ATOM      4  O   UNL A   1      35.489  35.129  34.115  1.00  0.00    -0.269 OA
ATOM      5  H   UNL A   1      34.089  33.697  32.812  1.00  0.00     0.163 HD
BRANCH   3   6
ATOM      6  C   UNL A   1      37.389  34.075  33.248  1.00  0.00     0.041 A 
ATOM      7  C   UNL A   1      39.497  33.452  34.241  1.00  0.00     0.088 A 
ATOM      8  C   UNL A   1      40.197  34.023  33.178  1.00  0.00     0.022 A 
ATOM      9  C   UNL A   1      38.104  33.388  34.219  1.00  0.00     0.036 A 
ATOM     10  C   UNL A   1      39.478  34.557  32.105  1.00  0.00     0.002 A 
ATOM     11  C   UNL A   1      38.079  34.607  32.152  1.00  0.00     0.014 A 
BRANCH   7  12
ATOM     12  S   UNL A   1      40.317  32.809  35.679  1.00  0.00     0.261 S 
ATOM     13  O   UNL A   1      39.828  33.529  36.834  1.00  0.00    -0.201 OA
ATOM     14  O   UNL A   1      41.729  32.767  35.363  1.00  0.00    -0.201 OA
BRANCH  12  15
ATOM     15  N   UNL A   1      39.829  31.229  35.810  1.00  0.00    -0.280 N 
ATOM     16  H   UNL A   1      39.005  31.061  36.323  1.00  0.00     0.180 HD
BRANCH  15  17
ATOM     17  C   UNL A   1      40.477  30.097  35.258  1.00  0.00     0.049 A 
ATOM     18  C   UNL A   1      42.275  28.285  34.145  1.00  0.00     0.082 A 
ATOM     19  C   UNL A   1      41.231  28.784  33.369  1.00  0.00     0.024 A 
ATOM     20  C   UNL A   1      42.360  28.593  35.502  1.00  0.00     0.024 A 
ATOM     21  C   UNL A   1      40.309  29.663  33.941  1.00  0.00     0.028 A 
ATOM     22  C   UNL A   1      41.463  29.507  36.052  1.00  0.00     0.028 A 
BRANCH  18  23
ATOM     23  S   UNL A   1      43.573  27.399  33.339  1.00  0.00     0.238 S 
ATOM     24  O   UNL A   1      43.484  26.007  33.724  1.00  0.00    -0.207 OA
ATOM     25  O   UNL A   1      44.785  28.168  33.426  1.00  0.00    -0.207 OA
BRANCH  23  26
ATOM     26  N   UNL A   1      43.118  27.420  31.718  1.00  0.00    -0.225 NA
ATOM     27  H   UNL A   1      42.815  26.486  31.438  1.00  0.00     0.137 HD
ATOM     28  H   UNL A   1      43.912  27.705  31.145  1.00  0.00     0.137 HD
ENDBRANCH  23  26
ENDBRANCH  18  23
ENDBRANCH  15  17
ENDBRANCH  12  15
ENDBRANCH   7  12
ENDBRANCH   3   6
ENDBRANCH   1   2
BRANCH   1  29
ATOM     29  C   UNL A   1      35.490  32.794  30.285  1.00  0.00     0.023 C 
BRANCH  29  30
ATOM     30  C   UNL A   1      34.266  32.827  29.382  1.00  0.00     0.023 C 
BRANCH  30  31
ATOM     31  C   UNL A   1      34.473  32.301  27.967  1.00  0.00     0.116 C 
BRANCH  31  32
ATOM     32  N   UNL A   1      33.901  30.981  27.724  1.00  0.00    -0.352 N 
ATOM     33  C   UNL A   1      34.516  29.753  27.839  1.00  0.00     0.251 C 
ATOM     34  H   UNL A   1      32.959  30.965  27.443  1.00  0.00     0.163 HD
ATOM     35  O   UNL A   1      33.919  28.721  27.557  1.00  0.00    -0.269 OA
BRANCH  33  36
ATOM     36  C   UNL A   1      35.932  29.709  28.258  1.00  0.00     0.039 A 
ATOM     37  C   UNL A   1      36.238  29.342  29.570  1.00  0.00     0.014 A 
ATOM     38  C   UNL A   1      36.946  29.922  27.321  1.00  0.00     0.014 A 
ATOM     39  C   UNL A   1      37.567  29.087  29.918  1.00  0.00     0.010 A 
ATOM     40  C   UNL A   1      38.256  29.593  27.651  1.00  0.00     0.010 A 
ATOM     41  C   UNL A   1      38.577  29.159  28.948  1.00  0.00    -0.014 A 
BRANCH  41  42
ATOM     42  C   UNL A   1      39.982  28.781  29.244  1.00  0.00     0.031 A 
ATOM     43  C   UNL A   1      40.914  29.803  29.833  1.00  0.00     0.074 A 
ATOM     44  C   UNL A   1      40.446  27.567  28.884  1.00  0.00     0.049 A 
ATOM     45  N   UNL A   1      42.209  29.739  30.003  1.00  0.00    -0.248 NA
ATOM     46  C   UNL A   1      40.313  31.081  30.250  1.00  0.00     0.031 C 
ATOM     47  C   UNL A   1      39.653  26.498  28.272  1.00  0.00     0.029 A 
ATOM     48  N   UNL A   1      41.711  27.037  28.963  1.00  0.00    -0.354 N 
ATOM     49  C   UNL A   1      42.582  30.978  30.509  1.00  0.00     0.074 A 
ATOM     50  C   UNL A   1      41.383  31.785  30.585  1.00  0.00     0.031 C 
ATOM     51  C   UNL A   1      40.445  25.436  28.046  1.00  0.00     0.029 A 
ATOM     52  C   UNL A   1      41.808  25.763  28.452  1.00  0.00     0.049 A 
ATOM     53  H   UNL A   1      42.475  27.522  29.348  1.00  0.00     0.167 HD
ATOM     54  C   UNL A   1      43.810  31.403  30.888  1.00  0.00     0.031 A 
ATOM     55  C   UNL A   1      42.877  24.955  28.313  1.00  0.00     0.031 A 
ATOM     56  C   UNL A   1      44.994  30.589  30.841  1.00  0.00     0.049 A 
ATOM     57  C   UNL A   1      44.228  25.439  28.763  1.00  0.00     0.074 A 
ATOM     58  C   UNL A   1      46.276  30.909  31.251  1.00  0.00     0.029 A 
ATOM     59  N   UNL A   1      45.038  29.287  30.365  1.00  0.00    -0.354 N 
ATOM     60  N   UNL A   1      44.556  26.603  29.273  1.00  0.00    -0.248 NA
ATOM     61  C   UNL A   1      45.351  24.501  28.629  1.00  0.00     0.031 C 
ATOM     62  C   UNL A   1      47.102  29.810  30.996  1.00  0.00     0.029 A 
ATOM     63  C   UNL A   1      46.325  28.791  30.468  1.00  0.00     0.049 A 
ATOM     64  H   UNL A   1      44.267  28.790  30.007  1.00  0.00     0.167 HD
ATOM     65  C   UNL A   1      45.917  26.523  29.550  1.00  0.00     0.074 A 
ATOM     66  C   UNL A   1      46.349  25.199  29.155  1.00  0.00     0.031 C 
ATOM     67  C   UNL A   1      46.733  27.463  30.086  1.00  0.00     0.031 A 
BRANCH  54  68
ATOM     68  C   UNL A   1      43.927  32.818  31.383  1.00  0.00    -0.014 A 
ATOM     69  C   UNL A   1      43.975  33.104  32.760  1.00  0.00     0.010 A 
ATOM     70  C   UNL A   1      44.009  33.878  30.461  1.00  0.00     0.010 A 
ATOM     71  C   UNL A   1      44.050  34.426  33.205  1.00  0.00     0.020 A 
ATOM     72  C   UNL A   1      44.111  35.199  30.903  1.00  0.00     0.020 A 
ATOM     73  C   UNL A   1      44.111  35.466  32.273  1.00  0.00     0.054 A 
BRANCH  73  74
ATOM     74  S   UNL A   1      44.217  37.172  32.878  1.00  0.00     0.124 S 
ATOM     75  O   UNL A   1      44.314  37.927  31.631  1.00  0.00    -0.237 OA
ATOM     76  O   UNL A   1      42.965  37.333  33.612  1.00  0.00    -0.237 OA
ATOM     77  O   UNL A   1      45.422  37.173  33.703  1.00  0.00    -0.744 OA
ENDBRANCH  73  74
ENDBRANCH  54  68
BRANCH  55  78
ATOM     78  C   UNL A   1      42.711  23.594  27.733  1.00  0.00    -0.014 A 
ATOM     79  C   UNL A   1      42.438  22.497  28.570  1.00  0.00     0.010 A 
ATOM     80  C   UNL A   1      42.812  23.387  26.346  1.00  0.00     0.010 A 
ATOM     81  C   UNL A   1      42.287  21.216  28.033  1.00  0.00     0.020 A 
ATOM     82  C   UNL A   1      42.637  22.111  25.803  1.00  0.00     0.020 A 
ATOM     83  C   UNL A   1      42.386  21.031  26.652  1.00  0.00     0.054 A 
BRANCH  83  84
ATOM     84  S   UNL A   1      42.133  19.368  25.969  1.00  0.00     0.124 S 
ATOM     85  O   UNL A   1      42.583  18.518  27.067  1.00  0.00    -0.237 OA
ATOM     86  O   UNL A   1      40.696  19.350  25.702  1.00  0.00    -0.237 OA
ATOM     87  O   UNL A   1      42.980  19.356  24.778  1.00  0.00    -0.744 OA
ENDBRANCH  83  84
ENDBRANCH  55  78
BRANCH  67  88
ATOM     88  C   UNL A   1      48.166  27.082  30.334  1.00  0.00    -0.014 A 
ATOM     89  C   UNL A   1      49.197  27.537  29.495  1.00  0.00     0.010 A 
ATOM     90  C   UNL A   1      48.488  26.320  31.471  1.00  0.00     0.010 A 
ATOM     91  C   UNL A   1      50.528  27.222  29.782  1.00  0.00     0.020 A 
ATOM     92  C   UNL A   1      49.819  26.023  31.774  1.00  0.00     0.020 A 
ATOM     93  C   UNL A   1      50.831  26.468  30.921  1.00  0.00     0.054 A 
BRANCH  93  94
ATOM     94  S   UNL A   1      52.569  26.128  31.310  1.00  0.00     0.124 S 
ATOM     95  O   UNL A   1      52.878  27.183  32.272  1.00  0.00    -0.237 OA
ATOM     96  O   UNL A   1      52.518  24.774  31.859  1.00  0.00    -0.237 OA
ATOM     97  O   UNL A   1      53.242  26.245  30.018  1.00  0.00    -0.744 OA
ENDBRANCH  93  94
ENDBRANCH  67  88
ENDBRANCH  41  42
ENDBRANCH  33  36
ENDBRANCH  31  32
ENDBRANCH  30  31
ENDBRANCH  29  30
ENDBRANCH   1  29
TORSDOF 19
ENDMDL
MODEL 2
REMARK VINA RESULT:      -8.6      5.354     13.008
REMARK SMILES NS(=O)(=O)c1ccc(NS(=O)(=O)c2cccc(C(=O)NCCCCNC(=O)c3ccc(-c4c5nc(c(-c6ccc(S(=O)(=O)[O-])cc6)c6ccc([nH]6)c(-c6ccc(S(=O)(=O)[O-])cc6)c6nc(c(-c7ccc(S(=O)(=O)[O-])cc7)c7ccc4[nH]7)C=C6)C=C5)cc3)c2)cc1
REMARK SMILES IDX 21 1 20 2 18 3 19 4 17 6 13 7 14 8 88 9 15 10 16 11 10 12
REMARK SMILES IDX 11 13 12 14 9 15 8 17 5 18 6 19 90 20 7 21 89 22 2 23 3 24
REMARK SMILES IDX 4 25 1 26 22 29 23 30 24 31 25 32 26 33 27 35 28 36 29 37
REMARK SMILES IDX 87 38 30 39 86 40 31 41 32 42 33 43 80 44 34 45 85 46 79 47
REMARK SMILES IDX 81 48 35 49 84 50 78 51 77 52 36 54 66 55 47 56 65 57 48 58
REMARK SMILES IDX 51 59 64 60 82 61 49 62 50 63 63 65 83 66 52 67 37 68 38 69
REMARK SMILES IDX 46 70 39 71 45 72 40 73 41 74 42 75 43 76 44 77 67 78 68 79
REMARK SMILES IDX 76 80 69 81 75 82 70 83 71 84 72 85 73 86 74 87 53 88 54 89
REMARK SMILES IDX 62 90 55 91 61 92 56 93 57 94 58 95 59 96 60 97
REMARK H PARENT 20 5 9 16 1 27 1 28 25 34 81 53 51 64
REMARK Flexibility Score: inf
ROOT
ATOM      1  C   UNL A   1      36.180  21.139  24.737  1.00  0.00     0.116 C 
ENDROOT
BRANCH   1   2
ATOM      2  N   UNL A   1      35.192  20.122  25.079  1.00  0.00    -0.352 N 
ATOM      3  C   UNL A   1      33.816  20.115  25.020  1.00  0.00     0.251 C 
ATOM      4  O   UNL A   1      33.199  19.126  25.408  1.00  0.00    -0.269 OA
ATOM      5  H   UNL A   1      35.582  19.284  25.418  1.00  0.00     0.163 HD
BRANCH   3   6
ATOM      6  C   UNL A   1      33.050  21.294  24.545  1.00  0.00     0.041 A 
ATOM      7  C   UNL A   1      31.763  23.282  25.004  1.00  0.00     0.088 A 
ATOM      8  C   UNL A   1      31.322  23.336  23.681  1.00  0.00     0.022 A 
ATOM      9  C   UNL A   1      32.702  22.330  25.400  1.00  0.00     0.036 A 
ATOM     10  C   UNL A   1      31.814  22.399  22.768  1.00  0.00     0.002 A 
ATOM     11  C   UNL A   1      32.655  21.366  23.203  1.00  0.00     0.014 A 
BRANCH   7  12
ATOM     12  S   UNL A   1      31.146  24.384  26.253  1.00  0.00     0.261 S 
ATOM     13  O   UNL A   1      31.862  24.116  27.481  1.00  0.00    -0.201 OA
ATOM     14  O   UNL A   1      29.702  24.304  26.194  1.00  0.00    -0.201 OA
BRANCH  12  15
ATOM     15  N   UNL A   1      31.543  25.912  25.746  1.00  0.00    -0.280 N 
ATOM     16  H   UNL A   1      32.343  26.320  26.153  1.00  0.00     0.180 HD
BRANCH  15  17
ATOM     17  C   UNL A   1      30.850  26.690  24.786  1.00  0.00     0.049 A 
ATOM     18  C   UNL A   1      29.356  28.608  23.427  1.00  0.00     0.082 A 
ATOM     19  C   UNL A   1      28.824  27.335  23.628  1.00  0.00     0.024 A 
ATOM     20  C   UNL A   1      30.670  28.894  23.798  1.00  0.00     0.024 A 
ATOM     21  C   UNL A   1      29.591  26.365  24.277  1.00  0.00     0.028 A 
ATOM     22  C   UNL A   1      31.410  27.933  24.485  1.00  0.00     0.028 A 
BRANCH  18  23
ATOM     23  S   UNL A   1      28.282  29.888  22.856  1.00  0.00     0.238 S 
ATOM     24  O   UNL A   1      28.674  31.129  23.488  1.00  0.00    -0.207 OA
ATOM     25  O   UNL A   1      26.931  29.395  22.851  1.00  0.00    -0.207 OA
BRANCH  23  26
ATOM     26  N   UNL A   1      28.720  30.079  21.241  1.00  0.00    -0.225 NA
ATOM     27  H   UNL A   1      28.949  31.058  21.065  1.00  0.00     0.137 HD
ATOM     28  H   UNL A   1      27.943  29.800  20.643  1.00  0.00     0.137 HD
ENDBRANCH  23  26
ENDBRANCH  18  23
ENDBRANCH  15  17
ENDBRANCH  12  15
ENDBRANCH   7  12
ENDBRANCH   3   6
ENDBRANCH   1   2
BRANCH   1  29
ATOM     29  C   UNL A   1      36.352  22.229  25.784  1.00  0.00     0.023 C 
BRANCH  29  30
ATOM     30  C   UNL A   1      37.225  23.406  25.375  1.00  0.00     0.023 C 
BRANCH  30  31
ATOM     31  C   UNL A   1      38.186  23.919  26.440  1.00  0.00     0.116 C 
BRANCH  31  32
ATOM     32  N   UNL A   1      39.597  23.739  26.116  1.00  0.00    -0.352 N 
ATOM     33  C   UNL A   1      40.667  24.512  26.514  1.00  0.00     0.251 C 
ATOM     34  H   UNL A   1      39.813  22.970  25.541  1.00  0.00     0.163 HD
ATOM     35  O   UNL A   1      41.802  24.264  26.124  1.00  0.00    -0.269 OA
BRANCH  33  36
ATOM     36  C   UNL A   1      40.410  25.681  27.379  1.00  0.00     0.039 A 
ATOM     37  C   UNL A   1      39.510  25.552  28.440  1.00  0.00     0.014 A 
ATOM     38  C   UNL A   1      41.143  26.857  27.203  1.00  0.00     0.014 A 
ATOM     39  C   UNL A   1      39.421  26.572  29.390  1.00  0.00     0.010 A 
ATOM     40  C   UNL A   1      41.106  27.834  28.191  1.00  0.00     0.010 A 
ATOM     41  C   UNL A   1      40.256  27.696  29.301  1.00  0.00    -0.014 A 
BRANCH  41  42
ATOM     42  C   UNL A   1      40.280  28.745  30.350  1.00  0.00     0.031 A 
ATOM     43  C   UNL A   1      41.222  28.607  31.513  1.00  0.00     0.074 A 
ATOM     44  C   UNL A   1      39.386  29.755  30.317  1.00  0.00     0.049 A 
ATOM     45  N   UNL A   1      41.282  29.307  32.616  1.00  0.00    -0.248 NA
ATOM     46  C   UNL A   1      42.203  27.511  31.441  1.00  0.00     0.031 C 
ATOM     47  C   UNL A   1      38.395  29.982  29.262  1.00  0.00     0.029 A 
ATOM     48  N   UNL A   1      39.153  30.769  31.213  1.00  0.00    -0.354 N 
ATOM     49  C   UNL A   1      42.276  28.714  33.384  1.00  0.00     0.074 A 
ATOM     50  C   UNL A   1      42.769  27.577  32.636  1.00  0.00     0.031 C 
ATOM     51  C   UNL A   1      37.673  31.075  29.564  1.00  0.00     0.029 A 
ATOM     52  C   UNL A   1      38.116  31.598  30.853  1.00  0.00     0.049 A 
ATOM     53  H   UNL A   1      39.679  30.892  32.036  1.00  0.00     0.167 HD
ATOM     54  C   UNL A   1      42.747  29.088  34.597  1.00  0.00     0.031 A 
ATOM     55  C   UNL A   1      37.572  32.651  31.494  1.00  0.00     0.031 A 
ATOM     56  C   UNL A   1      42.277  30.237  35.322  1.00  0.00     0.049 A 
ATOM     57  C   UNL A   1      38.127  33.063  32.830  1.00  0.00     0.074 A 
ATOM     58  C   UNL A   1      42.725  30.731  36.535  1.00  0.00     0.029 A 
ATOM     59  N   UNL A   1      41.260  31.078  34.897  1.00  0.00    -0.354 N 
ATOM     60  N   UNL A   1      39.093  32.511  33.525  1.00  0.00    -0.248 NA
ATOM     61  C   UNL A   1      37.527  34.245  33.464  1.00  0.00     0.031 C 
ATOM     62  C   UNL A   1      41.958  31.856  36.857  1.00  0.00     0.029 A 
ATOM     63  C   UNL A   1      41.064  32.086  35.824  1.00  0.00     0.049 A 
ATOM     64  H   UNL A   1      40.753  30.974  34.059  1.00  0.00     0.167 HD
ATOM     65  C   UNL A   1      39.237  33.298  34.663  1.00  0.00     0.074 A 
ATOM     66  C   UNL A   1      38.263  34.365  34.561  1.00  0.00     0.031 C 
ATOM     67  C   UNL A   1      40.101  33.150  35.697  1.00  0.00     0.031 A 
BRANCH  54  68
ATOM     68  C   UNL A   1      43.824  28.238  35.211  1.00  0.00    -0.014 A 
ATOM     69  C   UNL A   1      45.182  28.580  35.080  1.00  0.00     0.010 A 
ATOM     70  C   UNL A   1      43.474  27.088  35.944  1.00  0.00     0.010 A 
ATOM     71  C   UNL A   1      46.173  27.762  35.628  1.00  0.00     0.020 A 
ATOM     72  C   UNL A   1      44.462  26.282  36.516  1.00  0.00     0.020 A 
ATOM     73  C   UNL A   1      45.806  26.614  36.336  1.00  0.00     0.054 A 
BRANCH  73  74
ATOM     74  S   UNL A   1      47.113  25.574  37.044  1.00  0.00     0.124 S 
ATOM     75  O   UNL A   1      47.987  26.569  37.661  1.00  0.00    -0.237 OA
ATOM     76  O   UNL A   1      46.378  24.722  37.975  1.00  0.00    -0.237 OA
ATOM     77  O   UNL A   1      47.673  24.885  35.885  1.00  0.00    -0.744 OA
ENDBRANCH  73  74
ENDBRANCH  54  68
BRANCH  55  78
ATOM     78  C   UNL A   1      36.447  33.401  30.872  1.00  0.00    -0.014 A 
ATOM     79  C   UNL A   1      36.620  34.031  29.627  1.00  0.00     0.010 A 
ATOM     80  C   UNL A   1      35.197  33.481  31.512  1.00  0.00     0.010 A 
ATOM     81  C   UNL A   1      35.568  34.742  29.041  1.00  0.00     0.020 A 
ATOM     82  C   UNL A   1      34.137  34.170  30.917  1.00  0.00     0.020 A 
ATOM     83  C   UNL A   1      34.333  34.807  29.690  1.00  0.00     0.054 A 
BRANCH  83  84
ATOM     84  S   UNL A   1      32.966  35.689  28.886  1.00  0.00     0.124 S 
ATOM     85  O   UNL A   1      32.379  34.645  28.052  1.00  0.00    -0.237 OA
ATOM     86  O   UNL A   1      32.156  36.122  30.022  1.00  0.00    -0.237 OA
ATOM     87  O   UNL A   1      33.636  36.768  28.162  1.00  0.00    -0.744 OA
ENDBRANCH  83  84
ENDBRANCH  55  78
BRANCH  67  88
ATOM     88  C   UNL A   1      40.078  34.195  36.777  1.00  0.00    -0.014 A 
ATOM     89  C   UNL A   1      40.957  35.291  36.750  1.00  0.00     0.010 A 
ATOM     90  C   UNL A   1      39.107  34.114  37.791  1.00  0.00     0.010 A 
ATOM     91  C   UNL A   1      40.873  36.283  37.732  1.00  0.00     0.020 A 
ATOM     92  C   UNL A   1      39.006  35.116  38.761  1.00  0.00     0.020 A 
ATOM     93  C   UNL A   1      39.897  36.190  38.730  1.00  0.00     0.054 A 
BRANCH  93  94
ATOM     94  S   UNL A   1      39.765  37.522  39.954  1.00  0.00     0.124 S 
ATOM     95  O   UNL A   1      39.792  36.782  41.213  1.00  0.00    -0.237 OA
ATOM     96  O   UNL A   1      40.948  38.334  39.676  1.00  0.00    -0.237 OA
ATOM     97  O   UNL A   1      38.490  38.160  39.633  1.00  0.00    -0.744 OA
ENDBRANCH  93  94
ENDBRANCH  67  88
ENDBRANCH  41  42
ENDBRANCH  33  36
ENDBRANCH  31  32
ENDBRANCH  30  31
ENDBRANCH  29  30
ENDBRANCH   1  29
TORSDOF 19
ENDMDL
MODEL 3
REMARK VINA RESULT:      -8.3      3.315     10.716
REMARK SMILES NS(=O)(=O)c1ccc(NS(=O)(=O)c2cccc(C(=O)NCCCCNC(=O)c3ccc(-c4c5nc(c(-c6ccc(S(=O)(=O)[O-])cc6)c6ccc([nH]6)c(-c6ccc(S(=O)(=O)[O-])cc6)c6nc(c(-c7ccc(S(=O)(=O)[O-])cc7)c7ccc4[nH]7)C=C6)C=C5)cc3)c2)cc1
REMARK SMILES IDX 21 1 20 2 18 3 19 4 17 6 13 7 14 8 88 9 15 10 16 11 10 12
REMARK SMILES IDX 11 13 12 14 9 15 8 17 5 18 6 19 90 20 7 21 89 22 2 23 3 24
REMARK SMILES IDX 4 25 1 26 22 29 23 30 24 31 25 32 26 33 27 35 28 36 29 37
REMARK SMILES IDX 87 38 30 39 86 40 31 41 32 42 33 43 80 44 34 45 85 46 79 47
REMARK SMILES IDX 81 48 35 49 84 50 78 51 77 52 36 54 66 55 47 56 65 57 48 58
REMARK SMILES IDX 51 59 64 60 82 61 49 62 50 63 63 65 83 66 52 67 37 68 38 69
REMARK SMILES IDX 46 70 39 71 45 72 40 73 41 74 42 75 43 76 44 77 67 78 68 79
REMARK SMILES IDX 76 80 69 81 75 82 70 83 71 84 72 85 73 86 74 87 53 88 54 89
REMARK SMILES IDX 62 90 55 91 61 92 56 93 57 94 58 95 59 96 60 97
REMARK H PARENT 20 5 9 16 1 27 1 28 25 34 81 53 51 64
REMARK Flexibility Score: inf
ROOT
ATOM      1  C   UNL A   1      44.557  22.777  27.028  1.00  0.00     0.116 C 
ENDROOT
BRANCH   1   2
ATOM      2  N   UNL A   1      45.943  23.223  26.951  1.00  0.00    -0.352 N 
ATOM      3  C   UNL A   1      46.508  24.419  26.562  1.00  0.00     0.251 C 
ATOM      4  O   UNL A   1      47.731  24.534  26.553  1.00  0.00    -0.269 OA
ATOM      5  H   UNL A   1      46.598  22.542  27.227  1.00  0.00     0.163 HD
BRANCH   3   6
ATOM      6  C   UNL A   1      45.678  25.560  26.103  1.00  0.00     0.041 A 
ATOM      7  C   UNL A   1      45.219  27.927  26.042  1.00  0.00     0.088 A 
ATOM      8  C   UNL A   1      43.943  27.695  25.529  1.00  0.00     0.022 A 
ATOM      9  C   UNL A   1      46.112  26.873  26.226  1.00  0.00     0.036 A 
ATOM     10  C   UNL A   1      43.564  26.383  25.230  1.00  0.00     0.002 A 
ATOM     11  C   UNL A   1      44.419  25.316  25.541  1.00  0.00     0.014 A 
BRANCH   7  12
ATOM     12  S   UNL A   1      45.768  29.549  26.515  1.00  0.00     0.261 S 
ATOM     13  O   UNL A   1      46.512  30.111  25.410  1.00  0.00    -0.201 OA
ATOM     14  O   UNL A   1      46.363  29.414  27.828  1.00  0.00    -0.201 OA
BRANCH  12  15
ATOM     15  N   UNL A   1      44.391  30.450  26.725  1.00  0.00    -0.280 N 
ATOM     16  H   UNL A   1      43.534  29.968  26.671  1.00  0.00     0.180 HD
BRANCH  15  17
ATOM     17  C   UNL A   1      44.325  31.844  26.973  1.00  0.00     0.049 A 
ATOM     18  C   UNL A   1      43.552  34.447  27.588  1.00  0.00     0.082 A 
ATOM     19  C   UNL A   1      43.859  34.113  26.270  1.00  0.00     0.024 A 
ATOM     20  C   UNL A   1      43.737  33.523  28.616  1.00  0.00     0.024 A 
ATOM     21  C   UNL A   1      44.283  32.816  25.972  1.00  0.00     0.028 A 
ATOM     22  C   UNL A   1      44.117  32.220  28.302  1.00  0.00     0.028 A 
BRANCH  18  23
ATOM     23  S   UNL A   1      42.764  35.997  27.901  1.00  0.00     0.238 S 
ATOM     24  O   UNL A   1      42.483  36.631  26.631  1.00  0.00    -0.207 OA
ATOM     25  O   UNL A   1      43.447  36.657  28.981  1.00  0.00    -0.207 OA
BRANCH  23  26
ATOM     26  N   UNL A   1      41.252  35.558  28.498  1.00  0.00    -0.225 NA
ATOM     27  H   UNL A   1      40.627  35.347  27.719  1.00  0.00     0.137 HD
ATOM     28  H   UNL A   1      40.866  36.327  29.045  1.00  0.00     0.137 HD
ENDBRANCH  23  26
ENDBRANCH  18  23
ENDBRANCH  15  17
ENDBRANCH  12  15
ENDBRANCH   7  12
ENDBRANCH   3   6
ENDBRANCH   1   2
BRANCH   1  29
ATOM     29  C   UNL A   1      44.149  21.794  25.940  1.00  0.00     0.023 C 
BRANCH  29  30
ATOM     30  C   UNL A   1      42.729  21.258  26.033  1.00  0.00     0.023 C 
BRANCH  30  31
ATOM     31  C   UNL A   1      41.685  22.235  26.558  1.00  0.00     0.116 C 
BRANCH  31  32
ATOM     32  N   UNL A   1      40.324  21.966  26.106  1.00  0.00    -0.352 N 
ATOM     33  C   UNL A   1      39.229  22.800  26.159  1.00  0.00     0.251 C 
ATOM     34  H   UNL A   1      40.169  21.076  25.714  1.00  0.00     0.163 HD
ATOM     35  O   UNL A   1      38.128  22.419  25.779  1.00  0.00    -0.269 OA
BRANCH  33  36
ATOM     36  C   UNL A   1      39.397  24.149  26.736  1.00  0.00     0.039 A 
ATOM     37  C   UNL A   1      39.030  24.367  28.066  1.00  0.00     0.014 A 
ATOM     38  C   UNL A   1      40.019  25.156  25.993  1.00  0.00     0.014 A 
ATOM     39  C   UNL A   1      39.381  25.568  28.686  1.00  0.00     0.010 A 
ATOM     40  C   UNL A   1      40.433  26.316  26.635  1.00  0.00     0.010 A 
ATOM     41  C   UNL A   1      40.132  26.529  27.991  1.00  0.00    -0.014 A 
BRANCH  41  42
ATOM     42  C   UNL A   1      40.629  27.765  28.646  1.00  0.00     0.031 A 
ATOM     43  C   UNL A   1      42.010  27.784  29.238  1.00  0.00     0.074 A 
ATOM     44  C   UNL A   1      39.807  28.823  28.805  1.00  0.00     0.049 A 
ATOM     45  N   UNL A   1      42.570  28.687  30.000  1.00  0.00    -0.248 NA
ATOM     46  C   UNL A   1      42.860  26.612  28.967  1.00  0.00     0.031 C 
ATOM     47  C   UNL A   1      38.432  28.917  28.308  1.00  0.00     0.029 A 
ATOM     48  N   UNL A   1      40.007  30.016  29.455  1.00  0.00    -0.354 N 
ATOM     49  C   UNL A   1      43.819  28.177  30.331  1.00  0.00     0.074 A 
ATOM     50  C   UNL A   1      43.921  26.871  29.716  1.00  0.00     0.031 C 
ATOM     51  C   UNL A   1      37.919  30.109  28.657  1.00  0.00     0.029 A 
ATOM     52  C   UNL A   1      38.907  30.844  29.440  1.00  0.00     0.049 A 
ATOM     53  H   UNL A   1      40.856  30.257  29.890  1.00  0.00     0.167 HD
ATOM     54  C   UNL A   1      44.799  28.748  31.069  1.00  0.00     0.031 A 
ATOM     55  C   UNL A   1      38.712  32.050  30.006  1.00  0.00     0.031 A 
ATOM     56  C   UNL A   1      44.707  30.059  31.652  1.00  0.00     0.049 A 
ATOM     57  C   UNL A   1      39.823  32.677  30.803  1.00  0.00     0.074 A 
ATOM     58  C   UNL A   1      45.665  30.748  32.375  1.00  0.00     0.029 A 
ATOM     59  N   UNL A   1      43.595  30.883  31.570  1.00  0.00    -0.354 N 
ATOM     60  N   UNL A   1      41.013  32.194  31.075  1.00  0.00    -0.248 NA
ATOM     61  C   UNL A   1      39.572  34.013  31.360  1.00  0.00     0.031 C 
ATOM     62  C   UNL A   1      45.120  31.980  32.754  1.00  0.00     0.029 A 
ATOM     63  C   UNL A   1      43.841  32.073  32.230  1.00  0.00     0.049 A 
ATOM     64  H   UNL A   1      42.755  30.655  31.109  1.00  0.00     0.167 HD
ATOM     65  C   UNL A   1      41.662  33.181  31.809  1.00  0.00     0.074 A 
ATOM     66  C   UNL A   1      40.737  34.289  31.934  1.00  0.00     0.031 C 
ATOM     67  C   UNL A   1      42.914  33.172  32.329  1.00  0.00     0.031 A 
BRANCH  54  68
ATOM     68  C   UNL A   1      46.053  27.948  31.288  1.00  0.00    -0.014 A 
ATOM     69  C   UNL A   1      46.170  27.063  32.375  1.00  0.00     0.010 A 
ATOM     70  C   UNL A   1      47.126  28.068  30.385  1.00  0.00     0.010 A 
ATOM     71  C   UNL A   1      47.353  26.352  32.585  1.00  0.00     0.020 A 
ATOM     72  C   UNL A   1      48.301  27.337  30.576  1.00  0.00     0.020 A 
ATOM     73  C   UNL A   1      48.415  26.499  31.687  1.00  0.00     0.054 A 
BRANCH  73  74
ATOM     74  S   UNL A   1      49.938  25.557  31.977  1.00  0.00     0.124 S 
ATOM     75  O   UNL A   1      49.508  24.599  32.993  1.00  0.00    -0.237 OA
ATOM     76  O   UNL A   1      50.222  24.991  30.661  1.00  0.00    -0.237 OA
ATOM     77  O   UNL A   1      50.887  26.568  32.435  1.00  0.00    -0.744 OA
ENDBRANCH  73  74
ENDBRANCH  54  68
BRANCH  55  78
ATOM     78  C   UNL A   1      37.414  32.756  29.826  1.00  0.00    -0.014 A 
ATOM     79  C   UNL A   1      37.192  33.549  28.686  1.00  0.00     0.010 A 
ATOM     80  C   UNL A   1      36.390  32.631  30.782  1.00  0.00     0.010 A 
ATOM     81  C   UNL A   1      35.977  34.218  28.514  1.00  0.00     0.020 A 
ATOM     82  C   UNL A   1      35.165  33.279  30.601  1.00  0.00     0.020 A 
ATOM     83  C   UNL A   1      34.971  34.079  29.473  1.00  0.00     0.054 A 
BRANCH  83  84
ATOM     84  S   UNL A   1      33.381  34.913  29.204  1.00  0.00     0.124 S 
ATOM     85  O   UNL A   1      32.763  34.068  28.186  1.00  0.00    -0.237 OA
ATOM     86  O   UNL A   1      32.767  34.861  30.529  1.00  0.00    -0.237 OA
ATOM     87  O   UNL A   1      33.770  36.250  28.758  1.00  0.00    -0.744 OA
ENDBRANCH  83  84
ENDBRANCH  55  78
BRANCH  67  88
ATOM     88  C   UNL A   1      43.385  34.413  33.033  1.00  0.00    -0.014 A 
ATOM     89  C   UNL A   1      43.378  34.503  34.436  1.00  0.00     0.010 A 
ATOM     90  C   UNL A   1      43.915  35.474  32.277  1.00  0.00     0.010 A 
ATOM     91  C   UNL A   1      43.880  35.643  35.069  1.00  0.00     0.020 A 
ATOM     92  C   UNL A   1      44.439  36.605  32.908  1.00  0.00     0.020 A 
ATOM     93  C   UNL A   1      44.410  36.686  34.301  1.00  0.00     0.054 A 
BRANCH  93  94
ATOM     94  S   UNL A   1      45.117  38.126  35.147  1.00  0.00     0.124 S 
ATOM     95  O   UNL A   1      44.528  39.236  34.402  1.00  0.00    -0.237 OA
ATOM     96  O   UNL A   1      44.635  37.964  36.518  1.00  0.00    -0.237 OA
ATOM     97  O   UNL A   1      46.558  37.955  34.977  1.00  0.00    -0.744 OA
ENDBRANCH  93  94
ENDBRANCH  67  88
ENDBRANCH  41  42
ENDBRANCH  33  36
ENDBRANCH  31  32
ENDBRANCH  30  31
ENDBRANCH  29  30
ENDBRANCH   1  29
TORSDOF 19
ENDMDL
