MODEL 1
REMARK VINA RESULT:     -10.4      0.000      0.000
REMARK SMILES CCC[C@H](CNC(=O)N1C[C@H]2CCC[N@H+]2C[C@@H]1C)C(=O)NCCCCNC(=O)c1ccc(-c2c3nc(c(-c4ccc(S(=O)(=O)[O-])cc4)c4ccc([nH]4)c(-c4ccc(S(=O)(=O)[O-])cc4)c4nc(c(-c5ccc(S(=O)(=O)[O-])cc5)c5ccc2[nH]5)C=C4)C=C3)cc1
REMARK SMILES IDX 23 1 22 2 21 3 19 4 20 5 4 7 3 8 2 9 1 10 5 11 6 12 7 13
REMARK SMILES IDX 8 15 9 16 10 17 17 18 11 19 16 20 18 21 12 22 15 23 13 24
REMARK SMILES IDX 14 25 24 27 25 28 26 29 27 30 28 32 29 33 30 34 88 35 31 36
REMARK SMILES IDX 87 37 32 38 33 39 34 40 81 41 35 42 86 43 80 44 82 45 36 46
REMARK SMILES IDX 85 47 79 48 78 49 37 51 67 52 48 53 66 54 49 55 52 56 65 57
REMARK SMILES IDX 83 58 50 59 51 60 64 62 84 63 53 64 38 65 39 66 47 67 40 68
REMARK SMILES IDX 46 69 41 70 42 71 43 72 44 73 45 74 68 75 69 76 77 77 70 78
REMARK SMILES IDX 76 79 71 80 72 81 73 82 74 83 75 84 54 85 55 86 63 87 56 88
REMARK SMILES IDX 62 89 57 90 58 91 59 92 60 93 61 94
REMARK H PARENT 21 6 6 14 15 26 26 31 82 50 52 61
REMARK Flexibility Score: inf
ROOT
ATOM      1  C   UNL A   1      33.157  27.657  26.681  1.00  0.00     0.023 C 
ENDROOT
BRANCH   1   2
ATOM      2  C   UNL A   1      31.657  27.958  26.646  1.00  0.00     0.116 C 
BRANCH   2   3
ATOM      3  N   UNL A   1      30.875  26.756  26.851  1.00  0.00    -0.356 N 
ATOM      4  C   UNL A   1      30.260  25.922  25.976  1.00  0.00     0.224 C 
ATOM      5  O   UNL A   1      29.600  24.997  26.462  1.00  0.00    -0.275 OA
ATOM      6  H   UNL A   1      30.770  26.500  27.795  1.00  0.00     0.163 HD
BRANCH   4   7
ATOM      7  C   UNL A   1      30.342  26.064  24.456  1.00  0.00     0.097 C 
BRANCH   7   8
ATOM      8  C   UNL A   1      29.073  26.644  23.807  1.00  0.00     0.015 C 
BRANCH   8   9
ATOM      9  C   UNL A   1      29.291  28.009  23.141  1.00  0.00    -0.003 C 
ATOM     10  C   UNL A   1      30.737  28.480  23.221  1.00  0.00     0.004 C 
ENDBRANCH   8   9
ENDBRANCH   7   8
BRANCH   7  11
ATOM     11  C   UNL A   1      30.958  24.835  23.759  1.00  0.00     0.131 C 
BRANCH  11  12
ATOM     12  N   UNL A   1      31.561  25.064  22.462  1.00  0.00    -0.337 N 
ATOM     13  C   UNL A   1      32.851  24.942  22.086  1.00  0.00     0.318 C 
ATOM     14  H   UNL A   1      30.941  25.348  21.753  1.00  0.00     0.165 HD
ATOM     15  O   UNL A   1      33.322  25.833  21.380  1.00  0.00    -0.249 OA
BRANCH  13  16
ATOM     16  N   UNL A   1      33.555  23.841  22.478  1.00  0.00    -0.311 N 
ATOM     17  C   UNL A   1      32.948  22.533  22.245  1.00  0.00     0.186 C 
ATOM     18  C   UNL A   1      34.685  23.874  23.445  1.00  0.00     0.139 C 
ATOM     19  C   UNL A   1      32.655  21.798  23.562  1.00  0.00     0.204 C 
ATOM     20  C   UNL A   1      34.974  22.462  24.035  1.00  0.00     0.287 C 
ATOM     21  C   UNL A   1      34.461  24.883  24.582  1.00  0.00     0.037 C 
ATOM     22  C   UNL A   1      32.281  20.336  23.330  1.00  0.00     0.073 C 
ATOM     23  N   UNL A   1      33.774  21.778  24.540  1.00  0.00    -0.329 N 
ATOM     24  C   UNL A   1      32.753  19.648  24.594  1.00  0.00     0.068 C 
ATOM     25  C   UNL A   1      34.041  20.386  24.911  1.00  0.00     0.262 C 
ATOM     26  H   UNL A   1      33.502  22.302  25.372  1.00  0.00     0.348 HD
ENDBRANCH  13  16
ENDBRANCH  11  12
ENDBRANCH   7  11
ENDBRANCH   4   7
ENDBRANCH   2   3
ENDBRANCH   1   2
BRANCH   1  27
ATOM     27  C   UNL A   1      34.034  28.594  25.863  1.00  0.00     0.023 C 
BRANCH  27  28
ATOM     28  C   UNL A   1      34.999  29.435  26.681  1.00  0.00     0.116 C 
BRANCH  28  29
ATOM     29  N   UNL A   1      34.409  30.644  27.231  1.00  0.00    -0.352 N 
ATOM     30  C   UNL A   1      34.845  31.383  28.309  1.00  0.00     0.251 C 
ATOM     31  H   UNL A   1      33.599  30.975  26.779  1.00  0.00     0.163 HD
ATOM     32  O   UNL A   1      34.194  32.326  28.724  1.00  0.00    -0.269 OA
BRANCH  30  33
ATOM     33  C   UNL A   1      36.099  30.976  28.979  1.00  0.00     0.039 A 
ATOM     34  C   UNL A   1      36.080  29.880  29.839  1.00  0.00     0.014 A 
ATOM     35  C   UNL A   1      37.296  31.647  28.709  1.00  0.00     0.014 A 
ATOM     36  C   UNL A   1      37.277  29.423  30.391  1.00  0.00     0.010 A 
ATOM     37  C   UNL A   1      38.495  31.130  29.175  1.00  0.00     0.010 A 
ATOM     38  C   UNL A   1      38.497  30.029  30.042  1.00  0.00    -0.014 A 
BRANCH  38  39
ATOM     39  C   UNL A   1      39.778  29.560  30.623  1.00  0.00     0.031 A 
ATOM     40  C   UNL A   1      40.318  30.222  31.863  1.00  0.00     0.074 A 
ATOM     41  C   UNL A   1      40.469  28.575  30.017  1.00  0.00     0.049 A 
ATOM     42  N   UNL A   1      41.421  29.969  32.519  1.00  0.00    -0.248 NA
ATOM     43  C   UNL A   1      39.534  31.340  32.419  1.00  0.00     0.031 C 
ATOM     44  C   UNL A   1      40.078  27.898  28.778  1.00  0.00     0.029 A 
ATOM     45  N   UNL A   1      41.646  27.966  30.370  1.00  0.00    -0.354 N 
ATOM     46  C   UNL A   1      41.468  30.902  33.548  1.00  0.00     0.074 A 
ATOM     47  C   UNL A   1      40.324  31.770  33.390  1.00  0.00     0.031 C 
ATOM     48  C   UNL A   1      40.976  26.939  28.498  1.00  0.00     0.029 A 
ATOM     49  C   UNL A   1      42.020  26.953  29.519  1.00  0.00     0.049 A 
ATOM     50  H   UNL A   1      42.175  28.231  31.158  1.00  0.00     0.167 HD
ATOM     51  C   UNL A   1      42.364  31.008  34.558  1.00  0.00     0.031 A 
ATOM     52  C   UNL A   1      43.077  26.122  29.565  1.00  0.00     0.031 A 
ATOM     53  C   UNL A   1      43.484  30.124  34.728  1.00  0.00     0.049 A 
ATOM     54  C   UNL A   1      44.045  26.239  30.712  1.00  0.00     0.074 A 
ATOM     55  C   UNL A   1      44.418  30.102  35.748  1.00  0.00     0.029 A 
ATOM     56  N   UNL A   1      43.815  29.097  33.858  1.00  0.00    -0.354 N 
ATOM     57  N   UNL A   1      44.035  27.084  31.717  1.00  0.00    -0.248 NA
ATOM     58  C   UNL A   1      45.155  25.277  30.741  1.00  0.00     0.031 C 
ATOM     59  C   UNL A   1      45.340  29.087  35.471  1.00  0.00     0.029 A 
ATOM     60  C   UNL A   1      44.950  28.443  34.308  1.00  0.00     0.049 A 
ATOM     61  H   UNL A   1      43.318  28.866  33.040  1.00  0.00     0.167 HD
ATOM     62  C   UNL A   1      45.123  26.739  32.511  1.00  0.00     0.074 A 
ATOM     63  C   UNL A   1      45.753  25.596  31.880  1.00  0.00     0.031 C 
ATOM     64  C   UNL A   1      45.564  27.313  33.657  1.00  0.00     0.031 A 
BRANCH  51  65
ATOM     65  C   UNL A   1      42.154  32.117  35.555  1.00  0.00    -0.014 A 
ATOM     66  C   UNL A   1      42.656  33.411  35.317  1.00  0.00     0.010 A 
ATOM     67  C   UNL A   1      41.435  31.870  36.738  1.00  0.00     0.010 A 
ATOM     68  C   UNL A   1      42.486  34.423  36.265  1.00  0.00     0.020 A 
ATOM     69  C   UNL A   1      41.237  32.890  37.675  1.00  0.00     0.020 A 
ATOM     70  C   UNL A   1      41.781  34.154  37.441  1.00  0.00     0.054 A 
BRANCH  70  71
ATOM     71  S   UNL A   1      41.560  35.491  38.647  1.00  0.00     0.124 S 
ATOM     72  O   UNL A   1      40.607  34.897  39.581  1.00  0.00    -0.237 OA
ATOM     73  O   UNL A   1      42.913  35.680  39.167  1.00  0.00    -0.237 OA
ATOM     74  O   UNL A   1      41.042  36.597  37.847  1.00  0.00    -0.744 OA
ENDBRANCH  70  71
ENDBRANCH  51  65
BRANCH  52  75
ATOM     75  C   UNL A   1      43.255  25.078  28.518  1.00  0.00    -0.014 A 
ATOM     76  C   UNL A   1      44.014  25.346  27.366  1.00  0.00     0.010 A 
ATOM     77  C   UNL A   1      42.670  23.808  28.671  1.00  0.00     0.010 A 
ATOM     78  C   UNL A   1      44.167  24.373  26.374  1.00  0.00     0.020 A 
ATOM     79  C   UNL A   1      42.843  22.823  27.693  1.00  0.00     0.020 A 
ATOM     80  C   UNL A   1      43.578  23.117  26.545  1.00  0.00     0.054 A 
BRANCH  80  81
ATOM     81  S   UNL A   1      43.825  21.854  25.265  1.00  0.00     0.124 S 
ATOM     82  O   UNL A   1      43.637  22.623  24.039  1.00  0.00    -0.237 OA
ATOM     83  O   UNL A   1      45.190  21.401  25.525  1.00  0.00    -0.237 OA
ATOM     84  O   UNL A   1      42.786  20.869  25.553  1.00  0.00    -0.744 OA
ENDBRANCH  80  81
ENDBRANCH  52  75
BRANCH  64  85
ATOM     85  C   UNL A   1      46.770  26.697  34.313  1.00  0.00    -0.014 A 
ATOM     86  C   UNL A   1      48.068  27.143  34.014  1.00  0.00     0.010 A 
ATOM     87  C   UNL A   1      46.596  25.672  35.261  1.00  0.00     0.010 A 
ATOM     88  C   UNL A   1      49.177  26.541  34.615  1.00  0.00     0.020 A 
ATOM     89  C   UNL A   1      47.700  25.088  35.886  1.00  0.00     0.020 A 
ATOM     90  C   UNL A   1      48.985  25.512  35.542  1.00  0.00     0.054 A 
BRANCH  90  91
ATOM     91  S   UNL A   1      50.437  24.755  36.320  1.00  0.00     0.124 S 
ATOM     92  O   UNL A   1      50.697  25.670  37.428  1.00  0.00    -0.237 OA
ATOM     93  O   UNL A   1      49.946  23.432  36.700  1.00  0.00    -0.237 OA
ATOM     94  O   UNL A   1      51.440  24.760  35.258  1.00  0.00    -0.744 OA
ENDBRANCH  90  91
ENDBRANCH  64  85
ENDBRANCH  38  39
ENDBRANCH  30  33
ENDBRANCH  28  29
ENDBRANCH  27  28
ENDBRANCH   1  27
TORSDOF 19
ENDMDL
MODEL 2
REMARK VINA RESULT:     -10.3      5.086     10.508
REMARK SMILES CCC[C@H](CNC(=O)N1C[C@H]2CCC[N@H+]2C[C@@H]1C)C(=O)NCCCCNC(=O)c1ccc(-c2c3nc(c(-c4ccc(S(=O)(=O)[O-])cc4)c4ccc([nH]4)c(-c4ccc(S(=O)(=O)[O-])cc4)c4nc(c(-c5ccc(S(=O)(=O)[O-])cc5)c5ccc2[nH]5)C=C4)C=C3)cc1
REMARK SMILES IDX 23 1 22 2 21 3 19 4 20 5 4 7 3 8 2 9 1 10 5 11 6 12 7 13
REMARK SMILES IDX 8 15 9 16 10 17 17 18 11 19 16 20 18 21 12 22 15 23 13 24
REMARK SMILES IDX 14 25 24 27 25 28 26 29 27 30 28 32 29 33 30 34 88 35 31 36
REMARK SMILES IDX 87 37 32 38 33 39 34 40 81 41 35 42 86 43 80 44 82 45 36 46
REMARK SMILES IDX 85 47 79 48 78 49 37 51 67 52 48 53 66 54 49 55 52 56 65 57
REMARK SMILES IDX 83 58 50 59 51 60 64 62 84 63 53 64 38 65 39 66 47 67 40 68
REMARK SMILES IDX 46 69 41 70 42 71 43 72 44 73 45 74 68 75 69 76 77 77 70 78
REMARK SMILES IDX 76 79 71 80 72 81 73 82 74 83 75 84 54 85 55 86 63 87 56 88
REMARK SMILES IDX 62 89 57 90 58 91 59 92 60 93 61 94
REMARK H PARENT 21 6 6 14 15 26 26 31 82 50 52 61
REMARK Flexibility Score: inf
ROOT
ATOM      1  C   UNL A   1      37.360  22.073  24.574  1.00  0.00     0.023 C 
ENDROOT
BRANCH   1   2
ATOM      2  C   UNL A   1      36.456  23.056  25.324  1.00  0.00     0.116 C 
BRANCH   2   3
ATOM      3  N   UNL A   1      35.774  22.407  26.425  1.00  0.00    -0.356 N 
ATOM      4  C   UNL A   1      34.532  21.870  26.524  1.00  0.00     0.224 C 
ATOM      5  O   UNL A   1      34.202  21.437  27.634  1.00  0.00    -0.275 OA
ATOM      6  H   UNL A   1      36.308  22.345  27.249  1.00  0.00     0.163 HD
BRANCH   4   7
ATOM      7  C   UNL A   1      33.546  21.776  25.360  1.00  0.00     0.097 C 
BRANCH   7   8
ATOM      8  C   UNL A   1      33.963  20.786  24.258  1.00  0.00     0.015 C 
BRANCH   8   9
ATOM      9  C   UNL A   1      33.730  19.315  24.631  1.00  0.00    -0.003 C 
ATOM     10  C   UNL A   1      32.649  18.656  23.785  1.00  0.00     0.004 C 
ENDBRANCH   8   9
ENDBRANCH   7   8
BRANCH   7  11
ATOM     11  C   UNL A   1      33.035  23.147  24.879  1.00  0.00     0.131 C 
BRANCH  11  12
ATOM     12  N   UNL A   1      31.696  23.518  25.291  1.00  0.00    -0.337 N 
ATOM     13  C   UNL A   1      31.265  24.660  25.867  1.00  0.00     0.318 C 
ATOM     14  H   UNL A   1      31.002  22.840  25.128  1.00  0.00     0.165 HD
ATOM     15  O   UNL A   1      30.477  24.557  26.807  1.00  0.00    -0.249 OA
BRANCH  13  16
ATOM     16  N   UNL A   1      31.694  25.856  25.371  1.00  0.00    -0.311 N 
ATOM     17  C   UNL A   1      32.494  26.704  26.250  1.00  0.00     0.186 C 
ATOM     18  C   UNL A   1      31.109  26.520  24.175  1.00  0.00     0.139 C 
ATOM     19  C   UNL A   1      31.781  28.028  26.567  1.00  0.00     0.204 C 
ATOM     20  C   UNL A   1      31.472  28.034  24.129  1.00  0.00     0.287 C 
ATOM     21  C   UNL A   1      29.586  26.341  24.085  1.00  0.00     0.037 C 
ATOM     22  C   UNL A   1      32.709  29.029  27.250  1.00  0.00     0.073 C 
ATOM     23  N   UNL A   1      31.214  28.740  25.392  1.00  0.00    -0.329 N 
ATOM     24  C   UNL A   1      32.159  30.371  26.817  1.00  0.00     0.068 C 
ATOM     25  C   UNL A   1      31.739  30.109  25.383  1.00  0.00     0.262 C 
ATOM     26  H   UNL A   1      30.198  28.770  25.476  1.00  0.00     0.348 HD
ENDBRANCH  13  16
ENDBRANCH  11  12
ENDBRANCH   7  11
ENDBRANCH   4   7
ENDBRANCH   2   3
ENDBRANCH   1   2
BRANCH   1  27
ATOM     27  C   UNL A   1      37.894  20.912  25.400  1.00  0.00     0.023 C 
BRANCH  27  28
ATOM     28  C   UNL A   1      39.208  21.190  26.109  1.00  0.00     0.116 C 
BRANCH  28  29
ATOM     29  N   UNL A   1      40.166  20.099  26.025  1.00  0.00    -0.352 N 
ATOM     30  C   UNL A   1      41.538  20.170  26.125  1.00  0.00     0.251 C 
ATOM     31  H   UNL A   1      39.789  19.201  25.877  1.00  0.00     0.163 HD
ATOM     32  O   UNL A   1      42.230  19.184  25.937  1.00  0.00    -0.269 OA
BRANCH  30  33
ATOM     33  C   UNL A   1      42.155  21.480  26.423  1.00  0.00     0.039 A 
ATOM     34  C   UNL A   1      42.332  22.395  25.385  1.00  0.00     0.014 A 
ATOM     35  C   UNL A   1      42.503  21.817  27.734  1.00  0.00     0.014 A 
ATOM     36  C   UNL A   1      42.813  23.672  25.675  1.00  0.00     0.010 A 
ATOM     37  C   UNL A   1      42.882  23.118  28.033  1.00  0.00     0.010 A 
ATOM     38  C   UNL A   1      43.067  24.051  27.004  1.00  0.00    -0.014 A 
BRANCH  38  39
ATOM     39  C   UNL A   1      43.583  25.402  27.329  1.00  0.00     0.031 A 
ATOM     40  C   UNL A   1      45.033  25.724  27.079  1.00  0.00     0.074 A 
ATOM     41  C   UNL A   1      42.765  26.319  27.882  1.00  0.00     0.049 A 
ATOM     42  N   UNL A   1      45.680  26.838  27.303  1.00  0.00    -0.248 NA
ATOM     43  C   UNL A   1      45.874  24.641  26.539  1.00  0.00     0.031 C 
ATOM     44  C   UNL A   1      41.357  26.105  28.227  1.00  0.00     0.029 A 
ATOM     45  N   UNL A   1      43.000  27.620  28.245  1.00  0.00    -0.354 N 
ATOM     46  C   UNL A   1      47.000  26.583  26.948  1.00  0.00     0.074 A 
ATOM     47  C   UNL A   1      47.077  25.193  26.562  1.00  0.00     0.031 C 
ATOM     48  C   UNL A   1      40.844  27.248  28.711  1.00  0.00     0.029 A 
ATOM     49  C   UNL A   1      41.891  28.265  28.739  1.00  0.00     0.049 A 
ATOM     50  H   UNL A   1      43.882  28.051  28.160  1.00  0.00     0.167 HD
ATOM     51  C   UNL A   1      48.050  27.437  26.913  1.00  0.00     0.031 A 
ATOM     52  C   UNL A   1      41.735  29.536  29.153  1.00  0.00     0.031 A 
ATOM     53  C   UNL A   1      47.963  28.827  27.270  1.00  0.00     0.049 A 
ATOM     54  C   UNL A   1      42.908  30.475  29.077  1.00  0.00     0.074 A 
ATOM     55  C   UNL A   1      48.948  29.795  27.212  1.00  0.00     0.029 A 
ATOM     56  N   UNL A   1      46.817  29.446  27.744  1.00  0.00    -0.354 N 
ATOM     57  N   UNL A   1      44.133  30.234  28.672  1.00  0.00    -0.248 NA
ATOM     58  C   UNL A   1      42.672  31.863  29.497  1.00  0.00     0.031 C 
ATOM     59  C   UNL A   1      48.408  30.993  27.692  1.00  0.00     0.029 A 
ATOM     60  C   UNL A   1      47.073  30.783  27.998  1.00  0.00     0.049 A 
ATOM     61  H   UNL A   1      45.948  29.002  27.879  1.00  0.00     0.167 HD
ATOM     62  C   UNL A   1      44.806  31.447  28.765  1.00  0.00     0.074 A 
ATOM     63  C   UNL A   1      43.846  32.421  29.243  1.00  0.00     0.031 C 
ATOM     64  C   UNL A   1      46.102  31.731  28.482  1.00  0.00     0.031 A 
BRANCH  51  65
ATOM     65  C   UNL A   1      49.377  26.883  26.463  1.00  0.00    -0.014 A 
ATOM     66  C   UNL A   1      49.805  27.018  25.129  1.00  0.00     0.010 A 
ATOM     67  C   UNL A   1      50.214  26.231  27.386  1.00  0.00     0.010 A 
ATOM     68  C   UNL A   1      51.021  26.470  24.715  1.00  0.00     0.020 A 
ATOM     69  C   UNL A   1      51.446  25.707  26.982  1.00  0.00     0.020 A 
ATOM     70  C   UNL A   1      51.832  25.813  25.644  1.00  0.00     0.054 A 
BRANCH  70  71
ATOM     71  S   UNL A   1      53.414  25.125  25.084  1.00  0.00     0.124 S 
ATOM     72  O   UNL A   1      53.244  23.704  25.377  1.00  0.00    -0.237 OA
ATOM     73  O   UNL A   1      53.431  25.475  23.665  1.00  0.00    -0.237 OA
ATOM     74  O   UNL A   1      54.404  25.817  25.905  1.00  0.00    -0.744 OA
ENDBRANCH  70  71
ENDBRANCH  51  65
BRANCH  52  75
ATOM     75  C   UNL A   1      40.407  30.007  29.636  1.00  0.00    -0.014 A 
ATOM     76  C   UNL A   1      39.388  30.326  28.722  1.00  0.00     0.010 A 
ATOM     77  C   UNL A   1      40.153  30.133  31.014  1.00  0.00     0.010 A 
ATOM     78  C   UNL A   1      38.148  30.786  29.173  1.00  0.00     0.020 A 
ATOM     79  C   UNL A   1      38.905  30.567  31.470  1.00  0.00     0.020 A 
ATOM     80  C   UNL A   1      37.915  30.904  30.546  1.00  0.00     0.054 A 
BRANCH  80  81
ATOM     81  S   UNL A   1      36.282  31.461  31.112  1.00  0.00     0.124 S 
ATOM     82  O   UNL A   1      35.905  30.399  32.039  1.00  0.00    -0.237 OA
ATOM     83  O   UNL A   1      36.582  32.755  31.720  1.00  0.00    -0.237 OA
ATOM     84  O   UNL A   1      35.499  31.527  29.881  1.00  0.00    -0.744 OA
ENDBRANCH  80  81
ENDBRANCH  52  75
BRANCH  64  85
ATOM     85  C   UNL A   1      46.544  33.159  28.660  1.00  0.00    -0.014 A 
ATOM     86  C   UNL A   1      46.400  34.099  27.625  1.00  0.00     0.010 A 
ATOM     87  C   UNL A   1      47.088  33.568  29.891  1.00  0.00     0.010 A 
ATOM     88  C   UNL A   1      46.840  35.414  27.802  1.00  0.00     0.020 A 
ATOM     89  C   UNL A   1      47.501  34.888  30.081  1.00  0.00     0.020 A 
ATOM     90  C   UNL A   1      47.394  35.798  29.027  1.00  0.00     0.054 A 
BRANCH  90  91
ATOM     91  S   UNL A   1      47.944  37.512  29.238  1.00  0.00     0.124 S 
ATOM     92  O   UNL A   1      46.679  38.212  29.448  1.00  0.00    -0.237 OA
ATOM     93  O   UNL A   1      48.817  37.429  30.407  1.00  0.00    -0.237 OA
ATOM     94  O   UNL A   1      48.623  37.815  27.981  1.00  0.00    -0.744 OA
ENDBRANCH  90  91
ENDBRANCH  64  85
ENDBRANCH  38  39
ENDBRANCH  30  33
ENDBRANCH  28  29
ENDBRANCH  27  28
ENDBRANCH   1  27
TORSDOF 19
ENDMDL
MODEL 3
REMARK VINA RESULT:     -10.2      1.227      2.239
REMARK SMILES CCC[C@H](CNC(=O)N1C[C@H]2CCC[N@H+]2C[C@@H]1C)C(=O)NCCCCNC(=O)c1ccc(-c2c3nc(c(-c4ccc(S(=O)(=O)[O-])cc4)c4ccc([nH]4)c(-c4ccc(S(=O)(=O)[O-])cc4)c4nc(c(-c5ccc(S(=O)(=O)[O-])cc5)c5ccc2[nH]5)C=C4)C=C3)cc1
REMARK SMILES IDX 23 1 22 2 21 3 19 4 20 5 4 7 3 8 2 9 1 10 5 11 6 12 7 13
REMARK SMILES IDX 8 15 9 16 10 17 17 18 11 19 16 20 18 21 12 22 15 23 13 24
REMARK SMILES IDX 14 25 24 27 25 28 26 29 27 30 28 32 29 33 30 34 88 35 31 36
REMARK SMILES IDX 87 37 32 38 33 39 34 40 81 41 35 42 86 43 80 44 82 45 36 46
REMARK SMILES IDX 85 47 79 48 78 49 37 51 67 52 48 53 66 54 49 55 52 56 65 57
REMARK SMILES IDX 83 58 50 59 51 60 64 62 84 63 53 64 38 65 39 66 47 67 40 68
REMARK SMILES IDX 46 69 41 70 42 71 43 72 44 73 45 74 68 75 69 76 77 77 70 78
REMARK SMILES IDX 76 79 71 80 72 81 73 82 74 83 75 84 54 85 55 86 63 87 56 88
REMARK SMILES IDX 62 89 57 90 58 91 59 92 60 93 61 94
REMARK H PARENT 21 6 6 14 15 26 26 31 82 50 52 61
REMARK Flexibility Score: inf
ROOT
ATOM      1  C   UNL A   1      31.688  28.588  25.901  1.00  0.00     0.023 C 
ENDROOT
BRANCH   1   2
ATOM      2  C   UNL A   1      31.132  28.829  24.495  1.00  0.00     0.116 C 
BRANCH   2   3
ATOM      3  N   UNL A   1      30.077  27.888  24.179  1.00  0.00    -0.356 N 
ATOM      4  C   UNL A   1      30.115  26.614  23.717  1.00  0.00     0.224 C 
ATOM      5  O   UNL A   1      29.027  26.079  23.476  1.00  0.00    -0.275 OA
ATOM      6  H   UNL A   1      29.169  28.238  24.325  1.00  0.00     0.163 HD
BRANCH   4   7
ATOM      7  C   UNL A   1      31.404  25.826  23.485  1.00  0.00     0.097 C 
BRANCH   7   8
ATOM      8  C   UNL A   1      32.186  26.251  22.229  1.00  0.00     0.015 C 
BRANCH   8   9
ATOM      9  C   UNL A   1      33.643  26.641  22.514  1.00  0.00    -0.003 C 
ATOM     10  C   UNL A   1      33.882  28.143  22.416  1.00  0.00     0.004 C 
ENDBRANCH   8   9
ENDBRANCH   7   8
BRANCH   7  11
ATOM     11  C   UNL A   1      31.241  24.309  23.699  1.00  0.00     0.131 C 
BRANCH  11  12
ATOM     12  N   UNL A   1      30.777  23.888  25.005  1.00  0.00    -0.337 N 
ATOM     13  C   UNL A   1      31.026  22.742  25.672  1.00  0.00     0.318 C 
ATOM     14  H   UNL A   1      30.196  24.530  25.473  1.00  0.00     0.165 HD
ATOM     15  O   UNL A   1      30.077  22.195  26.233  1.00  0.00    -0.249 OA
BRANCH  13  16
ATOM     16  N   UNL A   1      32.304  22.265  25.715  1.00  0.00    -0.311 N 
ATOM     17  C   UNL A   1      33.355  23.187  26.136  1.00  0.00     0.186 C 
ATOM     18  C   UNL A   1      32.756  21.030  25.021  1.00  0.00     0.139 C 
ATOM     19  C   UNL A   1      34.368  23.448  25.010  1.00  0.00     0.204 C 
ATOM     20  C   UNL A   1      34.306  20.996  24.869  1.00  0.00     0.287 C 
ATOM     21  C   UNL A   1      32.089  20.845  23.649  1.00  0.00     0.037 C 
ATOM     22  C   UNL A   1      35.607  24.182  25.515  1.00  0.00     0.073 C 
ATOM     23  N   UNL A   1      34.871  22.235  24.316  1.00  0.00    -0.329 N 
ATOM     24  C   UNL A   1      36.701  23.705  24.583  1.00  0.00     0.068 C 
ATOM     25  C   UNL A   1      36.336  22.249  24.362  1.00  0.00     0.262 C 
ATOM     26  H   UNL A   1      34.565  22.254  23.343  1.00  0.00     0.348 HD
ENDBRANCH  13  16
ENDBRANCH  11  12
ENDBRANCH   7  11
ENDBRANCH   4   7
ENDBRANCH   2   3
ENDBRANCH   1   2
BRANCH   1  27
ATOM     27  C   UNL A   1      33.027  27.867  25.962  1.00  0.00     0.023 C 
BRANCH  27  28
ATOM     28  C   UNL A   1      34.211  28.757  26.297  1.00  0.00     0.116 C 
BRANCH  28  29
ATOM     29  N   UNL A   1      33.842  30.106  26.695  1.00  0.00    -0.352 N 
ATOM     30  C   UNL A   1      34.491  30.931  27.587  1.00  0.00     0.251 C 
ATOM     31  H   UNL A   1      33.029  30.474  26.278  1.00  0.00     0.163 HD
ATOM     32  O   UNL A   1      34.015  32.007  27.903  1.00  0.00    -0.269 OA
BRANCH  30  33
ATOM     33  C   UNL A   1      35.759  30.461  28.186  1.00  0.00     0.039 A 
ATOM     34  C   UNL A   1      36.954  31.066  27.798  1.00  0.00     0.014 A 
ATOM     35  C   UNL A   1      35.753  29.465  29.167  1.00  0.00     0.014 A 
ATOM     36  C   UNL A   1      38.141  30.705  28.435  1.00  0.00     0.010 A 
ATOM     37  C   UNL A   1      36.916  29.182  29.869  1.00  0.00     0.010 A 
ATOM     38  C   UNL A   1      38.127  29.779  29.492  1.00  0.00    -0.014 A 
BRANCH  38  39
ATOM     39  C   UNL A   1      39.380  29.379  30.177  1.00  0.00     0.031 A 
ATOM     40  C   UNL A   1      39.787  30.078  31.447  1.00  0.00     0.074 A 
ATOM     41  C   UNL A   1      40.163  28.423  29.641  1.00  0.00     0.049 A 
ATOM     42  N   UNL A   1      40.846  29.884  32.191  1.00  0.00    -0.248 NA
ATOM     43  C   UNL A   1      38.909  31.160  31.926  1.00  0.00     0.031 C 
ATOM     44  C   UNL A   1      39.904  27.717  28.384  1.00  0.00     0.029 A 
ATOM     45  N   UNL A   1      41.337  27.876  30.092  1.00  0.00    -0.354 N 
ATOM     46  C   UNL A   1      40.767  30.828  33.209  1.00  0.00     0.074 A 
ATOM     47  C   UNL A   1      39.599  31.637  32.951  1.00  0.00     0.031 C 
ATOM     48  C   UNL A   1      40.867  26.801  28.187  1.00  0.00     0.029 A 
ATOM     49  C   UNL A   1      41.825  26.875  29.286  1.00  0.00     0.049 A 
ATOM     50  H   UNL A   1      41.788  28.174  30.916  1.00  0.00     0.167 HD
ATOM     51  C   UNL A   1      41.574  30.986  34.284  1.00  0.00     0.031 A 
ATOM     52  C   UNL A   1      42.914  26.097  29.426  1.00  0.00     0.031 A 
ATOM     53  C   UNL A   1      42.719  30.160  34.554  1.00  0.00     0.049 A 
ATOM     54  C   UNL A   1      43.781  26.272  30.643  1.00  0.00     0.074 A 
ATOM     55  C   UNL A   1      43.569  30.193  35.644  1.00  0.00     0.029 A 
ATOM     56  N   UNL A   1      43.167  29.143  33.725  1.00  0.00    -0.354 N 
ATOM     57  N   UNL A   1      43.651  27.124  31.634  1.00  0.00    -0.248 NA
ATOM     58  C   UNL A   1      44.931  25.366  30.771  1.00  0.00     0.031 C 
ATOM     59  C   UNL A   1      44.558  29.222  35.453  1.00  0.00     0.029 A 
ATOM     60  C   UNL A   1      44.292  28.550  34.271  1.00  0.00     0.049 A 
ATOM     61  H   UNL A   1      42.747  28.880  32.873  1.00  0.00     0.167 HD
ATOM     62  C   UNL A   1      44.688  26.840  32.514  1.00  0.00     0.074 A 
ATOM     63  C   UNL A   1      45.421  25.724  31.950  1.00  0.00     0.031 C 
ATOM     64  C   UNL A   1      45.009  27.445  33.685  1.00  0.00     0.031 A 
BRANCH  51  65
ATOM     65  C   UNL A   1      41.233  32.093  35.248  1.00  0.00    -0.014 A 
ATOM     66  C   UNL A   1      41.817  33.367  35.125  1.00  0.00     0.010 A 
ATOM     67  C   UNL A   1      40.307  31.863  36.281  1.00  0.00     0.010 A 
ATOM     68  C   UNL A   1      41.521  34.376  36.045  1.00  0.00     0.020 A 
ATOM     69  C   UNL A   1      39.984  32.879  37.186  1.00  0.00     0.020 A 
ATOM     70  C   UNL A   1      40.608  34.123  37.073  1.00  0.00     0.054 A 
BRANCH  70  71
ATOM     71  S   UNL A   1      40.228  35.455  38.244  1.00  0.00     0.124 S 
ATOM     72  O   UNL A   1      39.670  36.479  37.363  1.00  0.00    -0.237 OA
ATOM     73  O   UNL A   1      39.273  34.822  39.152  1.00  0.00    -0.237 OA
ATOM     74  O   UNL A   1      41.524  35.779  38.834  1.00  0.00    -0.744 OA
ENDBRANCH  70  71
ENDBRANCH  51  65
BRANCH  52  75
ATOM     75  C   UNL A   1      43.224  25.055  28.409  1.00  0.00    -0.014 A 
ATOM     76  C   UNL A   1      42.791  23.730  28.591  1.00  0.00     0.010 A 
ATOM     77  C   UNL A   1      43.949  25.383  27.249  1.00  0.00     0.010 A 
ATOM     78  C   UNL A   1      43.097  22.746  27.646  1.00  0.00     0.020 A 
ATOM     79  C   UNL A   1      44.235  24.407  26.288  1.00  0.00     0.020 A 
ATOM     80  C   UNL A   1      43.818  23.093  26.500  1.00  0.00     0.054 A 
BRANCH  80  81
ATOM     81  S   UNL A   1      44.167  21.809  25.265  1.00  0.00     0.124 S 
ATOM     82  O   UNL A   1      44.142  22.571  24.021  1.00  0.00    -0.237 OA
ATOM     83  O   UNL A   1      45.479  21.318  25.679  1.00  0.00    -0.237 OA
ATOM     84  O   UNL A   1      43.071  20.859  25.441  1.00  0.00    -0.744 OA
ENDBRANCH  80  81
ENDBRANCH  52  75
BRANCH  64  85
ATOM     85  C   UNL A   1      46.188  26.895  34.441  1.00  0.00    -0.014 A 
ATOM     86  C   UNL A   1      46.031  25.866  35.385  1.00  0.00     0.010 A 
ATOM     87  C   UNL A   1      47.475  27.400  34.181  1.00  0.00     0.010 A 
ATOM     88  C   UNL A   1      47.135  25.385  36.094  1.00  0.00     0.020 A 
ATOM     89  C   UNL A   1      48.585  26.900  34.866  1.00  0.00     0.020 A 
ATOM     90  C   UNL A   1      48.404  25.911  35.834  1.00  0.00     0.054 A 
BRANCH  90  91
ATOM     91  S   UNL A   1      49.824  25.262  36.756  1.00  0.00     0.124 S 
ATOM     92  O   UNL A   1      49.511  25.673  38.122  1.00  0.00    -0.237 OA
ATOM     93  O   UNL A   1      49.747  23.826  36.498  1.00  0.00    -0.237 OA
ATOM     94  O   UNL A   1      50.969  25.937  36.148  1.00  0.00    -0.744 OA
ENDBRANCH  90  91
ENDBRANCH  64  85
ENDBRANCH  38  39
ENDBRANCH  30  33
ENDBRANCH  28  29
ENDBRANCH  27  28
ENDBRANCH   1  27
TORSDOF 19
ENDMDL
