MODEL 1
REMARK VINA RESULT:     -11.9      0.000      0.000
REMARK SMILES O=C(NCCCCNC(=O)c1ccc(-c2c3nc(c(-c4ccc(S(=O)(=O)[O-])cc4)c4ccc([nH]4)c(-c4ccc(S(=O)(=O)[O-])cc4)c4nc(c(-c5ccc(S(=O)(=O)[O-])cc5)c5ccc2[nH]5)C=C4)C=C3)cc1)c1ccc(NC(=O)[C@@H]2CC=CC[C@H]2C(=O)Nc2cccc([N+](=O)[O-])c2)cc1
REMARK SMILES IDX 4 1 3 2 1 3 2 4 71 6 72 7 97 8 73 9 96 10 74 11 75 12 76 13
REMARK SMILES IDX 77 15 78 16 79 17 83 18 80 19 82 20 81 21 84 22 85 23 86 24
REMARK SMILES IDX 87 26 88 27 95 28 89 29 91 30 90 31 92 32 93 33 94 34 5 35
REMARK SMILES IDX 6 36 7 37 8 38 9 39 10 41 11 42 12 43 70 44 13 45 69 46
REMARK SMILES IDX 14 47 15 48 16 49 63 50 17 51 68 52 62 53 64 54 18 55 67 56
REMARK SMILES IDX 61 57 60 58 19 60 49 61 30 62 48 63 31 64 34 65 47 66 65 67
REMARK SMILES IDX 32 68 33 69 46 71 66 72 35 73 20 74 21 75 29 76 22 77 28 78
REMARK SMILES IDX 23 79 24 80 25 81 26 82 27 83 50 84 51 85 59 86 52 87 58 88
REMARK SMILES IDX 53 89 54 90 55 91 56 92 57 93 36 94 37 95 45 96 38 97 44 98
REMARK SMILES IDX 39 99 40 100 41 101 42 102 43 103
REMARK H PARENT 3 5 75 14 86 25 8 40 64 59 34 70
REMARK Flexibility Score: inf
ROOT
ATOM      1  C   UNL A   1      34.019  32.288  27.820  1.00  0.00     0.116 C 
ENDROOT
BRANCH   1   2
ATOM      2  N   UNL A   1      34.730  31.031  27.843  1.00  0.00    -0.352 N 
ATOM      3  O   UNL A   1      35.296  28.912  27.491  1.00  0.00    -0.269 OA
ATOM      4  C   UNL A   1      34.453  29.794  27.315  1.00  0.00     0.251 C 
ATOM      5  H   UNL A   1      35.583  31.068  28.332  1.00  0.00     0.163 HD
BRANCH   4   6
ATOM      6  C   UNL A   1      33.262  29.488  26.464  1.00  0.00     0.039 A 
ATOM      7  C   UNL A   1      33.135  29.724  25.092  1.00  0.00     0.016 A 
ATOM      8  C   UNL A   1      32.195  28.857  27.117  1.00  0.00     0.016 A 
ATOM      9  C   UNL A   1      32.111  29.099  24.352  1.00  0.00     0.027 A 
ATOM     10  C   UNL A   1      31.145  28.295  26.393  1.00  0.00     0.027 A 
ATOM     11  C   UNL A   1      31.184  28.290  25.000  1.00  0.00     0.041 A 
BRANCH  11  12
ATOM     12  N   UNL A   1      30.269  27.440  24.377  1.00  0.00    -0.326 N 
ATOM     13  C   UNL A   1      30.201  26.096  24.185  1.00  0.00     0.228 C 
ATOM     14  H   UNL A   1      29.501  27.920  23.992  1.00  0.00     0.169 HD
ATOM     15  O   UNL A   1      29.191  25.719  23.576  1.00  0.00    -0.274 OA
BRANCH  13  16
ATOM     16  C   UNL A   1      31.276  25.086  24.647  1.00  0.00     0.095 C 
ATOM     17  C   UNL A   1      30.909  24.702  26.111  1.00  0.00     0.041 C 
ATOM     18  C   UNL A   1      32.751  25.533  24.525  1.00  0.00     0.095 C 
ATOM     19  C   UNL A   1      31.972  24.068  26.947  1.00  0.00    -0.030 C 
ATOM     20  C   UNL A   1      33.766  25.152  25.639  1.00  0.00     0.041 C 
ATOM     21  C   UNL A   1      33.269  24.290  26.741  1.00  0.00    -0.030 C 
BRANCH  18  22
ATOM     22  C   UNL A   1      33.513  25.168  23.263  1.00  0.00     0.228 C 
ATOM     23  O   UNL A   1      33.585  26.024  22.366  1.00  0.00    -0.274 OA
ATOM     24  N   UNL A   1      34.319  24.089  23.070  1.00  0.00    -0.326 N 
ATOM     25  H   UNL A   1      34.884  24.239  22.279  1.00  0.00     0.169 HD
BRANCH  24  26
ATOM     26  C   UNL A   1      34.611  22.832  23.625  1.00  0.00     0.048 A 
ATOM     27  C   UNL A   1      33.502  22.001  23.863  1.00  0.00     0.026 A 
ATOM     28  C   UNL A   1      35.856  22.355  24.005  1.00  0.00     0.111 A 
ATOM     29  C   UNL A   1      33.636  20.726  24.429  1.00  0.00     0.009 A 
ATOM     30  C   UNL A   1      35.997  21.087  24.597  1.00  0.00     0.271 A 
ATOM     31  C   UNL A   1      34.892  20.260  24.799  1.00  0.00     0.086 A 
BRANCH  30  32
ATOM     32  N   UNL A   1      37.332  20.639  25.012  1.00  0.00     0.062 N 
ATOM     33  O   UNL A   1      38.112  21.489  25.461  1.00  0.00    -0.258 OA
ATOM     34  O   UNL A   1      37.599  19.435  24.884  1.00  0.00    -0.258 OA
ENDBRANCH  30  32
ENDBRANCH  24  26
ENDBRANCH  18  22
ENDBRANCH  13  16
ENDBRANCH  11  12
ENDBRANCH   4   6
ENDBRANCH   1   2
BRANCH   1  35
ATOM     35  C   UNL A   1      34.461  33.194  28.967  1.00  0.00     0.023 C 
BRANCH  35  36
ATOM     36  C   UNL A   1      35.981  33.341  29.078  1.00  0.00     0.023 C 
BRANCH  36  37
ATOM     37  C   UNL A   1      36.565  32.990  30.445  1.00  0.00     0.116 C 
BRANCH  37  38
ATOM     38  N   UNL A   1      36.085  31.721  30.972  1.00  0.00    -0.352 N 
ATOM     39  C   UNL A   1      36.716  30.493  31.007  1.00  0.00     0.251 C 
ATOM     40  H   UNL A   1      35.180  31.741  31.359  1.00  0.00     0.163 HD
ATOM     41  O   UNL A   1      36.122  29.518  31.430  1.00  0.00    -0.269 OA
BRANCH  39  42
ATOM     42  C   UNL A   1      38.095  30.376  30.477  1.00  0.00     0.039 A 
ATOM     43  C   UNL A   1      39.159  30.305  31.379  1.00  0.00     0.014 A 
ATOM     44  C   UNL A   1      38.329  30.264  29.105  1.00  0.00     0.014 A 
ATOM     45  C   UNL A   1      40.446  30.023  30.909  1.00  0.00     0.010 A 
ATOM     46  C   UNL A   1      39.594  29.901  28.648  1.00  0.00     0.010 A 
ATOM     47  C   UNL A   1      40.665  29.765  29.544  1.00  0.00    -0.014 A 
BRANCH  47  48
ATOM     48  C   UNL A   1      41.994  29.322  29.044  1.00  0.00     0.031 A 
ATOM     49  C   UNL A   1      43.127  30.305  28.915  1.00  0.00     0.074 A 
ATOM     50  C   UNL A   1      42.165  28.047  28.636  1.00  0.00     0.049 A 
ATOM     51  N   UNL A   1      44.336  30.114  28.452  1.00  0.00    -0.248 NA
ATOM     52  C   UNL A   1      42.860  31.690  29.337  1.00  0.00     0.031 C 
ATOM     53  C   UNL A   1      41.136  27.003  28.657  1.00  0.00     0.029 A 
ATOM     54  N   UNL A   1      43.267  27.410  28.116  1.00  0.00    -0.354 N 
ATOM     55  C   UNL A   1      44.966  31.351  28.511  1.00  0.00     0.074 A 
ATOM     56  C   UNL A   1      43.989  32.298  29.004  1.00  0.00     0.031 C 
ATOM     57  C   UNL A   1      41.662  25.854  28.206  1.00  0.00     0.029 A 
ATOM     58  C   UNL A   1      43.051  26.084  27.820  1.00  0.00     0.049 A 
ATOM     59  H   UNL A   1      44.129  27.861  27.970  1.00  0.00     0.167 HD
ATOM     60  C   UNL A   1      46.247  31.671  28.206  1.00  0.00     0.031 A 
ATOM     61  C   UNL A   1      43.874  25.155  27.293  1.00  0.00     0.031 A 
ATOM     62  C   UNL A   1      47.221  30.728  27.724  1.00  0.00     0.049 A 
ATOM     63  C   UNL A   1      45.289  25.535  26.952  1.00  0.00     0.074 A 
ATOM     64  C   UNL A   1      48.559  30.944  27.443  1.00  0.00     0.029 A 
ATOM     65  N   UNL A   1      46.965  29.394  27.446  1.00  0.00    -0.354 N 
ATOM     66  N   UNL A   1      45.885  26.695  27.086  1.00  0.00    -0.248 NA
ATOM     67  C   UNL A   1      46.146  24.477  26.398  1.00  0.00     0.031 C 
ATOM     68  C   UNL A   1      49.098  29.754  26.943  1.00  0.00     0.029 A 
ATOM     69  C   UNL A   1      48.113  28.781  26.973  1.00  0.00     0.049 A 
ATOM     70  H   UNL A   1      46.095  28.948  27.569  1.00  0.00     0.167 HD
ATOM     71  C   UNL A   1      47.195  26.500  26.661  1.00  0.00     0.074 A 
ATOM     72  C   UNL A   1      47.307  25.106  26.280  1.00  0.00     0.031 C 
ATOM     73  C   UNL A   1      48.212  27.394  26.593  1.00  0.00     0.031 A 
BRANCH  60  74
ATOM     74  C   UNL A   1      46.666  33.107  28.382  1.00  0.00    -0.014 A 
ATOM     75  C   UNL A   1      46.340  34.083  27.422  1.00  0.00     0.010 A 
ATOM     76  C   UNL A   1      47.362  33.496  29.542  1.00  0.00     0.010 A 
ATOM     77  C   UNL A   1      46.742  35.410  27.595  1.00  0.00     0.020 A 
ATOM     78  C   UNL A   1      47.738  34.829  29.734  1.00  0.00     0.020 A 
ATOM     79  C   UNL A   1      47.441  35.774  28.750  1.00  0.00     0.054 A 
BRANCH  79  80
ATOM     80  S   UNL A   1      47.932  37.507  28.956  1.00  0.00     0.124 S 
ATOM     81  O   UNL A   1      46.709  38.212  28.576  1.00  0.00    -0.237 OA
ATOM     82  O   UNL A   1      48.281  37.575  30.372  1.00  0.00    -0.237 OA
ATOM     83  O   UNL A   1      49.053  37.664  28.032  1.00  0.00    -0.744 OA
ENDBRANCH  79  80
ENDBRANCH  60  74
BRANCH  61  84
ATOM     84  C   UNL A   1      43.383  23.766  27.070  1.00  0.00    -0.014 A 
ATOM     85  C   UNL A   1      43.011  23.337  25.783  1.00  0.00     0.010 A 
ATOM     86  C   UNL A   1      43.296  22.859  28.142  1.00  0.00     0.010 A 
ATOM     87  C   UNL A   1      42.544  22.035  25.577  1.00  0.00     0.020 A 
ATOM     88  C   UNL A   1      42.859  21.548  27.935  1.00  0.00     0.020 A 
ATOM     89  C   UNL A   1      42.476  21.147  26.654  1.00  0.00     0.054 A 
BRANCH  89  90
ATOM     90  S   UNL A   1      41.922  19.446  26.350  1.00  0.00     0.124 S 
ATOM     91  O   UNL A   1      42.642  19.105  25.128  1.00  0.00    -0.237 OA
ATOM     92  O   UNL A   1      42.359  18.752  27.559  1.00  0.00    -0.237 OA
ATOM     93  O   UNL A   1      40.473  19.580  26.208  1.00  0.00    -0.744 OA
ENDBRANCH  89  90
ENDBRANCH  61  84
BRANCH  73  94
ATOM     94  C   UNL A   1      49.551  26.889  26.122  1.00  0.00    -0.014 A 
ATOM     95  C   UNL A   1      50.008  27.140  24.816  1.00  0.00     0.010 A 
ATOM     96  C   UNL A   1      50.387  26.200  27.020  1.00  0.00     0.010 A 
ATOM     97  C   UNL A   1      51.264  26.681  24.407  1.00  0.00     0.020 A 
ATOM     98  C   UNL A   1      51.655  25.767  26.624  1.00  0.00     0.020 A 
ATOM     99  C   UNL A   1      52.080  25.999  25.316  1.00  0.00     0.054 A 
BRANCH  99 100
ATOM    100  S   UNL A   1      53.722  25.451  24.773  1.00  0.00     0.124 S 
ATOM    101  O   UNL A   1      54.591  26.461  25.369  1.00  0.00    -0.237 OA
ATOM    102  O   UNL A   1      53.822  24.114  25.354  1.00  0.00    -0.237 OA
ATOM    103  O   UNL A   1      53.635  25.486  23.315  1.00  0.00    -0.744 OA
ENDBRANCH  99 100
ENDBRANCH  73  94
ENDBRANCH  47  48
ENDBRANCH  39  42
ENDBRANCH  37  38
ENDBRANCH  36  37
ENDBRANCH  35  36
ENDBRANCH   1  35
TORSDOF 19
ENDMDL
MODEL 2
REMARK VINA RESULT:     -11.7      2.269      8.761
REMARK SMILES O=C(NCCCCNC(=O)c1ccc(-c2c3nc(c(-c4ccc(S(=O)(=O)[O-])cc4)c4ccc([nH]4)c(-c4ccc(S(=O)(=O)[O-])cc4)c4nc(c(-c5ccc(S(=O)(=O)[O-])cc5)c5ccc2[nH]5)C=C4)C=C3)cc1)c1ccc(NC(=O)[C@@H]2CC=CC[C@H]2C(=O)Nc2cccc([N+](=O)[O-])c2)cc1
REMARK SMILES IDX 4 1 3 2 1 3 2 4 71 6 72 7 97 8 73 9 96 10 74 11 75 12 76 13
REMARK SMILES IDX 77 15 78 16 79 17 83 18 80 19 82 20 81 21 84 22 85 23 86 24
REMARK SMILES IDX 87 26 88 27 95 28 89 29 91 30 90 31 92 32 93 33 94 34 5 35
REMARK SMILES IDX 6 36 7 37 8 38 9 39 10 41 11 42 12 43 70 44 13 45 69 46
REMARK SMILES IDX 14 47 15 48 16 49 63 50 17 51 68 52 62 53 64 54 18 55 67 56
REMARK SMILES IDX 61 57 60 58 19 60 49 61 30 62 48 63 31 64 34 65 47 66 65 67
REMARK SMILES IDX 32 68 33 69 46 71 66 72 35 73 20 74 21 75 29 76 22 77 28 78
REMARK SMILES IDX 23 79 24 80 25 81 26 82 27 83 50 84 51 85 59 86 52 87 58 88
REMARK SMILES IDX 53 89 54 90 55 91 56 92 57 93 36 94 37 95 45 96 38 97 44 98
REMARK SMILES IDX 39 99 40 100 41 101 42 102 43 103
REMARK H PARENT 3 5 75 14 86 25 8 40 64 59 34 70
REMARK Flexibility Score: inf
ROOT
ATOM      1  C   UNL A   1      36.287  20.511  25.241  1.00  0.00     0.116 C 
ENDROOT
BRANCH   1   2
ATOM      2  N   UNL A   1      35.264  19.514  25.024  1.00  0.00    -0.352 N 
ATOM      3  O   UNL A   1      33.298  18.533  24.702  1.00  0.00    -0.269 OA
ATOM      4  C   UNL A   1      33.898  19.589  24.919  1.00  0.00     0.251 C 
ATOM      5  H   UNL A   1      35.617  18.600  24.934  1.00  0.00     0.163 HD
BRANCH   4   6
ATOM      6  C   UNL A   1      33.118  20.865  24.944  1.00  0.00     0.039 A 
ATOM      7  C   UNL A   1      32.250  21.331  23.952  1.00  0.00     0.016 A 
ATOM      8  C   UNL A   1      33.248  21.632  26.110  1.00  0.00     0.016 A 
ATOM      9  C   UNL A   1      31.336  22.366  24.234  1.00  0.00     0.027 A 
ATOM     10  C   UNL A   1      32.387  22.699  26.362  1.00  0.00     0.027 A 
ATOM     11  C   UNL A   1      31.337  22.969  25.486  1.00  0.00     0.041 A 
BRANCH  11  12
ATOM     12  N   UNL A   1      30.356  23.833  25.976  1.00  0.00    -0.326 N 
ATOM     13  C   UNL A   1      30.225  25.186  26.031  1.00  0.00     0.228 C 
ATOM     14  H   UNL A   1      29.589  23.358  26.367  1.00  0.00     0.169 HD
ATOM     15  O   UNL A   1      29.169  25.573  26.548  1.00  0.00    -0.274 OA
BRANCH  13  16
ATOM     16  C   UNL A   1      31.282  26.194  25.526  1.00  0.00     0.095 C 
ATOM     17  C   UNL A   1      31.968  26.774  26.798  1.00  0.00     0.041 C 
ATOM     18  C   UNL A   1      30.784  27.313  24.583  1.00  0.00     0.095 C 
ATOM     19  C   UNL A   1      32.735  28.047  26.649  1.00  0.00    -0.030 C 
ATOM     20  C   UNL A   1      31.362  28.749  24.720  1.00  0.00     0.041 C 
ATOM     21  C   UNL A   1      32.445  28.951  25.715  1.00  0.00    -0.030 C 
BRANCH  18  22
ATOM     22  C   UNL A   1      30.862  27.081  23.084  1.00  0.00     0.228 C 
ATOM     23  O   UNL A   1      30.110  27.753  22.358  1.00  0.00    -0.274 OA
ATOM     24  N   UNL A   1      31.809  26.378  22.408  1.00  0.00    -0.326 N 
ATOM     25  H   UNL A   1      31.772  26.612  21.453  1.00  0.00     0.169 HD
BRANCH  24  26
ATOM     26  C   UNL A   1      32.823  25.430  22.619  1.00  0.00     0.048 A 
ATOM     27  C   UNL A   1      32.904  24.404  21.660  1.00  0.00     0.026 A 
ATOM     28  C   UNL A   1      33.705  25.371  23.688  1.00  0.00     0.111 A 
ATOM     29  C   UNL A   1      33.853  23.377  21.749  1.00  0.00     0.009 A 
ATOM     30  C   UNL A   1      34.644  24.330  23.797  1.00  0.00     0.271 A 
ATOM     31  C   UNL A   1      34.734  23.337  22.823  1.00  0.00     0.086 A 
BRANCH  30  32
ATOM     32  N   UNL A   1      35.534  24.295  24.964  1.00  0.00     0.062 N 
ATOM     33  O   UNL A   1      35.118  24.781  26.024  1.00  0.00    -0.258 OA
ATOM     34  O   UNL A   1      36.654  23.782  24.815  1.00  0.00    -0.258 OA
ENDBRANCH  30  32
ENDBRANCH  24  26
ENDBRANCH  18  22
ENDBRANCH  13  16
ENDBRANCH  11  12
ENDBRANCH   4   6
ENDBRANCH   1   2
BRANCH   1  35
ATOM     35  C   UNL A   1      37.591  20.126  24.545  1.00  0.00     0.023 C 
BRANCH  35  36
ATOM     36  C   UNL A   1      38.482  19.206  25.382  1.00  0.00     0.023 C 
BRANCH  36  37
ATOM     37  C   UNL A   1      39.610  19.909  26.134  1.00  0.00     0.116 C 
BRANCH  37  38
ATOM     38  N   UNL A   1      40.873  19.186  26.092  1.00  0.00    -0.352 N 
ATOM     39  C   UNL A   1      42.160  19.665  26.231  1.00  0.00     0.251 C 
ATOM     40  H   UNL A   1      40.798  18.215  25.944  1.00  0.00     0.163 HD
ATOM     41  O   UNL A   1      43.106  18.910  26.095  1.00  0.00    -0.269 OA
BRANCH  39  42
ATOM     42  C   UNL A   1      42.368  21.110  26.491  1.00  0.00     0.039 A 
ATOM     43  C   UNL A   1      42.593  21.531  27.803  1.00  0.00     0.014 A 
ATOM     44  C   UNL A   1      42.412  22.028  25.440  1.00  0.00     0.014 A 
ATOM     45  C   UNL A   1      42.960  22.858  28.048  1.00  0.00     0.010 A 
ATOM     46  C   UNL A   1      42.859  23.327  25.678  1.00  0.00     0.010 A 
ATOM     47  C   UNL A   1      43.149  23.754  26.982  1.00  0.00    -0.014 A 
BRANCH  47  48
ATOM     48  C   UNL A   1      43.679  25.126  27.208  1.00  0.00     0.031 A 
ATOM     49  C   UNL A   1      45.139  25.424  26.996  1.00  0.00     0.074 A 
ATOM     50  C   UNL A   1      42.859  26.091  27.675  1.00  0.00     0.049 A 
ATOM     51  N   UNL A   1      45.789  26.543  27.192  1.00  0.00    -0.248 NA
ATOM     52  C   UNL A   1      45.985  24.315  26.527  1.00  0.00     0.031 C 
ATOM     53  C   UNL A   1      41.434  25.924  27.974  1.00  0.00     0.029 A 
ATOM     54  N   UNL A   1      43.107  27.407  27.988  1.00  0.00    -0.354 N 
ATOM     55  C   UNL A   1      47.117  26.270  26.887  1.00  0.00     0.074 A 
ATOM     56  C   UNL A   1      47.190  24.866  26.546  1.00  0.00     0.031 C 
ATOM     57  C   UNL A   1      40.930  27.096  28.393  1.00  0.00     0.029 A 
ATOM     58  C   UNL A   1      42.000  28.088  28.437  1.00  0.00     0.049 A 
ATOM     59  H   UNL A   1      43.995  27.822  27.899  1.00  0.00     0.167 HD
ATOM     60  C   UNL A   1      48.178  27.113  26.870  1.00  0.00     0.031 A 
ATOM     61  C   UNL A   1      41.857  29.365  28.845  1.00  0.00     0.031 A 
ATOM     62  C   UNL A   1      48.104  28.511  27.200  1.00  0.00     0.049 A 
ATOM     63  C   UNL A   1      43.051  30.280  28.827  1.00  0.00     0.074 A 
ATOM     64  C   UNL A   1      49.111  29.459  27.155  1.00  0.00     0.029 A 
ATOM     65  N   UNL A   1      46.962  29.163  27.641  1.00  0.00    -0.354 N 
ATOM     66  N   UNL A   1      44.284  30.018  28.463  1.00  0.00    -0.248 NA
ATOM     67  C   UNL A   1      42.833  31.666  29.263  1.00  0.00     0.031 C 
ATOM     68  C   UNL A   1      48.593  30.671  27.622  1.00  0.00     0.029 A 
ATOM     69  C   UNL A   1      47.247  30.494  27.897  1.00  0.00     0.049 A 
ATOM     70  H   UNL A   1      46.079  28.742  27.755  1.00  0.00     0.167 HD
ATOM     71  C   UNL A   1      44.981  31.213  28.600  1.00  0.00     0.074 A 
ATOM     72  C   UNL A   1      44.030  32.202  29.064  1.00  0.00     0.031 C 
ATOM     73  C   UNL A   1      46.292  31.469  28.362  1.00  0.00     0.031 A 
BRANCH  60  74
ATOM     74  C   UNL A   1      49.516  26.538  26.482  1.00  0.00    -0.014 A 
ATOM     75  C   UNL A   1      49.936  26.516  25.140  1.00  0.00     0.010 A 
ATOM     76  C   UNL A   1      50.383  26.050  27.477  1.00  0.00     0.010 A 
ATOM     77  C   UNL A   1      51.177  25.974  24.794  1.00  0.00     0.020 A 
ATOM     78  C   UNL A   1      51.638  25.536  27.139  1.00  0.00     0.020 A 
ATOM     79  C   UNL A   1      52.019  25.484  25.797  1.00  0.00     0.054 A 
BRANCH  79  80
ATOM     80  S   UNL A   1      53.631  24.804  25.320  1.00  0.00     0.124 S 
ATOM     81  O   UNL A   1      54.415  25.012  26.535  1.00  0.00    -0.237 OA
ATOM     82  O   UNL A   1      53.312  23.413  25.009  1.00  0.00    -0.237 OA
ATOM     83  O   UNL A   1      54.028  25.621  24.175  1.00  0.00    -0.744 OA
ENDBRANCH  79  80
ENDBRANCH  60  74
BRANCH  61  84
ATOM     84  C   UNL A   1      40.525  29.861  29.290  1.00  0.00    -0.014 A 
ATOM     85  C   UNL A   1      39.448  29.925  28.386  1.00  0.00     0.010 A 
ATOM     86  C   UNL A   1      40.320  30.261  30.623  1.00  0.00     0.010 A 
ATOM     87  C   UNL A   1      38.200  30.396  28.803  1.00  0.00     0.020 A 
ATOM     88  C   UNL A   1      39.065  30.703  31.051  1.00  0.00     0.020 A 
ATOM     89  C   UNL A   1      38.015  30.778  30.135  1.00  0.00     0.054 A 
BRANCH  89  90
ATOM     90  S   UNL A   1      36.370  31.331  30.665  1.00  0.00     0.124 S 
ATOM     91  O   UNL A   1      35.687  31.522  29.390  1.00  0.00    -0.237 OA
ATOM     92  O   UNL A   1      35.905  30.207  31.473  1.00  0.00    -0.237 OA
ATOM     93  O   UNL A   1      36.648  32.554  31.417  1.00  0.00    -0.744 OA
ENDBRANCH  89  90
ENDBRANCH  61  84
BRANCH  73  94
ATOM     94  C   UNL A   1      46.773  32.882  28.563  1.00  0.00    -0.014 A 
ATOM     95  C   UNL A   1      46.703  33.832  27.528  1.00  0.00     0.010 A 
ATOM     96  C   UNL A   1      47.251  33.279  29.825  1.00  0.00     0.010 A 
ATOM     97  C   UNL A   1      47.134  35.144  27.744  1.00  0.00     0.020 A 
ATOM     98  C   UNL A   1      47.653  34.596  30.054  1.00  0.00     0.020 A 
ATOM     99  C   UNL A   1      47.606  35.518  29.007  1.00  0.00     0.054 A 
BRANCH  99 100
ATOM    100  S   UNL A   1      48.119  37.237  29.273  1.00  0.00     0.124 S 
ATOM    101  O   UNL A   1      47.201  37.967  28.404  1.00  0.00    -0.237 OA
ATOM    102  O   UNL A   1      47.903  37.417  30.707  1.00  0.00    -0.237 OA
ATOM    103  O   UNL A   1      49.519  37.250  28.854  1.00  0.00    -0.744 OA
ENDBRANCH  99 100
ENDBRANCH  73  94
ENDBRANCH  47  48
ENDBRANCH  39  42
ENDBRANCH  37  38
ENDBRANCH  36  37
ENDBRANCH  35  36
ENDBRANCH   1  35
TORSDOF 19
ENDMDL
MODEL 3
REMARK VINA RESULT:     -11.5      2.486      9.413
REMARK SMILES O=C(NCCCCNC(=O)c1ccc(-c2c3nc(c(-c4ccc(S(=O)(=O)[O-])cc4)c4ccc([nH]4)c(-c4ccc(S(=O)(=O)[O-])cc4)c4nc(c(-c5ccc(S(=O)(=O)[O-])cc5)c5ccc2[nH]5)C=C4)C=C3)cc1)c1ccc(NC(=O)[C@@H]2CC=CC[C@H]2C(=O)Nc2cccc([N+](=O)[O-])c2)cc1
REMARK SMILES IDX 4 1 3 2 1 3 2 4 71 6 72 7 97 8 73 9 96 10 74 11 75 12 76 13
REMARK SMILES IDX 77 15 78 16 79 17 83 18 80 19 82 20 81 21 84 22 85 23 86 24
REMARK SMILES IDX 87 26 88 27 95 28 89 29 91 30 90 31 92 32 93 33 94 34 5 35
REMARK SMILES IDX 6 36 7 37 8 38 9 39 10 41 11 42 12 43 70 44 13 45 69 46
REMARK SMILES IDX 14 47 15 48 16 49 63 50 17 51 68 52 62 53 64 54 18 55 67 56
REMARK SMILES IDX 61 57 60 58 19 60 49 61 30 62 48 63 31 64 34 65 47 66 65 67
REMARK SMILES IDX 32 68 33 69 46 71 66 72 35 73 20 74 21 75 29 76 22 77 28 78
REMARK SMILES IDX 23 79 24 80 25 81 26 82 27 83 50 84 51 85 59 86 52 87 58 88
REMARK SMILES IDX 53 89 54 90 55 91 56 92 57 93 36 94 37 95 45 96 38 97 44 98
REMARK SMILES IDX 39 99 40 100 41 101 42 102 43 103
REMARK H PARENT 3 5 75 14 86 25 8 40 64 59 34 70
REMARK Flexibility Score: inf
ROOT
ATOM      1  C   UNL A   1      36.173  21.917  25.602  1.00  0.00     0.116 C 
ENDROOT
BRANCH   1   2
ATOM      2  N   UNL A   1      35.251  20.808  25.520  1.00  0.00    -0.352 N 
ATOM      3  O   UNL A   1      33.418  19.599  25.186  1.00  0.00    -0.269 OA
ATOM      4  C   UNL A   1      33.922  20.725  25.186  1.00  0.00     0.251 C 
ATOM      5  H   UNL A   1      35.656  19.941  25.747  1.00  0.00     0.163 HD
BRANCH   4   6
ATOM      6  C   UNL A   1      33.092  21.883  24.730  1.00  0.00     0.039 A 
ATOM      7  C   UNL A   1      32.496  22.036  23.474  1.00  0.00     0.016 A 
ATOM      8  C   UNL A   1      32.861  22.880  25.687  1.00  0.00     0.016 A 
ATOM      9  C   UNL A   1      31.483  22.996  23.279  1.00  0.00     0.027 A 
ATOM     10  C   UNL A   1      31.905  23.870  25.470  1.00  0.00     0.027 A 
ATOM     11  C   UNL A   1      31.114  23.836  24.324  1.00  0.00     0.041 A 
BRANCH  11  12
ATOM     12  N   UNL A   1      29.990  24.664  24.346  1.00  0.00    -0.326 N 
ATOM     13  C   UNL A   1      29.771  25.974  24.056  1.00  0.00     0.228 C 
ATOM     14  H   UNL A   1      29.175  24.195  24.636  1.00  0.00     0.169 HD
ATOM     15  O   UNL A   1      28.595  26.336  24.196  1.00  0.00    -0.274 OA
BRANCH  13  16
ATOM     16  C   UNL A   1      30.863  26.971  23.607  1.00  0.00     0.095 C 
ATOM     17  C   UNL A   1      31.626  26.280  22.438  1.00  0.00     0.041 C 
ATOM     18  C   UNL A   1      31.832  27.482  24.699  1.00  0.00     0.095 C 
ATOM     19  C   UNL A   1      32.972  26.818  22.077  1.00  0.00    -0.030 C 
ATOM     20  C   UNL A   1      33.336  27.678  24.364  1.00  0.00     0.041 C 
ATOM     21  C   UNL A   1      33.754  27.437  22.960  1.00  0.00    -0.030 C 
BRANCH  18  22
ATOM     22  C   UNL A   1      31.494  28.780  25.412  1.00  0.00     0.228 C 
ATOM     23  O   UNL A   1      31.961  28.949  26.551  1.00  0.00    -0.274 OA
ATOM     24  N   UNL A   1      30.914  29.887  24.876  1.00  0.00    -0.326 N 
ATOM     25  H   UNL A   1      31.058  30.655  25.475  1.00  0.00     0.169 HD
BRANCH  24  26
ATOM     26  C   UNL A   1      30.179  30.299  23.753  1.00  0.00     0.048 A 
ATOM     27  C   UNL A   1      30.129  29.378  22.690  1.00  0.00     0.026 A 
ATOM     28  C   UNL A   1      29.554  31.522  23.563  1.00  0.00     0.111 A 
ATOM     29  C   UNL A   1      29.449  29.657  21.497  1.00  0.00     0.009 A 
ATOM     30  C   UNL A   1      28.891  31.819  22.359  1.00  0.00     0.271 A 
ATOM     31  C   UNL A   1      28.821  30.885  21.326  1.00  0.00     0.086 A 
BRANCH  30  32
ATOM     32  N   UNL A   1      28.271  33.139  22.195  1.00  0.00     0.062 N 
ATOM     33  O   UNL A   1      27.587  33.335  21.181  1.00  0.00    -0.258 OA
ATOM     34  O   UNL A   1      28.473  33.982  23.082  1.00  0.00    -0.258 OA
ENDBRANCH  30  32
ENDBRANCH  24  26
ENDBRANCH  18  22
ENDBRANCH  13  16
ENDBRANCH  11  12
ENDBRANCH   4   6
ENDBRANCH   1   2
BRANCH   1  35
ATOM     35  C   UNL A   1      37.386  21.696  24.700  1.00  0.00     0.023 C 
BRANCH  35  36
ATOM     36  C   UNL A   1      38.187  20.440  25.051  1.00  0.00     0.023 C 
BRANCH  36  37
ATOM     37  C   UNL A   1      39.449  20.688  25.874  1.00  0.00     0.116 C 
BRANCH  37  38
ATOM     38  N   UNL A   1      40.320  19.525  25.964  1.00  0.00    -0.352 N 
ATOM     39  C   UNL A   1      41.674  19.464  26.225  1.00  0.00     0.251 C 
ATOM     40  H   UNL A   1      39.879  18.656  25.819  1.00  0.00     0.163 HD
ATOM     41  O   UNL A   1      42.251  18.391  26.192  1.00  0.00    -0.269 OA
BRANCH  39  42
ATOM     42  C   UNL A   1      42.415  20.721  26.490  1.00  0.00     0.039 A 
ATOM     43  C   UNL A   1      42.995  21.399  25.417  1.00  0.00     0.014 A 
ATOM     44  C   UNL A   1      42.472  21.260  27.777  1.00  0.00     0.014 A 
ATOM     45  C   UNL A   1      43.547  22.668  25.620  1.00  0.00     0.010 A 
ATOM     46  C   UNL A   1      42.947  22.557  27.960  1.00  0.00     0.010 A 
ATOM     47  C   UNL A   1      43.480  23.281  26.883  1.00  0.00    -0.014 A 
BRANCH  47  48
ATOM     48  C   UNL A   1      43.930  24.685  27.087  1.00  0.00     0.031 A 
ATOM     49  C   UNL A   1      45.374  25.059  26.886  1.00  0.00     0.074 A 
ATOM     50  C   UNL A   1      43.052  25.612  27.525  1.00  0.00     0.049 A 
ATOM     51  N   UNL A   1      45.958  26.216  27.066  1.00  0.00    -0.248 NA
ATOM     52  C   UNL A   1      46.286  23.990  26.450  1.00  0.00     0.031 C 
ATOM     53  C   UNL A   1      41.635  25.372  27.811  1.00  0.00     0.029 A 
ATOM     54  N   UNL A   1      43.224  26.945  27.814  1.00  0.00    -0.354 N 
ATOM     55  C   UNL A   1      47.303  26.011  26.783  1.00  0.00     0.074 A 
ATOM     56  C   UNL A   1      47.458  24.607  26.471  1.00  0.00     0.031 C 
ATOM     57  C   UNL A   1      41.061  26.522  28.200  1.00  0.00     0.029 A 
ATOM     58  C   UNL A   1      42.074  27.572  28.236  1.00  0.00     0.049 A 
ATOM     59  H   UNL A   1      44.088  27.407  27.727  1.00  0.00     0.167 HD
ATOM     60  C   UNL A   1      48.316  26.911  26.761  1.00  0.00     0.031 A 
ATOM     61  C   UNL A   1      41.856  28.847  28.616  1.00  0.00     0.031 A 
ATOM     62  C   UNL A   1      48.161  28.309  27.062  1.00  0.00     0.049 A 
ATOM     63  C   UNL A   1      42.998  29.826  28.594  1.00  0.00     0.074 A 
ATOM     64  C   UNL A   1      49.115  29.311  27.009  1.00  0.00     0.029 A 
ATOM     65  N   UNL A   1      46.979  28.906  27.477  1.00  0.00    -0.354 N 
ATOM     66  N   UNL A   1      44.248  29.626  28.250  1.00  0.00    -0.248 NA
ATOM     67  C   UNL A   1      42.698  31.207  28.999  1.00  0.00     0.031 C 
ATOM     68  C   UNL A   1      48.524  30.500  27.446  1.00  0.00     0.029 A 
ATOM     69  C   UNL A   1      47.187  30.255  27.708  1.00  0.00     0.049 A 
ATOM     70  H   UNL A   1      46.120  28.438  27.589  1.00  0.00     0.167 HD
ATOM     71  C   UNL A   1      44.876  30.861  28.371  1.00  0.00     0.074 A 
ATOM     72  C   UNL A   1      43.865  31.804  28.803  1.00  0.00     0.031 C 
ATOM     73  C   UNL A   1      46.173  31.184  28.142  1.00  0.00     0.031 A 
BRANCH  60  74
ATOM     74  C   UNL A   1      49.689  26.404  26.400  1.00  0.00    -0.014 A 
ATOM     75  C   UNL A   1      50.457  25.668  27.321  1.00  0.00     0.010 A 
ATOM     76  C   UNL A   1      50.203  26.633  25.110  1.00  0.00     0.010 A 
ATOM     77  C   UNL A   1      51.731  25.211  26.975  1.00  0.00     0.020 A 
ATOM     78  C   UNL A   1      51.464  26.149  24.750  1.00  0.00     0.020 A 
ATOM     79  C   UNL A   1      52.228  25.457  25.692  1.00  0.00     0.054 A 
BRANCH  79  80
ATOM     80  S   UNL A   1      53.877  24.834  25.266  1.00  0.00     0.124 S 
ATOM     81  O   UNL A   1      54.190  25.611  24.068  1.00  0.00    -0.237 OA
ATOM     82  O   UNL A   1      54.661  25.167  26.452  1.00  0.00    -0.237 OA
ATOM     83  O   UNL A   1      53.662  23.406  25.043  1.00  0.00    -0.744 OA
ENDBRANCH  79  80
ENDBRANCH  60  74
BRANCH  61  84
ATOM     84  C   UNL A   1      40.493  29.277  29.035  1.00  0.00    -0.014 A 
ATOM     85  C   UNL A   1      40.177  29.425  30.398  1.00  0.00     0.010 A 
ATOM     86  C   UNL A   1      39.503  29.551  28.073  1.00  0.00     0.010 A 
ATOM     87  C   UNL A   1      38.895  29.821  30.790  1.00  0.00     0.020 A 
ATOM     88  C   UNL A   1      38.230  29.978  28.460  1.00  0.00     0.020 A 
ATOM     89  C   UNL A   1      37.930  30.100  29.818  1.00  0.00     0.054 A 
BRANCH  89  90
ATOM     90  S   UNL A   1      36.292  30.668  30.350  1.00  0.00     0.124 S 
ATOM     91  O   UNL A   1      35.889  29.613  31.275  1.00  0.00    -0.237 OA
ATOM     92  O   UNL A   1      36.589  31.964  30.957  1.00  0.00    -0.237 OA
ATOM     93  O   UNL A   1      35.532  30.734  29.103  1.00  0.00    -0.744 OA
ENDBRANCH  89  90
ENDBRANCH  61  84
BRANCH  73  94
ATOM     94  C   UNL A   1      46.573  32.626  28.320  1.00  0.00    -0.014 A 
ATOM     95  C   UNL A   1      47.084  33.096  29.542  1.00  0.00     0.010 A 
ATOM     96  C   UNL A   1      46.485  33.509  27.229  1.00  0.00     0.010 A 
ATOM     97  C   UNL A   1      47.470  34.433  29.679  1.00  0.00     0.020 A 
ATOM     98  C   UNL A   1      46.898  34.837  27.352  1.00  0.00     0.020 A 
ATOM     99  C   UNL A   1      47.375  35.295  28.581  1.00  0.00     0.054 A 
BRANCH  99 100
ATOM    100  S   UNL A   1      47.922  37.014  28.771  1.00  0.00     0.124 S 
ATOM    101  O   UNL A   1      49.333  36.849  29.107  1.00  0.00    -0.237 OA
ATOM    102  O   UNL A   1      47.652  37.583  27.453  1.00  0.00    -0.237 OA
ATOM    103  O   UNL A   1      47.080  37.529  29.850  1.00  0.00    -0.744 OA
ENDBRANCH  99 100
ENDBRANCH  73  94
ENDBRANCH  47  48
ENDBRANCH  39  42
ENDBRANCH  37  38
ENDBRANCH  36  37
ENDBRANCH  35  36
ENDBRANCH   1  35
TORSDOF 19
ENDMDL
