MODEL 1
REMARK VINA RESULT:     -10.6      0.000      0.000
REMARK SMILES CCOC(=O)[C@@H](C)Oc1ccc(Br)cc1/C=C/C(=O)NCCCCNC(=O)c1ccc(-c2c3nc(c(-c4ccc(S(=O)(=O)[O-])cc4)c4ccc([nH]4)c(-c4ccc(S(=O)(=O)[O-])cc4)c4nc(c(-c5ccc(S(=O)(=O)[O-])cc5)c5ccc2[nH]5)C=C4)C=C3)cc1
REMARK SMILES IDX 21 1 20 2 18 3 19 4 17 6 16 7 15 8 9 9 10 10 11 11 14 12
REMARK SMILES IDX 12 13 13 14 8 15 6 16 7 17 4 18 5 19 3 20 2 21 1 22 22 23
REMARK SMILES IDX 23 24 24 25 25 26 26 27 27 29 28 30 29 31 87 32 30 33 86 34
REMARK SMILES IDX 31 35 32 36 33 37 80 38 34 39 85 40 79 41 81 42 35 43 84 44
REMARK SMILES IDX 78 45 77 46 36 48 66 49 47 50 65 51 48 52 51 53 64 54 82 55
REMARK SMILES IDX 49 56 50 57 63 59 83 60 52 61 37 62 38 63 46 64 39 65 45 66
REMARK SMILES IDX 40 67 41 68 42 69 43 70 44 71 67 72 68 73 76 74 69 75 75 76
REMARK SMILES IDX 70 77 71 78 72 79 73 80 74 81 53 82 54 83 62 84 55 85 61 86
REMARK SMILES IDX 56 87 57 88 58 89 59 90 60 91
REMARK H PARENT 20 5 25 28 81 47 51 58
REMARK Flexibility Score: inf
ROOT
ATOM      1  C   UNL A   1      33.557  30.408  26.982  1.00  0.00     0.116 C 
ENDROOT
BRANCH   1   2
ATOM      2  N   UNL A   1      32.424  29.680  27.523  1.00  0.00    -0.353 N 
ATOM      3  C   UNL A   1      32.030  28.397  27.317  1.00  0.00     0.244 C 
ATOM      4  O   UNL A   1      31.073  27.937  27.936  1.00  0.00    -0.270 OA
ATOM      5  H   UNL A   1      31.853  30.198  28.136  1.00  0.00     0.163 HD
BRANCH   3   6
ATOM      6  C   UNL A   1      32.804  27.507  26.427  1.00  0.00     0.072 C 
ATOM      7  C   UNL A   1      32.517  26.218  26.188  1.00  0.00     0.017 C 
BRANCH   7   8
ATOM      8  C   UNL A   1      33.325  25.407  25.266  1.00  0.00     0.018 A 
ATOM      9  C   UNL A   1      32.988  25.295  23.904  1.00  0.00     0.127 A 
ATOM     10  C   UNL A   1      33.863  24.645  23.030  1.00  0.00     0.048 A 
ATOM     11  C   UNL A   1      34.998  23.992  23.515  1.00  0.00     0.019 A 
ATOM     12  C   UNL A   1      34.464  24.742  25.748  1.00  0.00     0.027 A 
ATOM     13  C   UNL A   1      35.284  24.031  24.875  1.00  0.00     0.018 A 
ATOM     14  Br  UNL A   1      36.820  23.148  25.536  1.00  0.00    -0.051 Br
BRANCH   9  15
ATOM     15  O   UNL A   1      31.871  25.942  23.437  1.00  0.00    -0.478 OA
BRANCH  15  16
ATOM     16  C   UNL A   1      32.089  27.171  22.727  1.00  0.00     0.279 C 
ATOM     17  C   UNL A   1      33.551  27.621  22.775  1.00  0.00     0.066 C 
BRANCH  16  18
ATOM     18  C   UNL A   1      31.084  28.311  22.973  1.00  0.00     0.347 C 
ATOM     19  O   UNL A   1      31.317  29.278  23.690  1.00  0.00    -0.248 OA
BRANCH  18  20
ATOM     20  O   UNL A   1      29.963  28.174  22.206  1.00  0.00    -0.463 OA
BRANCH  20  21
ATOM     21  C   UNL A   1      28.921  29.137  22.430  1.00  0.00     0.229 C 
ATOM     22  C   UNL A   1      29.180  30.388  21.620  1.00  0.00     0.049 C 
ENDBRANCH  20  21
ENDBRANCH  18  20
ENDBRANCH  16  18
ENDBRANCH  15  16
ENDBRANCH   9  15
ENDBRANCH   7   8
ENDBRANCH   3   6
ENDBRANCH   1   2
BRANCH   1  23
ATOM     23  C   UNL A   1      34.003  31.511  27.943  1.00  0.00     0.023 C 
BRANCH  23  24
ATOM     24  C   UNL A   1      35.519  31.723  27.995  1.00  0.00     0.023 C 
BRANCH  24  25
ATOM     25  C   UNL A   1      36.052  32.264  29.318  1.00  0.00     0.116 C 
BRANCH  25  26
ATOM     26  N   UNL A   1      35.781  31.387  30.446  1.00  0.00    -0.352 N 
ATOM     27  C   UNL A   1      36.578  30.398  30.972  1.00  0.00     0.251 C 
ATOM     28  H   UNL A   1      34.914  31.520  30.893  1.00  0.00     0.163 HD
ATOM     29  O   UNL A   1      36.151  29.666  31.857  1.00  0.00    -0.269 OA
BRANCH  27  30
ATOM     30  C   UNL A   1      37.938  30.201  30.427  1.00  0.00     0.039 A 
ATOM     31  C   UNL A   1      39.030  30.304  31.291  1.00  0.00     0.014 A 
ATOM     32  C   UNL A   1      38.128  29.883  29.080  1.00  0.00     0.014 A 
ATOM     33  C   UNL A   1      40.312  30.018  30.817  1.00  0.00     0.010 A 
ATOM     34  C   UNL A   1      39.396  29.536  28.626  1.00  0.00     0.010 A 
ATOM     35  C   UNL A   1      40.500  29.597  29.490  1.00  0.00    -0.014 A 
BRANCH  35  36
ATOM     36  C   UNL A   1      41.840  29.197  28.992  1.00  0.00     0.031 A 
ATOM     37  C   UNL A   1      42.924  30.226  28.831  1.00  0.00     0.074 A 
ATOM     38  C   UNL A   1      42.052  27.924  28.605  1.00  0.00     0.049 A 
ATOM     39  N   UNL A   1      44.134  30.080  28.352  1.00  0.00    -0.248 NA
ATOM     40  C   UNL A   1      42.598  31.604  29.232  1.00  0.00     0.031 C 
ATOM     41  C   UNL A   1      41.059  26.848  28.653  1.00  0.00     0.029 A 
ATOM     42  N   UNL A   1      43.167  27.324  28.077  1.00  0.00    -0.354 N 
ATOM     43  C   UNL A   1      44.702  31.347  28.370  1.00  0.00     0.074 A 
ATOM     44  C   UNL A   1      43.692  32.257  28.867  1.00  0.00     0.031 C 
ATOM     45  C   UNL A   1      41.614  25.717  28.188  1.00  0.00     0.029 A 
ATOM     46  C   UNL A   1      42.987  25.994  27.777  1.00  0.00     0.049 A 
ATOM     47  H   UNL A   1      44.015  27.800  27.927  1.00  0.00     0.167 HD
ATOM     48  C   UNL A   1      45.957  31.720  28.019  1.00  0.00     0.031 A 
ATOM     49  C   UNL A   1      43.830  25.097  27.227  1.00  0.00     0.031 A 
ATOM     50  C   UNL A   1      46.962  30.809  27.540  1.00  0.00     0.049 A 
ATOM     51  C   UNL A   1      45.226  25.524  26.873  1.00  0.00     0.074 A 
ATOM     52  C   UNL A   1      48.286  31.073  27.233  1.00  0.00     0.029 A 
ATOM     53  N   UNL A   1      46.755  29.461  27.292  1.00  0.00    -0.354 N 
ATOM     54  N   UNL A   1      45.776  26.711  26.982  1.00  0.00    -0.248 NA
ATOM     55  C   UNL A   1      46.121  24.490  26.336  1.00  0.00     0.031 C 
ATOM     56  C   UNL A   1      48.866  29.893  26.754  1.00  0.00     0.029 A 
ATOM     57  C   UNL A   1      47.918  28.883  26.812  1.00  0.00     0.049 A 
ATOM     58  H   UNL A   1      45.906  28.984  27.435  1.00  0.00     0.167 HD
ATOM     59  C   UNL A   1      47.087  26.561  26.546  1.00  0.00     0.074 A 
ATOM     60  C   UNL A   1      47.251  25.167  26.186  1.00  0.00     0.031 C 
ATOM     61  C   UNL A   1      48.066  27.495  26.453  1.00  0.00     0.031 A 
BRANCH  48  62
ATOM     62  C   UNL A   1      46.301  33.181  28.130  1.00  0.00    -0.014 A 
ATOM     63  C   UNL A   1      46.159  34.050  27.033  1.00  0.00     0.010 A 
ATOM     64  C   UNL A   1      46.762  33.698  29.355  1.00  0.00     0.010 A 
ATOM     65  C   UNL A   1      46.524  35.394  27.141  1.00  0.00     0.020 A 
ATOM     66  C   UNL A   1      47.101  35.048  29.476  1.00  0.00     0.020 A 
ATOM     67  C   UNL A   1      47.000  35.883  28.361  1.00  0.00     0.054 A 
BRANCH  67  68
ATOM     68  S   UNL A   1      47.469  37.631  28.475  1.00  0.00     0.124 S 
ATOM     69  O   UNL A   1      48.862  37.541  28.907  1.00  0.00    -0.237 OA
ATOM     70  O   UNL A   1      47.266  38.109  27.109  1.00  0.00    -0.237 OA
ATOM     71  O   UNL A   1      46.545  38.175  29.466  1.00  0.00    -0.744 OA
ENDBRANCH  67  68
ENDBRANCH  48  62
BRANCH  49  72
ATOM     72  C   UNL A   1      43.368  23.702  26.997  1.00  0.00    -0.014 A 
ATOM     73  C   UNL A   1      43.260  22.800  28.069  1.00  0.00     0.010 A 
ATOM     74  C   UNL A   1      42.993  23.281  25.708  1.00  0.00     0.010 A 
ATOM     75  C   UNL A   1      42.791  21.501  27.856  1.00  0.00     0.020 A 
ATOM     76  C   UNL A   1      42.501  21.991  25.496  1.00  0.00     0.020 A 
ATOM     77  C   UNL A   1      42.409  21.105  26.571  1.00  0.00     0.054 A 
BRANCH  77  78
ATOM     78  S   UNL A   1      41.731  19.439  26.331  1.00  0.00     0.124 S 
ATOM     79  O   UNL A   1      42.420  19.002  25.121  1.00  0.00    -0.237 OA
ATOM     80  O   UNL A   1      42.120  18.759  27.564  1.00  0.00    -0.237 OA
ATOM     81  O   UNL A   1      40.295  19.674  26.186  1.00  0.00    -0.744 OA
ENDBRANCH  77  78
ENDBRANCH  49  72
BRANCH  61  82
ATOM     82  C   UNL A   1      49.414  27.038  25.963  1.00  0.00    -0.014 A 
ATOM     83  C   UNL A   1      49.806  27.231  24.628  1.00  0.00     0.010 A 
ATOM     84  C   UNL A   1      50.322  26.463  26.870  1.00  0.00     0.010 A 
ATOM     85  C   UNL A   1      51.075  26.830  24.200  1.00  0.00     0.020 A 
ATOM     86  C   UNL A   1      51.600  26.085  26.453  1.00  0.00     0.020 A 
ATOM     87  C   UNL A   1      51.964  26.259  25.117  1.00  0.00     0.054 A 
BRANCH  87  88
ATOM     88  S   UNL A   1      53.623  25.791  24.550  1.00  0.00     0.124 S 
ATOM     89  O   UNL A   1      54.460  26.800  25.195  1.00  0.00    -0.237 OA
ATOM     90  O   UNL A   1      53.767  24.431  25.064  1.00  0.00    -0.237 OA
ATOM     91  O   UNL A   1      53.533  25.894  23.095  1.00  0.00    -0.744 OA
ENDBRANCH  87  88
ENDBRANCH  61  82
ENDBRANCH  35  36
ENDBRANCH  27  30
ENDBRANCH  25  26
ENDBRANCH  24  25
ENDBRANCH  23  24
ENDBRANCH   1  23
TORSDOF 20
ENDMDL
MODEL 2
REMARK VINA RESULT:     -10.4      3.162      9.070
REMARK SMILES CCOC(=O)[C@@H](C)Oc1ccc(Br)cc1/C=C/C(=O)NCCCCNC(=O)c1ccc(-c2c3nc(c(-c4ccc(S(=O)(=O)[O-])cc4)c4ccc([nH]4)c(-c4ccc(S(=O)(=O)[O-])cc4)c4nc(c(-c5ccc(S(=O)(=O)[O-])cc5)c5ccc2[nH]5)C=C4)C=C3)cc1
REMARK SMILES IDX 21 1 20 2 18 3 19 4 17 6 16 7 15 8 9 9 10 10 11 11 14 12
REMARK SMILES IDX 12 13 13 14 8 15 6 16 7 17 4 18 5 19 3 20 2 21 1 22 22 23
REMARK SMILES IDX 23 24 24 25 25 26 26 27 27 29 28 30 29 31 87 32 30 33 86 34
REMARK SMILES IDX 31 35 32 36 33 37 80 38 34 39 85 40 79 41 81 42 35 43 84 44
REMARK SMILES IDX 78 45 77 46 36 48 66 49 47 50 65 51 48 52 51 53 64 54 82 55
REMARK SMILES IDX 49 56 50 57 63 59 83 60 52 61 37 62 38 63 46 64 39 65 45 66
REMARK SMILES IDX 40 67 41 68 42 69 43 70 44 71 67 72 68 73 76 74 69 75 75 76
REMARK SMILES IDX 70 77 71 78 72 79 73 80 74 81 53 82 54 83 62 84 55 85 61 86
REMARK SMILES IDX 56 87 57 88 58 89 59 90 60 91
REMARK H PARENT 20 5 25 28 81 47 51 58
REMARK Flexibility Score: inf
ROOT
ATOM      1  C   UNL A   1      34.157  22.279  27.677  1.00  0.00     0.116 C 
ENDROOT
BRANCH   1   2
ATOM      2  N   UNL A   1      32.712  22.189  27.584  1.00  0.00    -0.353 N 
ATOM      3  C   UNL A   1      31.798  23.125  27.219  1.00  0.00     0.244 C 
ATOM      4  O   UNL A   1      30.610  22.828  27.127  1.00  0.00    -0.270 OA
ATOM      5  H   UNL A   1      32.335  21.310  27.822  1.00  0.00     0.163 HD
BRANCH   3   6
ATOM      6  C   UNL A   1      32.231  24.483  26.828  1.00  0.00     0.072 C 
ATOM      7  C   UNL A   1      32.679  24.828  25.611  1.00  0.00     0.017 C 
BRANCH   7   8
ATOM      8  C   UNL A   1      33.066  26.211  25.296  1.00  0.00     0.018 A 
ATOM      9  C   UNL A   1      33.738  26.528  24.100  1.00  0.00     0.127 A 
ATOM     10  C   UNL A   1      33.950  27.868  23.765  1.00  0.00     0.048 A 
ATOM     11  C   UNL A   1      33.624  28.885  24.663  1.00  0.00     0.019 A 
ATOM     12  C   UNL A   1      32.747  27.239  26.198  1.00  0.00     0.027 A 
ATOM     13  C   UNL A   1      33.039  28.564  25.883  1.00  0.00     0.018 A 
ATOM     14  Br  UNL A   1      32.596  29.940  27.101  1.00  0.00    -0.051 Br
BRANCH   9  15
ATOM     15  O   UNL A   1      34.052  25.520  23.223  1.00  0.00    -0.478 OA
BRANCH  15  16
ATOM     16  C   UNL A   1      32.974  24.991  22.436  1.00  0.00     0.279 C 
ATOM     17  C   UNL A   1      33.164  23.508  22.111  1.00  0.00     0.066 C 
BRANCH  16  18
ATOM     18  C   UNL A   1      32.503  25.830  21.235  1.00  0.00     0.347 C 
ATOM     19  O   UNL A   1      33.220  26.117  20.284  1.00  0.00    -0.248 OA
BRANCH  18  20
ATOM     20  O   UNL A   1      31.168  26.109  21.304  1.00  0.00    -0.463 OA
BRANCH  20  21
ATOM     21  C   UNL A   1      30.707  26.703  22.529  1.00  0.00     0.229 C 
ATOM     22  C   UNL A   1      30.671  28.210  22.399  1.00  0.00     0.049 C 
ENDBRANCH  20  21
ENDBRANCH  18  20
ENDBRANCH  16  18
ENDBRANCH  15  16
ENDBRANCH   9  15
ENDBRANCH   7   8
ENDBRANCH   3   6
ENDBRANCH   1   2
BRANCH   1  23
ATOM     23  C   UNL A   1      34.783  22.418  26.289  1.00  0.00     0.023 C 
BRANCH  23  24
ATOM     24  C   UNL A   1      35.857  23.505  26.191  1.00  0.00     0.023 C 
BRANCH  24  25
ATOM     25  C   UNL A   1      36.980  23.219  25.198  1.00  0.00     0.116 C 
BRANCH  25  26
ATOM     26  N   UNL A   1      37.891  22.178  25.647  1.00  0.00    -0.352 N 
ATOM     27  C   UNL A   1      39.082  22.315  26.320  1.00  0.00     0.251 C 
ATOM     28  H   UNL A   1      37.618  21.254  25.445  1.00  0.00     0.163 HD
ATOM     29  O   UNL A   1      39.791  21.337  26.524  1.00  0.00    -0.269 OA
BRANCH  27  30
ATOM     30  C   UNL A   1      39.514  23.659  26.754  1.00  0.00     0.039 A 
ATOM     31  C   UNL A   1      39.751  23.884  28.112  1.00  0.00     0.014 A 
ATOM     32  C   UNL A   1      39.718  24.679  25.821  1.00  0.00     0.014 A 
ATOM     33  C   UNL A   1      40.261  25.116  28.527  1.00  0.00     0.010 A 
ATOM     34  C   UNL A   1      40.286  25.882  26.228  1.00  0.00     0.010 A 
ATOM     35  C   UNL A   1      40.567  26.112  27.584  1.00  0.00    -0.014 A 
BRANCH  35  36
ATOM     36  C   UNL A   1      41.197  27.392  27.993  1.00  0.00     0.031 A 
ATOM     37  C   UNL A   1      42.689  27.556  27.925  1.00  0.00     0.074 A 
ATOM     38  C   UNL A   1      40.430  28.375  28.505  1.00  0.00     0.049 A 
ATOM     39  N   UNL A   1      43.424  28.572  28.298  1.00  0.00    -0.248 NA
ATOM     40  C   UNL A   1      43.460  26.418  27.399  1.00  0.00     0.031 C 
ATOM     41  C   UNL A   1      38.977  28.311  28.681  1.00  0.00     0.029 A 
ATOM     42  N   UNL A   1      40.769  29.613  28.989  1.00  0.00    -0.354 N 
ATOM     43  C   UNL A   1      44.741  28.189  28.076  1.00  0.00     0.074 A 
ATOM     44  C   UNL A   1      44.706  26.831  27.576  1.00  0.00     0.031 C 
ATOM     45  C   UNL A   1      38.549  29.464  29.219  1.00  0.00     0.029 A 
ATOM     46  C   UNL A   1      39.697  30.333  29.459  1.00  0.00     0.049 A 
ATOM     47  H   UNL A   1      41.693  29.953  28.999  1.00  0.00     0.167 HD
ATOM     48  C   UNL A   1      45.875  28.906  28.258  1.00  0.00     0.031 A 
ATOM     49  C   UNL A   1      39.642  31.555  30.027  1.00  0.00     0.031 A 
ATOM     50  C   UNL A   1      45.904  30.261  28.740  1.00  0.00     0.049 A 
ATOM     51  C   UNL A   1      40.909  32.345  30.191  1.00  0.00     0.074 A 
ATOM     52  C   UNL A   1      46.994  31.101  28.884  1.00  0.00     0.029 A 
ATOM     53  N   UNL A   1      44.791  30.972  29.165  1.00  0.00    -0.354 N 
ATOM     54  N   UNL A   1      42.139  31.999  29.890  1.00  0.00    -0.248 NA
ATOM     55  C   UNL A   1      40.781  33.695  30.756  1.00  0.00     0.031 C 
ATOM     56  C   UNL A   1      46.547  32.305  29.440  1.00  0.00     0.029 A 
ATOM     57  C   UNL A   1      45.171  32.233  29.593  1.00  0.00     0.049 A 
ATOM     58  H   UNL A   1      43.868  30.632  29.161  1.00  0.00     0.167 HD
ATOM     59  C   UNL A   1      42.929  33.096  30.211  1.00  0.00     0.074 A 
ATOM     60  C   UNL A   1      42.037  34.121  30.715  1.00  0.00     0.031 C 
ATOM     61  C   UNL A   1      44.273  33.241  30.098  1.00  0.00     0.031 A 
BRANCH  48  62
ATOM     62  C   UNL A   1      47.181  28.225  27.942  1.00  0.00    -0.014 A 
ATOM     63  C   UNL A   1      47.734  28.272  26.649  1.00  0.00     0.010 A 
ATOM     64  C   UNL A   1      47.874  27.540  28.957  1.00  0.00     0.010 A 
ATOM     65  C   UNL A   1      48.925  27.599  26.363  1.00  0.00     0.020 A 
ATOM     66  C   UNL A   1      49.080  26.890  28.681  1.00  0.00     0.020 A 
ATOM     67  C   UNL A   1      49.586  26.905  27.380  1.00  0.00     0.054 A 
BRANCH  67  68
ATOM     68  S   UNL A   1      51.128  26.038  26.982  1.00  0.00     0.124 S 
ATOM     69  O   UNL A   1      50.785  24.654  27.299  1.00  0.00    -0.237 OA
ATOM     70  O   UNL A   1      51.305  26.331  25.562  1.00  0.00    -0.237 OA
ATOM     71  O   UNL A   1      52.112  26.654  27.869  1.00  0.00    -0.744 OA
ENDBRANCH  67  68
ENDBRANCH  48  62
BRANCH  49  72
ATOM     72  C   UNL A   1      38.329  32.102  30.463  1.00  0.00    -0.014 A 
ATOM     73  C   UNL A   1      37.880  31.915  31.781  1.00  0.00     0.010 A 
ATOM     74  C   UNL A   1      37.540  32.852  29.571  1.00  0.00     0.010 A 
ATOM     75  C   UNL A   1      36.664  32.462  32.199  1.00  0.00     0.020 A 
ATOM     76  C   UNL A   1      36.335  33.420  29.992  1.00  0.00     0.020 A 
ATOM     77  C   UNL A   1      35.901  33.216  31.303  1.00  0.00     0.054 A 
BRANCH  77  78
ATOM     78  S   UNL A   1      34.362  33.981  31.888  1.00  0.00     0.124 S 
ATOM     79  O   UNL A   1      33.685  34.298  30.635  1.00  0.00    -0.237 OA
ATOM     80  O   UNL A   1      33.761  32.913  32.682  1.00  0.00    -0.237 OA
ATOM     81  O   UNL A   1      34.827  35.133  32.659  1.00  0.00    -0.744 OA
ENDBRANCH  77  78
ENDBRANCH  49  72
BRANCH  61  82
ATOM     82  C   UNL A   1      44.862  34.564  30.504  1.00  0.00    -0.014 A 
ATOM     83  C   UNL A   1      45.339  34.778  31.809  1.00  0.00     0.010 A 
ATOM     84  C   UNL A   1      44.996  35.587  29.547  1.00  0.00     0.010 A 
ATOM     85  C   UNL A   1      45.914  36.003  32.158  1.00  0.00     0.020 A 
ATOM     86  C   UNL A   1      45.594  36.803  29.885  1.00  0.00     0.020 A 
ATOM     87  C   UNL A   1      46.038  37.008  31.193  1.00  0.00     0.054 A 
BRANCH  87  88
ATOM     88  S   UNL A   1      46.833  38.572  31.656  1.00  0.00     0.124 S 
ATOM     89  O   UNL A   1      46.468  38.693  33.065  1.00  0.00    -0.237 OA
ATOM     90  O   UNL A   1      48.245  38.306  31.392  1.00  0.00    -0.237 OA
ATOM     91  O   UNL A   1      46.213  39.552  30.766  1.00  0.00    -0.744 OA
ENDBRANCH  87  88
ENDBRANCH  61  82
ENDBRANCH  35  36
ENDBRANCH  27  30
ENDBRANCH  25  26
ENDBRANCH  24  25
ENDBRANCH  23  24
ENDBRANCH   1  23
TORSDOF 20
ENDMDL
MODEL 3
REMARK VINA RESULT:     -10.1      4.091      9.199
REMARK SMILES CCOC(=O)[C@@H](C)Oc1ccc(Br)cc1/C=C/C(=O)NCCCCNC(=O)c1ccc(-c2c3nc(c(-c4ccc(S(=O)(=O)[O-])cc4)c4ccc([nH]4)c(-c4ccc(S(=O)(=O)[O-])cc4)c4nc(c(-c5ccc(S(=O)(=O)[O-])cc5)c5ccc2[nH]5)C=C4)C=C3)cc1
REMARK SMILES IDX 21 1 20 2 18 3 19 4 17 6 16 7 15 8 9 9 10 10 11 11 14 12
REMARK SMILES IDX 12 13 13 14 8 15 6 16 7 17 4 18 5 19 3 20 2 21 1 22 22 23
REMARK SMILES IDX 23 24 24 25 25 26 26 27 27 29 28 30 29 31 87 32 30 33 86 34
REMARK SMILES IDX 31 35 32 36 33 37 80 38 34 39 85 40 79 41 81 42 35 43 84 44
REMARK SMILES IDX 78 45 77 46 36 48 66 49 47 50 65 51 48 52 51 53 64 54 82 55
REMARK SMILES IDX 49 56 50 57 63 59 83 60 52 61 37 62 38 63 46 64 39 65 45 66
REMARK SMILES IDX 40 67 41 68 42 69 43 70 44 71 67 72 68 73 76 74 69 75 75 76
REMARK SMILES IDX 70 77 71 78 72 79 73 80 74 81 53 82 54 83 62 84 55 85 61 86
REMARK SMILES IDX 56 87 57 88 58 89 59 90 60 91
REMARK H PARENT 20 5 25 28 81 47 51 58
REMARK Flexibility Score: inf
ROOT
ATOM      1  C   UNL A   1      34.077  22.671  26.829  1.00  0.00     0.116 C 
ENDROOT
BRANCH   1   2
ATOM      2  N   UNL A   1      32.634  22.517  26.827  1.00  0.00    -0.353 N 
ATOM      3  C   UNL A   1      31.657  23.421  26.557  1.00  0.00     0.244 C 
ATOM      4  O   UNL A   1      30.480  23.072  26.532  1.00  0.00    -0.270 OA
ATOM      5  H   UNL A   1      32.313  21.614  27.056  1.00  0.00     0.163 HD
BRANCH   3   6
ATOM      6  C   UNL A   1      32.002  24.810  26.190  1.00  0.00     0.072 C 
ATOM      7  C   UNL A   1      31.478  25.909  26.756  1.00  0.00     0.017 C 
BRANCH   7   8
ATOM      8  C   UNL A   1      31.895  27.258  26.349  1.00  0.00     0.018 A 
ATOM      9  C   UNL A   1      31.294  27.911  25.257  1.00  0.00     0.127 A 
ATOM     10  C   UNL A   1      31.607  29.248  24.997  1.00  0.00     0.048 A 
ATOM     11  C   UNL A   1      32.606  29.898  25.724  1.00  0.00     0.019 A 
ATOM     12  C   UNL A   1      32.904  27.916  27.071  1.00  0.00     0.027 A 
ATOM     13  C   UNL A   1      33.261  29.223  26.747  1.00  0.00     0.018 A 
ATOM     14  Br  UNL A   1      34.614  30.100  27.734  1.00  0.00    -0.051 Br
BRANCH   9  15
ATOM     15  O   UNL A   1      30.312  27.264  24.550  1.00  0.00    -0.478 OA
BRANCH  15  16
ATOM     16  C   UNL A   1      29.616  28.036  23.558  1.00  0.00     0.279 C 
ATOM     17  C   UNL A   1      28.137  27.657  23.457  1.00  0.00     0.066 C 
BRANCH  16  18
ATOM     18  C   UNL A   1      30.304  28.208  22.192  1.00  0.00     0.347 C 
ATOM     19  O   UNL A   1      30.343  29.269  21.581  1.00  0.00    -0.248 OA
BRANCH  18  20
ATOM     20  O   UNL A   1      30.962  27.074  21.810  1.00  0.00    -0.463 OA
BRANCH  20  21
ATOM     21  C   UNL A   1      32.388  27.079  21.989  1.00  0.00     0.229 C 
ATOM     22  C   UNL A   1      32.902  25.664  22.138  1.00  0.00     0.049 C 
ENDBRANCH  20  21
ENDBRANCH  18  20
ENDBRANCH  16  18
ENDBRANCH  15  16
ENDBRANCH   9  15
ENDBRANCH   7   8
ENDBRANCH   3   6
ENDBRANCH   1   2
BRANCH   1  23
ATOM     23  C   UNL A   1      34.523  23.618  25.715  1.00  0.00     0.023 C 
BRANCH  23  24
ATOM     24  C   UNL A   1      35.907  24.238  25.935  1.00  0.00     0.023 C 
BRANCH  24  25
ATOM     25  C   UNL A   1      36.959  23.859  24.896  1.00  0.00     0.116 C 
BRANCH  25  26
ATOM     26  N   UNL A   1      37.822  22.770  25.327  1.00  0.00    -0.352 N 
ATOM     27  C   UNL A   1      38.921  22.825  26.150  1.00  0.00     0.251 C 
ATOM     28  H   UNL A   1      37.588  21.877  24.985  1.00  0.00     0.163 HD
ATOM     29  O   UNL A   1      39.614  21.829  26.322  1.00  0.00    -0.269 OA
BRANCH  27  30
ATOM     30  C   UNL A   1      39.281  24.108  26.790  1.00  0.00     0.039 A 
ATOM     31  C   UNL A   1      38.830  24.364  28.086  1.00  0.00     0.014 A 
ATOM     32  C   UNL A   1      40.089  25.034  26.125  1.00  0.00     0.014 A 
ATOM     33  C   UNL A   1      39.246  25.523  28.744  1.00  0.00     0.010 A 
ATOM     34  C   UNL A   1      40.555  26.155  26.804  1.00  0.00     0.010 A 
ATOM     35  C   UNL A   1      40.142  26.409  28.121  1.00  0.00    -0.014 A 
BRANCH  35  36
ATOM     36  C   UNL A   1      40.671  27.597  28.837  1.00  0.00     0.031 A 
ATOM     37  C   UNL A   1      39.802  28.806  29.041  1.00  0.00     0.074 A 
ATOM     38  C   UNL A   1      41.961  27.616  29.226  1.00  0.00     0.049 A 
ATOM     39  N   UNL A   1      40.107  29.957  29.583  1.00  0.00    -0.248 NA
ATOM     40  C   UNL A   1      38.420  28.723  28.544  1.00  0.00     0.031 C 
ATOM     41  C   UNL A   1      42.922  26.528  29.029  1.00  0.00     0.029 A 
ATOM     42  N   UNL A   1      42.691  28.593  29.854  1.00  0.00    -0.354 N 
ATOM     43  C   UNL A   1      38.967  30.742  29.470  1.00  0.00     0.074 A 
ATOM     44  C   UNL A   1      37.977  29.951  28.770  1.00  0.00     0.031 C 
ATOM     45  C   UNL A   1      44.110  26.893  29.538  1.00  0.00     0.029 A 
ATOM     46  C   UNL A   1      44.005  28.250  30.066  1.00  0.00     0.049 A 
ATOM     47  H   UNL A   1      42.310  29.459  30.127  1.00  0.00     0.167 HD
ATOM     48  C   UNL A   1      38.756  32.002  29.921  1.00  0.00     0.031 A 
ATOM     49  C   UNL A   1      45.017  28.950  30.616  1.00  0.00     0.031 A 
ATOM     50  C   UNL A   1      39.737  32.779  30.630  1.00  0.00     0.049 A 
ATOM     51  C   UNL A   1      44.753  30.335  31.137  1.00  0.00     0.074 A 
ATOM     52  C   UNL A   1      39.596  34.034  31.197  1.00  0.00     0.029 A 
ATOM     53  N   UNL A   1      41.044  32.379  30.864  1.00  0.00    -0.354 N 
ATOM     54  N   UNL A   1      43.639  31.028  31.101  1.00  0.00    -0.248 NA
ATOM     55  C   UNL A   1      45.876  31.025  31.785  1.00  0.00     0.031 C 
ATOM     56  C   UNL A   1      40.832  34.412  31.733  1.00  0.00     0.029 A 
ATOM     57  C   UNL A   1      41.728  33.371  31.545  1.00  0.00     0.049 A 
ATOM     58  H   UNL A   1      41.429  31.516  30.586  1.00  0.00     0.167 HD
ATOM     59  C   UNL A   1      43.922  32.229  31.740  1.00  0.00     0.074 A 
ATOM     60  C   UNL A   1      45.307  32.162  32.164  1.00  0.00     0.031 C 
ATOM     61  C   UNL A   1      43.108  33.293  31.956  1.00  0.00     0.031 A 
BRANCH  48  62
ATOM     62  C   UNL A   1      37.410  32.619  29.644  1.00  0.00    -0.014 A 
ATOM     63  C   UNL A   1      37.160  33.319  28.449  1.00  0.00     0.010 A 
ATOM     64  C   UNL A   1      36.374  32.487  30.588  1.00  0.00     0.010 A 
ATOM     65  C   UNL A   1      35.919  33.922  28.228  1.00  0.00     0.020 A 
ATOM     66  C   UNL A   1      35.123  33.065  30.358  1.00  0.00     0.020 A 
ATOM     67  C   UNL A   1      34.911  33.797  29.188  1.00  0.00     0.054 A 
BRANCH  67  68
ATOM     68  S   UNL A   1      33.310  34.591  28.878  1.00  0.00     0.124 S 
ATOM     69  O   UNL A   1      32.686  33.655  27.947  1.00  0.00    -0.237 OA
ATOM     70  O   UNL A   1      32.713  34.643  30.210  1.00  0.00    -0.237 OA
ATOM     71  O   UNL A   1      33.670  35.888  28.309  1.00  0.00    -0.744 OA
ENDBRANCH  67  68
ENDBRANCH  48  62
BRANCH  49  72
ATOM     72  C   UNL A   1      46.368  28.333  30.713  1.00  0.00    -0.014 A 
ATOM     73  C   UNL A   1      46.712  27.540  31.820  1.00  0.00     0.010 A 
ATOM     74  C   UNL A   1      47.302  28.504  29.675  1.00  0.00     0.010 A 
ATOM     75  C   UNL A   1      47.969  26.932  31.892  1.00  0.00     0.020 A 
ATOM     76  C   UNL A   1      48.550  27.879  29.732  1.00  0.00     0.020 A 
ATOM     77  C   UNL A   1      48.879  27.101  30.844  1.00  0.00     0.054 A 
BRANCH  77  78
ATOM     78  S   UNL A   1      50.475  26.241  30.921  1.00  0.00     0.124 S 
ATOM     79  O   UNL A   1      50.099  24.871  30.586  1.00  0.00    -0.237 OA
ATOM     80  O   UNL A   1      51.263  26.946  29.913  1.00  0.00    -0.237 OA
ATOM     81  O   UNL A   1      50.909  26.454  32.301  1.00  0.00    -0.744 OA
ENDBRANCH  77  78
ENDBRANCH  49  72
BRANCH  61  82
ATOM     82  C   UNL A   1      43.683  34.464  32.705  1.00  0.00    -0.014 A 
ATOM     83  C   UNL A   1      44.338  35.508  32.029  1.00  0.00     0.010 A 
ATOM     84  C   UNL A   1      43.511  34.548  34.098  1.00  0.00     0.010 A 
ATOM     85  C   UNL A   1      44.837  36.604  32.739  1.00  0.00     0.020 A 
ATOM     86  C   UNL A   1      43.985  35.654  34.807  1.00  0.00     0.020 A 
ATOM     87  C   UNL A   1      44.656  36.670  34.124  1.00  0.00     0.054 A 
BRANCH  87  88
ATOM     88  S   UNL A   1      45.268  38.126  35.018  1.00  0.00     0.124 S 
ATOM     89  O   UNL A   1      45.265  39.147  33.973  1.00  0.00    -0.237 OA
ATOM     90  O   UNL A   1      44.270  38.300  36.071  1.00  0.00    -0.237 OA
ATOM     91  O   UNL A   1      46.591  37.715  35.484  1.00  0.00    -0.744 OA
ENDBRANCH  87  88
ENDBRANCH  61  82
ENDBRANCH  35  36
ENDBRANCH  27  30
ENDBRANCH  25  26
ENDBRANCH  24  25
ENDBRANCH  23  24
ENDBRANCH   1  23
TORSDOF 20
ENDMDL
