MODEL 1
REMARK VINA RESULT:     -12.5      0.000      0.000
REMARK SMILES CCOc1ccc(CNC(=O)Cc2c(C(=O)NCCCCNC(=O)c3ccc(-c4c5nc(c(-c6ccc(S(=O)(=O)[O-])cc6)c6ccc([nH]6)c(-c6ccc(S(=O)(=O)[O-])cc6)c6nc(c(-c7ccc(S(=O)(=O)[O-])cc7)c7ccc4[nH]7)C=C6)C=C5)cc3)c(C)cn2C)cc1
REMARK SMILES IDX 18 1 17 2 15 3 16 4 14 6 13 7 88 8 85 9 87 10 89 11 86 12
REMARK SMILES IDX 12 13 10 14 9 15 11 17 8 18 7 19 4 20 5 21 91 22 6 23 90 24
REMARK SMILES IDX 3 25 2 26 1 27 19 28 20 29 21 30 22 31 23 32 24 34 25 35
REMARK SMILES IDX 26 36 84 37 27 38 83 39 28 40 29 41 30 42 77 43 31 44 82 45
REMARK SMILES IDX 76 46 78 47 32 48 81 49 75 50 74 51 33 53 63 54 44 55 62 56
REMARK SMILES IDX 45 57 48 58 61 59 79 60 46 61 47 62 60 64 80 65 49 66 34 67
REMARK SMILES IDX 35 68 43 69 36 70 42 71 37 72 38 73 39 74 40 75 41 76 64 77
REMARK SMILES IDX 65 78 73 79 66 80 72 81 67 82 68 83 69 84 70 85 71 86 50 87
REMARK SMILES IDX 51 88 59 89 52 90 58 91 53 92 54 93 55 94 56 95 57 96
REMARK H PARENT 17 5 9 16 22 33 78 52 48 63
REMARK Flexibility Score: inf
ROOT
ATOM      1  C   UNL A   1      34.554  24.242  25.598  1.00  0.00     0.116 C 
ENDROOT
BRANCH   1   2
ATOM      2  N   UNL A   1      33.263  24.206  26.223  1.00  0.00    -0.352 N 
ATOM      3  C   UNL A   1      32.178  25.031  26.288  1.00  0.00     0.253 C 
ATOM      4  O   UNL A   1      31.260  24.508  26.933  1.00  0.00    -0.269 OA
ATOM      5  H   UNL A   1      33.124  23.376  26.735  1.00  0.00     0.163 HD
BRANCH   3   6
ATOM      6  C   UNL A   1      32.032  26.399  25.714  1.00  0.00     0.064 A 
ATOM      7  C   UNL A   1      32.041  26.590  24.303  1.00  0.00     0.040 A 
ATOM      8  N   UNL A   1      31.976  27.941  24.038  1.00  0.00    -0.353 N 
ATOM      9  C   UNL A   1      31.806  27.731  26.257  1.00  0.00    -0.020 A 
ATOM     10  C   UNL A   1      31.845  28.623  25.203  1.00  0.00     0.089 A 
ATOM     11  C   UNL A   1      31.911  28.584  22.741  1.00  0.00     0.149 C 
ATOM     12  C   UNL A   1      31.543  28.248  27.626  1.00  0.00     0.047 C 
BRANCH   7  13
ATOM     13  C   UNL A   1      32.120  25.589  23.163  1.00  0.00     0.154 C 
BRANCH  13  14
ATOM     14  C   UNL A   1      31.010  24.544  23.209  1.00  0.00     0.226 C 
ATOM     15  N   UNL A   1      31.270  23.216  23.045  1.00  0.00    -0.352 N 
ATOM     16  H   UNL A   1      30.486  22.625  23.113  1.00  0.00     0.163 HD
ATOM     17  O   UNL A   1      29.834  24.875  23.393  1.00  0.00    -0.275 OA
BRANCH  15  18
ATOM     18  C   UNL A   1      32.526  22.548  22.784  1.00  0.00     0.151 C 
BRANCH  18  19
ATOM     19  C   UNL A   1      32.585  21.182  23.429  1.00  0.00    -0.029 A 
ATOM     20  C   UNL A   1      32.622  18.645  24.655  1.00  0.00     0.119 A 
ATOM     21  C   UNL A   1      32.287  18.760  23.314  1.00  0.00     0.047 A 
ATOM     22  C   UNL A   1      32.968  19.784  25.379  1.00  0.00     0.047 A 
ATOM     23  C   UNL A   1      32.277  20.019  22.710  1.00  0.00     0.009 A 
ATOM     24  C   UNL A   1      32.926  21.047  24.778  1.00  0.00     0.009 A 
BRANCH  20  25
ATOM     25  O   UNL A   1      32.737  17.386  25.174  1.00  0.00    -0.494 OA
BRANCH  25  26
ATOM     26  C   UNL A   1      33.491  16.484  24.359  1.00  0.00     0.226 C 
ATOM     27  C   UNL A   1      34.637  15.850  25.130  1.00  0.00     0.049 C 
ENDBRANCH  25  26
ENDBRANCH  20  25
ENDBRANCH  18  19
ENDBRANCH  15  18
ENDBRANCH  13  14
ENDBRANCH   7  13
ENDBRANCH   3   6
ENDBRANCH   1   2
BRANCH   1  28
ATOM     28  C   UNL A   1      35.497  23.174  26.160  1.00  0.00     0.023 C 
BRANCH  28  29
ATOM     29  C   UNL A   1      36.337  22.432  25.107  1.00  0.00     0.023 C 
BRANCH  29  30
ATOM     30  C   UNL A   1      37.840  22.681  25.195  1.00  0.00     0.116 C 
BRANCH  30  31
ATOM     31  N   UNL A   1      38.526  21.756  26.096  1.00  0.00    -0.352 N 
ATOM     32  C   UNL A   1      39.672  21.999  26.838  1.00  0.00     0.251 C 
ATOM     33  H   UNL A   1      38.129  20.860  26.187  1.00  0.00     0.163 HD
ATOM     34  O   UNL A   1      40.386  21.087  27.214  1.00  0.00    -0.269 OA
BRANCH  32  35
ATOM     35  C   UNL A   1      39.984  23.398  27.184  1.00  0.00     0.039 A 
ATOM     36  C   UNL A   1      39.059  24.431  27.009  1.00  0.00     0.014 A 
ATOM     37  C   UNL A   1      41.233  23.642  27.748  1.00  0.00     0.014 A 
ATOM     38  C   UNL A   1      39.379  25.701  27.488  1.00  0.00     0.010 A 
ATOM     39  C   UNL A   1      41.483  24.846  28.352  1.00  0.00     0.010 A 
ATOM     40  C   UNL A   1      40.588  25.895  28.177  1.00  0.00    -0.014 A 
BRANCH  40  41
ATOM     41  C   UNL A   1      40.889  27.155  28.847  1.00  0.00     0.031 A 
ATOM     42  C   UNL A   1      42.002  27.923  28.226  1.00  0.00     0.074 A 
ATOM     43  C   UNL A   1      40.077  27.694  29.785  1.00  0.00     0.049 A 
ATOM     44  N   UNL A   1      43.185  28.111  28.703  1.00  0.00    -0.248 NA
ATOM     45  C   UNL A   1      41.842  28.397  26.839  1.00  0.00     0.031 C 
ATOM     46  C   UNL A   1      38.777  27.195  30.255  1.00  0.00     0.029 A 
ATOM     47  N   UNL A   1      40.181  28.884  30.434  1.00  0.00    -0.354 N 
ATOM     48  C   UNL A   1      43.834  28.945  27.799  1.00  0.00     0.074 A 
ATOM     49  C   UNL A   1      43.053  28.903  26.589  1.00  0.00     0.031 C 
ATOM     50  C   UNL A   1      38.115  28.184  30.896  1.00  0.00     0.029 A 
ATOM     51  C   UNL A   1      39.005  29.323  31.038  1.00  0.00     0.049 A 
ATOM     52  H   UNL A   1      41.021  29.396  30.473  1.00  0.00     0.167 HD
ATOM     53  C   UNL A   1      44.798  29.817  28.208  1.00  0.00     0.031 A 
ATOM     54  C   UNL A   1      38.770  30.544  31.586  1.00  0.00     0.031 A 
ATOM     55  C   UNL A   1      45.217  29.537  29.560  1.00  0.00     0.049 A 
ATOM     56  C   UNL A   1      40.096  31.143  31.876  1.00  0.00     0.074 A 
ATOM     57  C   UNL A   1      45.762  28.444  30.205  1.00  0.00     0.029 A 
ATOM     58  N   UNL A   1      44.686  30.337  30.547  1.00  0.00    -0.354 N 
ATOM     59  N   UNL A   1      40.922  30.648  32.754  1.00  0.00    -0.248 NA
ATOM     60  C   UNL A   1      40.700  31.986  30.857  1.00  0.00     0.031 C 
ATOM     61  C   UNL A   1      45.103  28.403  31.469  1.00  0.00     0.029 A 
ATOM     62  C   UNL A   1      44.272  29.521  31.567  1.00  0.00     0.049 A 
ATOM     63  H   UNL A   1      44.617  31.317  30.524  1.00  0.00     0.167 HD
ATOM     64  C   UNL A   1      42.167  30.724  32.146  1.00  0.00     0.074 A 
ATOM     65  C   UNL A   1      41.981  31.643  31.021  1.00  0.00     0.031 C 
ATOM     66  C   UNL A   1      43.149  29.817  32.433  1.00  0.00     0.031 A 
BRANCH  53  67
ATOM     67  C   UNL A   1      45.043  31.168  27.574  1.00  0.00    -0.014 A 
ATOM     68  C   UNL A   1      46.372  31.538  27.273  1.00  0.00     0.010 A 
ATOM     69  C   UNL A   1      44.072  32.187  27.524  1.00  0.00     0.010 A 
ATOM     70  C   UNL A   1      46.717  32.871  27.016  1.00  0.00     0.020 A 
ATOM     71  C   UNL A   1      44.398  33.513  27.225  1.00  0.00     0.020 A 
ATOM     72  C   UNL A   1      45.725  33.851  27.007  1.00  0.00     0.054 A 
BRANCH  72  73
ATOM     73  S   UNL A   1      46.194  35.581  26.762  1.00  0.00     0.124 S 
ATOM     74  O   UNL A   1      46.943  35.514  25.510  1.00  0.00    -0.237 OA
ATOM     75  O   UNL A   1      44.894  36.243  26.689  1.00  0.00    -0.237 OA
ATOM     76  O   UNL A   1      46.982  35.893  27.951  1.00  0.00    -0.744 OA
ENDBRANCH  72  73
ENDBRANCH  53  67
BRANCH  54  77
ATOM     77  C   UNL A   1      37.522  31.353  31.543  1.00  0.00    -0.014 A 
ATOM     78  C   UNL A   1      36.563  31.268  32.572  1.00  0.00     0.010 A 
ATOM     79  C   UNL A   1      37.417  32.438  30.647  1.00  0.00     0.010 A 
ATOM     80  C   UNL A   1      35.592  32.272  32.749  1.00  0.00     0.020 A 
ATOM     81  C   UNL A   1      36.450  33.439  30.814  1.00  0.00     0.020 A 
ATOM     82  C   UNL A   1      35.560  33.368  31.881  1.00  0.00     0.054 A 
BRANCH  82  83
ATOM     83  S   UNL A   1      34.451  34.765  32.238  1.00  0.00     0.124 S 
ATOM     84  O   UNL A   1      34.095  35.230  30.901  1.00  0.00    -0.237 OA
ATOM     85  O   UNL A   1      33.374  34.134  32.996  1.00  0.00    -0.237 OA
ATOM     86  O   UNL A   1      35.291  35.681  33.009  1.00  0.00    -0.744 OA
ENDBRANCH  82  83
ENDBRANCH  54  77
BRANCH  66  87
ATOM     87  C   UNL A   1      42.971  28.920  33.639  1.00  0.00    -0.014 A 
ATOM     88  C   UNL A   1      43.500  29.182  34.919  1.00  0.00     0.010 A 
ATOM     89  C   UNL A   1      42.120  27.812  33.484  1.00  0.00     0.010 A 
ATOM     90  C   UNL A   1      43.223  28.327  35.998  1.00  0.00     0.020 A 
ATOM     91  C   UNL A   1      41.823  26.971  34.557  1.00  0.00     0.020 A 
ATOM     92  C   UNL A   1      42.391  27.220  35.806  1.00  0.00     0.054 A 
BRANCH  92  93
ATOM     93  S   UNL A   1      42.039  26.104  37.193  1.00  0.00     0.124 S 
ATOM     94  O   UNL A   1      40.644  26.410  37.500  1.00  0.00    -0.237 OA
ATOM     95  O   UNL A   1      42.283  24.784  36.620  1.00  0.00    -0.237 OA
ATOM     96  O   UNL A   1      42.999  26.512  38.219  1.00  0.00    -0.744 OA
ENDBRANCH  92  93
ENDBRANCH  66  87
ENDBRANCH  40  41
ENDBRANCH  32  35
ENDBRANCH  30  31
ENDBRANCH  29  30
ENDBRANCH  28  29
ENDBRANCH   1  28
TORSDOF 20
ENDMDL
MODEL 2
REMARK VINA RESULT:     -12.2      2.949      9.759
REMARK SMILES CCOc1ccc(CNC(=O)Cc2c(C(=O)NCCCCNC(=O)c3ccc(-c4c5nc(c(-c6ccc(S(=O)(=O)[O-])cc6)c6ccc([nH]6)c(-c6ccc(S(=O)(=O)[O-])cc6)c6nc(c(-c7ccc(S(=O)(=O)[O-])cc7)c7ccc4[nH]7)C=C6)C=C5)cc3)c(C)cn2C)cc1
REMARK SMILES IDX 18 1 17 2 15 3 16 4 14 6 13 7 88 8 85 9 87 10 89 11 86 12
REMARK SMILES IDX 12 13 10 14 9 15 11 17 8 18 7 19 4 20 5 21 91 22 6 23 90 24
REMARK SMILES IDX 3 25 2 26 1 27 19 28 20 29 21 30 22 31 23 32 24 34 25 35
REMARK SMILES IDX 26 36 84 37 27 38 83 39 28 40 29 41 30 42 77 43 31 44 82 45
REMARK SMILES IDX 76 46 78 47 32 48 81 49 75 50 74 51 33 53 63 54 44 55 62 56
REMARK SMILES IDX 45 57 48 58 61 59 79 60 46 61 47 62 60 64 80 65 49 66 34 67
REMARK SMILES IDX 35 68 43 69 36 70 42 71 37 72 38 73 39 74 40 75 41 76 64 77
REMARK SMILES IDX 65 78 73 79 66 80 72 81 67 82 68 83 69 84 70 85 71 86 50 87
REMARK SMILES IDX 51 88 59 89 52 90 58 91 53 92 54 93 55 94 56 95 57 96
REMARK H PARENT 17 5 9 16 22 33 78 52 48 63
REMARK Flexibility Score: inf
ROOT
ATOM      1  C   UNL A   1      32.419  26.301  26.245  1.00  0.00     0.116 C 
ENDROOT
BRANCH   1   2
ATOM      2  N   UNL A   1      31.393  25.415  26.716  1.00  0.00    -0.352 N 
ATOM      3  C   UNL A   1      31.092  24.092  26.571  1.00  0.00     0.253 C 
ATOM      4  O   UNL A   1      30.097  23.787  27.242  1.00  0.00    -0.269 OA
ATOM      5  H   UNL A   1      30.740  25.879  27.289  1.00  0.00     0.163 HD
BRANCH   3   6
ATOM      6  C   UNL A   1      31.790  23.081  25.727  1.00  0.00     0.064 A 
ATOM      7  C   UNL A   1      31.496  22.980  24.337  1.00  0.00     0.040 A 
ATOM      8  N   UNL A   1      32.206  21.923  23.810  1.00  0.00    -0.353 N 
ATOM      9  C   UNL A   1      32.841  22.098  25.946  1.00  0.00    -0.020 A 
ATOM     10  C   UNL A   1      33.001  21.390  24.770  1.00  0.00     0.089 A 
ATOM     11  C   UNL A   1      32.247  21.490  22.427  1.00  0.00     0.149 C 
ATOM     12  C   UNL A   1      33.709  21.767  27.107  1.00  0.00     0.047 C 
BRANCH   7  13
ATOM     13  C   UNL A   1      30.576  23.803  23.452  1.00  0.00     0.154 C 
BRANCH  13  14
ATOM     14  C   UNL A   1      31.214  25.102  22.973  1.00  0.00     0.226 C 
ATOM     15  N   UNL A   1      30.609  26.309  23.162  1.00  0.00    -0.352 N 
ATOM     16  H   UNL A   1      31.115  27.087  22.834  1.00  0.00     0.163 HD
ATOM     17  O   UNL A   1      32.304  25.097  22.390  1.00  0.00    -0.275 OA
BRANCH  15  18
ATOM     18  C   UNL A   1      29.334  26.615  23.773  1.00  0.00     0.151 C 
BRANCH  18  19
ATOM     19  C   UNL A   1      28.925  28.052  23.539  1.00  0.00    -0.029 A 
ATOM     20  C   UNL A   1      28.180  30.721  23.028  1.00  0.00     0.119 A 
ATOM     21  C   UNL A   1      27.218  29.720  23.016  1.00  0.00     0.047 A 
ATOM     22  C   UNL A   1      29.503  30.402  23.324  1.00  0.00     0.047 A 
ATOM     23  C   UNL A   1      27.593  28.400  23.276  1.00  0.00     0.009 A 
ATOM     24  C   UNL A   1      29.879  29.074  23.553  1.00  0.00     0.009 A 
BRANCH  20  25
ATOM     25  O   UNL A   1      27.752  32.011  22.889  1.00  0.00    -0.494 OA
BRANCH  25  26
ATOM     26  C   UNL A   1      28.369  32.719  21.809  1.00  0.00     0.226 C 
ATOM     27  C   UNL A   1      28.051  32.086  20.465  1.00  0.00     0.049 C 
ENDBRANCH  25  26
ENDBRANCH  20  25
ENDBRANCH  18  19
ENDBRANCH  15  18
ENDBRANCH  13  14
ENDBRANCH   7  13
ENDBRANCH   3   6
ENDBRANCH   1   2
BRANCH   1  28
ATOM     28  C   UNL A   1      32.175  27.749  26.678  1.00  0.00     0.023 C 
BRANCH  28  29
ATOM     29  C   UNL A   1      32.970  28.803  25.890  1.00  0.00     0.023 C 
BRANCH  29  30
ATOM     30  C   UNL A   1      34.220  29.323  26.594  1.00  0.00     0.116 C 
BRANCH  30  31
ATOM     31  N   UNL A   1      34.144  30.744  26.932  1.00  0.00    -0.352 N 
ATOM     32  C   UNL A   1      34.831  31.408  27.936  1.00  0.00     0.251 C 
ATOM     33  H   UNL A   1      33.536  31.290  26.382  1.00  0.00     0.163 HD
ATOM     34  O   UNL A   1      34.412  32.451  28.405  1.00  0.00    -0.269 OA
BRANCH  32  35
ATOM     35  C   UNL A   1      36.104  30.825  28.401  1.00  0.00     0.039 A 
ATOM     36  C   UNL A   1      36.312  29.445  28.459  1.00  0.00     0.014 A 
ATOM     37  C   UNL A   1      37.118  31.719  28.732  1.00  0.00     0.014 A 
ATOM     38  C   UNL A   1      37.586  28.975  28.776  1.00  0.00     0.010 A 
ATOM     39  C   UNL A   1      38.400  31.262  28.892  1.00  0.00     0.010 A 
ATOM     40  C   UNL A   1      38.631  29.894  28.973  1.00  0.00    -0.014 A 
BRANCH  40  41
ATOM     41  C   UNL A   1      40.012  29.452  29.132  1.00  0.00     0.031 A 
ATOM     42  C   UNL A   1      40.434  29.277  30.548  1.00  0.00     0.074 A 
ATOM     43  C   UNL A   1      40.759  29.005  28.097  1.00  0.00     0.049 A 
ATOM     44  N   UNL A   1      41.253  30.015  31.218  1.00  0.00    -0.248 NA
ATOM     45  C   UNL A   1      39.742  28.267  31.370  1.00  0.00     0.031 C 
ATOM     46  C   UNL A   1      40.351  28.819  26.697  1.00  0.00     0.029 A 
ATOM     47  N   UNL A   1      42.018  28.493  28.101  1.00  0.00    -0.354 N 
ATOM     48  C   UNL A   1      41.380  29.411  32.465  1.00  0.00     0.074 A 
ATOM     49  C   UNL A   1      40.278  28.489  32.573  1.00  0.00     0.031 C 
ATOM     50  C   UNL A   1      41.235  28.013  26.069  1.00  0.00     0.029 A 
ATOM     51  C   UNL A   1      42.356  27.770  26.958  1.00  0.00     0.049 A 
ATOM     52  H   UNL A   1      42.642  28.622  28.851  1.00  0.00     0.167 HD
ATOM     53  C   UNL A   1      42.533  29.510  33.184  1.00  0.00     0.031 A 
ATOM     54  C   UNL A   1      43.461  27.001  26.772  1.00  0.00     0.031 A 
ATOM     55  C   UNL A   1      43.409  30.514  32.632  1.00  0.00     0.049 A 
ATOM     56  C   UNL A   1      44.466  27.450  27.768  1.00  0.00     0.074 A 
ATOM     57  C   UNL A   1      43.305  31.869  32.383  1.00  0.00     0.029 A 
ATOM     58  N   UNL A   1      44.448  30.062  31.850  1.00  0.00    -0.354 N 
ATOM     59  N   UNL A   1      45.002  28.638  27.751  1.00  0.00    -0.248 NA
ATOM     60  C   UNL A   1      44.506  26.766  29.050  1.00  0.00     0.031 C 
ATOM     61  C   UNL A   1      43.943  32.057  31.122  1.00  0.00     0.029 A 
ATOM     62  C   UNL A   1      44.486  30.835  30.718  1.00  0.00     0.049 A 
ATOM     63  H   UNL A   1      45.054  29.318  32.064  1.00  0.00     0.167 HD
ATOM     64  C   UNL A   1      45.019  29.033  29.081  1.00  0.00     0.074 A 
ATOM     65  C   UNL A   1      44.791  27.804  29.842  1.00  0.00     0.031 C 
ATOM     66  C   UNL A   1      44.927  30.353  29.425  1.00  0.00     0.031 A 
BRANCH  53  67
ATOM     67  C   UNL A   1      43.059  28.425  34.096  1.00  0.00    -0.014 A 
ATOM     68  C   UNL A   1      43.654  27.285  33.513  1.00  0.00     0.010 A 
ATOM     69  C   UNL A   1      42.743  28.347  35.467  1.00  0.00     0.010 A 
ATOM     70  C   UNL A   1      43.845  26.107  34.247  1.00  0.00     0.020 A 
ATOM     71  C   UNL A   1      42.971  27.192  36.220  1.00  0.00     0.020 A 
ATOM     72  C   UNL A   1      43.490  26.068  35.594  1.00  0.00     0.054 A 
BRANCH  72  73
ATOM     73  S   UNL A   1      43.659  24.516  36.508  1.00  0.00     0.124 S 
ATOM     74  O   UNL A   1      43.176  23.541  35.535  1.00  0.00    -0.237 OA
ATOM     75  O   UNL A   1      45.092  24.479  36.788  1.00  0.00    -0.237 OA
ATOM     76  O   UNL A   1      42.806  24.714  37.677  1.00  0.00    -0.744 OA
ENDBRANCH  72  73
ENDBRANCH  53  67
BRANCH  54  77
ATOM     77  C   UNL A   1      43.575  25.703  26.054  1.00  0.00    -0.014 A 
ATOM     78  C   UNL A   1      44.709  25.400  25.273  1.00  0.00     0.010 A 
ATOM     79  C   UNL A   1      42.713  24.638  26.386  1.00  0.00     0.010 A 
ATOM     80  C   UNL A   1      45.011  24.073  24.910  1.00  0.00     0.020 A 
ATOM     81  C   UNL A   1      43.004  23.315  26.025  1.00  0.00     0.020 A 
ATOM     82  C   UNL A   1      44.168  23.034  25.314  1.00  0.00     0.054 A 
BRANCH  82  83
ATOM     83  S   UNL A   1      44.670  21.308  25.033  1.00  0.00     0.124 S 
ATOM     84  O   UNL A   1      46.000  21.268  25.634  1.00  0.00    -0.237 OA
ATOM     85  O   UNL A   1      43.636  20.555  25.737  1.00  0.00    -0.237 OA
ATOM     86  O   UNL A   1      44.644  21.177  23.577  1.00  0.00    -0.744 OA
ENDBRANCH  82  83
ENDBRANCH  54  77
BRANCH  66  87
ATOM     87  C   UNL A   1      45.113  31.395  28.344  1.00  0.00    -0.014 A 
ATOM     88  C   UNL A   1      44.128  31.761  27.405  1.00  0.00     0.010 A 
ATOM     89  C   UNL A   1      46.316  32.122  28.365  1.00  0.00     0.010 A 
ATOM     90  C   UNL A   1      44.364  32.793  26.482  1.00  0.00     0.020 A 
ATOM     91  C   UNL A   1      46.549  33.162  27.465  1.00  0.00     0.020 A 
ATOM     92  C   UNL A   1      45.581  33.482  26.514  1.00  0.00     0.054 A 
BRANCH  92  93
ATOM     93  S   UNL A   1      45.898  34.807  25.315  1.00  0.00     0.124 S 
ATOM     94  O   UNL A   1      45.535  36.006  26.066  1.00  0.00    -0.237 OA
ATOM     95  O   UNL A   1      47.322  34.651  25.026  1.00  0.00    -0.237 OA
ATOM     96  O   UNL A   1      45.010  34.486  24.198  1.00  0.00    -0.744 OA
ENDBRANCH  92  93
ENDBRANCH  66  87
ENDBRANCH  40  41
ENDBRANCH  32  35
ENDBRANCH  30  31
ENDBRANCH  29  30
ENDBRANCH  28  29
ENDBRANCH   1  28
TORSDOF 20
ENDMDL
MODEL 3
REMARK VINA RESULT:     -12.0      1.719      3.912
REMARK SMILES CCOc1ccc(CNC(=O)Cc2c(C(=O)NCCCCNC(=O)c3ccc(-c4c5nc(c(-c6ccc(S(=O)(=O)[O-])cc6)c6ccc([nH]6)c(-c6ccc(S(=O)(=O)[O-])cc6)c6nc(c(-c7ccc(S(=O)(=O)[O-])cc7)c7ccc4[nH]7)C=C6)C=C5)cc3)c(C)cn2C)cc1
REMARK SMILES IDX 18 1 17 2 15 3 16 4 14 6 13 7 88 8 85 9 87 10 89 11 86 12
REMARK SMILES IDX 12 13 10 14 9 15 11 17 8 18 7 19 4 20 5 21 91 22 6 23 90 24
REMARK SMILES IDX 3 25 2 26 1 27 19 28 20 29 21 30 22 31 23 32 24 34 25 35
REMARK SMILES IDX 26 36 84 37 27 38 83 39 28 40 29 41 30 42 77 43 31 44 82 45
REMARK SMILES IDX 76 46 78 47 32 48 81 49 75 50 74 51 33 53 63 54 44 55 62 56
REMARK SMILES IDX 45 57 48 58 61 59 79 60 46 61 47 62 60 64 80 65 49 66 34 67
REMARK SMILES IDX 35 68 43 69 36 70 42 71 37 72 38 73 39 74 40 75 41 76 64 77
REMARK SMILES IDX 65 78 73 79 66 80 72 81 67 82 68 83 69 84 70 85 71 86 50 87
REMARK SMILES IDX 51 88 59 89 52 90 58 91 53 92 54 93 55 94 56 95 57 96
REMARK H PARENT 17 5 9 16 22 33 78 52 48 63
REMARK Flexibility Score: inf
ROOT
ATOM      1  C   UNL A   1      35.246  24.205  23.757  1.00  0.00     0.116 C 
ENDROOT
BRANCH   1   2
ATOM      2  N   UNL A   1      34.355  23.128  23.432  1.00  0.00    -0.352 N 
ATOM      3  C   UNL A   1      33.128  22.705  23.851  1.00  0.00     0.253 C 
ATOM      4  O   UNL A   1      32.752  21.720  23.203  1.00  0.00    -0.269 OA
ATOM      5  H   UNL A   1      34.723  22.546  22.727  1.00  0.00     0.163 HD
BRANCH   3   6
ATOM      6  C   UNL A   1      32.289  23.271  24.945  1.00  0.00     0.064 A 
ATOM      7  C   UNL A   1      31.213  24.153  24.642  1.00  0.00     0.040 A 
ATOM      8  N   UNL A   1      30.657  24.597  25.823  1.00  0.00    -0.353 N 
ATOM      9  C   UNL A   1      32.228  23.111  26.392  1.00  0.00    -0.020 A 
ATOM     10  C   UNL A   1      31.267  23.983  26.867  1.00  0.00     0.089 A 
ATOM     11  C   UNL A   1      29.511  25.469  25.986  1.00  0.00     0.149 C 
ATOM     12  C   UNL A   1      32.943  22.235  27.356  1.00  0.00     0.047 C 
BRANCH   7  13
ATOM     13  C   UNL A   1      30.665  24.633  23.309  1.00  0.00     0.154 C 
BRANCH  13  14
ATOM     14  C   UNL A   1      31.639  25.527  22.550  1.00  0.00     0.226 C 
ATOM     15  N   UNL A   1      31.794  26.844  22.862  1.00  0.00    -0.352 N 
ATOM     16  H   UNL A   1      32.463  27.326  22.325  1.00  0.00     0.163 HD
ATOM     17  O   UNL A   1      32.318  25.079  21.619  1.00  0.00    -0.275 OA
BRANCH  15  18
ATOM     18  C   UNL A   1      31.120  27.639  23.866  1.00  0.00     0.151 C 
BRANCH  18  19
ATOM     19  C   UNL A   1      32.084  28.193  24.890  1.00  0.00    -0.029 A 
ATOM     20  C   UNL A   1      33.928  29.246  26.742  1.00  0.00     0.119 A 
ATOM     21  C   UNL A   1      32.889  30.039  26.275  1.00  0.00     0.047 A 
ATOM     22  C   UNL A   1      34.033  27.925  26.315  1.00  0.00     0.047 A 
ATOM     23  C   UNL A   1      31.974  29.508  25.362  1.00  0.00     0.009 A 
ATOM     24  C   UNL A   1      33.133  27.408  25.377  1.00  0.00     0.009 A 
BRANCH  20  25
ATOM     25  O   UNL A   1      34.726  29.764  27.723  1.00  0.00    -0.494 OA
BRANCH  25  26
ATOM     26  C   UNL A   1      36.061  30.057  27.298  1.00  0.00     0.226 C 
ATOM     27  C   UNL A   1      37.095  29.498  28.261  1.00  0.00     0.049 C 
ENDBRANCH  25  26
ENDBRANCH  20  25
ENDBRANCH  18  19
ENDBRANCH  15  18
ENDBRANCH  13  14
ENDBRANCH   7  13
ENDBRANCH   3   6
ENDBRANCH   1   2
BRANCH   1  28
ATOM     28  C   UNL A   1      35.574  24.251  25.251  1.00  0.00     0.023 C 
BRANCH  28  29
ATOM     29  C   UNL A   1      36.324  23.020  25.788  1.00  0.00     0.023 C 
BRANCH  29  30
ATOM     30  C   UNL A   1      37.781  22.916  25.349  1.00  0.00     0.116 C 
BRANCH  30  31
ATOM     31  N   UNL A   1      38.565  21.989  26.165  1.00  0.00    -0.352 N 
ATOM     32  C   UNL A   1      39.731  22.262  26.865  1.00  0.00     0.251 C 
ATOM     33  H   UNL A   1      38.226  21.066  26.224  1.00  0.00     0.163 HD
ATOM     34  O   UNL A   1      40.515  21.377  27.156  1.00  0.00    -0.269 OA
BRANCH  32  35
ATOM     35  C   UNL A   1      39.976  23.658  27.272  1.00  0.00     0.039 A 
ATOM     36  C   UNL A   1      38.977  24.634  27.224  1.00  0.00     0.014 A 
ATOM     37  C   UNL A   1      41.245  23.954  27.762  1.00  0.00     0.014 A 
ATOM     38  C   UNL A   1      39.250  25.894  27.755  1.00  0.00     0.010 A 
ATOM     39  C   UNL A   1      41.461  25.137  28.419  1.00  0.00     0.010 A 
ATOM     40  C   UNL A   1      40.491  26.130  28.370  1.00  0.00    -0.014 A 
BRANCH  40  41
ATOM     41  C   UNL A   1      40.758  27.369  29.093  1.00  0.00     0.031 A 
ATOM     42  C   UNL A   1      41.769  28.246  28.442  1.00  0.00     0.074 A 
ATOM     43  C   UNL A   1      39.986  27.797  30.117  1.00  0.00     0.049 A 
ATOM     44  N   UNL A   1      42.971  28.488  28.845  1.00  0.00    -0.248 NA
ATOM     45  C   UNL A   1      41.476  28.785  27.102  1.00  0.00     0.031 C 
ATOM     46  C   UNL A   1      38.760  27.184  30.646  1.00  0.00     0.029 A 
ATOM     47  N   UNL A   1      40.061  28.953  30.829  1.00  0.00    -0.354 N 
ATOM     48  C   UNL A   1      43.495  29.414  27.949  1.00  0.00     0.074 A 
ATOM     49  C   UNL A   1      42.629  29.386  26.798  1.00  0.00     0.031 C 
ATOM     50  C   UNL A   1      38.085  28.087  31.392  1.00  0.00     0.029 A 
ATOM     51  C   UNL A   1      38.907  29.275  31.540  1.00  0.00     0.049 A 
ATOM     52  H   UNL A   1      40.866  29.519  30.839  1.00  0.00     0.167 HD
ATOM     53  C   UNL A   1      44.428  30.327  28.342  1.00  0.00     0.031 A 
ATOM     54  C   UNL A   1      38.635  30.444  32.176  1.00  0.00     0.031 A 
ATOM     55  C   UNL A   1      44.964  30.001  29.641  1.00  0.00     0.049 A 
ATOM     56  C   UNL A   1      39.937  31.116  32.408  1.00  0.00     0.074 A 
ATOM     57  C   UNL A   1      45.626  28.914  30.178  1.00  0.00     0.029 A 
ATOM     58  N   UNL A   1      44.458  30.705  30.710  1.00  0.00    -0.354 N 
ATOM     59  N   UNL A   1      40.858  30.631  33.193  1.00  0.00    -0.248 NA
ATOM     60  C   UNL A   1      40.407  32.055  31.402  1.00  0.00     0.031 C 
ATOM     61  C   UNL A   1      45.067  28.756  31.480  1.00  0.00     0.029 A 
ATOM     62  C   UNL A   1      44.175  29.807  31.705  1.00  0.00     0.049 A 
ATOM     63  H   UNL A   1      44.324  31.678  30.753  1.00  0.00     0.167 HD
ATOM     64  C   UNL A   1      42.046  30.827  32.504  1.00  0.00     0.074 A 
ATOM     65  C   UNL A   1      41.717  31.792  31.454  1.00  0.00     0.031 C 
ATOM     66  C   UNL A   1      43.103  29.976  32.666  1.00  0.00     0.031 A 
BRANCH  53  67
ATOM     67  C   UNL A   1      44.537  31.724  27.776  1.00  0.00    -0.014 A 
ATOM     68  C   UNL A   1      45.628  32.025  26.932  1.00  0.00     0.010 A 
ATOM     69  C   UNL A   1      43.785  32.815  28.257  1.00  0.00     0.010 A 
ATOM     70  C   UNL A   1      45.991  33.349  26.653  1.00  0.00     0.020 A 
ATOM     71  C   UNL A   1      44.112  34.138  27.949  1.00  0.00     0.020 A 
ATOM     72  C   UNL A   1      45.235  34.397  27.176  1.00  0.00     0.054 A 
BRANCH  72  73
ATOM     73  S   UNL A   1      45.763  36.102  26.883  1.00  0.00     0.124 S 
ATOM     74  O   UNL A   1      46.571  36.373  28.069  1.00  0.00    -0.237 OA
ATOM     75  O   UNL A   1      46.498  35.983  25.627  1.00  0.00    -0.237 OA
ATOM     76  O   UNL A   1      44.506  36.839  26.796  1.00  0.00    -0.744 OA
ENDBRANCH  72  73
ENDBRANCH  53  67
BRANCH  54  77
ATOM     77  C   UNL A   1      37.337  31.166  32.272  1.00  0.00    -0.014 A 
ATOM     78  C   UNL A   1      36.953  31.819  33.461  1.00  0.00     0.010 A 
ATOM     79  C   UNL A   1      36.618  31.477  31.099  1.00  0.00     0.010 A 
ATOM     80  C   UNL A   1      35.946  32.803  33.459  1.00  0.00     0.020 A 
ATOM     81  C   UNL A   1      35.611  32.452  31.091  1.00  0.00     0.020 A 
ATOM     82  C   UNL A   1      35.300  33.133  32.264  1.00  0.00     0.054 A 
BRANCH  82  83
ATOM     83  S   UNL A   1      34.158  34.549  32.221  1.00  0.00     0.124 S 
ATOM     84  O   UNL A   1      33.997  34.777  30.788  1.00  0.00    -0.237 OA
ATOM     85  O   UNL A   1      32.982  34.033  32.916  1.00  0.00    -0.237 OA
ATOM     86  O   UNL A   1      34.885  35.596  32.938  1.00  0.00    -0.744 OA
ENDBRANCH  82  83
ENDBRANCH  54  77
BRANCH  66  87
ATOM     87  C   UNL A   1      43.075  29.002  33.823  1.00  0.00    -0.014 A 
ATOM     88  C   UNL A   1      43.488  29.305  35.137  1.00  0.00     0.010 A 
ATOM     89  C   UNL A   1      42.484  27.749  33.584  1.00  0.00     0.010 A 
ATOM     90  C   UNL A   1      43.358  28.358  36.166  1.00  0.00     0.020 A 
ATOM     91  C   UNL A   1      42.333  26.812  34.606  1.00  0.00     0.020 A 
ATOM     92  C   UNL A   1      42.787  27.112  35.889  1.00  0.00     0.054 A 
BRANCH  92  93
ATOM     93  S   UNL A   1      42.628  25.879  37.212  1.00  0.00     0.124 S 
ATOM     94  O   UNL A   1      43.803  26.147  38.037  1.00  0.00    -0.237 OA
ATOM     95  O   UNL A   1      41.342  26.215  37.817  1.00  0.00    -0.237 OA
ATOM     96  O   UNL A   1      42.653  24.600  36.501  1.00  0.00    -0.744 OA
ENDBRANCH  92  93
ENDBRANCH  66  87
ENDBRANCH  40  41
ENDBRANCH  32  35
ENDBRANCH  30  31
ENDBRANCH  29  30
ENDBRANCH  28  29
ENDBRANCH   1  28
TORSDOF 20
ENDMDL
