MODEL 1
REMARK VINA RESULT:     -13.2      0.000      0.000
REMARK SMILES COc1ccc(NC(=O)c2nn(C)cc2C(=O)NCCCCNC(=O)c2ccc(-c3c4nc(c(-c5ccc(S(=O)(=O)[O-])cc5)c5ccc([nH]5)c(-c5ccc(S(=O)(=O)[O-])cc5)c5nc(c(-c6ccc(S(=O)(=O)[O-])cc6)c6ccc3[nH]6)C=C5)C=C4)cc2)c(C)c1
REMARK SMILES IDX 20 1 19 2 18 3 16 4 17 5 15 7 10 8 11 9 12 10 14 11 13 12
REMARK SMILES IDX 8 13 7 14 9 16 6 17 3 18 4 19 88 20 5 21 86 22 87 23 2 24
REMARK SMILES IDX 1 25 21 26 22 27 23 28 24 29 25 31 26 32 27 33 85 34 28 35
REMARK SMILES IDX 84 36 29 37 30 38 31 39 78 40 32 41 83 42 77 43 79 44 33 45
REMARK SMILES IDX 82 46 76 47 75 48 34 50 64 51 45 52 63 53 46 54 49 55 62 56
REMARK SMILES IDX 80 57 47 58 48 59 61 61 81 62 50 63 35 64 36 65 44 66 37 67
REMARK SMILES IDX 43 68 38 69 39 70 40 71 41 72 42 73 65 74 66 75 74 76 67 77
REMARK SMILES IDX 73 78 68 79 69 80 70 81 71 82 72 83 51 84 52 85 60 86 53 87
REMARK SMILES IDX 59 88 54 89 55 90 56 91 57 92 58 93
REMARK H PARENT 18 6 7 15 23 30 79 49 49 60
REMARK Flexibility Score: inf
ROOT
ATOM      1  C   UNL A   1      32.212  30.344  26.477  1.00  0.00     0.023 C 
ENDROOT
BRANCH   1   2
ATOM      2  C   UNL A   1      32.168  29.658  25.105  1.00  0.00     0.116 C 
BRANCH   2   3
ATOM      3  N   UNL A   1      30.920  29.854  24.378  1.00  0.00    -0.352 N 
ATOM      4  C   UNL A   1      30.218  29.111  23.461  1.00  0.00     0.255 C 
ATOM      5  O   UNL A   1      29.146  29.578  23.072  1.00  0.00    -0.269 OA
ATOM      6  H   UNL A   1      30.482  30.709  24.594  1.00  0.00     0.163 HD
BRANCH   4   7
ATOM      7  C   UNL A   1      30.717  27.854  22.921  1.00  0.00     0.090 A 
ATOM      8  C   UNL A   1      30.304  26.529  23.322  1.00  0.00     0.163 A 
ATOM      9  N   UNL A   1      30.939  25.579  22.604  1.00  0.00    -0.167 NA
ATOM     10  N   UNL A   1      31.759  26.265  21.803  1.00  0.00    -0.274 N 
ATOM     11  C   UNL A   1      31.709  27.611  21.991  1.00  0.00     0.123 A 
ATOM     12  C   UNL A   1      32.564  25.559  20.836  1.00  0.00     0.173 C 
BRANCH   8  13
ATOM     13  C   UNL A   1      29.339  26.128  24.357  1.00  0.00     0.277 C 
ATOM     14  N   UNL A   1      29.706  25.333  25.425  1.00  0.00    -0.320 N 
ATOM     15  H   UNL A   1      28.945  25.036  25.974  1.00  0.00     0.170 HD
ATOM     16  O   UNL A   1      28.157  26.486  24.310  1.00  0.00    -0.267 OA
BRANCH  14  17
ATOM     17  C   UNL A   1      30.948  24.862  25.886  1.00  0.00     0.044 A 
ATOM     18  C   UNL A   1      33.460  23.811  26.644  1.00  0.00     0.119 A 
ATOM     19  C   UNL A   1      33.373  25.078  26.086  1.00  0.00     0.048 A 
ATOM     20  C   UNL A   1      32.285  23.105  26.896  1.00  0.00     0.052 A 
ATOM     21  C   UNL A   1      32.127  25.600  25.728  1.00  0.00     0.030 A 
ATOM     22  C   UNL A   1      31.019  23.616  26.539  1.00  0.00    -0.024 A 
ATOM     23  C   UNL A   1      29.827  22.775  26.916  1.00  0.00     0.047 C 
BRANCH  18  24
ATOM     24  O   UNL A   1      34.611  23.167  27.001  1.00  0.00    -0.497 OA
ATOM     25  C   UNL A   1      35.708  23.280  26.102  1.00  0.00     0.278 C 
ENDBRANCH  18  24
ENDBRANCH  14  17
ENDBRANCH   8  13
ENDBRANCH   4   7
ENDBRANCH   2   3
ENDBRANCH   1   2
BRANCH   1  26
ATOM     26  C   UNL A   1      33.153  29.701  27.500  1.00  0.00     0.023 C 
BRANCH  26  27
ATOM     27  C   UNL A   1      34.626  29.709  27.112  1.00  0.00     0.116 C 
BRANCH  27  28
ATOM     28  N   UNL A   1      35.345  30.934  27.428  1.00  0.00    -0.352 N 
ATOM     29  C   UNL A   1      36.585  31.052  28.041  1.00  0.00     0.251 C 
ATOM     30  H   UNL A   1      34.901  31.776  27.178  1.00  0.00     0.163 HD
ATOM     31  O   UNL A   1      36.982  32.125  28.468  1.00  0.00    -0.269 OA
BRANCH  29  32
ATOM     32  C   UNL A   1      37.451  29.850  28.090  1.00  0.00     0.039 A 
ATOM     33  C   UNL A   1      37.433  29.078  29.257  1.00  0.00     0.014 A 
ATOM     34  C   UNL A   1      38.427  29.645  27.120  1.00  0.00     0.014 A 
ATOM     35  C   UNL A   1      38.512  28.240  29.543  1.00  0.00     0.010 A 
ATOM     36  C   UNL A   1      39.542  28.900  27.451  1.00  0.00     0.010 A 
ATOM     37  C   UNL A   1      39.611  28.235  28.686  1.00  0.00    -0.014 A 
BRANCH  37  38
ATOM     38  C   UNL A   1      40.907  27.648  29.013  1.00  0.00     0.031 A 
ATOM     39  C   UNL A   1      41.193  26.231  28.669  1.00  0.00     0.074 A 
ATOM     40  C   UNL A   1      41.902  28.420  29.511  1.00  0.00     0.049 A 
ATOM     41  N   UNL A   1      42.190  25.554  29.138  1.00  0.00    -0.248 NA
ATOM     42  C   UNL A   1      40.311  25.425  27.823  1.00  0.00     0.031 C 
ATOM     43  C   UNL A   1      43.331  28.111  29.496  1.00  0.00     0.029 A 
ATOM     44  N   UNL A   1      41.815  29.541  30.341  1.00  0.00    -0.354 N 
ATOM     45  C   UNL A   1      42.271  24.390  28.413  1.00  0.00     0.074 A 
ATOM     46  C   UNL A   1      41.007  24.288  27.728  1.00  0.00     0.031 C 
ATOM     47  C   UNL A   1      43.931  28.790  30.483  1.00  0.00     0.029 A 
ATOM     48  C   UNL A   1      42.883  29.438  31.252  1.00  0.00     0.049 A 
ATOM     49  H   UNL A   1      41.143  30.259  30.297  1.00  0.00     0.167 HD
ATOM     50  C   UNL A   1      43.457  23.724  28.339  1.00  0.00     0.031 A 
ATOM     51  C   UNL A   1      42.750  29.367  32.608  1.00  0.00     0.031 A 
ATOM     52  C   UNL A   1      44.410  24.199  29.340  1.00  0.00     0.049 A 
ATOM     53  C   UNL A   1      43.409  28.149  33.218  1.00  0.00     0.074 A 
ATOM     54  C   UNL A   1      45.575  24.943  29.276  1.00  0.00     0.029 A 
ATOM     55  N   UNL A   1      44.076  24.102  30.687  1.00  0.00    -0.354 N 
ATOM     56  N   UNL A   1      43.826  27.128  32.524  1.00  0.00    -0.248 NA
ATOM     57  C   UNL A   1      43.595  27.955  34.654  1.00  0.00     0.031 C 
ATOM     58  C   UNL A   1      45.882  25.383  30.594  1.00  0.00     0.029 A 
ATOM     59  C   UNL A   1      44.930  24.865  31.457  1.00  0.00     0.049 A 
ATOM     60  H   UNL A   1      43.333  23.563  31.042  1.00  0.00     0.167 HD
ATOM     61  C   UNL A   1      44.291  26.155  33.366  1.00  0.00     0.074 A 
ATOM     62  C   UNL A   1      44.147  26.729  34.692  1.00  0.00     0.031 C 
ATOM     63  C   UNL A   1      44.734  24.951  32.900  1.00  0.00     0.031 A 
BRANCH  50  64
ATOM     64  C   UNL A   1      43.839  22.792  27.203  1.00  0.00    -0.014 A 
ATOM     65  C   UNL A   1      42.939  21.786  26.788  1.00  0.00     0.010 A 
ATOM     66  C   UNL A   1      45.112  22.759  26.598  1.00  0.00     0.010 A 
ATOM     67  C   UNL A   1      43.301  20.797  25.853  1.00  0.00     0.020 A 
ATOM     68  C   UNL A   1      45.478  21.801  25.642  1.00  0.00     0.020 A 
ATOM     69  C   UNL A   1      44.577  20.808  25.291  1.00  0.00     0.054 A 
BRANCH  69  70
ATOM     70  S   UNL A   1      45.066  19.508  24.128  1.00  0.00     0.124 S 
ATOM     71  O   UNL A   1      44.414  18.328  24.690  1.00  0.00    -0.237 OA
ATOM     72  O   UNL A   1      44.522  19.988  22.861  1.00  0.00    -0.237 OA
ATOM     73  O   UNL A   1      46.526  19.502  24.210  1.00  0.00    -0.744 OA
ENDBRANCH  69  70
ENDBRANCH  50  64
BRANCH  51  74
ATOM     74  C   UNL A   1      41.542  30.042  33.148  1.00  0.00    -0.014 A 
ATOM     75  C   UNL A   1      41.660  31.414  33.450  1.00  0.00     0.010 A 
ATOM     76  C   UNL A   1      40.267  29.498  32.910  1.00  0.00     0.010 A 
ATOM     77  C   UNL A   1      40.562  32.262  33.311  1.00  0.00     0.020 A 
ATOM     78  C   UNL A   1      39.162  30.348  32.775  1.00  0.00     0.020 A 
ATOM     79  C   UNL A   1      39.341  31.730  32.896  1.00  0.00     0.054 A 
BRANCH  79  80
ATOM     80  S   UNL A   1      38.080  32.888  32.284  1.00  0.00     0.124 S 
ATOM     81  O   UNL A   1      36.888  32.049  32.215  1.00  0.00    -0.237 OA
ATOM     82  O   UNL A   1      38.080  33.899  33.339  1.00  0.00    -0.237 OA
ATOM     83  O   UNL A   1      38.621  33.323  31.000  1.00  0.00    -0.744 OA
ENDBRANCH  79  80
ENDBRANCH  51  74
BRANCH  63  84
ATOM     84  C   UNL A   1      45.080  23.751  33.747  1.00  0.00    -0.014 A 
ATOM     85  C   UNL A   1      44.150  22.784  34.164  1.00  0.00     0.010 A 
ATOM     86  C   UNL A   1      46.441  23.499  34.045  1.00  0.00     0.010 A 
ATOM     87  C   UNL A   1      44.549  21.659  34.902  1.00  0.00     0.020 A 
ATOM     88  C   UNL A   1      46.854  22.360  34.744  1.00  0.00     0.020 A 
ATOM     89  C   UNL A   1      45.898  21.458  35.193  1.00  0.00     0.054 A 
BRANCH  89  90
ATOM     90  S   UNL A   1      46.416  19.975  36.095  1.00  0.00     0.124 S 
ATOM     91  O   UNL A   1      47.865  20.150  36.157  1.00  0.00    -0.237 OA
ATOM     92  O   UNL A   1      45.717  20.103  37.373  1.00  0.00    -0.237 OA
ATOM     93  O   UNL A   1      45.949  18.881  35.247  1.00  0.00    -0.744 OA
ENDBRANCH  89  90
ENDBRANCH  63  84
ENDBRANCH  37  38
ENDBRANCH  29  32
ENDBRANCH  27  28
ENDBRANCH  26  27
ENDBRANCH   1  26
TORSDOF 17
ENDMDL
MODEL 2
REMARK VINA RESULT:     -13.2      1.333      3.070
REMARK SMILES COc1ccc(NC(=O)c2nn(C)cc2C(=O)NCCCCNC(=O)c2ccc(-c3c4nc(c(-c5ccc(S(=O)(=O)[O-])cc5)c5ccc([nH]5)c(-c5ccc(S(=O)(=O)[O-])cc5)c5nc(c(-c6ccc(S(=O)(=O)[O-])cc6)c6ccc3[nH]6)C=C5)C=C4)cc2)c(C)c1
REMARK SMILES IDX 20 1 19 2 18 3 16 4 17 5 15 7 10 8 11 9 12 10 14 11 13 12
REMARK SMILES IDX 8 13 7 14 9 16 6 17 3 18 4 19 88 20 5 21 86 22 87 23 2 24
REMARK SMILES IDX 1 25 21 26 22 27 23 28 24 29 25 31 26 32 27 33 85 34 28 35
REMARK SMILES IDX 84 36 29 37 30 38 31 39 78 40 32 41 83 42 77 43 79 44 33 45
REMARK SMILES IDX 82 46 76 47 75 48 34 50 64 51 45 52 63 53 46 54 49 55 62 56
REMARK SMILES IDX 80 57 47 58 48 59 61 61 81 62 50 63 35 64 36 65 44 66 37 67
REMARK SMILES IDX 43 68 38 69 39 70 40 71 41 72 42 73 65 74 66 75 74 76 67 77
REMARK SMILES IDX 73 78 68 79 69 80 70 81 71 82 72 83 51 84 52 85 60 86 53 87
REMARK SMILES IDX 59 88 54 89 55 90 56 91 57 92 58 93
REMARK H PARENT 18 6 7 15 23 30 79 49 49 60
REMARK Flexibility Score: inf
ROOT
ATOM      1  C   UNL A   1      33.661  28.562  24.758  1.00  0.00     0.023 C 
ENDROOT
BRANCH   1   2
ATOM      2  C   UNL A   1      33.496  27.074  25.092  1.00  0.00     0.116 C 
BRANCH   2   3
ATOM      3  N   UNL A   1      34.194  26.176  24.181  1.00  0.00    -0.352 N 
ATOM      4  C   UNL A   1      34.285  24.810  24.063  1.00  0.00     0.255 C 
ATOM      5  O   UNL A   1      34.953  24.378  23.123  1.00  0.00    -0.269 OA
ATOM      6  H   UNL A   1      34.716  26.655  23.497  1.00  0.00     0.163 HD
BRANCH   4   7
ATOM      7  C   UNL A   1      33.673  23.897  25.017  1.00  0.00     0.090 A 
ATOM      8  C   UNL A   1      32.666  22.904  24.723  1.00  0.00     0.163 A 
ATOM      9  N   UNL A   1      32.332  22.201  25.827  1.00  0.00    -0.167 NA
ATOM     10  N   UNL A   1      33.064  22.750  26.799  1.00  0.00    -0.274 N 
ATOM     11  C   UNL A   1      33.831  23.794  26.386  1.00  0.00     0.123 A 
ATOM     12  C   UNL A   1      33.006  22.198  28.131  1.00  0.00     0.173 C 
BRANCH   8  13
ATOM     13  C   UNL A   1      32.006  22.597  23.445  1.00  0.00     0.277 C 
ATOM     14  N   UNL A   1      31.198  23.515  22.805  1.00  0.00    -0.320 N 
ATOM     15  H   UNL A   1      30.721  23.144  22.027  1.00  0.00     0.170 HD
ATOM     16  O   UNL A   1      32.150  21.500  22.893  1.00  0.00    -0.267 OA
BRANCH  14  17
ATOM     17  C   UNL A   1      30.918  24.873  23.039  1.00  0.00     0.044 A 
ATOM     18  C   UNL A   1      30.200  27.585  23.385  1.00  0.00     0.119 A 
ATOM     19  C   UNL A   1      29.814  26.635  24.320  1.00  0.00     0.048 A 
ATOM     20  C   UNL A   1      31.012  27.191  22.322  1.00  0.00     0.052 A 
ATOM     21  C   UNL A   1      30.186  25.298  24.153  1.00  0.00     0.030 A 
ATOM     22  C   UNL A   1      31.394  25.845  22.137  1.00  0.00    -0.024 A 
ATOM     23  C   UNL A   1      32.315  25.564  20.979  1.00  0.00     0.047 C 
BRANCH  18  24
ATOM     24  O   UNL A   1      29.874  28.911  23.405  1.00  0.00    -0.497 OA
ATOM     25  C   UNL A   1      30.295  29.686  22.288  1.00  0.00     0.278 C 
ENDBRANCH  18  24
ENDBRANCH  14  17
ENDBRANCH   8  13
ENDBRANCH   4   7
ENDBRANCH   2   3
ENDBRANCH   1   2
BRANCH   1  26
ATOM     26  C   UNL A   1      33.394  29.526  25.917  1.00  0.00     0.023 C 
BRANCH  26  27
ATOM     27  C   UNL A   1      34.406  29.463  27.054  1.00  0.00     0.116 C 
BRANCH  27  28
ATOM     28  N   UNL A   1      35.081  30.717  27.354  1.00  0.00    -0.352 N 
ATOM     29  C   UNL A   1      36.321  30.886  27.956  1.00  0.00     0.251 C 
ATOM     30  H   UNL A   1      34.604  31.540  27.101  1.00  0.00     0.163 HD
ATOM     31  O   UNL A   1      36.680  31.977  28.371  1.00  0.00    -0.269 OA
BRANCH  29  32
ATOM     32  C   UNL A   1      37.231  29.718  28.007  1.00  0.00     0.039 A 
ATOM     33  C   UNL A   1      37.272  28.972  29.191  1.00  0.00     0.014 A 
ATOM     34  C   UNL A   1      38.188  29.526  27.016  1.00  0.00     0.014 A 
ATOM     35  C   UNL A   1      38.389  28.181  29.465  1.00  0.00     0.010 A 
ATOM     36  C   UNL A   1      39.338  28.830  27.332  1.00  0.00     0.010 A 
ATOM     37  C   UNL A   1      39.464  28.197  28.579  1.00  0.00    -0.014 A 
BRANCH  37  38
ATOM     38  C   UNL A   1      40.790  27.665  28.883  1.00  0.00     0.031 A 
ATOM     39  C   UNL A   1      41.110  26.244  28.586  1.00  0.00     0.074 A 
ATOM     40  C   UNL A   1      41.775  28.487  29.315  1.00  0.00     0.049 A 
ATOM     41  N   UNL A   1      42.144  25.619  29.047  1.00  0.00    -0.248 NA
ATOM     42  C   UNL A   1      40.227  25.377  27.804  1.00  0.00     0.031 C 
ATOM     43  C   UNL A   1      43.212  28.222  29.261  1.00  0.00     0.029 A 
ATOM     44  N   UNL A   1      41.680  29.638  30.102  1.00  0.00    -0.354 N 
ATOM     45  C   UNL A   1      42.239  24.429  28.365  1.00  0.00     0.074 A 
ATOM     46  C   UNL A   1      40.956  24.260  27.731  1.00  0.00     0.031 C 
ATOM     47  C   UNL A   1      43.822  28.961  30.199  1.00  0.00     0.029 A 
ATOM     48  C   UNL A   1      42.780  29.606  30.978  1.00  0.00     0.049 A 
ATOM     49  H   UNL A   1      40.983  30.332  30.054  1.00  0.00     0.167 HD
ATOM     50  C   UNL A   1      43.443  23.799  28.277  1.00  0.00     0.031 A 
ATOM     51  C   UNL A   1      42.696  29.587  32.340  1.00  0.00     0.031 A 
ATOM     52  C   UNL A   1      44.413  24.344  29.224  1.00  0.00     0.049 A 
ATOM     53  C   UNL A   1      43.415  28.416  32.974  1.00  0.00     0.074 A 
ATOM     54  C   UNL A   1      45.550  25.121  29.089  1.00  0.00     0.029 A 
ATOM     55  N   UNL A   1      44.129  24.292  30.584  1.00  0.00    -0.354 N 
ATOM     56  N   UNL A   1      43.841  27.381  32.307  1.00  0.00    -0.248 NA
ATOM     57  C   UNL A   1      43.656  28.287  34.409  1.00  0.00     0.031 C 
ATOM     58  C   UNL A   1      45.887  25.624  30.377  1.00  0.00     0.029 A 
ATOM     59  C   UNL A   1      44.982  25.112  31.293  1.00  0.00     0.049 A 
ATOM     60  H   UNL A   1      43.416  23.744  30.987  1.00  0.00     0.167 HD
ATOM     61  C   UNL A   1      44.367  26.458  33.170  1.00  0.00     0.074 A 
ATOM     62  C   UNL A   1      44.249  27.082  34.476  1.00  0.00     0.031 C 
ATOM     63  C   UNL A   1      44.833  25.251  32.737  1.00  0.00     0.031 A 
BRANCH  50  64
ATOM     64  C   UNL A   1      43.817  22.833  27.166  1.00  0.00    -0.014 A 
ATOM     65  C   UNL A   1      42.952  21.764  26.845  1.00  0.00     0.010 A 
ATOM     66  C   UNL A   1      45.058  22.836  26.496  1.00  0.00     0.010 A 
ATOM     67  C   UNL A   1      43.319  20.751  25.939  1.00  0.00     0.020 A 
ATOM     68  C   UNL A   1      45.425  21.853  25.567  1.00  0.00     0.020 A 
ATOM     69  C   UNL A   1      44.562  20.799  25.310  1.00  0.00     0.054 A 
BRANCH  69  70
ATOM     70  S   UNL A   1      45.061  19.471  24.184  1.00  0.00     0.124 S 
ATOM     71  O   UNL A   1      44.449  18.297  24.799  1.00  0.00    -0.237 OA
ATOM     72  O   UNL A   1      44.482  19.893  22.912  1.00  0.00    -0.237 OA
ATOM     73  O   UNL A   1      46.522  19.503  24.237  1.00  0.00    -0.744 OA
ENDBRANCH  69  70
ENDBRANCH  50  64
BRANCH  51  74
ATOM     74  C   UNL A   1      41.485  30.245  32.895  1.00  0.00    -0.014 A 
ATOM     75  C   UNL A   1      41.484  31.654  32.925  1.00  0.00     0.010 A 
ATOM     76  C   UNL A   1      40.260  29.555  32.922  1.00  0.00     0.010 A 
ATOM     77  C   UNL A   1      40.290  32.359  32.772  1.00  0.00     0.020 A 
ATOM     78  C   UNL A   1      39.060  30.262  32.773  1.00  0.00     0.020 A 
ATOM     79  C   UNL A   1      39.098  31.652  32.618  1.00  0.00     0.054 A 
BRANCH  79  80
ATOM     80  S   UNL A   1      37.660  32.553  31.968  1.00  0.00     0.124 S 
ATOM     81  O   UNL A   1      37.206  33.307  33.132  1.00  0.00    -0.237 OA
ATOM     82  O   UNL A   1      38.273  33.346  30.904  1.00  0.00    -0.237 OA
ATOM     83  O   UNL A   1      36.770  31.486  31.520  1.00  0.00    -0.744 OA
ENDBRANCH  79  80
ENDBRANCH  51  74
BRANCH  63  84
ATOM     84  C   UNL A   1      45.247  24.098  33.619  1.00  0.00    -0.014 A 
ATOM     85  C   UNL A   1      46.580  23.770  33.915  1.00  0.00     0.010 A 
ATOM     86  C   UNL A   1      44.243  23.367  34.298  1.00  0.00     0.010 A 
ATOM     87  C   UNL A   1      46.896  22.720  34.790  1.00  0.00     0.020 A 
ATOM     88  C   UNL A   1      44.547  22.347  35.205  1.00  0.00     0.020 A 
ATOM     89  C   UNL A   1      45.877  22.010  35.425  1.00  0.00     0.054 A 
BRANCH  89  90
ATOM     90  S   UNL A   1      46.288  20.694  36.600  1.00  0.00     0.124 S 
ATOM     91  O   UNL A   1      45.693  21.196  37.836  1.00  0.00    -0.237 OA
ATOM     92  O   UNL A   1      45.635  19.519  36.025  1.00  0.00    -0.237 OA
ATOM     93  O   UNL A   1      47.748  20.659  36.573  1.00  0.00    -0.744 OA
ENDBRANCH  89  90
ENDBRANCH  63  84
ENDBRANCH  37  38
ENDBRANCH  29  32
ENDBRANCH  27  28
ENDBRANCH  26  27
ENDBRANCH   1  26
TORSDOF 17
ENDMDL
MODEL 3
REMARK VINA RESULT:     -13.1      4.714     11.233
REMARK SMILES COc1ccc(NC(=O)c2nn(C)cc2C(=O)NCCCCNC(=O)c2ccc(-c3c4nc(c(-c5ccc(S(=O)(=O)[O-])cc5)c5ccc([nH]5)c(-c5ccc(S(=O)(=O)[O-])cc5)c5nc(c(-c6ccc(S(=O)(=O)[O-])cc6)c6ccc3[nH]6)C=C5)C=C4)cc2)c(C)c1
REMARK SMILES IDX 20 1 19 2 18 3 16 4 17 5 15 7 10 8 11 9 12 10 14 11 13 12
REMARK SMILES IDX 8 13 7 14 9 16 6 17 3 18 4 19 88 20 5 21 86 22 87 23 2 24
REMARK SMILES IDX 1 25 21 26 22 27 23 28 24 29 25 31 26 32 27 33 85 34 28 35
REMARK SMILES IDX 84 36 29 37 30 38 31 39 78 40 32 41 83 42 77 43 79 44 33 45
REMARK SMILES IDX 82 46 76 47 75 48 34 50 64 51 45 52 63 53 46 54 49 55 62 56
REMARK SMILES IDX 80 57 47 58 48 59 61 61 81 62 50 63 35 64 36 65 44 66 37 67
REMARK SMILES IDX 43 68 38 69 39 70 40 71 41 72 42 73 65 74 66 75 74 76 67 77
REMARK SMILES IDX 73 78 68 79 69 80 70 81 71 82 72 83 51 84 52 85 60 86 53 87
REMARK SMILES IDX 59 88 54 89 55 90 56 91 57 92 58 93
REMARK H PARENT 18 6 7 15 23 30 79 49 49 60
REMARK Flexibility Score: inf
ROOT
ATOM      1  C   UNL A   1      36.211  22.682  24.125  1.00  0.00     0.023 C 
ENDROOT
BRANCH   1   2
ATOM      2  C   UNL A   1      35.571  24.013  24.539  1.00  0.00     0.116 C 
BRANCH   2   3
ATOM      3  N   UNL A   1      34.181  23.902  24.963  1.00  0.00    -0.352 N 
ATOM      4  C   UNL A   1      33.186  24.810  25.234  1.00  0.00     0.255 C 
ATOM      5  O   UNL A   1      32.084  24.350  25.538  1.00  0.00    -0.269 OA
ATOM      6  H   UNL A   1      33.890  22.969  25.079  1.00  0.00     0.163 HD
BRANCH   4   7
ATOM      7  C   UNL A   1      33.409  26.248  25.219  1.00  0.00     0.090 A 
ATOM      8  C   UNL A   1      33.391  27.103  24.054  1.00  0.00     0.163 A 
ATOM      9  N   UNL A   1      33.605  28.393  24.389  1.00  0.00    -0.167 NA
ATOM     10  N   UNL A   1      33.797  28.362  25.710  1.00  0.00    -0.274 N 
ATOM     11  C   UNL A   1      33.749  27.112  26.242  1.00  0.00     0.123 A 
ATOM     12  C   UNL A   1      33.998  29.597  26.429  1.00  0.00     0.173 C 
BRANCH   8  13
ATOM     13  C   UNL A   1      33.183  26.748  22.643  1.00  0.00     0.277 C 
ATOM     14  N   UNL A   1      32.028  27.093  21.968  1.00  0.00    -0.320 N 
ATOM     15  H   UNL A   1      31.962  26.692  21.072  1.00  0.00     0.170 HD
ATOM     16  O   UNL A   1      34.037  26.125  22.002  1.00  0.00    -0.267 OA
BRANCH  14  17
ATOM     17  C   UNL A   1      30.928  27.902  22.304  1.00  0.00     0.044 A 
ATOM     18  C   UNL A   1      28.805  29.564  23.154  1.00  0.00     0.119 A 
ATOM     19  C   UNL A   1      29.799  30.068  22.328  1.00  0.00     0.048 A 
ATOM     20  C   UNL A   1      28.831  28.210  23.487  1.00  0.00     0.052 A 
ATOM     21  C   UNL A   1      30.838  29.238  21.896  1.00  0.00     0.030 A 
ATOM     22  C   UNL A   1      29.873  27.359  23.063  1.00  0.00    -0.024 A 
ATOM     23  C   UNL A   1      29.752  25.908  23.449  1.00  0.00     0.047 C 
BRANCH  18  24
ATOM     24  O   UNL A   1      27.760  30.270  23.678  1.00  0.00    -0.497 OA
ATOM     25  C   UNL A   1      27.596  31.604  23.210  1.00  0.00     0.278 C 
ENDBRANCH  18  24
ENDBRANCH  14  17
ENDBRANCH   8  13
ENDBRANCH   4   7
ENDBRANCH   2   3
ENDBRANCH   1   2
BRANCH   1  26
ATOM     26  C   UNL A   1      37.437  22.264  24.942  1.00  0.00     0.023 C 
BRANCH  26  27
ATOM     27  C   UNL A   1      37.847  23.243  26.035  1.00  0.00     0.116 C 
BRANCH  27  28
ATOM     28  N   UNL A   1      39.028  22.865  26.797  1.00  0.00    -0.352 N 
ATOM     29  C   UNL A   1      39.917  23.706  27.450  1.00  0.00     0.251 C 
ATOM     30  H   UNL A   1      39.217  21.901  26.856  1.00  0.00     0.163 HD
ATOM     31  O   UNL A   1      40.995  23.299  27.855  1.00  0.00    -0.269 OA
BRANCH  29  32
ATOM     32  C   UNL A   1      39.485  25.099  27.716  1.00  0.00     0.039 A 
ATOM     33  C   UNL A   1      39.933  26.100  26.845  1.00  0.00     0.014 A 
ATOM     34  C   UNL A   1      38.874  25.430  28.921  1.00  0.00     0.014 A 
ATOM     35  C   UNL A   1      39.951  27.427  27.277  1.00  0.00     0.010 A 
ATOM     36  C   UNL A   1      38.991  26.725  29.388  1.00  0.00     0.010 A 
ATOM     37  C   UNL A   1      39.576  27.718  28.587  1.00  0.00    -0.014 A 
BRANCH  37  38
ATOM     38  C   UNL A   1      39.829  28.994  29.252  1.00  0.00     0.031 A 
ATOM     39  C   UNL A   1      38.873  30.122  29.091  1.00  0.00     0.074 A 
ATOM     40  C   UNL A   1      40.860  29.122  30.120  1.00  0.00     0.049 A 
ATOM     41  N   UNL A   1      39.131  31.346  29.415  1.00  0.00    -0.248 NA
ATOM     42  C   UNL A   1      37.562  29.968  28.459  1.00  0.00     0.031 C 
ATOM     43  C   UNL A   1      41.002  30.146  31.154  1.00  0.00     0.029 A 
ATOM     44  N   UNL A   1      42.107  28.491  30.105  1.00  0.00    -0.354 N 
ATOM     45  C   UNL A   1      37.946  32.040  29.362  1.00  0.00     0.074 A 
ATOM     46  C   UNL A   1      37.048  31.191  28.621  1.00  0.00     0.031 C 
ATOM     47  C   UNL A   1      42.302  30.285  31.447  1.00  0.00     0.029 A 
ATOM     48  C   UNL A   1      43.042  29.463  30.506  1.00  0.00     0.049 A 
ATOM     49  H   UNL A   1      42.294  27.556  29.862  1.00  0.00     0.167 HD
ATOM     50  C   UNL A   1      37.802  33.182  30.090  1.00  0.00     0.031 A 
ATOM     51  C   UNL A   1      44.097  29.891  29.754  1.00  0.00     0.031 A 
ATOM     52  C   UNL A   1      39.085  33.680  30.581  1.00  0.00     0.049 A 
ATOM     53  C   UNL A   1      44.115  31.388  29.534  1.00  0.00     0.074 A 
ATOM     54  C   UNL A   1      39.675  33.737  31.832  1.00  0.00     0.029 A 
ATOM     55  N   UNL A   1      40.075  34.013  29.662  1.00  0.00    -0.354 N 
ATOM     56  N   UNL A   1      43.105  32.170  29.791  1.00  0.00    -0.248 NA
ATOM     57  C   UNL A   1      45.243  32.114  28.954  1.00  0.00     0.031 C 
ATOM     58  C   UNL A   1      41.060  34.006  31.647  1.00  0.00     0.029 A 
ATOM     59  C   UNL A   1      41.295  34.158  30.290  1.00  0.00     0.049 A 
ATOM     60  H   UNL A   1      39.925  34.130  28.696  1.00  0.00     0.167 HD
ATOM     61  C   UNL A   1      43.400  33.450  29.406  1.00  0.00     0.074 A 
ATOM     62  C   UNL A   1      44.761  33.369  28.907  1.00  0.00     0.031 C 
ATOM     63  C   UNL A   1      42.488  34.461  29.509  1.00  0.00     0.031 A 
BRANCH  50  64
ATOM     64  C   UNL A   1      36.465  33.732  30.555  1.00  0.00    -0.014 A 
ATOM     65  C   UNL A   1      35.523  34.185  29.604  1.00  0.00     0.010 A 
ATOM     66  C   UNL A   1      36.125  33.958  31.905  1.00  0.00     0.010 A 
ATOM     67  C   UNL A   1      34.340  34.847  29.981  1.00  0.00     0.020 A 
ATOM     68  C   UNL A   1      34.935  34.586  32.297  1.00  0.00     0.020 A 
ATOM     69  C   UNL A   1      34.058  35.050  31.330  1.00  0.00     0.054 A 
BRANCH  69  70
ATOM     70  S   UNL A   1      32.562  35.948  31.819  1.00  0.00     0.124 S 
ATOM     71  O   UNL A   1      31.821  34.934  32.563  1.00  0.00    -0.237 OA
ATOM     72  O   UNL A   1      33.094  37.053  32.611  1.00  0.00    -0.237 OA
ATOM     73  O   UNL A   1      31.960  36.338  30.544  1.00  0.00    -0.744 OA
ENDBRANCH  69  70
ENDBRANCH  50  64
BRANCH  51  74
ATOM     74  C   UNL A   1      44.626  28.884  28.799  1.00  0.00    -0.014 A 
ATOM     75  C   UNL A   1      43.965  28.772  27.560  1.00  0.00     0.010 A 
ATOM     76  C   UNL A   1      45.956  28.440  28.912  1.00  0.00     0.010 A 
ATOM     77  C   UNL A   1      44.676  28.423  26.412  1.00  0.00     0.020 A 
ATOM     78  C   UNL A   1      46.671  28.084  27.761  1.00  0.00     0.020 A 
ATOM     79  C   UNL A   1      46.043  28.160  26.513  1.00  0.00     0.054 A 
BRANCH  79  80
ATOM     80  S   UNL A   1      47.020  28.167  24.980  1.00  0.00     0.124 S 
ATOM     81  O   UNL A   1      46.527  29.359  24.297  1.00  0.00    -0.237 OA
ATOM     82  O   UNL A   1      48.381  28.258  25.505  1.00  0.00    -0.237 OA
ATOM     83  O   UNL A   1      46.673  26.893  24.357  1.00  0.00    -0.744 OA
ENDBRANCH  79  80
ENDBRANCH  51  74
BRANCH  63  84
ATOM     84  C   UNL A   1      42.644  35.849  28.937  1.00  0.00    -0.014 A 
ATOM     85  C   UNL A   1      43.467  36.843  29.491  1.00  0.00     0.010 A 
ATOM     86  C   UNL A   1      42.027  36.147  27.698  1.00  0.00     0.010 A 
ATOM     87  C   UNL A   1      43.612  38.096  28.876  1.00  0.00     0.020 A 
ATOM     88  C   UNL A   1      42.199  37.377  27.055  1.00  0.00     0.020 A 
ATOM     89  C   UNL A   1      42.972  38.358  27.664  1.00  0.00     0.054 A 
BRANCH  89  90
ATOM     90  S   UNL A   1      43.208  39.955  26.844  1.00  0.00     0.124 S 
ATOM     91  O   UNL A   1      42.029  40.030  25.985  1.00  0.00    -0.237 OA
ATOM     92  O   UNL A   1      43.230  40.901  27.959  1.00  0.00    -0.237 OA
ATOM     93  O   UNL A   1      44.483  39.794  26.151  1.00  0.00    -0.744 OA
ENDBRANCH  89  90
ENDBRANCH  63  84
ENDBRANCH  37  38
ENDBRANCH  29  32
ENDBRANCH  27  28
ENDBRANCH  26  27
ENDBRANCH   1  26
TORSDOF 17
ENDMDL
