MODEL 1
REMARK VINA RESULT:      -9.4      0.000      0.000
REMARK SMILES [NH3+][C@H](CSCc1ccco1)C(=O)NCCCCNC(=O)c1ccc(-c2c3nc(c(-c4ccc(S(=O)(=O)[O-])cc4)c4ccc([nH]4)c(-c4ccc(S(=O)(=O)[O-])cc4)c4nc(c(-c5ccc(S(=O)(=O)[O-])cc5)c5ccc2[nH]5)C=C4)C=C3)cc1
REMARK SMILES IDX 15 1 14 2 13 3 11 4 12 5 2 7 1 8 3 12 4 13 5 14 6 15 7 16
REMARK SMILES IDX 10 17 8 18 9 19 16 20 17 21 18 22 19 23 20 25 21 26 22 27
REMARK SMILES IDX 80 28 23 29 79 30 24 31 25 32 26 33 73 34 27 35 78 36 72 37
REMARK SMILES IDX 74 38 28 39 77 40 71 41 70 42 29 44 59 45 40 46 58 47 41 48
REMARK SMILES IDX 44 49 57 50 75 51 42 52 43 53 56 55 76 56 45 57 30 58 31 59
REMARK SMILES IDX 39 60 32 61 38 62 33 63 34 64 35 65 36 66 37 67 60 68 61 69
REMARK SMILES IDX 69 70 62 71 68 72 63 73 64 74 65 75 66 76 67 77 46 78 47 79
REMARK SMILES IDX 55 80 48 81 54 82 49 83 50 84 51 85 52 86 53 87
REMARK H PARENT 13 6 1 9 1 10 1 11 18 24 74 43 44 54
REMARK Flexibility Score: inf
ROOT
ATOM      1  C   UNL A   1      31.856  27.607  26.050  1.00  0.00     0.023 C 
ENDROOT
BRANCH   1   2
ATOM      2  C   UNL A   1      30.780  26.668  25.515  1.00  0.00     0.116 C 
BRANCH   2   3
ATOM      3  N   UNL A   1      30.562  25.552  26.415  1.00  0.00    -0.351 N 
ATOM      4  C   UNL A   1      30.734  24.212  26.310  1.00  0.00     0.279 C 
ATOM      5  O   UNL A   1      30.381  23.555  27.301  1.00  0.00    -0.268 OA
ATOM      6  H   UNL A   1      30.214  25.827  27.294  1.00  0.00     0.163 HD
BRANCH   4   7
ATOM      7  C   UNL A   1      31.257  23.442  25.078  1.00  0.00     0.280 C 
BRANCH   7   8
ATOM      8  N   UNL A   1      30.578  23.711  23.799  1.00  0.00    -0.347 N 
ATOM      9  H   UNL A   1      31.143  23.349  23.031  1.00  0.00     0.345 HD
ATOM     10  H   UNL A   1      30.455  24.718  23.684  1.00  0.00     0.345 HD
ATOM     11  H   UNL A   1      29.666  23.255  23.795  1.00  0.00     0.345 HD
ENDBRANCH   7   8
BRANCH   7  12
ATOM     12  C   UNL A   1      31.540  21.957  25.420  1.00  0.00     0.145 C 
BRANCH  12  13
ATOM     13  S   UNL A   1      33.234  21.411  25.879  1.00  0.00    -0.147 SA
BRANCH  13  14
ATOM     14  C   UNL A   1      34.126  22.969  26.073  1.00  0.00     0.145 C 
BRANCH  14  15
ATOM     15  C   UNL A   1      35.594  22.962  25.812  1.00  0.00     0.113 A 
ATOM     16  C   UNL A   1      36.597  23.916  25.819  1.00  0.00     0.046 A 
ATOM     17  O   UNL A   1      36.166  21.723  25.698  1.00  0.00    -0.468 OA
ATOM     18  C   UNL A   1      37.830  23.226  25.737  1.00  0.00     0.042 A 
ATOM     19  C   UNL A   1      37.512  21.894  25.657  1.00  0.00     0.195 A 
ENDBRANCH  14  15
ENDBRANCH  13  14
ENDBRANCH  12  13
ENDBRANCH   7  12
ENDBRANCH   4   7
ENDBRANCH   2   3
ENDBRANCH   1   2
BRANCH   1  20
ATOM     20  C   UNL A   1      33.287  27.208  25.744  1.00  0.00     0.023 C 
BRANCH  20  21
ATOM     21  C   UNL A   1      34.290  27.990  26.560  1.00  0.00     0.116 C 
BRANCH  21  22
ATOM     22  N   UNL A   1      33.798  29.321  26.918  1.00  0.00    -0.352 N 
ATOM     23  C   UNL A   1      34.379  30.275  27.720  1.00  0.00     0.251 C 
ATOM     24  H   UNL A   1      32.929  29.569  26.528  1.00  0.00     0.163 HD
ATOM     25  O   UNL A   1      33.745  31.266  28.072  1.00  0.00    -0.269 OA
BRANCH  23  26
ATOM     26  C   UNL A   1      35.770  30.070  28.164  1.00  0.00     0.039 A 
ATOM     27  C   UNL A   1      36.034  29.537  29.426  1.00  0.00     0.014 A 
ATOM     28  C   UNL A   1      36.809  30.329  27.271  1.00  0.00     0.014 A 
ATOM     29  C   UNL A   1      37.345  29.195  29.756  1.00  0.00     0.010 A 
ATOM     30  C   UNL A   1      38.068  29.825  27.533  1.00  0.00     0.010 A 
ATOM     31  C   UNL A   1      38.365  29.296  28.794  1.00  0.00    -0.014 A 
BRANCH  31  32
ATOM     32  C   UNL A   1      39.773  28.929  29.082  1.00  0.00     0.031 A 
ATOM     33  C   UNL A   1      40.678  29.957  29.714  1.00  0.00     0.074 A 
ATOM     34  C   UNL A   1      40.251  27.729  28.703  1.00  0.00     0.049 A 
ATOM     35  N   UNL A   1      41.965  29.900  29.934  1.00  0.00    -0.248 NA
ATOM     36  C   UNL A   1      40.068  31.246  30.093  1.00  0.00     0.031 C 
ATOM     37  C   UNL A   1      39.488  26.680  28.018  1.00  0.00     0.029 A 
ATOM     38  N   UNL A   1      41.504  27.187  28.838  1.00  0.00    -0.354 N 
ATOM     39  C   UNL A   1      42.316  31.153  30.428  1.00  0.00     0.074 A 
ATOM     40  C   UNL A   1      41.131  31.975  30.391  1.00  0.00     0.031 C 
ATOM     41  C   UNL A   1      40.274  25.606  27.843  1.00  0.00     0.029 A 
ATOM     42  C   UNL A   1      41.606  25.903  28.356  1.00  0.00     0.049 A 
ATOM     43  H   UNL A   1      42.259  27.672  29.243  1.00  0.00     0.167 HD
ATOM     44  C   UNL A   1      43.506  31.571  30.915  1.00  0.00     0.031 A 
ATOM     45  C   UNL A   1      42.659  25.062  28.335  1.00  0.00     0.031 A 
ATOM     46  C   UNL A   1      44.659  30.721  31.008  1.00  0.00     0.049 A 
ATOM     47  C   UNL A   1      43.962  25.529  28.924  1.00  0.00     0.074 A 
ATOM     48  C   UNL A   1      45.895  31.003  31.557  1.00  0.00     0.029 A 
ATOM     49  N   UNL A   1      44.708  29.412  30.552  1.00  0.00    -0.354 N 
ATOM     50  N   UNL A   1      44.257  26.695  29.450  1.00  0.00    -0.248 NA
ATOM     51  C   UNL A   1      45.070  24.566  28.930  1.00  0.00     0.031 C 
ATOM     52  C   UNL A   1      46.708  29.877  31.392  1.00  0.00     0.029 A 
ATOM     53  C   UNL A   1      45.957  28.876  30.794  1.00  0.00     0.049 A 
ATOM     54  H   UNL A   1      43.962  28.936  30.120  1.00  0.00     0.167 HD
ATOM     55  C   UNL A   1      45.576  26.596  29.876  1.00  0.00     0.074 A 
ATOM     56  C   UNL A   1      46.015  25.250  29.560  1.00  0.00     0.031 C 
ATOM     57  C   UNL A   1      46.359  27.529  30.471  1.00  0.00     0.031 A 
BRANCH  44  58
ATOM     58  C   UNL A   1      43.601  32.994  31.400  1.00  0.00    -0.014 A 
ATOM     59  C   UNL A   1      44.065  34.022  30.557  1.00  0.00     0.010 A 
ATOM     60  C   UNL A   1      43.214  33.313  32.713  1.00  0.00     0.010 A 
ATOM     61  C   UNL A   1      44.190  35.329  31.033  1.00  0.00     0.020 A 
ATOM     62  C   UNL A   1      43.304  34.628  33.183  1.00  0.00     0.020 A 
ATOM     63  C   UNL A   1      43.809  35.623  32.345  1.00  0.00     0.054 A 
BRANCH  63  64
ATOM     64  S   UNL A   1      43.960  37.333  32.928  1.00  0.00     0.124 S 
ATOM     65  O   UNL A   1      42.839  37.435  33.859  1.00  0.00    -0.237 OA
ATOM     66  O   UNL A   1      45.286  37.347  33.539  1.00  0.00    -0.237 OA
ATOM     67  O   UNL A   1      43.830  38.128  31.708  1.00  0.00    -0.744 OA
ENDBRANCH  63  64
ENDBRANCH  44  58
BRANCH  45  68
ATOM     68  C   UNL A   1      42.508  23.691  27.773  1.00  0.00    -0.014 A 
ATOM     69  C   UNL A   1      42.188  22.608  28.612  1.00  0.00     0.010 A 
ATOM     70  C   UNL A   1      42.663  23.461  26.394  1.00  0.00     0.010 A 
ATOM     71  C   UNL A   1      42.046  21.320  28.087  1.00  0.00     0.020 A 
ATOM     72  C   UNL A   1      42.493  22.180  25.860  1.00  0.00     0.020 A 
ATOM     73  C   UNL A   1      42.197  21.114  26.713  1.00  0.00     0.054 A 
BRANCH  73  74
ATOM     74  S   UNL A   1      41.959  19.443  26.047  1.00  0.00     0.124 S 
ATOM     75  O   UNL A   1      42.410  18.607  27.154  1.00  0.00    -0.237 OA
ATOM     76  O   UNL A   1      40.524  19.414  25.773  1.00  0.00    -0.237 OA
ATOM     77  O   UNL A   1      42.812  19.424  24.859  1.00  0.00    -0.744 OA
ENDBRANCH  73  74
ENDBRANCH  45  68
BRANCH  57  78
ATOM     78  C   UNL A   1      47.753  27.118  30.854  1.00  0.00    -0.014 A 
ATOM     79  C   UNL A   1      48.822  27.240  29.948  1.00  0.00     0.010 A 
ATOM     80  C   UNL A   1      48.006  26.672  32.164  1.00  0.00     0.010 A 
ATOM     81  C   UNL A   1      50.116  26.890  30.338  1.00  0.00     0.020 A 
ATOM     82  C   UNL A   1      49.303  26.351  32.567  1.00  0.00     0.020 A 
ATOM     83  C   UNL A   1      50.348  26.450  31.645  1.00  0.00     0.054 A 
BRANCH  83  84
ATOM     84  S   UNL A   1      52.045  26.049  32.140  1.00  0.00     0.124 S 
ATOM     85  O   UNL A   1      52.774  26.221  30.887  1.00  0.00    -0.237 OA
ATOM     86  O   UNL A   1      52.322  27.046  33.171  1.00  0.00    -0.237 OA
ATOM     87  O   UNL A   1      51.950  24.672  32.622  1.00  0.00    -0.744 OA
ENDBRANCH  83  84
ENDBRANCH  57  78
ENDBRANCH  31  32
ENDBRANCH  23  26
ENDBRANCH  21  22
ENDBRANCH  20  21
ENDBRANCH   1  20
TORSDOF 19
ENDMDL
MODEL 2
REMARK VINA RESULT:      -9.1      1.593      2.131
REMARK SMILES [NH3+][C@H](CSCc1ccco1)C(=O)NCCCCNC(=O)c1ccc(-c2c3nc(c(-c4ccc(S(=O)(=O)[O-])cc4)c4ccc([nH]4)c(-c4ccc(S(=O)(=O)[O-])cc4)c4nc(c(-c5ccc(S(=O)(=O)[O-])cc5)c5ccc2[nH]5)C=C4)C=C3)cc1
REMARK SMILES IDX 15 1 14 2 13 3 11 4 12 5 2 7 1 8 3 12 4 13 5 14 6 15 7 16
REMARK SMILES IDX 10 17 8 18 9 19 16 20 17 21 18 22 19 23 20 25 21 26 22 27
REMARK SMILES IDX 80 28 23 29 79 30 24 31 25 32 26 33 73 34 27 35 78 36 72 37
REMARK SMILES IDX 74 38 28 39 77 40 71 41 70 42 29 44 59 45 40 46 58 47 41 48
REMARK SMILES IDX 44 49 57 50 75 51 42 52 43 53 56 55 76 56 45 57 30 58 31 59
REMARK SMILES IDX 39 60 32 61 38 62 33 63 34 64 35 65 36 66 37 67 60 68 61 69
REMARK SMILES IDX 69 70 62 71 68 72 63 73 64 74 65 75 66 76 67 77 46 78 47 79
REMARK SMILES IDX 55 80 48 81 54 82 49 83 50 84 51 85 52 86 53 87
REMARK H PARENT 13 6 1 9 1 10 1 11 18 24 74 43 44 54
REMARK Flexibility Score: inf
ROOT
ATOM      1  C   UNL A   1      33.182  27.181  25.127  1.00  0.00     0.023 C 
ENDROOT
BRANCH   1   2
ATOM      2  C   UNL A   1      33.664  25.750  25.340  1.00  0.00     0.116 C 
BRANCH   2   3
ATOM      3  N   UNL A   1      32.868  25.073  26.346  1.00  0.00    -0.351 N 
ATOM      4  C   UNL A   1      32.012  24.022  26.316  1.00  0.00     0.279 C 
ATOM      5  O   UNL A   1      31.468  23.755  27.399  1.00  0.00    -0.268 OA
ATOM      6  H   UNL A   1      32.973  25.458  27.246  1.00  0.00     0.163 HD
BRANCH   4   7
ATOM      7  C   UNL A   1      31.616  23.188  25.079  1.00  0.00     0.280 C 
BRANCH   7   8
ATOM      8  N   UNL A   1      30.510  23.714  24.261  1.00  0.00    -0.347 N 
ATOM      9  H   UNL A   1      30.231  23.011  23.576  1.00  0.00     0.345 HD
ATOM     10  H   UNL A   1      30.816  24.557  23.776  1.00  0.00     0.345 HD
ATOM     11  H   UNL A   1      29.717  23.936  24.863  1.00  0.00     0.345 HD
ENDBRANCH   7   8
BRANCH   7  12
ATOM     12  C   UNL A   1      31.585  21.674  25.407  1.00  0.00     0.145 C 
BRANCH  12  13
ATOM     13  S   UNL A   1      33.029  20.604  25.021  1.00  0.00    -0.147 SA
BRANCH  13  14
ATOM     14  C   UNL A   1      32.278  19.191  24.185  1.00  0.00     0.145 C 
BRANCH  14  15
ATOM     15  C   UNL A   1      33.016  17.896  24.218  1.00  0.00     0.113 A 
ATOM     16  C   UNL A   1      33.865  17.227  23.353  1.00  0.00     0.046 A 
ATOM     17  O   UNL A   1      33.028  17.255  25.429  1.00  0.00    -0.468 OA
ATOM     18  C   UNL A   1      34.440  16.156  24.076  1.00  0.00     0.042 A 
ATOM     19  C   UNL A   1      33.891  16.211  25.332  1.00  0.00     0.195 A 
ENDBRANCH  14  15
ENDBRANCH  13  14
ENDBRANCH  12  13
ENDBRANCH   7  12
ENDBRANCH   4   7
ENDBRANCH   2   3
ENDBRANCH   1   2
BRANCH   1  20
ATOM     20  C   UNL A   1      33.973  28.255  25.850  1.00  0.00     0.023 C 
BRANCH  20  21
ATOM     21  C   UNL A   1      33.451  28.514  27.244  1.00  0.00     0.116 C 
BRANCH  21  22
ATOM     22  N   UNL A   1      33.388  29.942  27.558  1.00  0.00    -0.352 N 
ATOM     23  C   UNL A   1      34.339  30.745  28.144  1.00  0.00     0.251 C 
ATOM     24  H   UNL A   1      32.548  30.391  27.315  1.00  0.00     0.163 HD
ATOM     25  O   UNL A   1      34.056  31.882  28.512  1.00  0.00    -0.269 OA
BRANCH  23  26
ATOM     26  C   UNL A   1      35.695  30.202  28.340  1.00  0.00     0.039 A 
ATOM     27  C   UNL A   1      36.637  30.276  27.314  1.00  0.00     0.014 A 
ATOM     28  C   UNL A   1      36.047  29.699  29.591  1.00  0.00     0.014 A 
ATOM     29  C   UNL A   1      37.957  29.911  27.578  1.00  0.00     0.010 A 
ATOM     30  C   UNL A   1      37.382  29.512  29.895  1.00  0.00     0.010 A 
ATOM     31  C   UNL A   1      38.347  29.569  28.884  1.00  0.00    -0.014 A 
BRANCH  31  32
ATOM     32  C   UNL A   1      39.740  29.191  29.228  1.00  0.00     0.031 A 
ATOM     33  C   UNL A   1      40.622  30.206  29.913  1.00  0.00     0.074 A 
ATOM     34  C   UNL A   1      40.229  27.994  28.853  1.00  0.00     0.049 A 
ATOM     35  N   UNL A   1      41.898  30.140  30.188  1.00  0.00    -0.248 NA
ATOM     36  C   UNL A   1      40.002  31.493  30.283  1.00  0.00     0.031 C 
ATOM     37  C   UNL A   1      39.492  26.959  28.121  1.00  0.00     0.029 A 
ATOM     38  N   UNL A   1      41.472  27.444  29.035  1.00  0.00    -0.354 N 
ATOM     39  C   UNL A   1      42.232  31.384  30.715  1.00  0.00     0.074 A 
ATOM     40  C   UNL A   1      41.053  32.212  30.637  1.00  0.00     0.031 C 
ATOM     41  C   UNL A   1      40.279  25.883  27.966  1.00  0.00     0.029 A 
ATOM     42  C   UNL A   1      41.589  26.167  28.540  1.00  0.00     0.049 A 
ATOM     43  H   UNL A   1      42.211  27.919  29.480  1.00  0.00     0.167 HD
ATOM     44  C   UNL A   1      43.402  31.789  31.258  1.00  0.00     0.031 A 
ATOM     45  C   UNL A   1      42.638  25.321  28.553  1.00  0.00     0.031 A 
ATOM     46  C   UNL A   1      44.546  30.932  31.389  1.00  0.00     0.049 A 
ATOM     47  C   UNL A   1      43.917  25.773  29.205  1.00  0.00     0.074 A 
ATOM     48  C   UNL A   1      45.758  31.200  31.995  1.00  0.00     0.029 A 
ATOM     49  N   UNL A   1      44.608  29.629  30.918  1.00  0.00    -0.354 N 
ATOM     50  N   UNL A   1      44.194  26.930  29.760  1.00  0.00    -0.248 NA
ATOM     51  C   UNL A   1      45.019  24.804  29.246  1.00  0.00     0.031 C 
ATOM     52  C   UNL A   1      46.572  30.072  31.850  1.00  0.00     0.029 A 
ATOM     53  C   UNL A   1      45.844  29.083  31.206  1.00  0.00     0.049 A 
ATOM     54  H   UNL A   1      43.880  29.163  30.447  1.00  0.00     0.167 HD
ATOM     55  C   UNL A   1      45.493  26.818  30.241  1.00  0.00     0.074 A 
ATOM     56  C   UNL A   1      45.939  25.475  29.926  1.00  0.00     0.031 C 
ATOM     57  C   UNL A   1      46.253  27.739  30.883  1.00  0.00     0.031 A 
BRANCH  44  58
ATOM     58  C   UNL A   1      43.482  33.205  31.767  1.00  0.00    -0.014 A 
ATOM     59  C   UNL A   1      43.933  34.252  30.940  1.00  0.00     0.010 A 
ATOM     60  C   UNL A   1      43.093  33.498  33.086  1.00  0.00     0.010 A 
ATOM     61  C   UNL A   1      44.044  35.552  31.438  1.00  0.00     0.020 A 
ATOM     62  C   UNL A   1      43.169  34.805  33.577  1.00  0.00     0.020 A 
ATOM     63  C   UNL A   1      43.663  35.820  32.755  1.00  0.00     0.054 A 
BRANCH  63  64
ATOM     64  S   UNL A   1      43.796  37.522  33.366  1.00  0.00     0.124 S 
ATOM     65  O   UNL A   1      42.580  37.651  34.165  1.00  0.00    -0.237 OA
ATOM     66  O   UNL A   1      45.044  37.493  34.123  1.00  0.00    -0.237 OA
ATOM     67  O   UNL A   1      43.828  38.327  32.146  1.00  0.00    -0.744 OA
ENDBRANCH  63  64
ENDBRANCH  44  58
BRANCH  45  68
ATOM     68  C   UNL A   1      42.506  23.959  27.967  1.00  0.00    -0.014 A 
ATOM     69  C   UNL A   1      42.780  23.738  26.604  1.00  0.00     0.010 A 
ATOM     70  C   UNL A   1      42.125  22.867  28.769  1.00  0.00     0.010 A 
ATOM     71  C   UNL A   1      42.657  22.459  26.052  1.00  0.00     0.020 A 
ATOM     72  C   UNL A   1      42.029  21.581  28.228  1.00  0.00     0.020 A 
ATOM     73  C   UNL A   1      42.285  21.388  26.869  1.00  0.00     0.054 A 
BRANCH  73  74
ATOM     74  S   UNL A   1      42.179  19.729  26.141  1.00  0.00     0.124 S 
ATOM     75  O   UNL A   1      42.602  18.882  27.251  1.00  0.00    -0.237 OA
ATOM     76  O   UNL A   1      40.768  19.635  25.775  1.00  0.00    -0.237 OA
ATOM     77  O   UNL A   1      43.104  19.791  25.011  1.00  0.00    -0.744 OA
ENDBRANCH  73  74
ENDBRANCH  45  68
BRANCH  57  78
ATOM     78  C   UNL A   1      47.627  27.316  31.320  1.00  0.00    -0.014 A 
ATOM     79  C   UNL A   1      47.837  26.700  32.567  1.00  0.00     0.010 A 
ATOM     80  C   UNL A   1      48.712  27.473  30.437  1.00  0.00     0.010 A 
ATOM     81  C   UNL A   1      49.116  26.279  32.935  1.00  0.00     0.020 A 
ATOM     82  C   UNL A   1      49.985  27.025  30.789  1.00  0.00     0.020 A 
ATOM     83  C   UNL A   1      50.181  26.442  32.043  1.00  0.00     0.054 A 
BRANCH  83  84
ATOM     84  S   UNL A   1      51.821  25.841  32.527  1.00  0.00     0.124 S 
ATOM     85  O   UNL A   1      52.336  25.316  31.267  1.00  0.00    -0.237 OA
ATOM     86  O   UNL A   1      52.473  27.053  33.018  1.00  0.00    -0.237 OA
ATOM     87  O   UNL A   1      51.534  24.838  33.550  1.00  0.00    -0.744 OA
ENDBRANCH  83  84
ENDBRANCH  57  78
ENDBRANCH  31  32
ENDBRANCH  23  26
ENDBRANCH  21  22
ENDBRANCH  20  21
ENDBRANCH   1  20
TORSDOF 19
ENDMDL
MODEL 3
REMARK VINA RESULT:      -9.1      1.879      3.433
REMARK SMILES [NH3+][C@H](CSCc1ccco1)C(=O)NCCCCNC(=O)c1ccc(-c2c3nc(c(-c4ccc(S(=O)(=O)[O-])cc4)c4ccc([nH]4)c(-c4ccc(S(=O)(=O)[O-])cc4)c4nc(c(-c5ccc(S(=O)(=O)[O-])cc5)c5ccc2[nH]5)C=C4)C=C3)cc1
REMARK SMILES IDX 15 1 14 2 13 3 11 4 12 5 2 7 1 8 3 12 4 13 5 14 6 15 7 16
REMARK SMILES IDX 10 17 8 18 9 19 16 20 17 21 18 22 19 23 20 25 21 26 22 27
REMARK SMILES IDX 80 28 23 29 79 30 24 31 25 32 26 33 73 34 27 35 78 36 72 37
REMARK SMILES IDX 74 38 28 39 77 40 71 41 70 42 29 44 59 45 40 46 58 47 41 48
REMARK SMILES IDX 44 49 57 50 75 51 42 52 43 53 56 55 76 56 45 57 30 58 31 59
REMARK SMILES IDX 39 60 32 61 38 62 33 63 34 64 35 65 36 66 37 67 60 68 61 69
REMARK SMILES IDX 69 70 62 71 68 72 63 73 64 74 65 75 66 76 67 77 46 78 47 79
REMARK SMILES IDX 55 80 48 81 54 82 49 83 50 84 51 85 52 86 53 87
REMARK H PARENT 13 6 1 9 1 10 1 11 18 24 74 43 44 54
REMARK Flexibility Score: inf
ROOT
ATOM      1  C   UNL A   1      33.088  27.548  25.073  1.00  0.00     0.023 C 
ENDROOT
BRANCH   1   2
ATOM      2  C   UNL A   1      33.655  26.284  24.436  1.00  0.00     0.116 C 
BRANCH   2   3
ATOM      3  N   UNL A   1      33.307  25.105  25.206  1.00  0.00    -0.351 N 
ATOM      4  C   UNL A   1      32.209  24.313  25.267  1.00  0.00     0.279 C 
ATOM      5  O   UNL A   1      32.263  23.400  26.106  1.00  0.00    -0.268 OA
ATOM      6  H   UNL A   1      34.024  24.816  25.815  1.00  0.00     0.163 HD
BRANCH   4   7
ATOM      7  C   UNL A   1      30.907  24.475  24.454  1.00  0.00     0.280 C 
BRANCH   7   8
ATOM      8  N   UNL A   1      31.011  24.266  23.000  1.00  0.00    -0.347 N 
ATOM      9  H   UNL A   1      30.904  23.273  22.791  1.00  0.00     0.345 HD
ATOM     10  H   UNL A   1      31.923  24.586  22.675  1.00  0.00     0.345 HD
ATOM     11  H   UNL A   1      30.277  24.794  22.527  1.00  0.00     0.345 HD
ENDBRANCH   7   8
BRANCH   7  12
ATOM     12  C   UNL A   1      30.099  25.712  24.926  1.00  0.00     0.145 C 
BRANCH  12  13
ATOM     13  S   UNL A   1      28.859  26.495  23.818  1.00  0.00    -0.147 SA
BRANCH  13  14
ATOM     14  C   UNL A   1      29.784  27.850  23.064  1.00  0.00     0.145 C 
BRANCH  14  15
ATOM     15  C   UNL A   1      29.012  29.029  22.578  1.00  0.00     0.113 A 
ATOM     16  C   UNL A   1      27.880  29.704  23.001  1.00  0.00     0.046 A 
ATOM     17  O   UNL A   1      29.609  29.755  21.581  1.00  0.00    -0.468 OA
ATOM     18  C   UNL A   1      27.803  30.902  22.254  1.00  0.00     0.042 A 
ATOM     19  C   UNL A   1      28.875  30.881  21.398  1.00  0.00     0.195 A 
ENDBRANCH  14  15
ENDBRANCH  13  14
ENDBRANCH  12  13
ENDBRANCH   7  12
ENDBRANCH   4   7
ENDBRANCH   2   3
ENDBRANCH   1   2
BRANCH   1  20
ATOM     20  C   UNL A   1      34.097  28.439  25.773  1.00  0.00     0.023 C 
BRANCH  20  21
ATOM     21  C   UNL A   1      33.833  28.554  27.256  1.00  0.00     0.116 C 
BRANCH  21  22
ATOM     22  N   UNL A   1      33.807  29.944  27.710  1.00  0.00    -0.352 N 
ATOM     23  C   UNL A   1      34.783  30.667  28.356  1.00  0.00     0.251 C 
ATOM     24  H   UNL A   1      32.972  30.432  27.527  1.00  0.00     0.163 HD
ATOM     25  O   UNL A   1      34.531  31.767  28.838  1.00  0.00    -0.269 OA
BRANCH  23  26
ATOM     26  C   UNL A   1      36.131  30.080  28.473  1.00  0.00     0.039 A 
ATOM     27  C   UNL A   1      37.045  30.203  27.427  1.00  0.00     0.014 A 
ATOM     28  C   UNL A   1      36.505  29.483  29.676  1.00  0.00     0.014 A 
ATOM     29  C   UNL A   1      38.362  29.790  27.626  1.00  0.00     0.010 A 
ATOM     30  C   UNL A   1      37.842  29.245  29.926  1.00  0.00     0.010 A 
ATOM     31  C   UNL A   1      38.780  29.349  28.893  1.00  0.00    -0.014 A 
BRANCH  31  32
ATOM     32  C   UNL A   1      40.172  28.916  29.169  1.00  0.00     0.031 A 
ATOM     33  C   UNL A   1      41.126  29.895  29.807  1.00  0.00     0.074 A 
ATOM     34  C   UNL A   1      40.594  27.700  28.772  1.00  0.00     0.049 A 
ATOM     35  N   UNL A   1      42.411  29.778  30.019  1.00  0.00    -0.248 NA
ATOM     36  C   UNL A   1      40.577  31.206  30.204  1.00  0.00     0.031 C 
ATOM     37  C   UNL A   1      39.780  26.695  28.081  1.00  0.00     0.029 A 
ATOM     38  N   UNL A   1      41.821  27.101  28.894  1.00  0.00    -0.354 N 
ATOM     39  C   UNL A   1      42.820  31.008  30.525  1.00  0.00     0.074 A 
ATOM     40  C   UNL A   1      41.673  31.882  30.505  1.00  0.00     0.031 C 
ATOM     41  C   UNL A   1      40.516  25.589  27.889  1.00  0.00     0.029 A 
ATOM     42  C   UNL A   1      41.863  25.820  28.397  1.00  0.00     0.049 A 
ATOM     43  H   UNL A   1      42.599  27.547  29.301  1.00  0.00     0.167 HD
ATOM     44  C   UNL A   1      44.030  31.366  31.009  1.00  0.00     0.031 A 
ATOM     45  C   UNL A   1      42.876  24.933  28.360  1.00  0.00     0.031 A 
ATOM     46  C   UNL A   1      45.144  30.464  31.086  1.00  0.00     0.049 A 
ATOM     47  C   UNL A   1      44.202  25.334  28.947  1.00  0.00     0.074 A 
ATOM     48  C   UNL A   1      46.395  30.684  31.631  1.00  0.00     0.029 A 
ATOM     49  N   UNL A   1      45.131  29.160  30.614  1.00  0.00    -0.354 N 
ATOM     50  N   UNL A   1      44.553  26.479  29.484  1.00  0.00    -0.248 NA
ATOM     51  C   UNL A   1      45.266  24.321  28.935  1.00  0.00     0.031 C 
ATOM     52  C   UNL A   1      47.155  29.524  31.448  1.00  0.00     0.029 A 
ATOM     53  C   UNL A   1      46.357  28.565  30.843  1.00  0.00     0.049 A 
ATOM     54  H   UNL A   1      44.362  28.722  30.182  1.00  0.00     0.167 HD
ATOM     55  C   UNL A   1      45.868  26.315  29.901  1.00  0.00     0.074 A 
ATOM     56  C   UNL A   1      46.244  24.955  29.567  1.00  0.00     0.031 C 
ATOM     57  C   UNL A   1      46.695  27.206  30.503  1.00  0.00     0.031 A 
BRANCH  44  58
ATOM     58  C   UNL A   1      44.192  32.777  31.511  1.00  0.00    -0.014 A 
ATOM     59  C   UNL A   1      43.832  33.130  32.826  1.00  0.00     0.010 A 
ATOM     60  C   UNL A   1      44.720  33.766  30.662  1.00  0.00     0.010 A 
ATOM     61  C   UNL A   1      43.946  34.451  33.263  1.00  0.00     0.020 A 
ATOM     62  C   UNL A   1      44.869  35.083  31.107  1.00  0.00     0.020 A 
ATOM     63  C   UNL A   1      44.463  35.421  32.399  1.00  0.00     0.054 A 
BRANCH  63  64
ATOM     64  S   UNL A   1      44.621  37.123  33.004  1.00  0.00     0.124 S 
ATOM     65  O   UNL A   1      45.849  37.563  32.346  1.00  0.00    -0.237 OA
ATOM     66  O   UNL A   1      43.392  37.748  32.523  1.00  0.00    -0.237 OA
ATOM     67  O   UNL A   1      44.713  36.969  34.454  1.00  0.00    -0.744 OA
ENDBRANCH  63  64
ENDBRANCH  44  58
BRANCH  45  68
ATOM     68  C   UNL A   1      42.661  23.577  27.784  1.00  0.00    -0.014 A 
ATOM     69  C   UNL A   1      42.935  23.326  26.426  1.00  0.00     0.010 A 
ATOM     70  C   UNL A   1      42.201  22.520  28.591  1.00  0.00     0.010 A 
ATOM     71  C   UNL A   1      42.733  22.053  25.884  1.00  0.00     0.020 A 
ATOM     72  C   UNL A   1      42.026  21.239  28.060  1.00  0.00     0.020 A 
ATOM     73  C   UNL A   1      42.283  21.016  26.706  1.00  0.00     0.054 A 
BRANCH  73  74
ATOM     74  S   UNL A   1      42.075  19.361  25.991  1.00  0.00     0.124 S 
ATOM     75  O   UNL A   1      42.581  18.503  27.058  1.00  0.00    -0.237 OA
ATOM     76  O   UNL A   1      40.635  19.297  25.756  1.00  0.00    -0.237 OA
ATOM     77  O   UNL A   1      42.895  19.405  24.781  1.00  0.00    -0.744 OA
ENDBRANCH  73  74
ENDBRANCH  45  68
BRANCH  57  78
ATOM     78  C   UNL A   1      48.072  26.728  30.872  1.00  0.00    -0.014 A 
ATOM     79  C   UNL A   1      49.174  26.963  30.031  1.00  0.00     0.010 A 
ATOM     80  C   UNL A   1      48.274  26.097  32.114  1.00  0.00     0.010 A 
ATOM     81  C   UNL A   1      50.450  26.546  30.413  1.00  0.00     0.020 A 
ATOM     82  C   UNL A   1      49.552  25.708  32.513  1.00  0.00     0.020 A 
ATOM     83  C   UNL A   1      50.631  25.922  31.652  1.00  0.00     0.054 A 
BRANCH  83  84
ATOM     84  S   UNL A   1      52.306  25.435  32.144  1.00  0.00     0.124 S 
ATOM     85  O   UNL A   1      53.081  25.766  30.952  1.00  0.00    -0.237 OA
ATOM     86  O   UNL A   1      52.555  26.279  33.310  1.00  0.00    -0.237 OA
ATOM     87  O   UNL A   1      52.182  24.007  32.431  1.00  0.00    -0.744 OA
ENDBRANCH  83  84
ENDBRANCH  57  78
ENDBRANCH  31  32
ENDBRANCH  23  26
ENDBRANCH  21  22
ENDBRANCH  20  21
ENDBRANCH   1  20
TORSDOF 19
ENDMDL
