MODEL 1
REMARK VINA RESULT:     -11.3      0.000      0.000
REMARK SMILES Cc1csc(NC(=O)[C@@H]2CC=CC[C@H]2C(=O)NCCCCNC(=O)c2ccc(-c3c4nc(c(-c5ccc(S(=O)(=O)[O-])cc5)c5ccc([nH]5)c(-c5ccc(S(=O)(=O)[O-])cc5)c5nc(c(-c6ccc(S(=O)(=O)[O-])cc6)c6ccc3[nH]6)C=C5)C=C4)cc2)n1
REMARK SMILES IDX 20 1 19 2 18 3 17 4 15 5 16 6 14 8 9 9 10 10 11 11 13 12
REMARK SMILES IDX 12 13 7 14 6 15 8 17 5 18 1 19 2 20 3 21 85 22 4 23 21 24
REMARK SMILES IDX 22 25 23 26 24 28 25 29 26 30 84 31 27 32 83 33 28 34 29 35
REMARK SMILES IDX 30 36 77 37 31 38 82 39 76 40 78 41 32 42 81 43 75 44 74 45
REMARK SMILES IDX 33 47 63 48 44 49 62 50 45 51 48 52 61 53 79 54 46 55 47 56
REMARK SMILES IDX 60 58 80 59 49 60 34 61 35 62 43 63 36 64 42 65 37 66 38 67
REMARK SMILES IDX 39 68 40 69 41 70 64 71 65 72 73 73 66 74 72 75 67 76 68 77
REMARK SMILES IDX 69 78 70 79 71 80 50 81 51 82 59 83 52 84 58 85 53 86 54 87
REMARK SMILES IDX 55 88 56 89 57 90
REMARK H PARENT 17 7 6 16 22 27 78 46 48 57
REMARK Flexibility Score: inf
ROOT
ATOM      1  C   UNL A   1      32.012  27.883  27.142  1.00  0.00     0.023 C 
ENDROOT
BRANCH   1   2
ATOM      2  C   UNL A   1      31.981  26.576  26.348  1.00  0.00     0.023 C 
BRANCH   2   3
ATOM      3  C   UNL A   1      33.357  25.959  26.110  1.00  0.00     0.116 C 
BRANCH   3   4
ATOM      4  N   UNL A   1      33.491  25.484  24.746  1.00  0.00    -0.356 N 
ATOM      5  C   UNL A   1      34.131  24.390  24.246  1.00  0.00     0.224 C 
ATOM      6  O   UNL A   1      33.987  24.139  23.046  1.00  0.00    -0.275 OA
ATOM      7  H   UNL A   1      33.049  26.046  24.070  1.00  0.00     0.163 HD
BRANCH   5   8
ATOM      8  C   UNL A   1      34.879  23.420  25.158  1.00  0.00     0.095 C 
ATOM      9  C   UNL A   1      34.497  21.916  24.967  1.00  0.00     0.095 C 
ATOM     10  C   UNL A   1      35.592  21.011  25.529  1.00  0.00     0.041 C 
ATOM     11  C   UNL A   1      37.009  21.437  25.357  1.00  0.00    -0.030 C 
ATOM     12  C   UNL A   1      36.372  23.811  25.058  1.00  0.00     0.041 C 
ATOM     13  C   UNL A   1      37.363  22.704  25.146  1.00  0.00    -0.030 C 
BRANCH   9  14
ATOM     14  C   UNL A   1      33.038  21.700  25.459  1.00  0.00     0.230 C 
ATOM     15  N   UNL A   1      32.267  20.588  25.408  1.00  0.00    -0.302 N 
ATOM     16  H   UNL A   1      31.338  20.733  25.699  1.00  0.00     0.172 HD
ATOM     17  O   UNL A   1      32.421  22.682  25.904  1.00  0.00    -0.274 OA
BRANCH  15  18
ATOM     18  C   UNL A   1      32.533  19.313  25.032  1.00  0.00     0.189 A 
ATOM     19  C   UNL A   1      32.535  15.815  25.699  1.00  0.00     0.068 C 
ATOM     20  C   UNL A   1      32.636  17.111  24.986  1.00  0.00     0.051 A 
ATOM     21  C   UNL A   1      32.648  17.356  23.627  1.00  0.00     0.092 A 
ATOM     22  N   UNL A   1      32.666  18.246  25.760  1.00  0.00    -0.225 NA
ATOM     23  S   UNL A   1      32.632  19.056  23.346  1.00  0.00    -0.105 S 
ENDBRANCH  15  18
ENDBRANCH   9  14
ENDBRANCH   5   8
ENDBRANCH   3   4
ENDBRANCH   2   3
ENDBRANCH   1   2
BRANCH   1  24
ATOM     24  C   UNL A   1      33.394  28.506  27.300  1.00  0.00     0.116 C 
BRANCH  24  25
ATOM     25  N   UNL A   1      33.345  29.932  27.583  1.00  0.00    -0.352 N 
ATOM     26  C   UNL A   1      34.331  30.736  28.108  1.00  0.00     0.251 C 
ATOM     27  H   UNL A   1      32.495  30.382  27.370  1.00  0.00     0.163 HD
ATOM     28  O   UNL A   1      34.089  31.896  28.409  1.00  0.00    -0.269 OA
BRANCH  26  29
ATOM     29  C   UNL A   1      35.675  30.162  28.336  1.00  0.00     0.039 A 
ATOM     30  C   UNL A   1      36.593  30.158  27.285  1.00  0.00     0.014 A 
ATOM     31  C   UNL A   1      36.036  29.681  29.597  1.00  0.00     0.014 A 
ATOM     32  C   UNL A   1      37.901  29.734  27.519  1.00  0.00     0.010 A 
ATOM     33  C   UNL A   1      37.358  29.327  29.845  1.00  0.00     0.010 A 
ATOM     34  C   UNL A   1      38.305  29.353  28.810  1.00  0.00    -0.014 A 
BRANCH  34  35
ATOM     35  C   UNL A   1      39.716  28.994  29.101  1.00  0.00     0.031 A 
ATOM     36  C   UNL A   1      40.648  30.015  29.696  1.00  0.00     0.074 A 
ATOM     37  C   UNL A   1      40.175  27.771  28.766  1.00  0.00     0.049 A 
ATOM     38  N   UNL A   1      41.924  29.908  29.962  1.00  0.00    -0.248 NA
ATOM     39  C   UNL A   1      40.077  31.336  30.009  1.00  0.00     0.031 C 
ATOM     40  C   UNL A   1      39.384  26.708  28.140  1.00  0.00     0.029 A 
ATOM     41  N   UNL A   1      41.424  27.217  28.896  1.00  0.00    -0.354 N 
ATOM     42  C   UNL A   1      42.311  31.148  30.456  1.00  0.00     0.074 A 
ATOM     43  C   UNL A   1      41.148  32.006  30.409  1.00  0.00     0.031 C 
ATOM     44  C   UNL A   1      40.158  25.626  27.966  1.00  0.00     0.029 A 
ATOM     45  C   UNL A   1      41.509  25.927  28.427  1.00  0.00     0.049 A 
ATOM     46  H   UNL A   1      42.188  27.698  29.290  1.00  0.00     0.167 HD
ATOM     47  C   UNL A   1      43.523  31.531  30.926  1.00  0.00     0.031 A 
ATOM     48  C   UNL A   1      42.557  25.083  28.368  1.00  0.00     0.031 A 
ATOM     49  C   UNL A   1      44.674  30.672  30.985  1.00  0.00     0.049 A 
ATOM     50  C   UNL A   1      43.893  25.535  28.893  1.00  0.00     0.074 A 
ATOM     51  C   UNL A   1      45.929  30.949  31.499  1.00  0.00     0.029 A 
ATOM     52  N   UNL A   1      44.713  29.367  30.518  1.00  0.00    -0.354 N 
ATOM     53  N   UNL A   1      44.221  26.690  29.422  1.00  0.00    -0.248 NA
ATOM     54  C   UNL A   1      44.996  24.567  28.826  1.00  0.00     0.031 C 
ATOM     55  C   UNL A   1      46.741  29.831  31.297  1.00  0.00     0.029 A 
ATOM     56  C   UNL A   1      45.977  28.834  30.710  1.00  0.00     0.049 A 
ATOM     57  H   UNL A   1      43.955  28.890  30.108  1.00  0.00     0.167 HD
ATOM     58  C   UNL A   1      45.561  26.575  29.777  1.00  0.00     0.074 A 
ATOM     59  C   UNL A   1      45.977  25.235  29.416  1.00  0.00     0.031 C 
ATOM     60  C   UNL A   1      46.373  27.496  30.350  1.00  0.00     0.031 A 
BRANCH  47  61
ATOM     61  C   UNL A   1      43.666  32.950  31.414  1.00  0.00    -0.014 A 
ATOM     62  C   UNL A   1      43.593  33.256  32.785  1.00  0.00     0.010 A 
ATOM     63  C   UNL A   1      43.930  33.982  30.496  1.00  0.00     0.010 A 
ATOM     64  C   UNL A   1      43.748  34.573  33.225  1.00  0.00     0.020 A 
ATOM     65  C   UNL A   1      44.113  35.297  30.935  1.00  0.00     0.020 A 
ATOM     66  C   UNL A   1      44.006  35.585  32.297  1.00  0.00     0.054 A 
BRANCH  66  67
ATOM     67  S   UNL A   1      44.239  37.279  32.902  1.00  0.00     0.124 S 
ATOM     68  O   UNL A   1      45.425  37.137  33.743  1.00  0.00    -0.237 OA
ATOM     69  O   UNL A   1      44.433  38.035  31.667  1.00  0.00    -0.237 OA
ATOM     70  O   UNL A   1      43.000  37.567  33.618  1.00  0.00    -0.744 OA
ENDBRANCH  66  67
ENDBRANCH  47  61
BRANCH  48  71
ATOM     71  C   UNL A   1      42.386  23.717  27.800  1.00  0.00    -0.014 A 
ATOM     72  C   UNL A   1      42.068  22.631  28.634  1.00  0.00     0.010 A 
ATOM     73  C   UNL A   1      42.542  23.495  26.419  1.00  0.00     0.010 A 
ATOM     74  C   UNL A   1      41.934  21.344  28.103  1.00  0.00     0.020 A 
ATOM     75  C   UNL A   1      42.381  22.215  25.881  1.00  0.00     0.020 A 
ATOM     76  C   UNL A   1      42.093  21.145  26.730  1.00  0.00     0.054 A 
BRANCH  76  77
ATOM     77  S   UNL A   1      41.879  19.473  26.058  1.00  0.00     0.124 S 
ATOM     78  O   UNL A   1      42.339  18.640  27.164  1.00  0.00    -0.237 OA
ATOM     79  O   UNL A   1      40.446  19.423  25.783  1.00  0.00    -0.237 OA
ATOM     80  O   UNL A   1      42.733  19.469  24.871  1.00  0.00    -0.744 OA
ENDBRANCH  76  77
ENDBRANCH  48  71
BRANCH  60  81
ATOM     81  C   UNL A   1      47.785  27.078  30.664  1.00  0.00    -0.014 A 
ATOM     82  C   UNL A   1      48.841  27.347  29.776  1.00  0.00     0.010 A 
ATOM     83  C   UNL A   1      48.065  26.456  31.895  1.00  0.00     0.010 A 
ATOM     84  C   UNL A   1      50.149  26.975  30.101  1.00  0.00     0.020 A 
ATOM     85  C   UNL A   1      49.374  26.107  32.235  1.00  0.00     0.020 A 
ATOM     86  C   UNL A   1      50.406  26.357  31.329  1.00  0.00     0.054 A 
BRANCH  86  87
ATOM     87  S   UNL A   1      52.117  25.924  31.747  1.00  0.00     0.124 S 
ATOM     88  O   UNL A   1      51.973  24.557  32.239  1.00  0.00    -0.237 OA
ATOM     89  O   UNL A   1      52.806  26.062  30.465  1.00  0.00    -0.237 OA
ATOM     90  O   UNL A   1      52.488  26.913  32.757  1.00  0.00    -0.744 OA
ENDBRANCH  86  87
ENDBRANCH  60  81
ENDBRANCH  34  35
ENDBRANCH  26  29
ENDBRANCH  24  25
ENDBRANCH   1  24
TORSDOF 16
ENDMDL
MODEL 2
REMARK VINA RESULT:     -11.1      1.797      2.948
REMARK SMILES Cc1csc(NC(=O)[C@@H]2CC=CC[C@H]2C(=O)NCCCCNC(=O)c2ccc(-c3c4nc(c(-c5ccc(S(=O)(=O)[O-])cc5)c5ccc([nH]5)c(-c5ccc(S(=O)(=O)[O-])cc5)c5nc(c(-c6ccc(S(=O)(=O)[O-])cc6)c6ccc3[nH]6)C=C5)C=C4)cc2)n1
REMARK SMILES IDX 20 1 19 2 18 3 17 4 15 5 16 6 14 8 9 9 10 10 11 11 13 12
REMARK SMILES IDX 12 13 7 14 6 15 8 17 5 18 1 19 2 20 3 21 85 22 4 23 21 24
REMARK SMILES IDX 22 25 23 26 24 28 25 29 26 30 84 31 27 32 83 33 28 34 29 35
REMARK SMILES IDX 30 36 77 37 31 38 82 39 76 40 78 41 32 42 81 43 75 44 74 45
REMARK SMILES IDX 33 47 63 48 44 49 62 50 45 51 48 52 61 53 79 54 46 55 47 56
REMARK SMILES IDX 60 58 80 59 49 60 34 61 35 62 43 63 36 64 42 65 37 66 38 67
REMARK SMILES IDX 39 68 40 69 41 70 64 71 65 72 73 73 66 74 72 75 67 76 68 77
REMARK SMILES IDX 69 78 70 79 71 80 50 81 51 82 59 83 52 84 58 85 53 86 54 87
REMARK SMILES IDX 55 88 56 89 57 90
REMARK H PARENT 17 7 6 16 22 27 78 46 48 57
REMARK Flexibility Score: inf
ROOT
ATOM      1  C   UNL A   1      32.499  28.108  26.196  1.00  0.00     0.023 C 
ENDROOT
BRANCH   1   2
ATOM      2  C   UNL A   1      31.498  27.045  26.652  1.00  0.00     0.023 C 
BRANCH   2   3
ATOM      3  C   UNL A   1      31.974  25.611  26.438  1.00  0.00     0.116 C 
BRANCH   3   4
ATOM      4  N   UNL A   1      30.887  24.665  26.603  1.00  0.00    -0.356 N 
ATOM      5  C   UNL A   1      30.884  23.303  26.582  1.00  0.00     0.224 C 
ATOM      6  O   UNL A   1      29.834  22.726  26.879  1.00  0.00    -0.275 OA
ATOM      7  H   UNL A   1      30.005  25.075  26.756  1.00  0.00     0.163 HD
BRANCH   5   8
ATOM      8  C   UNL A   1      32.167  22.508  26.345  1.00  0.00     0.095 C 
ATOM      9  C   UNL A   1      32.955  22.907  25.056  1.00  0.00     0.095 C 
ATOM     10  C   UNL A   1      34.406  22.440  25.151  1.00  0.00     0.041 C 
ATOM     11  C   UNL A   1      35.080  22.518  26.478  1.00  0.00    -0.030 C 
ATOM     12  C   UNL A   1      32.925  22.516  27.694  1.00  0.00     0.041 C 
ATOM     13  C   UNL A   1      34.411  22.550  27.628  1.00  0.00    -0.030 C 
BRANCH   9  14
ATOM     14  C   UNL A   1      32.126  22.486  23.809  1.00  0.00     0.230 C 
ATOM     15  N   UNL A   1      31.429  23.254  22.939  1.00  0.00    -0.302 N 
ATOM     16  H   UNL A   1      30.905  22.739  22.284  1.00  0.00     0.172 HD
ATOM     17  O   UNL A   1      31.993  21.272  23.579  1.00  0.00    -0.274 OA
BRANCH  15  18
ATOM     18  C   UNL A   1      31.317  24.598  22.799  1.00  0.00     0.189 A 
ATOM     19  C   UNL A   1      29.731  27.683  23.605  1.00  0.00     0.068 C 
ATOM     20  C   UNL A   1      30.703  26.698  23.072  1.00  0.00     0.051 A 
ATOM     21  C   UNL A   1      31.987  26.907  22.610  1.00  0.00     0.092 A 
ATOM     22  N   UNL A   1      30.318  25.378  23.079  1.00  0.00    -0.225 NA
ATOM     23  S   UNL A   1      32.724  25.393  22.245  1.00  0.00    -0.105 S 
ENDBRANCH  15  18
ENDBRANCH   9  14
ENDBRANCH   5   8
ENDBRANCH   3   4
ENDBRANCH   2   3
ENDBRANCH   1   2
BRANCH   1  24
ATOM     24  C   UNL A   1      33.513  28.531  27.252  1.00  0.00     0.116 C 
BRANCH  24  25
ATOM     25  N   UNL A   1      33.465  29.955  27.549  1.00  0.00    -0.352 N 
ATOM     26  C   UNL A   1      34.441  30.747  28.108  1.00  0.00     0.251 C 
ATOM     27  H   UNL A   1      32.623  30.411  27.320  1.00  0.00     0.163 HD
ATOM     28  O   UNL A   1      34.197  31.905  28.416  1.00  0.00    -0.269 OA
BRANCH  26  29
ATOM     29  C   UNL A   1      35.775  30.164  28.364  1.00  0.00     0.039 A 
ATOM     30  C   UNL A   1      36.727  30.185  27.344  1.00  0.00     0.014 A 
ATOM     31  C   UNL A   1      36.094  29.648  29.623  1.00  0.00     0.014 A 
ATOM     32  C   UNL A   1      38.026  29.752  27.609  1.00  0.00     0.010 A 
ATOM     33  C   UNL A   1      37.406  29.284  29.905  1.00  0.00     0.010 A 
ATOM     34  C   UNL A   1      38.387  29.335  28.902  1.00  0.00    -0.014 A 
BRANCH  34  35
ATOM     35  C   UNL A   1      39.787  28.964  29.229  1.00  0.00     0.031 A 
ATOM     36  C   UNL A   1      40.702  29.967  29.877  1.00  0.00     0.074 A 
ATOM     37  C   UNL A   1      40.253  27.747  28.880  1.00  0.00     0.049 A 
ATOM     38  N   UNL A   1      41.969  29.850  30.181  1.00  0.00    -0.248 NA
ATOM     39  C   UNL A   1      40.125  31.283  30.203  1.00  0.00     0.031 C 
ATOM     40  C   UNL A   1      39.479  26.703  28.204  1.00  0.00     0.029 A 
ATOM     41  N   UNL A   1      41.496  27.186  29.037  1.00  0.00    -0.354 N 
ATOM     42  C   UNL A   1      42.344  31.076  30.716  1.00  0.00     0.074 A 
ATOM     43  C   UNL A   1      41.185  31.939  30.653  1.00  0.00     0.031 C 
ATOM     44  C   UNL A   1      40.255  25.622  28.029  1.00  0.00     0.029 A 
ATOM     45  C   UNL A   1      41.592  25.907  28.540  1.00  0.00     0.049 A 
ATOM     46  H   UNL A   1      42.248  27.655  29.466  1.00  0.00     0.167 HD
ATOM     47  C   UNL A   1      43.541  31.444  31.233  1.00  0.00     0.031 A 
ATOM     48  C   UNL A   1      42.639  25.061  28.494  1.00  0.00     0.031 A 
ATOM     49  C   UNL A   1      44.687  30.579  31.309  1.00  0.00     0.049 A 
ATOM     50  C   UNL A   1      43.959  25.496  29.072  1.00  0.00     0.074 A 
ATOM     51  C   UNL A   1      45.925  30.840  31.869  1.00  0.00     0.029 A 
ATOM     52  N   UNL A   1      44.737  29.285  30.812  1.00  0.00    -0.354 N 
ATOM     53  N   UNL A   1      44.273  26.637  29.639  1.00  0.00    -0.248 NA
ATOM     54  C   UNL A   1      45.061  24.526  29.017  1.00  0.00     0.031 C 
ATOM     55  C   UNL A   1      46.741  29.724  31.666  1.00  0.00     0.029 A 
ATOM     56  C   UNL A   1      45.993  28.744  31.032  1.00  0.00     0.049 A 
ATOM     57  H   UNL A   1      43.992  28.821  30.368  1.00  0.00     0.167 HD
ATOM     58  C   UNL A   1      45.601  26.509  30.033  1.00  0.00     0.074 A 
ATOM     59  C   UNL A   1      46.024  25.177  29.654  1.00  0.00     0.031 C 
ATOM     60  C   UNL A   1      46.397  27.414  30.653  1.00  0.00     0.031 A 
BRANCH  47  61
ATOM     61  C   UNL A   1      43.672  32.850  31.759  1.00  0.00    -0.014 A 
ATOM     62  C   UNL A   1      43.917  33.929  30.891  1.00  0.00     0.010 A 
ATOM     63  C   UNL A   1      43.494  33.102  33.131  1.00  0.00     0.010 A 
ATOM     64  C   UNL A   1      44.016  35.231  31.390  1.00  0.00     0.020 A 
ATOM     65  C   UNL A   1      43.564  34.407  33.631  1.00  0.00     0.020 A 
ATOM     66  C   UNL A   1      43.839  35.461  32.757  1.00  0.00     0.054 A 
BRANCH  66  67
ATOM     67  S   UNL A   1      43.936  37.165  33.370  1.00  0.00     0.124 S 
ATOM     68  O   UNL A   1      42.665  37.303  34.076  1.00  0.00    -0.237 OA
ATOM     69  O   UNL A   1      45.125  37.132  34.219  1.00  0.00    -0.237 OA
ATOM     70  O   UNL A   1      44.063  37.966  32.156  1.00  0.00    -0.744 OA
ENDBRANCH  66  67
ENDBRANCH  47  61
BRANCH  48  71
ATOM     71  C   UNL A   1      42.482  23.710  27.888  1.00  0.00    -0.014 A 
ATOM     72  C   UNL A   1      42.058  22.622  28.670  1.00  0.00     0.010 A 
ATOM     73  C   UNL A   1      42.759  23.504  26.524  1.00  0.00     0.010 A 
ATOM     74  C   UNL A   1      41.937  21.348  28.107  1.00  0.00     0.020 A 
ATOM     75  C   UNL A   1      42.613  22.237  25.951  1.00  0.00     0.020 A 
ATOM     76  C   UNL A   1      42.217  21.164  26.751  1.00  0.00     0.054 A 
BRANCH  76  77
ATOM     77  S   UNL A   1      42.018  19.509  26.032  1.00  0.00     0.124 S 
ATOM     78  O   UNL A   1      40.578  19.449  25.803  1.00  0.00    -0.237 OA
ATOM     79  O   UNL A   1      42.847  19.583  24.833  1.00  0.00    -0.237 OA
ATOM     80  O   UNL A   1      42.524  18.620  27.076  1.00  0.00    -0.744 OA
ENDBRANCH  76  77
ENDBRANCH  48  71
BRANCH  60  81
ATOM     81  C   UNL A   1      47.797  26.983  31.001  1.00  0.00    -0.014 A 
ATOM     82  C   UNL A   1      48.083  26.339  32.218  1.00  0.00     0.010 A 
ATOM     83  C   UNL A   1      48.832  27.176  30.067  1.00  0.00     0.010 A 
ATOM     84  C   UNL A   1      49.385  25.923  32.507  1.00  0.00     0.020 A 
ATOM     85  C   UNL A   1      50.129  26.737  30.342  1.00  0.00     0.020 A 
ATOM     86  C   UNL A   1      50.400  26.124  31.566  1.00  0.00     0.054 A 
BRANCH  86  87
ATOM     87  S   UNL A   1      52.072  25.535  31.946  1.00  0.00     0.124 S 
ATOM     88  O   UNL A   1      52.391  26.284  33.158  1.00  0.00    -0.237 OA
ATOM     89  O   UNL A   1      51.873  24.098  32.128  1.00  0.00    -0.237 OA
ATOM     90  O   UNL A   1      52.847  25.905  30.764  1.00  0.00    -0.744 OA
ENDBRANCH  86  87
ENDBRANCH  60  81
ENDBRANCH  34  35
ENDBRANCH  26  29
ENDBRANCH  24  25
ENDBRANCH   1  24
TORSDOF 16
ENDMDL
MODEL 3
REMARK VINA RESULT:     -10.9      2.861      9.332
REMARK SMILES Cc1csc(NC(=O)[C@@H]2CC=CC[C@H]2C(=O)NCCCCNC(=O)c2ccc(-c3c4nc(c(-c5ccc(S(=O)(=O)[O-])cc5)c5ccc([nH]5)c(-c5ccc(S(=O)(=O)[O-])cc5)c5nc(c(-c6ccc(S(=O)(=O)[O-])cc6)c6ccc3[nH]6)C=C5)C=C4)cc2)n1
REMARK SMILES IDX 20 1 19 2 18 3 17 4 15 5 16 6 14 8 9 9 10 10 11 11 13 12
REMARK SMILES IDX 12 13 7 14 6 15 8 17 5 18 1 19 2 20 3 21 85 22 4 23 21 24
REMARK SMILES IDX 22 25 23 26 24 28 25 29 26 30 84 31 27 32 83 33 28 34 29 35
REMARK SMILES IDX 30 36 77 37 31 38 82 39 76 40 78 41 32 42 81 43 75 44 74 45
REMARK SMILES IDX 33 47 63 48 44 49 62 50 45 51 48 52 61 53 79 54 46 55 47 56
REMARK SMILES IDX 60 58 80 59 49 60 34 61 35 62 43 63 36 64 42 65 37 66 38 67
REMARK SMILES IDX 39 68 40 69 41 70 64 71 65 72 73 73 66 74 72 75 67 76 68 77
REMARK SMILES IDX 69 78 70 79 71 80 50 81 51 82 59 83 52 84 58 85 53 86 54 87
REMARK SMILES IDX 55 88 56 89 57 90
REMARK H PARENT 17 7 6 16 22 27 78 46 48 57
REMARK Flexibility Score: inf
ROOT
ATOM      1  C   UNL A   1      35.509  22.849  25.545  1.00  0.00     0.023 C 
ENDROOT
BRANCH   1   2
ATOM      2  C   UNL A   1      34.551  23.384  26.612  1.00  0.00     0.023 C 
BRANCH   2   3
ATOM      3  C   UNL A   1      33.629  24.495  26.119  1.00  0.00     0.116 C 
BRANCH   3   4
ATOM      4  N   UNL A   1      32.328  24.420  26.756  1.00  0.00    -0.356 N 
ATOM      5  C   UNL A   1      31.200  23.745  26.395  1.00  0.00     0.224 C 
ATOM      6  O   UNL A   1      30.253  23.745  27.187  1.00  0.00    -0.275 OA
ATOM      7  H   UNL A   1      32.245  24.943  27.586  1.00  0.00     0.163 HD
BRANCH   5   8
ATOM      8  C   UNL A   1      31.154  22.895  25.128  1.00  0.00     0.095 C 
ATOM      9  C   UNL A   1      31.655  23.617  23.835  1.00  0.00     0.095 C 
ATOM     10  C   UNL A   1      32.031  22.597  22.764  1.00  0.00     0.041 C 
ATOM     11  C   UNL A   1      32.690  21.333  23.202  1.00  0.00    -0.030 C 
ATOM     12  C   UNL A   1      31.802  21.540  25.503  1.00  0.00     0.041 C 
ATOM     13  C   UNL A   1      32.585  20.854  24.440  1.00  0.00    -0.030 C 
BRANCH   9  14
ATOM     14  C   UNL A   1      30.644  24.739  23.462  1.00  0.00     0.230 C 
ATOM     15  N   UNL A   1      30.740  26.078  23.637  1.00  0.00    -0.302 N 
ATOM     16  H   UNL A   1      29.920  26.570  23.403  1.00  0.00     0.172 HD
ATOM     17  O   UNL A   1      29.541  24.401  23.000  1.00  0.00    -0.274 OA
BRANCH  15  18
ATOM     18  C   UNL A   1      31.752  26.869  24.073  1.00  0.00     0.189 A 
ATOM     19  C   UNL A   1      33.655  28.302  26.720  1.00  0.00     0.068 C 
ATOM     20  C   UNL A   1      33.222  27.884  25.365  1.00  0.00     0.051 A 
ATOM     21  C   UNL A   1      33.950  27.854  24.191  1.00  0.00     0.092 A 
ATOM     22  N   UNL A   1      31.941  27.402  25.241  1.00  0.00    -0.225 NA
ATOM     23  S   UNL A   1      33.002  27.142  22.941  1.00  0.00    -0.105 S 
ENDBRANCH  15  18
ENDBRANCH   9  14
ENDBRANCH   5   8
ENDBRANCH   3   4
ENDBRANCH   2   3
ENDBRANCH   1   2
BRANCH   1  24
ATOM     24  C   UNL A   1      36.846  23.573  25.461  1.00  0.00     0.116 C 
BRANCH  24  25
ATOM     25  N   UNL A   1      37.987  22.677  25.589  1.00  0.00    -0.352 N 
ATOM     26  C   UNL A   1      39.223  22.937  26.135  1.00  0.00     0.251 C 
ATOM     27  H   UNL A   1      37.856  21.766  25.240  1.00  0.00     0.163 HD
ATOM     28  O   UNL A   1      40.122  22.113  26.048  1.00  0.00    -0.269 OA
BRANCH  26  29
ATOM     29  C   UNL A   1      39.455  24.240  26.793  1.00  0.00     0.039 A 
ATOM     30  C   UNL A   1      38.978  24.435  28.090  1.00  0.00     0.014 A 
ATOM     31  C   UNL A   1      40.184  25.241  26.146  1.00  0.00     0.014 A 
ATOM     32  C   UNL A   1      39.296  25.612  28.768  1.00  0.00     0.010 A 
ATOM     33  C   UNL A   1      40.560  26.382  26.848  1.00  0.00     0.010 A 
ATOM     34  C   UNL A   1      40.122  26.578  28.167  1.00  0.00    -0.014 A 
BRANCH  34  35
ATOM     35  C   UNL A   1      40.553  27.791  28.908  1.00  0.00     0.031 A 
ATOM     36  C   UNL A   1      41.896  27.825  29.585  1.00  0.00     0.074 A 
ATOM     37  C   UNL A   1      39.706  28.834  29.028  1.00  0.00     0.049 A 
ATOM     38  N   UNL A   1      42.420  28.766  30.326  1.00  0.00    -0.248 NA
ATOM     39  C   UNL A   1      42.752  26.636  29.429  1.00  0.00     0.031 C 
ATOM     40  C   UNL A   1      38.358  28.904  28.458  1.00  0.00     0.029 A 
ATOM     41  N   UNL A   1      39.850  30.034  29.678  1.00  0.00    -0.354 N 
ATOM     42  C   UNL A   1      43.654  28.279  30.738  1.00  0.00     0.074 A 
ATOM     43  C   UNL A   1      43.782  26.941  30.204  1.00  0.00     0.031 C 
ATOM     44  C   UNL A   1      37.811  30.092  28.761  1.00  0.00     0.029 A 
ATOM     45  C   UNL A   1      38.749  30.852  29.581  1.00  0.00     0.049 A 
ATOM     46  H   UNL A   1      40.667  30.285  30.168  1.00  0.00     0.167 HD
ATOM     47  C   UNL A   1      44.606  28.898  31.478  1.00  0.00     0.031 A 
ATOM     48  C   UNL A   1      38.517  32.074  30.098  1.00  0.00     0.031 A 
ATOM     49  C   UNL A   1      44.482  30.234  31.995  1.00  0.00     0.049 A 
ATOM     50  C   UNL A   1      39.589  32.738  30.919  1.00  0.00     0.074 A 
ATOM     51  C   UNL A   1      45.414  30.971  32.705  1.00  0.00     0.029 A 
ATOM     52  N   UNL A   1      43.359  31.036  31.858  1.00  0.00    -0.354 N 
ATOM     53  N   UNL A   1      40.779  32.288  31.239  1.00  0.00    -0.248 NA
ATOM     54  C   UNL A   1      39.292  34.080  31.440  1.00  0.00     0.031 C 
ATOM     55  C   UNL A   1      44.837  32.198  33.041  1.00  0.00     0.029 A 
ATOM     56  C   UNL A   1      43.567  32.251  32.490  1.00  0.00     0.049 A 
ATOM     57  H   UNL A   1      42.536  30.780  31.383  1.00  0.00     0.167 HD
ATOM     58  C   UNL A   1      41.382  33.304  31.972  1.00  0.00     0.074 A 
ATOM     59  C   UNL A   1      40.433  34.396  32.036  1.00  0.00     0.031 C 
ATOM     60  C   UNL A   1      42.613  33.330  32.540  1.00  0.00     0.031 A 
BRANCH  47  61
ATOM     61  C   UNL A   1      45.869  28.132  31.774  1.00  0.00    -0.014 A 
ATOM     62  C   UNL A   1      45.974  27.323  32.920  1.00  0.00     0.010 A 
ATOM     63  C   UNL A   1      46.943  28.179  30.868  1.00  0.00     0.010 A 
ATOM     64  C   UNL A   1      47.144  26.602  33.172  1.00  0.00     0.020 A 
ATOM     65  C   UNL A   1      48.106  27.437  31.103  1.00  0.00     0.020 A 
ATOM     66  C   UNL A   1      48.202  26.664  32.262  1.00  0.00     0.054 A 
BRANCH  66  67
ATOM     67  S   UNL A   1      49.694  25.688  32.596  1.00  0.00     0.124 S 
ATOM     68  O   UNL A   1      50.024  25.178  31.268  1.00  0.00    -0.237 OA
ATOM     69  O   UNL A   1      50.617  26.687  33.131  1.00  0.00    -0.237 OA
ATOM     70  O   UNL A   1      49.245  24.682  33.555  1.00  0.00    -0.744 OA
ENDBRANCH  66  67
ENDBRANCH  47  61
BRANCH  48  71
ATOM     71  C   UNL A   1      37.218  32.758  29.845  1.00  0.00    -0.014 A 
ATOM     72  C   UNL A   1      37.030  33.528  28.685  1.00  0.00     0.010 A 
ATOM     73  C   UNL A   1      36.162  32.643  30.768  1.00  0.00     0.010 A 
ATOM     74  C   UNL A   1      35.820  34.192  28.463  1.00  0.00     0.020 A 
ATOM     75  C   UNL A   1      34.941  33.282  30.535  1.00  0.00     0.020 A 
ATOM     76  C   UNL A   1      34.783  34.065  29.390  1.00  0.00     0.054 A 
BRANCH  76  77
ATOM     77  S   UNL A   1      33.208  34.906  29.063  1.00  0.00     0.124 S 
ATOM     78  O   UNL A   1      32.609  34.044  28.049  1.00  0.00    -0.237 OA
ATOM     79  O   UNL A   1      32.562  34.887  30.372  1.00  0.00    -0.237 OA
ATOM     80  O   UNL A   1      33.618  36.230  28.598  1.00  0.00    -0.744 OA
ENDBRANCH  76  77
ENDBRANCH  48  71
BRANCH  60  81
ATOM     81  C   UNL A   1      43.024  34.593  33.248  1.00  0.00    -0.014 A 
ATOM     82  C   UNL A   1      42.840  34.749  34.633  1.00  0.00     0.010 A 
ATOM     83  C   UNL A   1      43.659  35.618  32.521  1.00  0.00     0.010 A 
ATOM     84  C   UNL A   1      43.255  35.919  35.273  1.00  0.00     0.020 A 
ATOM     85  C   UNL A   1      44.099  36.778  33.162  1.00  0.00     0.020 A 
ATOM     86  C   UNL A   1      43.883  36.927  34.533  1.00  0.00     0.054 A 
BRANCH  86  87
ATOM     87  S   UNL A   1      44.453  38.417  35.394  1.00  0.00     0.124 S 
ATOM     88  O   UNL A   1      45.901  38.330  35.226  1.00  0.00    -0.237 OA
ATOM     89  O   UNL A   1      43.797  39.490  34.650  1.00  0.00    -0.237 OA
ATOM     90  O   UNL A   1      43.973  38.232  36.762  1.00  0.00    -0.744 OA
ENDBRANCH  86  87
ENDBRANCH  60  81
ENDBRANCH  34  35
ENDBRANCH  26  29
ENDBRANCH  24  25
ENDBRANCH   1  24
TORSDOF 16
ENDMDL
