MODEL 1
REMARK VINA RESULT:     -11.1      0.000      0.000
REMARK SMILES CC(C)(C)c1ccc(C(=O)C[C@H](C(=O)NCCCCNC(=O)c2ccc(-c3c4nc(c(-c5ccc(S(=O)(=O)[O-])cc5)c5ccc([nH]5)c(-c5ccc(S(=O)(=O)[O-])cc5)c5nc(c(-c6ccc(S(=O)(=O)[O-])cc6)c6ccc3[nH]6)C=C5)C=C4)cc2)[NH+]2CCCC2)cc1
REMARK SMILES IDX 17 1 16 2 15 3 13 4 14 5 12 7 11 8 9 9 10 10 8 11 5 12 6 13
REMARK SMILES IDX 89 14 7 15 88 16 2 17 1 18 3 19 4 20 83 21 84 22 87 23 85 25
REMARK SMILES IDX 86 26 18 27 19 28 20 29 21 30 22 32 23 33 24 34 82 35 25 36
REMARK SMILES IDX 81 37 26 38 27 39 28 40 75 41 29 42 80 43 74 44 76 45 30 46
REMARK SMILES IDX 79 47 73 48 72 49 31 51 61 52 42 53 60 54 43 55 46 56 59 57
REMARK SMILES IDX 77 58 44 59 45 60 58 62 78 63 47 64 32 65 33 66 41 67 34 68
REMARK SMILES IDX 40 69 35 70 36 71 37 72 38 73 39 74 62 75 63 76 71 77 64 78
REMARK SMILES IDX 70 79 65 80 66 81 67 82 68 83 69 84 48 85 49 86 57 87 50 88
REMARK SMILES IDX 56 89 51 90 52 91 53 92 54 93 55 94
REMARK H PARENT 15 6 83 24 20 31 76 50 46 61
REMARK Flexibility Score: inf
ROOT
ATOM      1  C   UNL A   1      31.482  27.297  26.909  1.00  0.00     0.023 C 
ENDROOT
BRANCH   1   2
ATOM      2  C   UNL A   1      32.231  25.985  26.672  1.00  0.00     0.116 C 
BRANCH   2   3
ATOM      3  N   UNL A   1      31.509  25.056  25.820  1.00  0.00    -0.351 N 
ATOM      4  C   UNL A   1      31.948  24.214  24.835  1.00  0.00     0.278 C 
ATOM      5  O   UNL A   1      31.129  23.399  24.406  1.00  0.00    -0.268 OA
ATOM      6  H   UNL A   1      30.538  25.027  25.979  1.00  0.00     0.163 HD
BRANCH   4   7
ATOM      7  C   UNL A   1      33.405  24.293  24.318  1.00  0.00     0.281 C 
BRANCH   7   8
ATOM      8  C   UNL A   1      33.866  25.685  23.834  1.00  0.00     0.156 C 
BRANCH   8   9
ATOM      9  C   UNL A   1      33.193  26.335  22.640  1.00  0.00     0.169 C 
ATOM     10  O   UNL A   1      33.509  26.022  21.491  1.00  0.00    -0.294 OA
BRANCH   9  11
ATOM     11  C   UNL A   1      32.076  27.300  22.837  1.00  0.00     0.018 A 
ATOM     12  C   UNL A   1      29.848  29.046  22.917  1.00  0.00    -0.043 A 
ATOM     13  C   UNL A   1      29.679  27.652  22.906  1.00  0.00     0.005 A 
ATOM     14  C   UNL A   1      31.168  29.539  22.952  1.00  0.00     0.005 A 
ATOM     15  C   UNL A   1      30.778  26.790  22.869  1.00  0.00     0.012 A 
ATOM     16  C   UNL A   1      32.272  28.679  22.926  1.00  0.00     0.012 A 
BRANCH  12  17
ATOM     17  C   UNL A   1      28.652  30.004  22.794  1.00  0.00    -0.013 C 
ATOM     18  C   UNL A   1      27.306  29.404  23.257  1.00  0.00     0.016 C 
ATOM     19  C   UNL A   1      28.494  30.359  21.305  1.00  0.00     0.016 C 
ATOM     20  C   UNL A   1      28.879  31.295  23.610  1.00  0.00     0.016 C 
ENDBRANCH  12  17
ENDBRANCH   9  11
ENDBRANCH   8   9
ENDBRANCH   7   8
BRANCH   7  21
ATOM     21  N   UNL A   1      34.444  23.737  25.250  1.00  0.00    -0.324 N 
ATOM     22  C   UNL A   1      35.813  23.899  24.740  1.00  0.00     0.263 C 
ATOM     23  C   UNL A   1      34.370  22.303  25.569  1.00  0.00     0.263 C 
ATOM     24  H   UNL A   1      34.234  24.287  26.083  1.00  0.00     0.348 HD
ATOM     25  C   UNL A   1      36.048  22.681  23.867  1.00  0.00     0.067 C 
ATOM     26  C   UNL A   1      35.221  21.585  24.525  1.00  0.00     0.067 C 
ENDBRANCH   7  21
ENDBRANCH   4   7
ENDBRANCH   2   3
ENDBRANCH   1   2
BRANCH   1  27
ATOM     27  C   UNL A   1      32.203  28.577  26.479  1.00  0.00     0.023 C 
BRANCH  27  28
ATOM     28  C   UNL A   1      33.479  28.908  27.249  1.00  0.00     0.116 C 
BRANCH  28  29
ATOM     29  N   UNL A   1      33.496  30.254  27.800  1.00  0.00    -0.352 N 
ATOM     30  C   UNL A   1      34.528  30.920  28.426  1.00  0.00     0.251 C 
ATOM     31  H   UNL A   1      32.654  30.758  27.715  1.00  0.00     0.163 HD
ATOM     32  O   UNL A   1      34.343  32.038  28.899  1.00  0.00    -0.269 OA
BRANCH  30  33
ATOM     33  C   UNL A   1      35.849  30.269  28.556  1.00  0.00     0.039 A 
ATOM     34  C   UNL A   1      36.727  30.272  27.470  1.00  0.00     0.014 A 
ATOM     35  C   UNL A   1      36.237  29.689  29.764  1.00  0.00     0.014 A 
ATOM     36  C   UNL A   1      38.030  29.784  27.629  1.00  0.00     0.010 A 
ATOM     37  C   UNL A   1      37.557  29.270  29.938  1.00  0.00     0.010 A 
ATOM     38  C   UNL A   1      38.479  29.334  28.881  1.00  0.00    -0.014 A 
BRANCH  38  39
ATOM     39  C   UNL A   1      39.906  28.974  29.130  1.00  0.00     0.031 A 
ATOM     40  C   UNL A   1      40.880  30.002  29.649  1.00  0.00     0.074 A 
ATOM     41  C   UNL A   1      40.361  27.750  28.789  1.00  0.00     0.049 A 
ATOM     42  N   UNL A   1      42.178  29.912  29.792  1.00  0.00    -0.248 NA
ATOM     43  C   UNL A   1      40.326  31.311  30.031  1.00  0.00     0.031 C 
ATOM     44  C   UNL A   1      39.549  26.665  28.231  1.00  0.00     0.029 A 
ATOM     45  N   UNL A   1      41.626  27.213  28.846  1.00  0.00    -0.354 N 
ATOM     46  C   UNL A   1      42.600  31.156  30.244  1.00  0.00     0.074 A 
ATOM     47  C   UNL A   1      41.424  31.996  30.317  1.00  0.00     0.031 C 
ATOM     48  C   UNL A   1      40.327  25.592  28.022  1.00  0.00     0.029 A 
ATOM     49  C   UNL A   1      41.704  25.921  28.380  1.00  0.00     0.049 A 
ATOM     50  H   UNL A   1      42.405  27.708  29.190  1.00  0.00     0.167 HD
ATOM     51  C   UNL A   1      43.849  31.564  30.582  1.00  0.00     0.031 A 
ATOM     52  C   UNL A   1      42.758  25.093  28.237  1.00  0.00     0.031 A 
ATOM     53  C   UNL A   1      45.017  30.724  30.545  1.00  0.00     0.049 A 
ATOM     54  C   UNL A   1      44.132  25.562  28.628  1.00  0.00     0.074 A 
ATOM     55  C   UNL A   1      46.308  31.035  30.937  1.00  0.00     0.029 A 
ATOM     56  N   UNL A   1      45.039  29.413  30.098  1.00  0.00    -0.354 N 
ATOM     57  N   UNL A   1      44.497  26.727  29.105  1.00  0.00    -0.248 NA
ATOM     58  C   UNL A   1      45.237  24.604  28.466  1.00  0.00     0.031 C 
ATOM     59  C   UNL A   1      47.120  29.924  30.690  1.00  0.00     0.029 A 
ATOM     60  C   UNL A   1      46.324  28.905  30.191  1.00  0.00     0.049 A 
ATOM     61  H   UNL A   1      44.258  28.916  29.765  1.00  0.00     0.167 HD
ATOM     62  C   UNL A   1      45.866  26.631  29.330  1.00  0.00     0.074 A 
ATOM     63  C   UNL A   1      46.265  25.294  28.942  1.00  0.00     0.031 C 
ATOM     64  C   UNL A   1      46.713  27.568  29.820  1.00  0.00     0.031 A 
BRANCH  51  65
ATOM     65  C   UNL A   1      44.019  32.993  31.028  1.00  0.00    -0.014 A 
ATOM     66  C   UNL A   1      43.935  33.344  32.387  1.00  0.00     0.010 A 
ATOM     67  C   UNL A   1      44.314  33.990  30.081  1.00  0.00     0.010 A 
ATOM     68  C   UNL A   1      44.093  34.673  32.785  1.00  0.00     0.020 A 
ATOM     69  C   UNL A   1      44.503  35.317  30.478  1.00  0.00     0.020 A 
ATOM     70  C   UNL A   1      44.370  35.652  31.827  1.00  0.00     0.054 A 
BRANCH  70  71
ATOM     71  S   UNL A   1      44.582  37.369  32.373  1.00  0.00     0.124 S 
ATOM     72  O   UNL A   1      43.661  37.438  33.506  1.00  0.00    -0.237 OA
ATOM     73  O   UNL A   1      46.001  37.426  32.714  1.00  0.00    -0.237 OA
ATOM     74  O   UNL A   1      44.192  38.156  31.205  1.00  0.00    -0.744 OA
ENDBRANCH  70  71
ENDBRANCH  51  65
BRANCH  52  75
ATOM     75  C   UNL A   1      42.552  23.718  27.705  1.00  0.00    -0.014 A 
ATOM     76  C   UNL A   1      42.685  23.462  26.329  1.00  0.00     0.010 A 
ATOM     77  C   UNL A   1      42.237  22.655  28.572  1.00  0.00     0.010 A 
ATOM     78  C   UNL A   1      42.494  22.172  25.826  1.00  0.00     0.020 A 
ATOM     79  C   UNL A   1      42.069  21.359  28.077  1.00  0.00     0.020 A 
ATOM     80  C   UNL A   1      42.189  21.128  26.704  1.00  0.00     0.054 A 
BRANCH  80  81
ATOM     81  S   UNL A   1      42.003  19.450  26.038  1.00  0.00     0.124 S 
ATOM     82  O   UNL A   1      42.518  18.631  27.131  1.00  0.00    -0.237 OA
ATOM     83  O   UNL A   1      40.564  19.361  25.803  1.00  0.00    -0.237 OA
ATOM     84  O   UNL A   1      42.823  19.470  24.829  1.00  0.00    -0.744 OA
ENDBRANCH  80  81
ENDBRANCH  52  75
BRANCH  64  85
ATOM     85  C   UNL A   1      48.154  27.184  30.020  1.00  0.00    -0.014 A 
ATOM     86  C   UNL A   1      49.132  27.492  29.059  1.00  0.00     0.010 A 
ATOM     87  C   UNL A   1      48.547  26.596  31.237  1.00  0.00     0.010 A 
ATOM     88  C   UNL A   1      50.478  27.216  29.310  1.00  0.00     0.020 A 
ATOM     89  C   UNL A   1      49.895  26.337  31.499  1.00  0.00     0.020 A 
ATOM     90  C   UNL A   1      50.853  26.646  30.531  1.00  0.00     0.054 A 
BRANCH  90  91
ATOM     91  S   UNL A   1      52.615  26.377  30.869  1.00  0.00     0.124 S 
ATOM     92  O   UNL A   1      52.989  27.618  31.543  1.00  0.00    -0.237 OA
ATOM     93  O   UNL A   1      52.602  25.184  31.712  1.00  0.00    -0.237 OA
ATOM     94  O   UNL A   1      53.198  26.188  29.542  1.00  0.00    -0.744 OA
ENDBRANCH  90  91
ENDBRANCH  64  85
ENDBRANCH  38  39
ENDBRANCH  30  33
ENDBRANCH  28  29
ENDBRANCH  27  28
ENDBRANCH   1  27
TORSDOF 19
ENDMDL
MODEL 2
REMARK VINA RESULT:     -10.5      1.125      8.165
REMARK SMILES CC(C)(C)c1ccc(C(=O)C[C@H](C(=O)NCCCCNC(=O)c2ccc(-c3c4nc(c(-c5ccc(S(=O)(=O)[O-])cc5)c5ccc([nH]5)c(-c5ccc(S(=O)(=O)[O-])cc5)c5nc(c(-c6ccc(S(=O)(=O)[O-])cc6)c6ccc3[nH]6)C=C5)C=C4)cc2)[NH+]2CCCC2)cc1
REMARK SMILES IDX 17 1 16 2 15 3 13 4 14 5 12 7 11 8 9 9 10 10 8 11 5 12 6 13
REMARK SMILES IDX 89 14 7 15 88 16 2 17 1 18 3 19 4 20 83 21 84 22 87 23 85 25
REMARK SMILES IDX 86 26 18 27 19 28 20 29 21 30 22 32 23 33 24 34 82 35 25 36
REMARK SMILES IDX 81 37 26 38 27 39 28 40 75 41 29 42 80 43 74 44 76 45 30 46
REMARK SMILES IDX 79 47 73 48 72 49 31 51 61 52 42 53 60 54 43 55 46 56 59 57
REMARK SMILES IDX 77 58 44 59 45 60 58 62 78 63 47 64 32 65 33 66 41 67 34 68
REMARK SMILES IDX 40 69 35 70 36 71 37 72 38 73 39 74 62 75 63 76 71 77 64 78
REMARK SMILES IDX 70 79 65 80 66 81 67 82 68 83 69 84 48 85 49 86 57 87 50 88
REMARK SMILES IDX 56 89 51 90 52 91 53 92 54 93 55 94
REMARK H PARENT 15 6 83 24 20 31 76 50 46 61
REMARK Flexibility Score: inf
ROOT
ATOM      1  C   UNL A   1      31.496  27.166  26.477  1.00  0.00     0.023 C 
ENDROOT
BRANCH   1   2
ATOM      2  C   UNL A   1      31.968  25.719  26.329  1.00  0.00     0.116 C 
BRANCH   2   3
ATOM      3  N   UNL A   1      31.028  24.750  26.864  1.00  0.00    -0.351 N 
ATOM      4  C   UNL A   1      30.753  23.463  26.487  1.00  0.00     0.278 C 
ATOM      5  O   UNL A   1      30.034  22.812  27.248  1.00  0.00    -0.268 OA
ATOM      6  H   UNL A   1      30.497  25.074  27.627  1.00  0.00     0.163 HD
BRANCH   4   7
ATOM      7  C   UNL A   1      31.342  22.879  25.181  1.00  0.00     0.281 C 
BRANCH   7   8
ATOM      8  C   UNL A   1      30.845  23.535  23.874  1.00  0.00     0.156 C 
BRANCH   8   9
ATOM      9  C   UNL A   1      31.512  24.793  23.354  1.00  0.00     0.169 C 
ATOM     10  O   UNL A   1      32.707  24.797  23.055  1.00  0.00    -0.294 OA
BRANCH   9  11
ATOM     11  C   UNL A   1      30.712  26.026  23.113  1.00  0.00     0.018 A 
ATOM     12  C   UNL A   1      29.415  28.528  22.828  1.00  0.00    -0.043 A 
ATOM     13  C   UNL A   1      30.674  28.293  22.254  1.00  0.00     0.005 A 
ATOM     14  C   UNL A   1      28.795  27.452  23.495  1.00  0.00     0.005 A 
ATOM     15  C   UNL A   1      31.313  27.058  22.391  1.00  0.00     0.012 A 
ATOM     16  C   UNL A   1      29.427  26.209  23.626  1.00  0.00     0.012 A 
BRANCH  12  17
ATOM     17  C   UNL A   1      28.775  29.926  22.824  1.00  0.00    -0.013 C 
ATOM     18  C   UNL A   1      29.350  30.891  23.883  1.00  0.00     0.016 C 
ATOM     19  C   UNL A   1      27.280  29.752  23.142  1.00  0.00     0.016 C 
ATOM     20  C   UNL A   1      28.933  30.612  21.450  1.00  0.00     0.016 C 
ENDBRANCH  12  17
ENDBRANCH   9  11
ENDBRANCH   8   9
ENDBRANCH   7   8
BRANCH   7  21
ATOM     21  N   UNL A   1      32.841  22.793  25.138  1.00  0.00    -0.324 N 
ATOM     22  C   UNL A   1      33.327  21.712  24.267  1.00  0.00     0.263 C 
ATOM     23  C   UNL A   1      33.542  22.543  26.408  1.00  0.00     0.263 C 
ATOM     24  H   UNL A   1      33.054  23.733  24.806  1.00  0.00     0.348 HD
ATOM     25  C   UNL A   1      33.353  20.482  25.154  1.00  0.00     0.067 C 
ATOM     26  C   UNL A   1      33.666  21.028  26.541  1.00  0.00     0.067 C 
ENDBRANCH   7  21
ENDBRANCH   4   7
ENDBRANCH   2   3
ENDBRANCH   1   2
BRANCH   1  27
ATOM     27  C   UNL A   1      32.094  27.960  27.642  1.00  0.00     0.023 C 
BRANCH  27  28
ATOM     28  C   UNL A   1      33.438  28.629  27.364  1.00  0.00     0.116 C 
BRANCH  28  29
ATOM     29  N   UNL A   1      33.445  30.058  27.634  1.00  0.00    -0.352 N 
ATOM     30  C   UNL A   1      34.485  30.850  28.073  1.00  0.00     0.251 C 
ATOM     31  H   UNL A   1      32.590  30.523  27.483  1.00  0.00     0.163 HD
ATOM     32  O   UNL A   1      34.292  32.038  28.321  1.00  0.00    -0.269 OA
BRANCH  30  33
ATOM     33  C   UNL A   1      35.824  30.257  28.279  1.00  0.00     0.039 A 
ATOM     34  C   UNL A   1      36.716  30.188  27.208  1.00  0.00     0.014 A 
ATOM     35  C   UNL A   1      36.211  29.804  29.540  1.00  0.00     0.014 A 
ATOM     36  C   UNL A   1      38.031  29.760  27.426  1.00  0.00     0.010 A 
ATOM     37  C   UNL A   1      37.541  29.445  29.768  1.00  0.00     0.010 A 
ATOM     38  C   UNL A   1      38.476  29.441  28.720  1.00  0.00    -0.014 A 
BRANCH  38  39
ATOM     39  C   UNL A   1      39.910  29.152  29.017  1.00  0.00     0.031 A 
ATOM     40  C   UNL A   1      40.511  27.811  28.681  1.00  0.00     0.074 A 
ATOM     41  C   UNL A   1      40.654  30.057  29.688  1.00  0.00     0.049 A 
ATOM     42  N   UNL A   1      41.691  27.334  28.990  1.00  0.00    -0.248 NA
ATOM     43  C   UNL A   1      39.666  26.873  27.925  1.00  0.00     0.031 C 
ATOM     44  C   UNL A   1      40.197  31.380  30.123  1.00  0.00     0.029 A 
ATOM     45  N   UNL A   1      41.951  29.996  30.140  1.00  0.00    -0.354 N 
ATOM     46  C   UNL A   1      41.717  26.034  28.500  1.00  0.00     0.074 A 
ATOM     47  C   UNL A   1      40.421  25.784  27.905  1.00  0.00     0.031 C 
ATOM     48  C   UNL A   1      41.200  32.010  30.753  1.00  0.00     0.029 A 
ATOM     49  C   UNL A   1      42.358  31.123  30.816  1.00  0.00     0.049 A 
ATOM     50  H   UNL A   1      42.535  29.217  29.993  1.00  0.00     0.167 HD
ATOM     51  C   UNL A   1      42.729  25.131  28.526  1.00  0.00     0.031 A 
ATOM     52  C   UNL A   1      43.521  31.414  31.434  1.00  0.00     0.031 A 
ATOM     53  C   UNL A   1      44.031  25.384  29.084  1.00  0.00     0.049 A 
ATOM     54  C   UNL A   1      44.633  30.402  31.442  1.00  0.00     0.074 A 
ATOM     55  C   UNL A   1      45.137  24.551  29.091  1.00  0.00     0.029 A 
ATOM     56  N   UNL A   1      44.406  26.553  29.727  1.00  0.00    -0.354 N 
ATOM     57  N   UNL A   1      44.653  29.199  30.923  1.00  0.00    -0.248 NA
ATOM     58  C   UNL A   1      45.883  30.788  32.115  1.00  0.00     0.031 C 
ATOM     59  C   UNL A   1      46.170  25.201  29.774  1.00  0.00     0.029 A 
ATOM     60  C   UNL A   1      45.722  26.458  30.148  1.00  0.00     0.049 A 
ATOM     61  H   UNL A   1      43.825  27.334  29.864  1.00  0.00     0.167 HD
ATOM     62  C   UNL A   1      45.924  28.698  31.179  1.00  0.00     0.074 A 
ATOM     63  C   UNL A   1      46.648  29.728  31.895  1.00  0.00     0.031 C 
ATOM     64  C   UNL A   1      46.444  27.492  30.844  1.00  0.00     0.031 A 
BRANCH  51  65
ATOM     65  C   UNL A   1      42.468  23.773  27.928  1.00  0.00    -0.014 A 
ATOM     66  C   UNL A   1      42.672  23.532  26.557  1.00  0.00     0.010 A 
ATOM     67  C   UNL A   1      42.060  22.711  28.756  1.00  0.00     0.010 A 
ATOM     68  C   UNL A   1      42.424  22.269  26.017  1.00  0.00     0.020 A 
ATOM     69  C   UNL A   1      41.839  21.437  28.225  1.00  0.00     0.020 A 
ATOM     70  C   UNL A   1      42.003  21.231  26.853  1.00  0.00     0.054 A 
BRANCH  70  71
ATOM     71  S   UNL A   1      41.699  19.596  26.127  1.00  0.00     0.124 S 
ATOM     72  O   UNL A   1      42.042  18.709  27.236  1.00  0.00    -0.237 OA
ATOM     73  O   UNL A   1      40.280  19.654  25.787  1.00  0.00    -0.237 OA
ATOM     74  O   UNL A   1      42.610  19.549  24.985  1.00  0.00    -0.744 OA
ENDBRANCH  70  71
ENDBRANCH  51  65
BRANCH  52  75
ATOM     75  C   UNL A   1      43.699  32.738  32.091  1.00  0.00    -0.014 A 
ATOM     76  C   UNL A   1      43.403  32.898  33.456  1.00  0.00     0.010 A 
ATOM     77  C   UNL A   1      44.178  33.841  31.361  1.00  0.00     0.010 A 
ATOM     78  C   UNL A   1      43.570  34.139  34.077  1.00  0.00     0.020 A 
ATOM     79  C   UNL A   1      44.370  35.077  31.983  1.00  0.00     0.020 A 
ATOM     80  C   UNL A   1      44.055  35.221  33.337  1.00  0.00     0.054 A 
BRANCH  80  81
ATOM     81  S   UNL A   1      44.320  36.808  34.176  1.00  0.00     0.124 S 
ATOM     82  O   UNL A   1      45.716  36.702  34.589  1.00  0.00    -0.237 OA
ATOM     83  O   UNL A   1      44.043  37.776  33.117  1.00  0.00    -0.237 OA
ATOM     84  O   UNL A   1      43.342  36.787  35.262  1.00  0.00    -0.744 OA
ENDBRANCH  80  81
ENDBRANCH  52  75
BRANCH  64  85
ATOM     85  C   UNL A   1      47.881  27.219  31.195  1.00  0.00    -0.014 A 
ATOM     86  C   UNL A   1      48.231  26.583  32.398  1.00  0.00     0.010 A 
ATOM     87  C   UNL A   1      48.888  27.515  30.256  1.00  0.00     0.010 A 
ATOM     88  C   UNL A   1      49.563  26.250  32.658  1.00  0.00     0.020 A 
ATOM     89  C   UNL A   1      50.217  27.165  30.504  1.00  0.00     0.020 A 
ATOM     90  C   UNL A   1      50.547  26.537  31.707  1.00  0.00     0.054 A 
BRANCH  90  91
ATOM     91  S   UNL A   1      52.255  26.015  32.028  1.00  0.00     0.124 S 
ATOM     92  O   UNL A   1      52.600  26.809  33.204  1.00  0.00    -0.237 OA
ATOM     93  O   UNL A   1      52.114  24.579  32.259  1.00  0.00    -0.237 OA
ATOM     94  O   UNL A   1      52.964  26.376  30.803  1.00  0.00    -0.744 OA
ENDBRANCH  90  91
ENDBRANCH  64  85
ENDBRANCH  38  39
ENDBRANCH  30  33
ENDBRANCH  28  29
ENDBRANCH  27  28
ENDBRANCH   1  27
TORSDOF 19
ENDMDL
MODEL 3
REMARK VINA RESULT:     -10.4      1.537      9.090
REMARK SMILES CC(C)(C)c1ccc(C(=O)C[C@H](C(=O)NCCCCNC(=O)c2ccc(-c3c4nc(c(-c5ccc(S(=O)(=O)[O-])cc5)c5ccc([nH]5)c(-c5ccc(S(=O)(=O)[O-])cc5)c5nc(c(-c6ccc(S(=O)(=O)[O-])cc6)c6ccc3[nH]6)C=C5)C=C4)cc2)[NH+]2CCCC2)cc1
REMARK SMILES IDX 17 1 16 2 15 3 13 4 14 5 12 7 11 8 9 9 10 10 8 11 5 12 6 13
REMARK SMILES IDX 89 14 7 15 88 16 2 17 1 18 3 19 4 20 83 21 84 22 87 23 85 25
REMARK SMILES IDX 86 26 18 27 19 28 20 29 21 30 22 32 23 33 24 34 82 35 25 36
REMARK SMILES IDX 81 37 26 38 27 39 28 40 75 41 29 42 80 43 74 44 76 45 30 46
REMARK SMILES IDX 79 47 73 48 72 49 31 51 61 52 42 53 60 54 43 55 46 56 59 57
REMARK SMILES IDX 77 58 44 59 45 60 58 62 78 63 47 64 32 65 33 66 41 67 34 68
REMARK SMILES IDX 40 69 35 70 36 71 37 72 38 73 39 74 62 75 63 76 71 77 64 78
REMARK SMILES IDX 70 79 65 80 66 81 67 82 68 83 69 84 48 85 49 86 57 87 50 88
REMARK SMILES IDX 56 89 51 90 52 91 53 92 54 93 55 94
REMARK H PARENT 15 6 83 24 20 31 76 50 46 61
REMARK Flexibility Score: inf
ROOT
ATOM      1  C   UNL A   1      31.704  27.795  25.578  1.00  0.00     0.023 C 
ENDROOT
BRANCH   1   2
ATOM      2  C   UNL A   1      31.352  26.806  26.689  1.00  0.00     0.116 C 
BRANCH   2   3
ATOM      3  N   UNL A   1      30.770  25.570  26.196  1.00  0.00    -0.351 N 
ATOM      4  C   UNL A   1      31.346  24.486  25.589  1.00  0.00     0.278 C 
ATOM      5  O   UNL A   1      30.629  23.494  25.447  1.00  0.00    -0.268 OA
ATOM      6  H   UNL A   1      29.796  25.499  26.320  1.00  0.00     0.163 HD
BRANCH   4   7
ATOM      7  C   UNL A   1      32.823  24.529  25.130  1.00  0.00     0.281 C 
BRANCH   7   8
ATOM      8  C   UNL A   1      33.793  23.625  25.922  1.00  0.00     0.156 C 
BRANCH   8   9
ATOM      9  C   UNL A   1      34.908  22.891  25.200  1.00  0.00     0.169 C 
ATOM     10  O   UNL A   1      35.960  23.465  24.916  1.00  0.00    -0.294 OA
BRANCH   9  11
ATOM     11  C   UNL A   1      34.782  21.438  24.899  1.00  0.00     0.018 A 
ATOM     12  C   UNL A   1      34.351  18.656  24.588  1.00  0.00    -0.043 A 
ATOM     13  C   UNL A   1      33.300  19.575  24.442  1.00  0.00     0.005 A 
ATOM     14  C   UNL A   1      35.638  19.177  24.832  1.00  0.00     0.005 A 
ATOM     15  C   UNL A   1      33.512  20.948  24.591  1.00  0.00     0.012 A 
ATOM     16  C   UNL A   1      35.858  20.552  24.973  1.00  0.00     0.012 A 
BRANCH  12  17
ATOM     17  C   UNL A   1      34.102  17.139  24.587  1.00  0.00    -0.013 C 
ATOM     18  C   UNL A   1      35.260  16.304  25.177  1.00  0.00     0.016 C 
ATOM     19  C   UNL A   1      33.933  16.698  23.123  1.00  0.00     0.016 C 
ATOM     20  C   UNL A   1      32.829  16.778  25.384  1.00  0.00     0.016 C 
ENDBRANCH  12  17
ENDBRANCH   9  11
ENDBRANCH   8   9
ENDBRANCH   7   8
BRANCH   7  21
ATOM     21  N   UNL A   1      33.043  24.305  23.662  1.00  0.00    -0.324 N 
ATOM     22  C   UNL A   1      33.844  25.367  23.035  1.00  0.00     0.263 C 
ATOM     23  C   UNL A   1      31.851  24.229  22.802  1.00  0.00     0.263 C 
ATOM     24  H   UNL A   1      33.501  23.394  23.698  1.00  0.00     0.348 HD
ATOM     25  C   UNL A   1      32.837  26.434  22.648  1.00  0.00     0.067 C 
ATOM     26  C   UNL A   1      31.569  25.653  22.331  1.00  0.00     0.067 C 
ENDBRANCH   7  21
ENDBRANCH   4   7
ENDBRANCH   2   3
ENDBRANCH   1   2
BRANCH   1  27
ATOM     27  C   UNL A   1      33.069  28.482  25.687  1.00  0.00     0.023 C 
BRANCH  27  28
ATOM     28  C   UNL A   1      33.652  28.570  27.095  1.00  0.00     0.116 C 
BRANCH  28  29
ATOM     29  N   UNL A   1      33.568  29.900  27.678  1.00  0.00    -0.352 N 
ATOM     30  C   UNL A   1      34.549  30.627  28.319  1.00  0.00     0.251 C 
ATOM     31  H   UNL A   1      32.691  30.341  27.606  1.00  0.00     0.163 HD
ATOM     32  O   UNL A   1      34.282  31.716  28.819  1.00  0.00    -0.269 OA
BRANCH  30  33
ATOM     33  C   UNL A   1      35.917  30.075  28.432  1.00  0.00     0.039 A 
ATOM     34  C   UNL A   1      36.774  30.132  27.331  1.00  0.00     0.014 A 
ATOM     35  C   UNL A   1      36.365  29.535  29.638  1.00  0.00     0.014 A 
ATOM     36  C   UNL A   1      38.111  29.741  27.471  1.00  0.00     0.010 A 
ATOM     37  C   UNL A   1      37.715  29.214  29.792  1.00  0.00     0.010 A 
ATOM     38  C   UNL A   1      38.612  29.336  28.719  1.00  0.00    -0.014 A 
BRANCH  38  39
ATOM     39  C   UNL A   1      40.065  29.083  28.946  1.00  0.00     0.031 A 
ATOM     40  C   UNL A   1      40.679  27.750  28.598  1.00  0.00     0.074 A 
ATOM     41  C   UNL A   1      40.822  30.014  29.565  1.00  0.00     0.049 A 
ATOM     42  N   UNL A   1      41.883  27.303  28.852  1.00  0.00    -0.248 NA
ATOM     43  C   UNL A   1      39.817  26.782  27.900  1.00  0.00     0.031 C 
ATOM     44  C   UNL A   1      40.358  31.333  30.004  1.00  0.00     0.029 A 
ATOM     45  N   UNL A   1      42.142  29.988  29.950  1.00  0.00    -0.354 N 
ATOM     46  C   UNL A   1      41.914  25.997  28.380  1.00  0.00     0.074 A 
ATOM     47  C   UNL A   1      40.596  25.710  27.856  1.00  0.00     0.031 C 
ATOM     48  C   UNL A   1      41.378  31.995  30.572  1.00  0.00     0.029 A 
ATOM     49  C   UNL A   1      42.558  31.134  30.588  1.00  0.00     0.049 A 
ATOM     50  H   UNL A   1      42.736  29.220  29.784  1.00  0.00     0.167 HD
ATOM     51  C   UNL A   1      42.946  25.118  28.367  1.00  0.00     0.031 A 
ATOM     52  C   UNL A   1      43.744  31.460  31.141  1.00  0.00     0.031 A 
ATOM     53  C   UNL A   1      44.269  25.407  28.853  1.00  0.00     0.049 A 
ATOM     54  C   UNL A   1      44.878  30.473  31.106  1.00  0.00     0.074 A 
ATOM     55  C   UNL A   1      45.393  24.599  28.815  1.00  0.00     0.029 A 
ATOM     56  N   UNL A   1      44.650  26.594  29.459  1.00  0.00    -0.354 N 
ATOM     57  N   UNL A   1      44.898  29.263  30.604  1.00  0.00    -0.248 NA
ATOM     58  C   UNL A   1      46.151  30.896  31.708  1.00  0.00     0.031 C 
ATOM     59  C   UNL A   1      46.444  25.281  29.434  1.00  0.00     0.029 A 
ATOM     60  C   UNL A   1      45.988  26.534  29.812  1.00  0.00     0.049 A 
ATOM     61  H   UNL A   1      44.059  27.364  29.615  1.00  0.00     0.167 HD
ATOM     62  C   UNL A   1      46.192  28.794  30.800  1.00  0.00     0.074 A 
ATOM     63  C   UNL A   1      46.928  29.849  31.463  1.00  0.00     0.031 C 
ATOM     64  C   UNL A   1      46.721  27.594  30.456  1.00  0.00     0.031 A 
BRANCH  51  65
ATOM     65  C   UNL A   1      42.686  23.745  27.801  1.00  0.00    -0.014 A 
ATOM     66  C   UNL A   1      43.038  23.426  26.478  1.00  0.00     0.010 A 
ATOM     67  C   UNL A   1      42.126  22.747  28.620  1.00  0.00     0.010 A 
ATOM     68  C   UNL A   1      42.789  22.151  25.968  1.00  0.00     0.020 A 
ATOM     69  C   UNL A   1      41.902  21.460  28.122  1.00  0.00     0.020 A 
ATOM     70  C   UNL A   1      42.216  21.177  26.791  1.00  0.00     0.054 A 
BRANCH  70  71
ATOM     71  S   UNL A   1      41.914  19.525  26.106  1.00  0.00     0.124 S 
ATOM     72  O   UNL A   1      40.460  19.525  25.960  1.00  0.00    -0.237 OA
ATOM     73  O   UNL A   1      42.668  19.552  24.856  1.00  0.00    -0.237 OA
ATOM     74  O   UNL A   1      42.438  18.624  27.129  1.00  0.00    -0.744 OA
ENDBRANCH  70  71
ENDBRANCH  51  65
BRANCH  52  75
ATOM     75  C   UNL A   1      43.925  32.797  31.770  1.00  0.00    -0.014 A 
ATOM     76  C   UNL A   1      43.647  32.983  33.135  1.00  0.00     0.010 A 
ATOM     77  C   UNL A   1      44.389  33.888  31.011  1.00  0.00     0.010 A 
ATOM     78  C   UNL A   1      43.818  34.236  33.729  1.00  0.00     0.020 A 
ATOM     79  C   UNL A   1      44.585  35.136  31.607  1.00  0.00     0.020 A 
ATOM     80  C   UNL A   1      44.288  35.305  32.961  1.00  0.00     0.054 A 
BRANCH  80  81
ATOM     81  S   UNL A   1      44.558  36.909  33.766  1.00  0.00     0.124 S 
ATOM     82  O   UNL A   1      43.193  37.330  34.068  1.00  0.00    -0.237 OA
ATOM     83  O   UNL A   1      45.380  36.551  34.918  1.00  0.00    -0.237 OA
ATOM     84  O   UNL A   1      45.244  37.694  32.741  1.00  0.00    -0.744 OA
ENDBRANCH  80  81
ENDBRANCH  52  75
BRANCH  64  85
ATOM     85  C   UNL A   1      48.180  27.358  30.736  1.00  0.00    -0.014 A 
ATOM     86  C   UNL A   1      48.602  26.694  31.900  1.00  0.00     0.010 A 
ATOM     87  C   UNL A   1      49.135  27.719  29.767  1.00  0.00     0.010 A 
ATOM     88  C   UNL A   1      49.954  26.398  32.092  1.00  0.00     0.020 A 
ATOM     89  C   UNL A   1      50.484  27.406  29.945  1.00  0.00     0.020 A 
ATOM     90  C   UNL A   1      50.887  26.749  31.110  1.00  0.00     0.054 A 
BRANCH  90  91
ATOM     91  S   UNL A   1      52.623  26.275  31.341  1.00  0.00     0.124 S 
ATOM     92  O   UNL A   1      52.500  24.950  31.940  1.00  0.00    -0.237 OA
ATOM     93  O   UNL A   1      53.146  26.302  29.977  1.00  0.00    -0.237 OA
ATOM     94  O   UNL A   1      53.151  27.312  32.224  1.00  0.00    -0.744 OA
ENDBRANCH  90  91
ENDBRANCH  64  85
ENDBRANCH  38  39
ENDBRANCH  30  33
ENDBRANCH  28  29
ENDBRANCH  27  28
ENDBRANCH   1  27
TORSDOF 19
ENDMDL
