MODEL 1
REMARK VINA RESULT:     -10.1      0.000      0.000
REMARK SMILES O=C(NCCCCNC(=O)[C@H](CO)NC(=O)[C@H]1CC(=O)N(CC(F)(F)F)C1)c1ccc(-c2c3nc(c(-c4ccc(S(=O)(=O)[O-])cc4)c4ccc([nH]4)c(-c4ccc(S(=O)(=O)[O-])cc4)c4nc(c(-c5ccc(S(=O)(=O)[O-])cc5)c5ccc2[nH]5)C=C4)C=C3)cc1
REMARK SMILES IDX 6 1 5 2 4 3 3 4 1 5 2 6 28 8 29 9 87 10 30 11 86 12 31 13
REMARK SMILES IDX 32 14 33 15 80 16 34 17 85 18 79 19 81 20 35 21 84 22 78 23
REMARK SMILES IDX 77 24 36 26 66 27 47 28 65 29 48 30 51 31 64 32 82 33 49 34
REMARK SMILES IDX 50 35 63 37 83 38 52 39 37 40 38 41 46 42 39 43 45 44 40 45
REMARK SMILES IDX 41 46 42 47 43 48 44 49 67 50 68 51 76 52 69 53 75 54 70 55
REMARK SMILES IDX 71 56 72 57 73 58 74 59 53 60 54 61 62 62 55 63 61 64 56 65
REMARK SMILES IDX 57 66 58 67 59 68 60 69 7 70 8 71 9 72 10 74 11 75 14 76
REMARK SMILES IDX 15 77 16 79 17 80 18 81 27 82 19 83 21 84 20 85 22 86 23 87
REMARK SMILES IDX 24 88 25 89 26 90 12 91 13 92
REMARK H PARENT 3 7 81 25 51 36 8 73 14 78 13 93
REMARK Flexibility Score: inf
ROOT
ATOM      1  C   UNL A   1      32.025  26.339  26.261  1.00  0.00     0.023 C 
ENDROOT
BRANCH   1   2
ATOM      2  C   UNL A   1      32.560  27.747  26.043  1.00  0.00     0.023 C 
BRANCH   2   3
ATOM      3  C   UNL A   1      33.581  28.205  27.072  1.00  0.00     0.116 C 
BRANCH   3   4
ATOM      4  N   UNL A   1      33.456  29.610  27.444  1.00  0.00    -0.352 N 
ATOM      5  O   UNL A   1      34.134  31.571  28.360  1.00  0.00    -0.269 OA
ATOM      6  C   UNL A   1      34.414  30.431  28.006  1.00  0.00     0.251 C 
ATOM      7  H   UNL A   1      32.580  30.024  27.274  1.00  0.00     0.163 HD
BRANCH   6   8
ATOM      8  C   UNL A   1      35.777  29.891  28.203  1.00  0.00     0.039 A 
ATOM      9  C   UNL A   1      36.133  29.379  29.449  1.00  0.00     0.014 A 
ATOM     10  C   UNL A   1      36.725  29.994  27.183  1.00  0.00     0.014 A 
ATOM     11  C   UNL A   1      37.472  29.188  29.743  1.00  0.00     0.010 A 
ATOM     12  C   UNL A   1      38.058  29.658  27.445  1.00  0.00     0.010 A 
ATOM     13  C   UNL A   1      38.453  29.292  28.741  1.00  0.00    -0.014 A 
BRANCH  13  14
ATOM     14  C   UNL A   1      39.852  28.926  29.090  1.00  0.00     0.031 A 
ATOM     15  C   UNL A   1      40.450  27.594  28.723  1.00  0.00     0.074 A 
ATOM     16  C   UNL A   1      40.612  29.868  29.686  1.00  0.00     0.049 A 
ATOM     17  N   UNL A   1      41.681  27.179  28.892  1.00  0.00    -0.248 NA
ATOM     18  C   UNL A   1      39.566  26.598  28.097  1.00  0.00     0.031 C 
ATOM     19  C   UNL A   1      40.135  31.191  30.107  1.00  0.00     0.029 A 
ATOM     20  N   UNL A   1      41.946  29.887  30.000  1.00  0.00    -0.354 N 
ATOM     21  C   UNL A   1      41.720  25.876  28.405  1.00  0.00     0.074 A 
ATOM     22  C   UNL A   1      40.379  25.557  27.963  1.00  0.00     0.031 C 
ATOM     23  C   UNL A   1      41.170  31.917  30.543  1.00  0.00     0.029 A 
ATOM     24  C   UNL A   1      42.366  31.086  30.527  1.00  0.00     0.049 A 
ATOM     25  H   UNL A   1      42.544  29.118  29.861  1.00  0.00     0.167 HD
ATOM     26  C   UNL A   1      42.778  25.031  28.328  1.00  0.00     0.031 A 
ATOM     27  C   UNL A   1      43.572  31.476  30.978  1.00  0.00     0.031 A 
ATOM     28  C   UNL A   1      44.108  25.355  28.782  1.00  0.00     0.049 A 
ATOM     29  C   UNL A   1      44.713  30.508  30.906  1.00  0.00     0.074 A 
ATOM     30  C   UNL A   1      45.248  24.568  28.742  1.00  0.00     0.029 A 
ATOM     31  N   UNL A   1      44.482  26.562  29.357  1.00  0.00    -0.354 N 
ATOM     32  N   UNL A   1      44.728  29.288  30.424  1.00  0.00    -0.248 NA
ATOM     33  C   UNL A   1      46.000  30.967  31.439  1.00  0.00     0.031 C 
ATOM     34  C   UNL A   1      46.294  25.277  29.341  1.00  0.00     0.029 A 
ATOM     35  C   UNL A   1      45.827  26.533  29.693  1.00  0.00     0.049 A 
ATOM     36  H   UNL A   1      43.880  27.327  29.503  1.00  0.00     0.167 HD
ATOM     37  C   UNL A   1      46.030  28.836  30.588  1.00  0.00     0.074 A 
ATOM     38  C   UNL A   1      46.780  29.929  31.175  1.00  0.00     0.031 C 
ATOM     39  C   UNL A   1      46.556  27.623  30.291  1.00  0.00     0.031 A 
BRANCH  26  40
ATOM     40  C   UNL A   1      42.547  23.660  27.741  1.00  0.00    -0.014 A 
ATOM     41  C   UNL A   1      42.853  23.384  26.396  1.00  0.00     0.010 A 
ATOM     42  C   UNL A   1      42.094  22.611  28.564  1.00  0.00     0.010 A 
ATOM     43  C   UNL A   1      42.689  22.095  25.880  1.00  0.00     0.020 A 
ATOM     44  C   UNL A   1      41.955  21.313  28.059  1.00  0.00     0.020 A 
ATOM     45  C   UNL A   1      42.243  21.067  26.715  1.00  0.00     0.054 A 
BRANCH  45  46
ATOM     46  S   UNL A   1      42.081  19.396  26.025  1.00  0.00     0.124 S 
ATOM     47  O   UNL A   1      42.605  18.570  27.110  1.00  0.00    -0.237 OA
ATOM     48  O   UNL A   1      40.644  19.285  25.791  1.00  0.00    -0.237 OA
ATOM     49  O   UNL A   1      42.906  19.435  24.819  1.00  0.00    -0.744 OA
ENDBRANCH  45  46
ENDBRANCH  26  40
BRANCH  27  50
ATOM     50  C   UNL A   1      43.733  32.826  31.581  1.00  0.00    -0.014 A 
ATOM     51  C   UNL A   1      43.551  33.034  32.959  1.00  0.00     0.010 A 
ATOM     52  C   UNL A   1      44.082  33.919  30.764  1.00  0.00     0.010 A 
ATOM     53  C   UNL A   1      43.686  34.315  33.501  1.00  0.00     0.020 A 
ATOM     54  C   UNL A   1      44.258  35.191  31.309  1.00  0.00     0.020 A 
ATOM     55  C   UNL A   1      44.038  35.385  32.672  1.00  0.00     0.054 A 
BRANCH  55  56
ATOM     56  S   UNL A   1      44.234  37.034  33.400  1.00  0.00     0.124 S 
ATOM     57  O   UNL A   1      42.866  37.356  33.792  1.00  0.00    -0.237 OA
ATOM     58  O   UNL A   1      45.166  36.785  34.497  1.00  0.00    -0.237 OA
ATOM     59  O   UNL A   1      44.777  37.830  32.301  1.00  0.00    -0.744 OA
ENDBRANCH  55  56
ENDBRANCH  27  50
BRANCH  39  60
ATOM     60  C   UNL A   1      48.022  27.431  30.580  1.00  0.00    -0.014 A 
ATOM     61  C   UNL A   1      48.462  26.919  31.814  1.00  0.00     0.010 A 
ATOM     62  C   UNL A   1      48.973  27.770  29.601  1.00  0.00     0.010 A 
ATOM     63  C   UNL A   1      49.827  26.804  32.086  1.00  0.00     0.020 A 
ATOM     64  C   UNL A   1      50.338  27.624  29.855  1.00  0.00     0.020 A 
ATOM     65  C   UNL A   1      50.757  27.163  31.105  1.00  0.00     0.054 A 
BRANCH  65  66
ATOM     66  S   UNL A   1      52.523  27.000  31.479  1.00  0.00     0.124 S 
ATOM     67  O   UNL A   1      52.761  28.159  32.335  1.00  0.00    -0.237 OA
ATOM     68  O   UNL A   1      52.591  25.701  32.146  1.00  0.00    -0.237 OA
ATOM     69  O   UNL A   1      53.163  27.053  30.166  1.00  0.00    -0.744 OA
ENDBRANCH  65  66
ENDBRANCH  39  60
ENDBRANCH  13  14
ENDBRANCH   6   8
ENDBRANCH   3   4
ENDBRANCH   2   3
ENDBRANCH   1   2
BRANCH   1  70
ATOM     70  C   UNL A   1      33.032  25.239  25.953  1.00  0.00     0.116 C 
BRANCH  70  71
ATOM     71  N   UNL A   1      33.132  24.243  26.995  1.00  0.00    -0.354 N 
ATOM     72  C   UNL A   1      32.640  22.971  26.993  1.00  0.00     0.244 C 
ATOM     73  H   UNL A   1      33.617  24.516  27.807  1.00  0.00     0.163 HD
ATOM     74  O   UNL A   1      32.916  22.230  27.939  1.00  0.00    -0.273 OA
BRANCH  72  75
ATOM     75  C   UNL A   1      31.697  22.512  25.865  1.00  0.00     0.197 C 
BRANCH  75  76
ATOM     76  N   UNL A   1      31.889  21.067  25.733  1.00  0.00    -0.342 N 
ATOM     77  C   UNL A   1      32.910  20.342  25.216  1.00  0.00     0.226 C 
ATOM     78  H   UNL A   1      31.144  20.526  26.080  1.00  0.00     0.164 HD
ATOM     79  O   UNL A   1      32.933  19.136  25.483  1.00  0.00    -0.275 OA
BRANCH  77  80
ATOM     80  C   UNL A   1      33.948  20.899  24.254  1.00  0.00     0.107 C 
ATOM     81  C   UNL A   1      33.407  22.095  23.473  1.00  0.00     0.115 C 
ATOM     82  C   UNL A   1      35.306  21.314  24.809  1.00  0.00     0.133 C 
ATOM     83  C   UNL A   1      34.571  23.035  23.358  1.00  0.00     0.223 C 
ATOM     84  N   UNL A   1      35.616  22.548  24.121  1.00  0.00    -0.333 N 
ATOM     85  O   UNL A   1      34.589  24.055  22.697  1.00  0.00    -0.275 OA
BRANCH  84  86
ATOM     86  C   UNL A   1      36.888  23.271  24.248  1.00  0.00     0.234 C 
BRANCH  86  87
ATOM     87  C   UNL A   1      37.425  23.417  25.669  1.00  0.00     0.406 C 
ATOM     88  F   UNL A   1      38.020  22.267  26.068  1.00  0.00    -0.169 F 
ATOM     89  F   UNL A   1      38.353  24.393  25.753  1.00  0.00    -0.169 F 
ATOM     90  F   UNL A   1      36.453  23.696  26.566  1.00  0.00    -0.169 F 
ENDBRANCH  86  87
ENDBRANCH  84  86
ENDBRANCH  77  80
ENDBRANCH  75  76
BRANCH  75  91
ATOM     91  C   UNL A   1      30.266  22.919  26.237  1.00  0.00     0.191 C 
BRANCH  91  92
ATOM     92  O   UNL A   1      30.258  23.567  27.513  1.00  0.00    -0.394 OA
ATOM     93  H   UNL A   1      30.798  23.057  28.138  1.00  0.00     0.210 HD
ENDBRANCH  91  92
ENDBRANCH  75  91
ENDBRANCH  72  75
ENDBRANCH  70  71
ENDBRANCH   1  70
TORSDOF 20
ENDMDL
MODEL 2
REMARK VINA RESULT:      -9.7      2.675      8.318
REMARK SMILES O=C(NCCCCNC(=O)[C@H](CO)NC(=O)[C@H]1CC(=O)N(CC(F)(F)F)C1)c1ccc(-c2c3nc(c(-c4ccc(S(=O)(=O)[O-])cc4)c4ccc([nH]4)c(-c4ccc(S(=O)(=O)[O-])cc4)c4nc(c(-c5ccc(S(=O)(=O)[O-])cc5)c5ccc2[nH]5)C=C4)C=C3)cc1
REMARK SMILES IDX 6 1 5 2 4 3 3 4 1 5 2 6 28 8 29 9 87 10 30 11 86 12 31 13
REMARK SMILES IDX 32 14 33 15 80 16 34 17 85 18 79 19 81 20 35 21 84 22 78 23
REMARK SMILES IDX 77 24 36 26 66 27 47 28 65 29 48 30 51 31 64 32 82 33 49 34
REMARK SMILES IDX 50 35 63 37 83 38 52 39 37 40 38 41 46 42 39 43 45 44 40 45
REMARK SMILES IDX 41 46 42 47 43 48 44 49 67 50 68 51 76 52 69 53 75 54 70 55
REMARK SMILES IDX 71 56 72 57 73 58 74 59 53 60 54 61 62 62 55 63 61 64 56 65
REMARK SMILES IDX 57 66 58 67 59 68 60 69 7 70 8 71 9 72 10 74 11 75 14 76
REMARK SMILES IDX 15 77 16 79 17 80 18 81 27 82 19 83 21 84 20 85 22 86 23 87
REMARK SMILES IDX 24 88 25 89 26 90 12 91 13 92
REMARK H PARENT 3 7 81 25 51 36 8 73 14 78 13 93
REMARK Flexibility Score: inf
ROOT
ATOM      1  C   UNL A   1      32.726  26.527  26.303  1.00  0.00     0.023 C 
ENDROOT
BRANCH   1   2
ATOM      2  C   UNL A   1      33.045  27.668  25.349  1.00  0.00     0.023 C 
BRANCH   2   3
ATOM      3  C   UNL A   1      34.148  28.602  25.820  1.00  0.00     0.116 C 
BRANCH   3   4
ATOM      4  N   UNL A   1      33.660  29.850  26.395  1.00  0.00    -0.352 N 
ATOM      5  O   UNL A   1      33.651  31.587  27.853  1.00  0.00    -0.269 OA
ATOM      6  C   UNL A   1      34.230  30.606  27.400  1.00  0.00     0.251 C 
ATOM      7  H   UNL A   1      32.820  30.198  26.019  1.00  0.00     0.163 HD
BRANCH   6   8
ATOM      8  C   UNL A   1      35.539  30.184  27.943  1.00  0.00     0.039 A 
ATOM      9  C   UNL A   1      35.585  29.494  29.153  1.00  0.00     0.014 A 
ATOM     10  C   UNL A   1      36.720  30.567  27.302  1.00  0.00     0.014 A 
ATOM     11  C   UNL A   1      36.790  29.393  29.828  1.00  0.00     0.010 A 
ATOM     12  C   UNL A   1      37.951  30.329  27.925  1.00  0.00     0.010 A 
ATOM     13  C   UNL A   1      37.995  29.777  29.214  1.00  0.00    -0.014 A 
BRANCH  13  14
ATOM     14  C   UNL A   1      39.266  29.501  29.935  1.00  0.00     0.031 A 
ATOM     15  C   UNL A   1      39.652  30.231  31.194  1.00  0.00     0.074 A 
ATOM     16  C   UNL A   1      40.044  28.503  29.466  1.00  0.00     0.049 A 
ATOM     17  N   UNL A   1      40.691  30.030  31.967  1.00  0.00    -0.248 NA
ATOM     18  C   UNL A   1      38.778  31.326  31.643  1.00  0.00     0.031 C 
ATOM     19  C   UNL A   1      39.780  27.736  28.242  1.00  0.00     0.029 A 
ATOM     20  N   UNL A   1      41.179  27.927  29.975  1.00  0.00    -0.354 N 
ATOM     21  C   UNL A   1      40.603  30.974  32.985  1.00  0.00     0.074 A 
ATOM     22  C   UNL A   1      39.425  31.771  32.714  1.00  0.00     0.031 C 
ATOM     23  C   UNL A   1      40.672  26.744  28.141  1.00  0.00     0.029 A 
ATOM     24  C   UNL A   1      41.629  26.860  29.233  1.00  0.00     0.049 A 
ATOM     25  H   UNL A   1      41.627  28.245  30.790  1.00  0.00     0.167 HD
ATOM     26  C   UNL A   1      41.424  31.152  34.051  1.00  0.00     0.031 A 
ATOM     27  C   UNL A   1      42.707  26.070  29.389  1.00  0.00     0.031 A 
ATOM     28  C   UNL A   1      42.601  30.358  34.306  1.00  0.00     0.049 A 
ATOM     29  C   UNL A   1      43.611  26.313  30.559  1.00  0.00     0.074 A 
ATOM     30  C   UNL A   1      43.494  30.458  35.361  1.00  0.00     0.029 A 
ATOM     31  N   UNL A   1      43.052  29.319  33.504  1.00  0.00    -0.354 N 
ATOM     32  N   UNL A   1      43.495  27.199  31.519  1.00  0.00    -0.248 NA
ATOM     33  C   UNL A   1      44.791  25.448  30.669  1.00  0.00     0.031 C 
ATOM     34  C   UNL A   1      44.512  29.517  35.166  1.00  0.00     0.029 A 
ATOM     35  C   UNL A   1      44.219  28.784  34.029  1.00  0.00     0.049 A 
ATOM     36  H   UNL A   1      42.607  29.007  32.683  1.00  0.00     0.167 HD
ATOM     37  C   UNL A   1      44.585  26.993  32.353  1.00  0.00     0.074 A 
ATOM     38  C   UNL A   1      45.323  25.872  31.806  1.00  0.00     0.031 C 
ATOM     39  C   UNL A   1      44.950  27.678  33.465  1.00  0.00     0.031 A 
BRANCH  26  40
ATOM     40  C   UNL A   1      41.092  32.256  35.023  1.00  0.00    -0.014 A 
ATOM     41  C   UNL A   1      40.238  32.028  36.118  1.00  0.00     0.010 A 
ATOM     42  C   UNL A   1      41.703  33.517  34.890  1.00  0.00     0.010 A 
ATOM     43  C   UNL A   1      39.984  33.044  37.044  1.00  0.00     0.020 A 
ATOM     44  C   UNL A   1      41.474  34.528  35.830  1.00  0.00     0.020 A 
ATOM     45  C   UNL A   1      40.605  34.287  36.897  1.00  0.00     0.054 A 
BRANCH  45  46
ATOM     46  S   UNL A   1      40.288  35.570  38.140  1.00  0.00     0.124 S 
ATOM     47  O   UNL A   1      39.234  34.957  38.944  1.00  0.00    -0.237 OA
ATOM     48  O   UNL A   1      41.584  35.701  38.800  1.00  0.00    -0.237 OA
ATOM     49  O   UNL A   1      39.874  36.728  37.349  1.00  0.00    -0.744 OA
ENDBRANCH  45  46
ENDBRANCH  26  40
BRANCH  27  50
ATOM     50  C   UNL A   1      43.006  25.021  28.378  1.00  0.00    -0.014 A 
ATOM     51  C   UNL A   1      42.514  23.713  28.519  1.00  0.00     0.010 A 
ATOM     52  C   UNL A   1      43.789  25.340  27.252  1.00  0.00     0.010 A 
ATOM     53  C   UNL A   1      42.826  22.736  27.568  1.00  0.00     0.020 A 
ATOM     54  C   UNL A   1      44.068  24.379  26.280  1.00  0.00     0.020 A 
ATOM     55  C   UNL A   1      43.601  23.077  26.455  1.00  0.00     0.054 A 
BRANCH  55  56
ATOM     56  S   UNL A   1      43.973  21.803  25.219  1.00  0.00     0.124 S 
ATOM     57  O   UNL A   1      42.972  20.786  25.524  1.00  0.00    -0.237 OA
ATOM     58  O   UNL A   1      43.785  22.520  23.961  1.00  0.00    -0.237 OA
ATOM     59  O   UNL A   1      45.355  21.433  25.515  1.00  0.00    -0.744 OA
ENDBRANCH  55  56
ENDBRANCH  27  50
BRANCH  39  60
ATOM     60  C   UNL A   1      46.195  27.208  34.170  1.00  0.00    -0.014 A 
ATOM     61  C   UNL A   1      47.462  27.720  33.836  1.00  0.00     0.010 A 
ATOM     62  C   UNL A   1      46.095  26.238  35.184  1.00  0.00     0.010 A 
ATOM     63  C   UNL A   1      48.611  27.229  34.460  1.00  0.00     0.020 A 
ATOM     64  C   UNL A   1      47.237  25.769  35.836  1.00  0.00     0.020 A 
ATOM     65  C   UNL A   1      48.491  26.252  35.453  1.00  0.00     0.054 A 
BRANCH  65  66
ATOM     66  S   UNL A   1      49.996  25.635  36.252  1.00  0.00     0.124 S 
ATOM     67  O   UNL A   1      51.025  26.488  35.665  1.00  0.00    -0.237 OA
ATOM     68  O   UNL A   1      49.722  25.862  37.669  1.00  0.00    -0.237 OA
ATOM     69  O   UNL A   1      50.050  24.229  35.852  1.00  0.00    -0.744 OA
ENDBRANCH  65  66
ENDBRANCH  39  60
ENDBRANCH  13  14
ENDBRANCH   6   8
ENDBRANCH   3   4
ENDBRANCH   2   3
ENDBRANCH   1   2
BRANCH   1  70
ATOM     70  C   UNL A   1      33.118  25.152  25.777  1.00  0.00     0.116 C 
BRANCH  70  71
ATOM     71  N   UNL A   1      33.225  24.150  26.812  1.00  0.00    -0.354 N 
ATOM     72  C   UNL A   1      32.582  22.949  26.892  1.00  0.00     0.244 C 
ATOM     73  H   UNL A   1      33.839  24.359  27.553  1.00  0.00     0.163 HD
ATOM     74  O   UNL A   1      32.882  22.179  27.806  1.00  0.00    -0.273 OA
BRANCH  72  75
ATOM     75  C   UNL A   1      31.454  22.614  25.899  1.00  0.00     0.197 C 
BRANCH  75  76
ATOM     76  N   UNL A   1      31.490  21.163  25.713  1.00  0.00    -0.342 N 
ATOM     77  C   UNL A   1      32.413  20.355  25.137  1.00  0.00     0.226 C 
ATOM     78  H   UNL A   1      30.703  20.690  26.067  1.00  0.00     0.164 HD
ATOM     79  O   UNL A   1      32.317  19.145  25.363  1.00  0.00    -0.275 OA
BRANCH  77  80
ATOM     80  C   UNL A   1      33.473  20.837  24.160  1.00  0.00     0.107 C 
ATOM     81  C   UNL A   1      33.000  22.058  23.373  1.00  0.00     0.115 C 
ATOM     82  C   UNL A   1      34.861  21.170  24.696  1.00  0.00     0.133 C 
ATOM     83  C   UNL A   1      34.220  22.921  23.236  1.00  0.00     0.223 C 
ATOM     84  N   UNL A   1      35.240  22.376  23.993  1.00  0.00    -0.333 N 
ATOM     85  O   UNL A   1      34.296  23.932  22.565  1.00  0.00    -0.275 OA
BRANCH  84  86
ATOM     86  C   UNL A   1      36.557  23.018  24.100  1.00  0.00     0.234 C 
BRANCH  86  87
ATOM     87  C   UNL A   1      36.827  23.756  25.408  1.00  0.00     0.406 C 
ATOM     88  F   UNL A   1      38.126  24.138  25.473  1.00  0.00    -0.169 F 
ATOM     89  F   UNL A   1      36.079  24.874  25.514  1.00  0.00    -0.169 F 
ATOM     90  F   UNL A   1      36.581  22.992  26.496  1.00  0.00    -0.169 F 
ENDBRANCH  86  87
ENDBRANCH  84  86
ENDBRANCH  77  80
ENDBRANCH  75  76
BRANCH  75  91
ATOM     91  C   UNL A   1      30.132  23.136  26.476  1.00  0.00     0.191 C 
BRANCH  91  92
ATOM     92  O   UNL A   1      29.956  22.650  27.810  1.00  0.00    -0.394 OA
ATOM     93  H   UNL A   1      30.414  21.800  27.909  1.00  0.00     0.210 HD
ENDBRANCH  91  92
ENDBRANCH  75  91
ENDBRANCH  72  75
ENDBRANCH  70  71
ENDBRANCH   1  70
TORSDOF 20
ENDMDL
MODEL 3
REMARK VINA RESULT:      -9.6      3.562      7.496
REMARK SMILES O=C(NCCCCNC(=O)[C@H](CO)NC(=O)[C@H]1CC(=O)N(CC(F)(F)F)C1)c1ccc(-c2c3nc(c(-c4ccc(S(=O)(=O)[O-])cc4)c4ccc([nH]4)c(-c4ccc(S(=O)(=O)[O-])cc4)c4nc(c(-c5ccc(S(=O)(=O)[O-])cc5)c5ccc2[nH]5)C=C4)C=C3)cc1
REMARK SMILES IDX 6 1 5 2 4 3 3 4 1 5 2 6 28 8 29 9 87 10 30 11 86 12 31 13
REMARK SMILES IDX 32 14 33 15 80 16 34 17 85 18 79 19 81 20 35 21 84 22 78 23
REMARK SMILES IDX 77 24 36 26 66 27 47 28 65 29 48 30 51 31 64 32 82 33 49 34
REMARK SMILES IDX 50 35 63 37 83 38 52 39 37 40 38 41 46 42 39 43 45 44 40 45
REMARK SMILES IDX 41 46 42 47 43 48 44 49 67 50 68 51 76 52 69 53 75 54 70 55
REMARK SMILES IDX 71 56 72 57 73 58 74 59 53 60 54 61 62 62 55 63 61 64 56 65
REMARK SMILES IDX 57 66 58 67 59 68 60 69 7 70 8 71 9 72 10 74 11 75 14 76
REMARK SMILES IDX 15 77 16 79 17 80 18 81 27 82 19 83 21 84 20 85 22 86 23 87
REMARK SMILES IDX 24 88 25 89 26 90 12 91 13 92
REMARK H PARENT 3 7 81 25 51 36 8 73 14 78 13 93
REMARK Flexibility Score: inf
ROOT
ATOM      1  C   UNL A   1      35.495  22.764  23.823  1.00  0.00     0.023 C 
ENDROOT
BRANCH   1   2
ATOM      2  C   UNL A   1      36.323  23.722  24.667  1.00  0.00     0.023 C 
BRANCH   2   3
ATOM      3  C   UNL A   1      36.777  23.162  26.005  1.00  0.00     0.116 C 
BRANCH   3   4
ATOM      4  N   UNL A   1      37.725  22.060  25.894  1.00  0.00    -0.352 N 
ATOM      5  O   UNL A   1      39.770  21.080  25.964  1.00  0.00    -0.269 OA
ATOM      6  C   UNL A   1      39.070  22.057  26.205  1.00  0.00     0.251 C 
ATOM      7  H   UNL A   1      37.360  21.211  25.555  1.00  0.00     0.163 HD
BRANCH   6   8
ATOM      8  C   UNL A   1      39.657  23.277  26.803  1.00  0.00     0.039 A 
ATOM      9  C   UNL A   1      39.517  24.496  26.142  1.00  0.00     0.014 A 
ATOM     10  C   UNL A   1      40.433  23.185  27.961  1.00  0.00     0.014 A 
ATOM     11  C   UNL A   1      40.328  25.557  26.503  1.00  0.00     0.010 A 
ATOM     12  C   UNL A   1      41.139  24.308  28.408  1.00  0.00     0.010 A 
ATOM     13  C   UNL A   1      41.127  25.494  27.658  1.00  0.00    -0.014 A 
BRANCH  13  14
ATOM     14  C   UNL A   1      41.857  26.722  28.073  1.00  0.00     0.031 A 
ATOM     15  C   UNL A   1      43.328  26.909  27.815  1.00  0.00     0.074 A 
ATOM     16  C   UNL A   1      41.135  27.719  28.625  1.00  0.00     0.049 A 
ATOM     17  N   UNL A   1      44.070  27.963  28.049  1.00  0.00    -0.248 NA
ATOM     18  C   UNL A   1      44.068  25.778  27.233  1.00  0.00     0.031 C 
ATOM     19  C   UNL A   1      39.703  27.646  28.940  1.00  0.00     0.029 A 
ATOM     20  N   UNL A   1      41.481  28.998  28.977  1.00  0.00    -0.354 N 
ATOM     21  C   UNL A   1      45.360  27.624  27.654  1.00  0.00     0.074 A 
ATOM     22  C   UNL A   1      45.308  26.252  27.195  1.00  0.00     0.031 C 
ATOM     23  C   UNL A   1      39.279  28.844  29.356  1.00  0.00     0.029 A 
ATOM     24  C   UNL A   1      40.421  29.745  29.433  1.00  0.00     0.049 A 
ATOM     25  H   UNL A   1      42.399  29.347  28.909  1.00  0.00     0.167 HD
ATOM     26  C   UNL A   1      46.480  28.390  27.666  1.00  0.00     0.031 A 
ATOM     27  C   UNL A   1      40.365  31.008  29.891  1.00  0.00     0.031 A 
ATOM     28  C   UNL A   1      46.523  29.753  28.136  1.00  0.00     0.049 A 
ATOM     29  C   UNL A   1      41.627  31.818  29.920  1.00  0.00     0.074 A 
ATOM     30  C   UNL A   1      47.608  30.613  28.184  1.00  0.00     0.029 A 
ATOM     31  N   UNL A   1      45.438  30.458  28.638  1.00  0.00    -0.354 N 
ATOM     32  N   UNL A   1      42.830  31.480  29.523  1.00  0.00    -0.248 NA
ATOM     33  C   UNL A   1      41.522  33.179  30.459  1.00  0.00     0.031 C 
ATOM     34  C   UNL A   1      47.192  31.816  28.764  1.00  0.00     0.029 A 
ATOM     35  C   UNL A   1      45.832  31.733  29.015  1.00  0.00     0.049 A 
ATOM     36  H   UNL A   1      44.523  30.105  28.713  1.00  0.00     0.167 HD
ATOM     37  C   UNL A   1      43.628  32.592  29.756  1.00  0.00     0.074 A 
ATOM     38  C   UNL A   1      42.759  33.623  30.290  1.00  0.00     0.031 C 
ATOM     39  C   UNL A   1      44.960  32.743  29.559  1.00  0.00     0.031 A 
BRANCH  26  40
ATOM     40  C   UNL A   1      47.764  27.773  27.168  1.00  0.00    -0.014 A 
ATOM     41  C   UNL A   1      48.123  27.842  25.810  1.00  0.00     0.010 A 
ATOM     42  C   UNL A   1      48.663  27.189  28.080  1.00  0.00     0.010 A 
ATOM     43  C   UNL A   1      49.343  27.317  25.371  1.00  0.00     0.020 A 
ATOM     44  C   UNL A   1      49.896  26.687  27.650  1.00  0.00     0.020 A 
ATOM     45  C   UNL A   1      50.223  26.745  26.293  1.00  0.00     0.054 A 
BRANCH  45  46
ATOM     46  S   UNL A   1      51.816  26.113  25.698  1.00  0.00     0.124 S 
ATOM     47  O   UNL A   1      51.778  24.724  26.152  1.00  0.00    -0.237 OA
ATOM     48  O   UNL A   1      51.715  26.303  24.254  1.00  0.00    -0.237 OA
ATOM     49  O   UNL A   1      52.801  26.959  26.369  1.00  0.00    -0.744 OA
ENDBRANCH  45  46
ENDBRANCH  26  40
BRANCH  27  50
ATOM     50  C   UNL A   1      39.080  31.552  30.405  1.00  0.00    -0.014 A 
ATOM     51  C   UNL A   1      38.166  32.191  29.551  1.00  0.00     0.010 A 
ATOM     52  C   UNL A   1      38.762  31.419  31.771  1.00  0.00     0.010 A 
ATOM     53  C   UNL A   1      36.973  32.714  30.059  1.00  0.00     0.020 A 
ATOM     54  C   UNL A   1      37.555  31.903  32.274  1.00  0.00     0.020 A 
ATOM     55  C   UNL A   1      36.676  32.566  31.418  1.00  0.00     0.054 A 
BRANCH  55  56
ATOM     56  S   UNL A   1      35.112  33.228  32.052  1.00  0.00     0.124 S 
ATOM     57  O   UNL A   1      35.077  32.678  33.403  1.00  0.00    -0.237 OA
ATOM     58  O   UNL A   1      35.320  34.671  31.960  1.00  0.00    -0.237 OA
ATOM     59  O   UNL A   1      34.114  32.691  31.129  1.00  0.00    -0.744 OA
ENDBRANCH  55  56
ENDBRANCH  27  50
BRANCH  39  60
ATOM     60  C   UNL A   1      45.547  34.086  29.904  1.00  0.00    -0.014 A 
ATOM     61  C   UNL A   1      45.615  35.120  28.953  1.00  0.00     0.010 A 
ATOM     62  C   UNL A   1      46.039  34.316  31.202  1.00  0.00     0.010 A 
ATOM     63  C   UNL A   1      46.218  36.339  29.275  1.00  0.00     0.020 A 
ATOM     64  C   UNL A   1      46.610  35.545  31.539  1.00  0.00     0.020 A 
ATOM     65  C   UNL A   1      46.716  36.541  30.565  1.00  0.00     0.054 A 
BRANCH  65  66
ATOM     66  S   UNL A   1      47.488  38.133  30.961  1.00  0.00     0.124 S 
ATOM     67  O   UNL A   1      48.082  37.867  32.267  1.00  0.00    -0.237 OA
ATOM     68  O   UNL A   1      48.435  38.311  29.862  1.00  0.00    -0.237 OA
ATOM     69  O   UNL A   1      46.366  39.071  30.966  1.00  0.00    -0.744 OA
ENDBRANCH  65  66
ENDBRANCH  39  60
ENDBRANCH  13  14
ENDBRANCH   6   8
ENDBRANCH   3   4
ENDBRANCH   2   3
ENDBRANCH   1   2
BRANCH   1  70
ATOM     70  C   UNL A   1      34.034  23.168  23.681  1.00  0.00     0.116 C 
BRANCH  70  71
ATOM     71  N   UNL A   1      33.110  22.161  24.151  1.00  0.00    -0.354 N 
ATOM     72  C   UNL A   1      32.437  22.125  25.337  1.00  0.00     0.244 C 
ATOM     73  H   UNL A   1      32.946  21.407  23.539  1.00  0.00     0.163 HD
ATOM     74  O   UNL A   1      31.608  21.230  25.517  1.00  0.00    -0.273 OA
BRANCH  72  75
ATOM     75  C   UNL A   1      32.773  23.141  26.444  1.00  0.00     0.197 C 
BRANCH  75  76
ATOM     76  N   UNL A   1      31.514  23.805  26.786  1.00  0.00    -0.342 N 
ATOM     77  C   UNL A   1      30.852  24.830  26.196  1.00  0.00     0.226 C 
ATOM     78  H   UNL A   1      31.071  23.444  27.587  1.00  0.00     0.164 HD
ATOM     79  O   UNL A   1      29.677  25.006  26.534  1.00  0.00    -0.275 OA
BRANCH  77  80
ATOM     80  C   UNL A   1      31.497  25.822  25.242  1.00  0.00     0.107 C 
ATOM     81  C   UNL A   1      31.235  25.453  23.784  1.00  0.00     0.115 C 
ATOM     82  C   UNL A   1      31.157  27.301  25.390  1.00  0.00     0.133 C 
ATOM     83  C   UNL A   1      31.038  26.767  23.085  1.00  0.00     0.223 C 
ATOM     84  N   UNL A   1      31.008  27.775  24.031  1.00  0.00    -0.333 N 
ATOM     85  O   UNL A   1      30.927  26.916  21.884  1.00  0.00    -0.275 OA
BRANCH  84  86
ATOM     86  C   UNL A   1      30.785  29.179  23.663  1.00  0.00     0.234 C 
BRANCH  86  87
ATOM     87  C   UNL A   1      29.376  29.522  23.191  1.00  0.00     0.406 C 
ATOM     88  F   UNL A   1      28.508  28.546  23.551  1.00  0.00    -0.169 F 
ATOM     89  F   UNL A   1      28.931  30.671  23.740  1.00  0.00    -0.169 F 
ATOM     90  F   UNL A   1      29.295  29.651  21.847  1.00  0.00    -0.169 F 
ENDBRANCH  86  87
ENDBRANCH  84  86
ENDBRANCH  77  80
ENDBRANCH  75  76
BRANCH  75  91
ATOM     91  C   UNL A   1      33.416  22.384  27.613  1.00  0.00     0.191 C 
BRANCH  91  92
ATOM     92  O   UNL A   1      34.035  21.185  27.137  1.00  0.00    -0.394 OA
ATOM     93  H   UNL A   1      33.574  20.415  27.504  1.00  0.00     0.210 HD
ENDBRANCH  91  92
ENDBRANCH  75  91
ENDBRANCH  72  75
ENDBRANCH  70  71
ENDBRANCH   1  70
TORSDOF 20
ENDMDL
