MODEL 1
REMARK VINA RESULT:     -13.3      0.000      0.000
REMARK SMILES Cc1cccc(-c2cccc(C(=O)NCCCCNC(=O)c3ccc(-c4c5nc(c(-c6ccc(S(=O)(=O)[O-])cc6)c6ccc([nH]6)c(-c6ccc(S(=O)(=O)[O-])cc6)c6nc(c(-c7ccc(S(=O)(=O)[O-])cc7)c7ccc4[nH]7)C=C6)C=C5)cc3)c2)c1
REMARK SMILES IDX 17 1 16 2 15 3 14 4 12 5 13 6 11 8 7 9 8 10 82 11 9 12 10 13
REMARK SMILES IDX 6 14 1 15 2 16 3 17 83 18 4 19 5 20 18 21 19 22 20 23 21 25
REMARK SMILES IDX 22 26 23 27 81 28 24 29 80 30 25 31 26 32 27 33 74 34 28 35
REMARK SMILES IDX 79 36 73 37 75 38 29 39 78 40 72 41 71 42 30 44 60 45 41 46
REMARK SMILES IDX 59 47 42 48 45 49 58 50 76 51 43 52 44 53 57 55 77 56 46 57
REMARK SMILES IDX 31 58 32 59 40 60 33 61 39 62 34 63 35 64 36 65 37 66 38 67
REMARK SMILES IDX 61 68 62 69 70 70 63 71 69 72 64 73 65 74 66 75 67 76 68 77
REMARK SMILES IDX 47 78 48 79 56 80 49 81 55 82 50 83 51 84 52 85 53 86 54 87
REMARK H PARENT 14 7 19 24 75 43 45 54
REMARK Flexibility Score: inf
ROOT
ATOM      1  C   UNL A   1      36.808  23.996  26.293  1.00  0.00     0.023 C 
ENDROOT
BRANCH   1   2
ATOM      2  C   UNL A   1      35.669  23.633  25.341  1.00  0.00     0.023 C 
BRANCH   2   3
ATOM      3  C   UNL A   1      34.481  24.599  25.316  1.00  0.00     0.116 C 
BRANCH   3   4
ATOM      4  N   UNL A   1      33.341  24.155  26.112  1.00  0.00    -0.352 N 
ATOM      5  C   UNL A   1      32.404  23.155  26.013  1.00  0.00     0.251 C 
ATOM      6  O   UNL A   1      31.526  23.129  26.880  1.00  0.00    -0.269 OA
ATOM      7  H   UNL A   1      33.210  24.706  26.917  1.00  0.00     0.163 HD
BRANCH   5   8
ATOM      8  C   UNL A   1      32.349  22.126  24.929  1.00  0.00     0.040 A 
ATOM      9  C   UNL A   1      32.731  19.772  24.305  1.00  0.00    -0.018 A 
ATOM     10  C   UNL A   1      32.295  20.079  23.007  1.00  0.00     0.009 A 
ATOM     11  C   UNL A   1      32.709  20.801  25.265  1.00  0.00     0.022 A 
ATOM     12  C   UNL A   1      31.980  21.385  22.649  1.00  0.00     0.001 A 
ATOM     13  C   UNL A   1      32.066  22.407  23.593  1.00  0.00     0.014 A 
BRANCH   9  14
ATOM     14  C   UNL A   1      33.280  18.433  24.589  1.00  0.00    -0.018 A 
ATOM     15  C   UNL A   1      31.964  15.118  25.984  1.00  0.00     0.044 C 
ATOM     16  C   UNL A   1      32.895  16.150  25.421  1.00  0.00    -0.051 A 
ATOM     17  C   UNL A   1      34.246  15.857  25.221  1.00  0.00     0.003 A 
ATOM     18  C   UNL A   1      32.428  17.431  25.101  1.00  0.00     0.012 A 
ATOM     19  C   UNL A   1      35.104  16.827  24.697  1.00  0.00     0.001 A 
ATOM     20  C   UNL A   1      34.625  18.104  24.380  1.00  0.00     0.009 A 
ENDBRANCH   9  14
ENDBRANCH   5   8
ENDBRANCH   3   4
ENDBRANCH   2   3
ENDBRANCH   1   2
BRANCH   1  21
ATOM     21  C   UNL A   1      38.177  23.469  25.883  1.00  0.00     0.116 C 
BRANCH  21  22
ATOM     22  N   UNL A   1      39.044  23.068  26.975  1.00  0.00    -0.352 N 
ATOM     23  C   UNL A   1      40.032  23.867  27.556  1.00  0.00     0.251 C 
ATOM     24  H   UNL A   1      38.927  22.160  27.336  1.00  0.00     0.163 HD
ATOM     25  O   UNL A   1      41.069  23.429  27.986  1.00  0.00    -0.269 OA
BRANCH  23  26
ATOM     26  C   UNL A   1      39.651  25.286  27.784  1.00  0.00     0.039 A 
ATOM     27  C   UNL A   1      40.178  26.247  26.913  1.00  0.00     0.014 A 
ATOM     28  C   UNL A   1      39.020  25.662  28.963  1.00  0.00     0.014 A 
ATOM     29  C   UNL A   1      40.226  27.584  27.313  1.00  0.00     0.010 A 
ATOM     30  C   UNL A   1      39.166  26.962  29.403  1.00  0.00     0.010 A 
ATOM     31  C   UNL A   1      39.805  27.917  28.598  1.00  0.00    -0.014 A 
BRANCH  31  32
ATOM     32  C   UNL A   1      40.041  29.206  29.243  1.00  0.00     0.031 A 
ATOM     33  C   UNL A   1      39.022  30.279  29.159  1.00  0.00     0.074 A 
ATOM     34  C   UNL A   1      41.099  29.367  30.069  1.00  0.00     0.049 A 
ATOM     35  N   UNL A   1      39.232  31.519  29.454  1.00  0.00    -0.248 NA
ATOM     36  C   UNL A   1      37.669  30.029  28.675  1.00  0.00     0.031 C 
ATOM     37  C   UNL A   1      41.262  30.401  31.089  1.00  0.00     0.029 A 
ATOM     38  N   UNL A   1      42.353  28.759  30.009  1.00  0.00    -0.354 N 
ATOM     39  C   UNL A   1      38.001  32.133  29.542  1.00  0.00     0.074 A 
ATOM     40  C   UNL A   1      37.080  31.197  28.938  1.00  0.00     0.031 C 
ATOM     41  C   UNL A   1      42.571  30.565  31.325  1.00  0.00     0.029 A 
ATOM     42  C   UNL A   1      43.284  29.758  30.350  1.00  0.00     0.049 A 
ATOM     43  H   UNL A   1      42.548  27.822  29.777  1.00  0.00     0.167 HD
ATOM     44  C   UNL A   1      37.872  33.292  30.250  1.00  0.00     0.031 A 
ATOM     45  C   UNL A   1      44.246  30.218  29.495  1.00  0.00     0.031 A 
ATOM     46  C   UNL A   1      39.169  33.829  30.676  1.00  0.00     0.049 A 
ATOM     47  C   UNL A   1      44.149  31.705  29.204  1.00  0.00     0.074 A 
ATOM     48  C   UNL A   1      39.826  33.955  31.890  1.00  0.00     0.029 A 
ATOM     49  N   UNL A   1      40.113  34.130  29.705  1.00  0.00    -0.354 N 
ATOM     50  N   UNL A   1      43.256  32.504  29.720  1.00  0.00    -0.248 NA
ATOM     51  C   UNL A   1      44.991  32.388  28.218  1.00  0.00     0.031 C 
ATOM     52  C   UNL A   1      41.180  34.325  31.630  1.00  0.00     0.029 A 
ATOM     53  C   UNL A   1      41.340  34.432  30.262  1.00  0.00     0.049 A 
ATOM     54  H   UNL A   1      39.929  34.128  28.738  1.00  0.00     0.167 HD
ATOM     55  C   UNL A   1      43.335  33.731  29.122  1.00  0.00     0.074 A 
ATOM     56  C   UNL A   1      44.451  33.619  28.201  1.00  0.00     0.031 C 
ATOM     57  C   UNL A   1      42.450  34.737  29.375  1.00  0.00     0.031 A 
BRANCH  44  58
ATOM     58  C   UNL A   1      36.542  33.815  30.766  1.00  0.00    -0.014 A 
ATOM     59  C   UNL A   1      35.514  34.139  29.856  1.00  0.00     0.010 A 
ATOM     60  C   UNL A   1      36.258  34.073  32.120  1.00  0.00     0.010 A 
ATOM     61  C   UNL A   1      34.331  34.781  30.259  1.00  0.00     0.020 A 
ATOM     62  C   UNL A   1      35.098  34.744  32.538  1.00  0.00     0.020 A 
ATOM     63  C   UNL A   1      34.145  35.110  31.599  1.00  0.00     0.054 A 
BRANCH  63  64
ATOM     64  S   UNL A   1      32.662  36.022  32.101  1.00  0.00     0.124 S 
ATOM     65  O   UNL A   1      32.266  36.686  30.862  1.00  0.00    -0.237 OA
ATOM     66  O   UNL A   1      31.777  34.954  32.556  1.00  0.00    -0.237 OA
ATOM     67  O   UNL A   1      33.144  36.917  33.151  1.00  0.00    -0.744 OA
ENDBRANCH  63  64
ENDBRANCH  44  58
BRANCH  45  68
ATOM     68  C   UNL A   1      44.737  29.187  28.537  1.00  0.00    -0.014 A 
ATOM     69  C   UNL A   1      45.655  28.238  29.036  1.00  0.00     0.010 A 
ATOM     70  C   UNL A   1      43.988  28.877  27.389  1.00  0.00     0.010 A 
ATOM     71  C   UNL A   1      45.668  26.937  28.532  1.00  0.00     0.020 A 
ATOM     72  C   UNL A   1      44.009  27.573  26.875  1.00  0.00     0.020 A 
ATOM     73  C   UNL A   1      44.784  26.597  27.507  1.00  0.00     0.054 A 
BRANCH  73  74
ATOM     74  S   UNL A   1      44.508  24.831  27.169  1.00  0.00     0.124 S 
ATOM     75  O   UNL A   1      43.426  24.863  26.190  1.00  0.00    -0.237 OA
ATOM     76  O   UNL A   1      45.814  24.417  26.653  1.00  0.00    -0.237 OA
ATOM     77  O   UNL A   1      44.158  24.292  28.480  1.00  0.00    -0.744 OA
ENDBRANCH  73  74
ENDBRANCH  45  68
BRANCH  57  78
ATOM     78  C   UNL A   1      42.547  36.102  28.753  1.00  0.00    -0.014 A 
ATOM     79  C   UNL A   1      41.938  36.408  27.525  1.00  0.00     0.010 A 
ATOM     80  C   UNL A   1      43.372  37.089  29.335  1.00  0.00     0.010 A 
ATOM     81  C   UNL A   1      42.098  37.669  26.933  1.00  0.00     0.020 A 
ATOM     82  C   UNL A   1      43.554  38.341  28.744  1.00  0.00     0.020 A 
ATOM     83  C   UNL A   1      42.899  38.631  27.552  1.00  0.00     0.054 A 
BRANCH  83  84
ATOM     84  S   UNL A   1      43.127  40.242  26.756  1.00  0.00     0.124 S 
ATOM     85  O   UNL A   1      41.981  40.321  25.852  1.00  0.00    -0.237 OA
ATOM     86  O   UNL A   1      43.086  41.151  27.899  1.00  0.00    -0.237 OA
ATOM     87  O   UNL A   1      44.425  40.124  26.097  1.00  0.00    -0.744 OA
ENDBRANCH  83  84
ENDBRANCH  57  78
ENDBRANCH  31  32
ENDBRANCH  23  26
ENDBRANCH  21  22
ENDBRANCH   1  21
TORSDOF 15
ENDMDL
MODEL 2
REMARK VINA RESULT:     -13.1      4.843     11.360
REMARK SMILES Cc1cccc(-c2cccc(C(=O)NCCCCNC(=O)c3ccc(-c4c5nc(c(-c6ccc(S(=O)(=O)[O-])cc6)c6ccc([nH]6)c(-c6ccc(S(=O)(=O)[O-])cc6)c6nc(c(-c7ccc(S(=O)(=O)[O-])cc7)c7ccc4[nH]7)C=C6)C=C5)cc3)c2)c1
REMARK SMILES IDX 17 1 16 2 15 3 14 4 12 5 13 6 11 8 7 9 8 10 82 11 9 12 10 13
REMARK SMILES IDX 6 14 1 15 2 16 3 17 83 18 4 19 5 20 18 21 19 22 20 23 21 25
REMARK SMILES IDX 22 26 23 27 81 28 24 29 80 30 25 31 26 32 27 33 74 34 28 35
REMARK SMILES IDX 79 36 73 37 75 38 29 39 78 40 72 41 71 42 30 44 60 45 41 46
REMARK SMILES IDX 59 47 42 48 45 49 58 50 76 51 43 52 44 53 57 55 77 56 46 57
REMARK SMILES IDX 31 58 32 59 40 60 33 61 39 62 34 63 35 64 36 65 37 66 38 67
REMARK SMILES IDX 61 68 62 69 70 70 63 71 69 72 64 73 65 74 66 75 67 76 68 77
REMARK SMILES IDX 47 78 48 79 56 80 49 81 55 82 50 83 51 84 52 85 53 86 54 87
REMARK H PARENT 14 7 19 24 75 43 45 54
REMARK Flexibility Score: inf
ROOT
ATOM      1  C   UNL A   1      32.888  29.670  27.199  1.00  0.00     0.023 C 
ENDROOT
BRANCH   1   2
ATOM      2  C   UNL A   1      32.067  28.558  26.549  1.00  0.00     0.023 C 
BRANCH   2   3
ATOM      3  C   UNL A   1      31.573  28.832  25.125  1.00  0.00     0.116 C 
BRANCH   3   4
ATOM      4  N   UNL A   1      32.638  29.170  24.185  1.00  0.00    -0.352 N 
ATOM      5  C   UNL A   1      33.406  28.476  23.281  1.00  0.00     0.251 C 
ATOM      6  O   UNL A   1      34.278  29.117  22.687  1.00  0.00    -0.269 OA
ATOM      7  H   UNL A   1      32.861  30.128  24.203  1.00  0.00     0.163 HD
BRANCH   5   8
ATOM      8  C   UNL A   1      33.288  27.015  22.987  1.00  0.00     0.040 A 
ATOM      9  C   UNL A   1      33.686  24.716  23.786  1.00  0.00    -0.018 A 
ATOM     10  C   UNL A   1      33.128  24.239  22.590  1.00  0.00     0.009 A 
ATOM     11  C   UNL A   1      33.717  26.110  23.985  1.00  0.00     0.022 A 
ATOM     12  C   UNL A   1      32.743  25.115  21.581  1.00  0.00     0.001 A 
ATOM     13  C   UNL A   1      32.880  26.490  21.761  1.00  0.00     0.014 A 
BRANCH   9  14
ATOM     14  C   UNL A   1      34.298  23.765  24.731  1.00  0.00    -0.018 A 
ATOM     15  C   UNL A   1      37.348  21.450  24.775  1.00  0.00     0.044 C 
ATOM     16  C   UNL A   1      36.099  22.157  25.207  1.00  0.00    -0.051 A 
ATOM     17  C   UNL A   1      35.516  21.883  26.446  1.00  0.00     0.003 A 
ATOM     18  C   UNL A   1      35.485  23.095  24.367  1.00  0.00     0.012 A 
ATOM     19  C   UNL A   1      34.351  22.547  26.836  1.00  0.00     0.001 A 
ATOM     20  C   UNL A   1      33.748  23.483  25.988  1.00  0.00     0.009 A 
ENDBRANCH   9  14
ENDBRANCH   5   8
ENDBRANCH   3   4
ENDBRANCH   2   3
ENDBRANCH   1   2
BRANCH   1  21
ATOM     21  C   UNL A   1      34.394  29.442  27.191  1.00  0.00     0.116 C 
BRANCH  21  22
ATOM     22  N   UNL A   1      35.207  30.643  27.229  1.00  0.00    -0.352 N 
ATOM     23  C   UNL A   1      36.317  30.841  28.054  1.00  0.00     0.251 C 
ATOM     24  H   UNL A   1      34.956  31.379  26.626  1.00  0.00     0.163 HD
ATOM     25  O   UNL A   1      36.612  31.911  28.523  1.00  0.00    -0.269 OA
BRANCH  23  26
ATOM     26  C   UNL A   1      37.232  29.676  28.180  1.00  0.00     0.039 A 
ATOM     27  C   UNL A   1      37.293  29.028  29.419  1.00  0.00     0.014 A 
ATOM     28  C   UNL A   1      38.175  29.416  27.193  1.00  0.00     0.014 A 
ATOM     29  C   UNL A   1      38.406  28.245  29.732  1.00  0.00     0.010 A 
ATOM     30  C   UNL A   1      39.323  28.733  27.541  1.00  0.00     0.010 A 
ATOM     31  C   UNL A   1      39.460  28.182  28.824  1.00  0.00    -0.014 A 
BRANCH  31  32
ATOM     32  C   UNL A   1      40.781  27.632  29.119  1.00  0.00     0.031 A 
ATOM     33  C   UNL A   1      41.113  26.242  28.728  1.00  0.00     0.074 A 
ATOM     34  C   UNL A   1      41.763  28.438  29.581  1.00  0.00     0.049 A 
ATOM     35  N   UNL A   1      42.131  25.577  29.165  1.00  0.00    -0.248 NA
ATOM     36  C   UNL A   1      40.270  25.465  27.827  1.00  0.00     0.031 C 
ATOM     37  C   UNL A   1      43.200  28.178  29.539  1.00  0.00     0.029 A 
ATOM     38  N   UNL A   1      41.654  29.569  30.391  1.00  0.00    -0.354 N 
ATOM     39  C   UNL A   1      42.270  24.466  28.362  1.00  0.00     0.074 A 
ATOM     40  C   UNL A   1      41.028  24.386  27.627  1.00  0.00     0.031 C 
ATOM     41  C   UNL A   1      43.792  28.895  30.504  1.00  0.00     0.029 A 
ATOM     42  C   UNL A   1      42.735  29.507  31.290  1.00  0.00     0.049 A 
ATOM     43  H   UNL A   1      40.962  30.269  30.343  1.00  0.00     0.167 HD
ATOM     44  C   UNL A   1      43.474  23.827  28.294  1.00  0.00     0.031 A 
ATOM     45  C   UNL A   1      42.587  29.390  32.643  1.00  0.00     0.031 A 
ATOM     46  C   UNL A   1      44.432  24.341  29.278  1.00  0.00     0.049 A 
ATOM     47  C   UNL A   1      43.230  28.143  33.226  1.00  0.00     0.074 A 
ATOM     48  C   UNL A   1      45.594  25.095  29.214  1.00  0.00     0.029 A 
ATOM     49  N   UNL A   1      44.096  24.283  30.622  1.00  0.00    -0.354 N 
ATOM     50  N   UNL A   1      43.888  27.257  32.530  1.00  0.00    -0.248 NA
ATOM     51  C   UNL A   1      43.086  27.745  34.627  1.00  0.00     0.031 C 
ATOM     52  C   UNL A   1      45.940  25.497  30.539  1.00  0.00     0.029 A 
ATOM     53  C   UNL A   1      44.997  24.979  31.405  1.00  0.00     0.049 A 
ATOM     54  H   UNL A   1      43.311  23.805  30.975  1.00  0.00     0.167 HD
ATOM     55  C   UNL A   1      44.183  26.179  33.320  1.00  0.00     0.074 A 
ATOM     56  C   UNL A   1      43.680  26.538  34.633  1.00  0.00     0.031 C 
ATOM     57  C   UNL A   1      44.766  25.045  32.838  1.00  0.00     0.031 A 
BRANCH  44  58
ATOM     58  C   UNL A   1      43.862  22.892  27.161  1.00  0.00    -0.014 A 
ATOM     59  C   UNL A   1      42.965  21.889  26.739  1.00  0.00     0.010 A 
ATOM     60  C   UNL A   1      45.113  22.899  26.514  1.00  0.00     0.010 A 
ATOM     61  C   UNL A   1      43.331  20.894  25.817  1.00  0.00     0.020 A 
ATOM     62  C   UNL A   1      45.509  21.894  25.617  1.00  0.00     0.020 A 
ATOM     63  C   UNL A   1      44.618  20.884  25.285  1.00  0.00     0.054 A 
BRANCH  63  64
ATOM     64  S   UNL A   1      45.117  19.546  24.171  1.00  0.00     0.124 S 
ATOM     65  O   UNL A   1      44.523  19.954  22.902  1.00  0.00    -0.237 OA
ATOM     66  O   UNL A   1      46.574  19.611  24.237  1.00  0.00    -0.237 OA
ATOM     67  O   UNL A   1      44.523  18.354  24.773  1.00  0.00    -0.744 OA
ENDBRANCH  63  64
ENDBRANCH  44  58
BRANCH  45  68
ATOM     68  C   UNL A   1      41.355  30.044  33.169  1.00  0.00    -0.014 A 
ATOM     69  C   UNL A   1      41.351  31.455  33.211  1.00  0.00     0.010 A 
ATOM     70  C   UNL A   1      40.130  29.356  33.157  1.00  0.00     0.010 A 
ATOM     71  C   UNL A   1      40.161  32.162  33.027  1.00  0.00     0.020 A 
ATOM     72  C   UNL A   1      38.934  30.066  32.984  1.00  0.00     0.020 A 
ATOM     73  C   UNL A   1      38.974  31.455  32.835  1.00  0.00     0.054 A 
BRANCH  73  74
ATOM     74  S   UNL A   1      37.541  32.358  32.173  1.00  0.00     0.124 S 
ATOM     75  O   UNL A   1      38.141  33.180  31.127  1.00  0.00    -0.237 OA
ATOM     76  O   UNL A   1      36.687  31.265  31.704  1.00  0.00    -0.237 OA
ATOM     77  O   UNL A   1      37.039  33.084  33.336  1.00  0.00    -0.744 OA
ENDBRANCH  73  74
ENDBRANCH  45  68
BRANCH  57  78
ATOM     78  C   UNL A   1      45.130  23.870  33.701  1.00  0.00    -0.014 A 
ATOM     79  C   UNL A   1      46.452  23.620  34.104  1.00  0.00     0.010 A 
ATOM     80  C   UNL A   1      44.156  22.901  34.026  1.00  0.00     0.010 A 
ATOM     81  C   UNL A   1      46.777  22.480  34.853  1.00  0.00     0.020 A 
ATOM     82  C   UNL A   1      44.473  21.751  34.755  1.00  0.00     0.020 A 
ATOM     83  C   UNL A   1      45.782  21.557  35.181  1.00  0.00     0.054 A 
BRANCH  83  84
ATOM     84  S   UNL A   1      46.224  20.070  36.115  1.00  0.00     0.124 S 
ATOM     85  O   UNL A   1      45.801  20.405  37.474  1.00  0.00    -0.237 OA
ATOM     86  O   UNL A   1      45.425  19.046  35.447  1.00  0.00    -0.237 OA
ATOM     87  O   UNL A   1      47.668  19.956  35.929  1.00  0.00    -0.744 OA
ENDBRANCH  83  84
ENDBRANCH  57  78
ENDBRANCH  31  32
ENDBRANCH  23  26
ENDBRANCH  21  22
ENDBRANCH   1  21
TORSDOF 15
ENDMDL
MODEL 3
REMARK VINA RESULT:     -13.1      1.960      4.116
REMARK SMILES Cc1cccc(-c2cccc(C(=O)NCCCCNC(=O)c3ccc(-c4c5nc(c(-c6ccc(S(=O)(=O)[O-])cc6)c6ccc([nH]6)c(-c6ccc(S(=O)(=O)[O-])cc6)c6nc(c(-c7ccc(S(=O)(=O)[O-])cc7)c7ccc4[nH]7)C=C6)C=C5)cc3)c2)c1
REMARK SMILES IDX 17 1 16 2 15 3 14 4 12 5 13 6 11 8 7 9 8 10 82 11 9 12 10 13
REMARK SMILES IDX 6 14 1 15 2 16 3 17 83 18 4 19 5 20 18 21 19 22 20 23 21 25
REMARK SMILES IDX 22 26 23 27 81 28 24 29 80 30 25 31 26 32 27 33 74 34 28 35
REMARK SMILES IDX 79 36 73 37 75 38 29 39 78 40 72 41 71 42 30 44 60 45 41 46
REMARK SMILES IDX 59 47 42 48 45 49 58 50 76 51 43 52 44 53 57 55 77 56 46 57
REMARK SMILES IDX 31 58 32 59 40 60 33 61 39 62 34 63 35 64 36 65 37 66 38 67
REMARK SMILES IDX 61 68 62 69 70 70 63 71 69 72 64 73 65 74 66 75 67 76 68 77
REMARK SMILES IDX 47 78 48 79 56 80 49 81 55 82 50 83 51 84 52 85 53 86 54 87
REMARK H PARENT 14 7 19 24 75 43 45 54
REMARK Flexibility Score: inf
ROOT
ATOM      1  C   UNL A   1      37.271  22.494  25.075  1.00  0.00     0.023 C 
ENDROOT
BRANCH   1   2
ATOM      2  C   UNL A   1      36.175  22.935  24.106  1.00  0.00     0.023 C 
BRANCH   2   3
ATOM      3  C   UNL A   1      34.798  22.299  24.315  1.00  0.00     0.116 C 
BRANCH   3   4
ATOM      4  N   UNL A   1      34.397  22.204  25.716  1.00  0.00    -0.352 N 
ATOM      5  C   UNL A   1      33.520  22.876  26.533  1.00  0.00     0.251 C 
ATOM      6  O   UNL A   1      33.496  22.536  27.719  1.00  0.00    -0.269 OA
ATOM      7  H   UNL A   1      34.870  21.484  26.191  1.00  0.00     0.163 HD
BRANCH   5   8
ATOM      8  C   UNL A   1      32.624  23.995  26.107  1.00  0.00     0.040 A 
ATOM      9  C   UNL A   1      32.325  26.436  25.925  1.00  0.00    -0.018 A 
ATOM     10  C   UNL A   1      31.066  26.206  25.351  1.00  0.00     0.009 A 
ATOM     11  C   UNL A   1      33.109  25.314  26.257  1.00  0.00     0.022 A 
ATOM     12  C   UNL A   1      30.556  24.917  25.238  1.00  0.00     0.001 A 
ATOM     13  C   UNL A   1      31.311  23.828  25.670  1.00  0.00     0.014 A 
BRANCH   9  14
ATOM     14  C   UNL A   1      32.735  27.815  26.247  1.00  0.00    -0.018 A 
ATOM     15  C   UNL A   1      31.148  31.298  26.120  1.00  0.00     0.044 C 
ATOM     16  C   UNL A   1      32.150  30.203  26.333  1.00  0.00    -0.051 A 
ATOM     17  C   UNL A   1      33.441  30.496  26.777  1.00  0.00     0.003 A 
ATOM     18  C   UNL A   1      31.812  28.869  26.076  1.00  0.00     0.012 A 
ATOM     19  C   UNL A   1      34.367  29.468  26.970  1.00  0.00     0.001 A 
ATOM     20  C   UNL A   1      34.016  28.137  26.711  1.00  0.00     0.009 A 
ENDBRANCH   9  14
ENDBRANCH   5   8
ENDBRANCH   3   4
ENDBRANCH   2   3
ENDBRANCH   1   2
BRANCH   1  21
ATOM     21  C   UNL A   1      37.967  23.630  25.815  1.00  0.00     0.116 C 
BRANCH  21  22
ATOM     22  N   UNL A   1      38.883  23.222  26.863  1.00  0.00    -0.352 N 
ATOM     23  C   UNL A   1      39.913  24.008  27.386  1.00  0.00     0.251 C 
ATOM     24  H   UNL A   1      38.771  22.318  27.237  1.00  0.00     0.163 HD
ATOM     25  O   UNL A   1      40.964  23.557  27.763  1.00  0.00    -0.269 OA
BRANCH  23  26
ATOM     26  C   UNL A   1      39.567  25.435  27.622  1.00  0.00     0.039 A 
ATOM     27  C   UNL A   1      40.144  26.392  26.778  1.00  0.00     0.014 A 
ATOM     28  C   UNL A   1      38.917  25.815  28.789  1.00  0.00     0.014 A 
ATOM     29  C   UNL A   1      40.220  27.721  27.196  1.00  0.00     0.010 A 
ATOM     30  C   UNL A   1      39.088  27.104  29.250  1.00  0.00     0.010 A 
ATOM     31  C   UNL A   1      39.776  28.050  28.475  1.00  0.00    -0.014 A 
BRANCH  31  32
ATOM     32  C   UNL A   1      40.031  29.324  29.143  1.00  0.00     0.031 A 
ATOM     33  C   UNL A   1      39.012  30.399  29.111  1.00  0.00     0.074 A 
ATOM     34  C   UNL A   1      41.112  29.465  29.942  1.00  0.00     0.049 A 
ATOM     35  N   UNL A   1      39.232  31.632  29.430  1.00  0.00    -0.248 NA
ATOM     36  C   UNL A   1      37.646  30.162  28.660  1.00  0.00     0.031 C 
ATOM     37  C   UNL A   1      41.305  30.474  30.981  1.00  0.00     0.029 A 
ATOM     38  N   UNL A   1      42.363  28.857  29.833  1.00  0.00    -0.354 N 
ATOM     39  C   UNL A   1      38.005  32.245  29.566  1.00  0.00     0.074 A 
ATOM     40  C   UNL A   1      37.066  31.324  28.967  1.00  0.00     0.031 C 
ATOM     41  C   UNL A   1      42.621  30.632  31.183  1.00  0.00     0.029 A 
ATOM     42  C   UNL A   1      43.305  29.847  30.170  1.00  0.00     0.049 A 
ATOM     43  H   UNL A   1      42.550  27.926  29.574  1.00  0.00     0.167 HD
ATOM     44  C   UNL A   1      37.898  33.388  30.304  1.00  0.00     0.031 A 
ATOM     45  C   UNL A   1      44.244  30.325  29.300  1.00  0.00     0.031 A 
ATOM     46  C   UNL A   1      39.207  33.914  30.706  1.00  0.00     0.049 A 
ATOM     47  C   UNL A   1      44.141  31.819  29.046  1.00  0.00     0.074 A 
ATOM     48  C   UNL A   1      39.898  34.011  31.904  1.00  0.00     0.029 A 
ATOM     49  N   UNL A   1      40.124  34.236  29.716  1.00  0.00    -0.354 N 
ATOM     50  N   UNL A   1      43.264  32.607  29.606  1.00  0.00    -0.248 NA
ATOM     51  C   UNL A   1      44.956  32.524  28.054  1.00  0.00     0.031 C 
ATOM     52  C   UNL A   1      41.245  34.385  31.615  1.00  0.00     0.029 A 
ATOM     53  C   UNL A   1      41.367  34.524  30.246  1.00  0.00     0.049 A 
ATOM     54  H   UNL A   1      39.914  34.257  28.755  1.00  0.00     0.167 HD
ATOM     55  C   UNL A   1      43.328  33.847  29.034  1.00  0.00     0.074 A 
ATOM     56  C   UNL A   1      44.418  33.756  28.080  1.00  0.00     0.031 C 
ATOM     57  C   UNL A   1      42.452  34.848  29.335  1.00  0.00     0.031 A 
BRANCH  44  58
ATOM     58  C   UNL A   1      36.584  33.899  30.869  1.00  0.00    -0.014 A 
ATOM     59  C   UNL A   1      35.466  34.048  30.022  1.00  0.00     0.010 A 
ATOM     60  C   UNL A   1      36.396  34.314  32.201  1.00  0.00     0.010 A 
ATOM     61  C   UNL A   1      34.280  34.671  30.448  1.00  0.00     0.020 A 
ATOM     62  C   UNL A   1      35.233  34.969  32.635  1.00  0.00     0.020 A 
ATOM     63  C   UNL A   1      34.184  35.160  31.748  1.00  0.00     0.054 A 
BRANCH  63  64
ATOM     64  S   UNL A   1      32.691  36.046  32.264  1.00  0.00     0.124 S 
ATOM     65  O   UNL A   1      33.189  36.905  33.335  1.00  0.00    -0.237 OA
ATOM     66  O   UNL A   1      32.294  36.731  31.038  1.00  0.00    -0.237 OA
ATOM     67  O   UNL A   1      31.789  34.982  32.698  1.00  0.00    -0.744 OA
ENDBRANCH  63  64
ENDBRANCH  44  58
BRANCH  45  68
ATOM     68  C   UNL A   1      44.706  29.316  28.305  1.00  0.00    -0.014 A 
ATOM     69  C   UNL A   1      45.588  28.319  28.771  1.00  0.00     0.010 A 
ATOM     70  C   UNL A   1      43.954  29.077  27.142  1.00  0.00     0.010 A 
ATOM     71  C   UNL A   1      45.561  27.038  28.217  1.00  0.00     0.020 A 
ATOM     72  C   UNL A   1      43.935  27.794  26.578  1.00  0.00     0.020 A 
ATOM     73  C   UNL A   1      44.673  26.768  27.175  1.00  0.00     0.054 A 
BRANCH  73  74
ATOM     74  S   UNL A   1      44.340  25.027  26.767  1.00  0.00     0.124 S 
ATOM     75  O   UNL A   1      45.576  24.615  26.109  1.00  0.00    -0.237 OA
ATOM     76  O   UNL A   1      44.107  24.448  28.091  1.00  0.00    -0.237 OA
ATOM     77  O   UNL A   1      43.164  25.107  25.907  1.00  0.00    -0.744 OA
ENDBRANCH  73  74
ENDBRANCH  45  68
BRANCH  57  78
ATOM     78  C   UNL A   1      42.534  36.227  28.742  1.00  0.00    -0.014 A 
ATOM     79  C   UNL A   1      42.094  36.507  27.438  1.00  0.00     0.010 A 
ATOM     80  C   UNL A   1      43.182  37.264  29.448  1.00  0.00     0.010 A 
ATOM     81  C   UNL A   1      42.242  37.786  26.884  1.00  0.00     0.020 A 
ATOM     82  C   UNL A   1      43.352  38.537  28.898  1.00  0.00     0.020 A 
ATOM     83  C   UNL A   1      42.862  38.796  27.622  1.00  0.00     0.054 A 
BRANCH  83  84
ATOM     84  S   UNL A   1      43.081  40.433  26.879  1.00  0.00     0.124 S 
ATOM     85  O   UNL A   1      43.718  41.193  27.954  1.00  0.00    -0.237 OA
ATOM     86  O   UNL A   1      43.937  40.132  25.734  1.00  0.00    -0.237 OA
ATOM     87  O   UNL A   1      41.721  40.851  26.550  1.00  0.00    -0.744 OA
ENDBRANCH  83  84
ENDBRANCH  57  78
ENDBRANCH  31  32
ENDBRANCH  23  26
ENDBRANCH  21  22
ENDBRANCH   1  21
TORSDOF 15
ENDMDL
