MODEL 1
REMARK VINA RESULT:     -11.7      0.000      0.000
REMARK SMILES O=C(NCCCCNC(=O)[C@H](CO)NC(=O)[C@H](Cc1c[nH]c2ccccc12)NC(=O)c1ccc(F)cc1)c1ccc(-c2c3nc(c(-c4ccc(S(=O)(=O)[O-])cc4)c4ccc([nH]4)c(-c4ccc(S(=O)(=O)[O-])cc4)c4nc(c(-c5ccc(S(=O)(=O)[O-])cc5)c5ccc2[nH]5)C=C4)C=C3)cc1
REMARK SMILES IDX 6 1 5 2 4 3 3 4 1 5 2 6 38 8 39 9 97 10 40 11 96 12 41 13
REMARK SMILES IDX 42 14 43 15 90 16 44 17 95 18 89 19 91 20 45 21 94 22 88 23
REMARK SMILES IDX 87 24 46 26 76 27 57 28 75 29 58 30 61 31 74 32 92 33 59 34
REMARK SMILES IDX 60 35 73 37 93 38 62 39 47 40 48 41 56 42 49 43 55 44 50 45
REMARK SMILES IDX 51 46 52 47 53 48 54 49 77 50 78 51 86 52 79 53 85 54 80 55
REMARK SMILES IDX 81 56 82 57 83 58 84 59 63 60 64 61 72 62 65 63 71 64 66 65
REMARK SMILES IDX 67 66 68 67 69 68 70 69 7 70 8 71 9 72 10 74 11 75 14 76
REMARK SMILES IDX 15 77 16 79 17 80 28 81 29 82 30 84 31 85 32 86 37 87 33 88
REMARK SMILES IDX 36 89 34 90 35 91 18 92 19 93 20 94 27 95 21 96 22 97 26 98
REMARK SMILES IDX 23 100 25 101 24 102 12 103 13 104
REMARK H PARENT 3 7 91 25 61 36 8 73 14 78 28 83 21 99 13 105
REMARK Flexibility Score: inf
ROOT
ATOM      1  C   UNL A   1      35.150  28.957  26.754  1.00  0.00     0.023 C 
ENDROOT
BRANCH   1   2
ATOM      2  C   UNL A   1      34.605  30.119  27.584  1.00  0.00     0.023 C 
BRANCH   2   3
ATOM      3  C   UNL A   1      35.652  30.922  28.349  1.00  0.00     0.116 C 
BRANCH   3   4
ATOM      4  N   UNL A   1      35.566  30.731  29.787  1.00  0.00    -0.352 N 
ATOM      5  O   UNL A   1      36.181  29.948  31.809  1.00  0.00    -0.269 OA
ATOM      6  C   UNL A   1      36.496  30.197  30.650  1.00  0.00     0.251 C 
ATOM      7  H   UNL A   1      34.723  31.025  30.203  1.00  0.00     0.163 HD
BRANCH   6   8
ATOM      8  C   UNL A   1      37.865  29.907  30.172  1.00  0.00     0.039 A 
ATOM      9  C   UNL A   1      38.162  29.938  28.806  1.00  0.00     0.014 A 
ATOM     10  C   UNL A   1      38.867  29.615  31.101  1.00  0.00     0.014 A 
ATOM     11  C   UNL A   1      39.423  29.550  28.365  1.00  0.00     0.010 A 
ATOM     12  C   UNL A   1      40.154  29.296  30.659  1.00  0.00     0.010 A 
ATOM     13  C   UNL A   1      40.436  29.234  29.285  1.00  0.00    -0.014 A 
BRANCH  13  14
ATOM     14  C   UNL A   1      41.796  28.915  28.785  1.00  0.00     0.031 A 
ATOM     15  C   UNL A   1      42.879  29.958  28.736  1.00  0.00     0.074 A 
ATOM     16  C   UNL A   1      42.058  27.650  28.398  1.00  0.00     0.049 A 
ATOM     17  N   UNL A   1      44.127  29.827  28.363  1.00  0.00    -0.248 NA
ATOM     18  C   UNL A   1      42.520  31.323  29.155  1.00  0.00     0.031 C 
ATOM     19  C   UNL A   1      41.084  26.554  28.384  1.00  0.00     0.029 A 
ATOM     20  N   UNL A   1      43.219  27.066  27.960  1.00  0.00    -0.354 N 
ATOM     21  C   UNL A   1      44.698  31.089  28.480  1.00  0.00     0.074 A 
ATOM     22  C   UNL A   1      43.656  31.979  28.949  1.00  0.00     0.031 C 
ATOM     23  C   UNL A   1      41.697  25.424  28.003  1.00  0.00     0.029 A 
ATOM     24  C   UNL A   1      43.091  25.724  27.694  1.00  0.00     0.049 A 
ATOM     25  H   UNL A   1      44.062  27.560  27.848  1.00  0.00     0.167 HD
ATOM     26  C   UNL A   1      45.973  31.468  28.224  1.00  0.00     0.031 A 
ATOM     27  C   UNL A   1      43.988  24.831  27.237  1.00  0.00     0.031 A 
ATOM     28  C   UNL A   1      47.009  30.578  27.769  1.00  0.00     0.049 A 
ATOM     29  C   UNL A   1      45.390  25.282  26.955  1.00  0.00     0.074 A 
ATOM     30  C   UNL A   1      48.342  30.864  27.524  1.00  0.00     0.029 A 
ATOM     31  N   UNL A   1      46.832  29.232  27.488  1.00  0.00    -0.354 N 
ATOM     32  N   UNL A   1      45.916  26.473  27.114  1.00  0.00    -0.248 NA
ATOM     33  C   UNL A   1      46.319  24.272  26.433  1.00  0.00     0.031 C 
ATOM     34  C   UNL A   1      48.961  29.701  27.053  1.00  0.00     0.029 A 
ATOM     35  C   UNL A   1      48.024  28.680  27.048  1.00  0.00     0.049 A 
ATOM     36  H   UNL A   1      45.985  28.741  27.586  1.00  0.00     0.167 HD
ATOM     37  C   UNL A   1      47.241  26.353  26.715  1.00  0.00     0.074 A 
ATOM     38  C   UNL A   1      47.442  24.969  26.333  1.00  0.00     0.031 C 
ATOM     39  C   UNL A   1      48.204  27.305  26.663  1.00  0.00     0.031 A 
BRANCH  26  40
ATOM     40  C   UNL A   1      46.328  32.919  28.411  1.00  0.00    -0.014 A 
ATOM     41  C   UNL A   1      46.167  33.844  27.366  1.00  0.00     0.010 A 
ATOM     42  C   UNL A   1      46.745  33.376  29.674  1.00  0.00     0.010 A 
ATOM     43  C   UNL A   1      46.436  35.201  27.575  1.00  0.00     0.020 A 
ATOM     44  C   UNL A   1      46.997  34.733  29.893  1.00  0.00     0.020 A 
ATOM     45  C   UNL A   1      46.851  35.637  28.838  1.00  0.00     0.054 A 
BRANCH  45  46
ATOM     46  S   UNL A   1      47.148  37.408  29.096  1.00  0.00     0.124 S 
ATOM     47  O   UNL A   1      48.599  37.493  28.950  1.00  0.00    -0.237 OA
ATOM     48  O   UNL A   1      46.373  38.024  28.022  1.00  0.00    -0.237 OA
ATOM     49  O   UNL A   1      46.641  37.652  30.444  1.00  0.00    -0.744 OA
ENDBRANCH  45  46
ENDBRANCH  26  40
BRANCH  27  50
ATOM     50  C   UNL A   1      43.572  23.424  26.998  1.00  0.00    -0.014 A 
ATOM     51  C   UNL A   1      43.252  22.577  28.072  1.00  0.00     0.010 A 
ATOM     52  C   UNL A   1      43.478  22.932  25.683  1.00  0.00     0.010 A 
ATOM     53  C   UNL A   1      42.861  21.257  27.836  1.00  0.00     0.020 A 
ATOM     54  C   UNL A   1      43.062  21.622  25.443  1.00  0.00     0.020 A 
ATOM     55  C   UNL A   1      42.769  20.787  26.523  1.00  0.00     0.054 A 
BRANCH  55  56
ATOM     56  S   UNL A   1      42.210  19.086  26.229  1.00  0.00     0.124 S 
ATOM     57  O   UNL A   1      43.137  18.639  25.195  1.00  0.00    -0.237 OA
ATOM     58  O   UNL A   1      42.375  18.464  27.541  1.00  0.00    -0.237 OA
ATOM     59  O   UNL A   1      40.823  19.257  25.801  1.00  0.00    -0.744 OA
ENDBRANCH  55  56
ENDBRANCH  27  50
BRANCH  39  60
ATOM     60  C   UNL A   1      49.562  26.876  26.187  1.00  0.00    -0.014 A 
ATOM     61  C   UNL A   1      50.492  26.306  27.075  1.00  0.00     0.010 A 
ATOM     62  C   UNL A   1      49.902  27.017  24.830  1.00  0.00     0.010 A 
ATOM     63  C   UNL A   1      51.753  25.914  26.620  1.00  0.00     0.020 A 
ATOM     64  C   UNL A   1      51.155  26.607  24.367  1.00  0.00     0.020 A 
ATOM     65  C   UNL A   1      52.079  26.073  25.269  1.00  0.00     0.054 A 
BRANCH  65  66
ATOM     66  S   UNL A   1      53.710  25.529  24.691  1.00  0.00     0.124 S 
ATOM     67  O   UNL A   1      54.593  26.092  25.708  1.00  0.00    -0.237 OA
ATOM     68  O   UNL A   1      53.588  24.074  24.700  1.00  0.00    -0.237 OA
ATOM     69  O   UNL A   1      53.822  26.131  23.364  1.00  0.00    -0.744 OA
ENDBRANCH  65  66
ENDBRANCH  39  60
ENDBRANCH  13  14
ENDBRANCH   6   8
ENDBRANCH   3   4
ENDBRANCH   2   3
ENDBRANCH   1   2
BRANCH   1  70
ATOM     70  C   UNL A   1      34.094  28.035  26.149  1.00  0.00     0.116 C 
BRANCH  70  71
ATOM     71  N   UNL A   1      32.816  28.131  26.836  1.00  0.00    -0.354 N 
ATOM     72  C   UNL A   1      31.791  27.230  26.884  1.00  0.00     0.244 C 
ATOM     73  H   UNL A   1      32.668  28.965  27.337  1.00  0.00     0.163 HD
ATOM     74  O   UNL A   1      30.827  27.485  27.610  1.00  0.00    -0.273 OA
BRANCH  72  75
ATOM     75  C   UNL A   1      31.820  25.976  25.997  1.00  0.00     0.197 C 
BRANCH  75  76
ATOM     76  N   UNL A   1      31.757  24.803  26.877  1.00  0.00    -0.340 N 
ATOM     77  C   UNL A   1      32.214  23.530  26.789  1.00  0.00     0.243 C 
ATOM     78  H   UNL A   1      31.276  24.979  27.718  1.00  0.00     0.164 HD
ATOM     79  O   UNL A   1      31.998  22.815  27.777  1.00  0.00    -0.273 OA
BRANCH  77  80
ATOM     80  C   UNL A   1      33.018  22.939  25.603  1.00  0.00     0.176 C 
BRANCH  80  81
ATOM     81  N   UNL A   1      32.357  22.842  24.304  1.00  0.00    -0.340 N 
ATOM     82  C   UNL A   1      31.950  21.781  23.545  1.00  0.00     0.251 C 
ATOM     83  H   UNL A   1      32.167  23.716  23.893  1.00  0.00     0.164 HD
ATOM     84  O   UNL A   1      31.367  21.999  22.488  1.00  0.00    -0.269 OA
BRANCH  82  85
ATOM     85  C   UNL A   1      32.278  20.389  23.914  1.00  0.00     0.040 A 
ATOM     86  C   UNL A   1      32.437  19.961  25.236  1.00  0.00     0.017 A 
ATOM     87  C   UNL A   1      32.382  19.465  22.861  1.00  0.00     0.017 A 
ATOM     88  C   UNL A   1      32.764  18.626  25.495  1.00  0.00     0.040 A 
ATOM     89  C   UNL A   1      32.699  18.132  23.125  1.00  0.00     0.040 A 
ATOM     90  C   UNL A   1      32.897  17.728  24.439  1.00  0.00     0.123 A 
ATOM     91  F   UNL A   1      33.212  16.452  24.693  1.00  0.00    -0.207 F 
ENDBRANCH  82  85
ENDBRANCH  80  81
BRANCH  80  92
ATOM     92  C   UNL A   1      34.409  23.624  25.539  1.00  0.00     0.072 C 
BRANCH  92  93
ATOM     93  C   UNL A   1      35.598  22.715  25.397  1.00  0.00    -0.020 A 
ATOM     94  C   UNL A   1      35.648  21.490  24.762  1.00  0.00     0.087 A 
ATOM     95  C   UNL A   1      36.929  22.990  25.856  1.00  0.00     0.003 A 
ATOM     96  N   UNL A   1      36.906  20.971  24.920  1.00  0.00    -0.361 N 
ATOM     97  C   UNL A   1      37.710  21.870  25.575  1.00  0.00     0.046 A 
ATOM     98  C   UNL A   1      37.546  24.096  26.479  1.00  0.00     0.010 A 
ATOM     99  H   UNL A   1      37.191  20.082  24.608  1.00  0.00     0.166 HD
ATOM    100  C   UNL A   1      39.066  21.783  25.915  1.00  0.00     0.026 A 
ATOM    101  C   UNL A   1      38.908  24.039  26.797  1.00  0.00     0.001 A 
ATOM    102  C   UNL A   1      39.651  22.894  26.528  1.00  0.00     0.002 A 
ENDBRANCH  92  93
ENDBRANCH  80  92
ENDBRANCH  77  80
ENDBRANCH  75  76
BRANCH  75 103
ATOM    103  C   UNL A   1      30.597  26.034  25.069  1.00  0.00     0.191 C 
BRANCH 103 104
ATOM    104  O   UNL A   1      29.441  25.470  25.688  1.00  0.00    -0.394 OA
ATOM    105  H   UNL A   1      29.698  24.688  26.201  1.00  0.00     0.210 HD
ENDBRANCH 103 104
ENDBRANCH  75 103
ENDBRANCH  72  75
ENDBRANCH  70  71
ENDBRANCH   1  70
TORSDOF 22
ENDMDL
MODEL 2
REMARK VINA RESULT:     -11.5      4.844     10.369
REMARK SMILES O=C(NCCCCNC(=O)[C@H](CO)NC(=O)[C@H](Cc1c[nH]c2ccccc12)NC(=O)c1ccc(F)cc1)c1ccc(-c2c3nc(c(-c4ccc(S(=O)(=O)[O-])cc4)c4ccc([nH]4)c(-c4ccc(S(=O)(=O)[O-])cc4)c4nc(c(-c5ccc(S(=O)(=O)[O-])cc5)c5ccc2[nH]5)C=C4)C=C3)cc1
REMARK SMILES IDX 6 1 5 2 4 3 3 4 1 5 2 6 38 8 39 9 97 10 40 11 96 12 41 13
REMARK SMILES IDX 42 14 43 15 90 16 44 17 95 18 89 19 91 20 45 21 94 22 88 23
REMARK SMILES IDX 87 24 46 26 76 27 57 28 75 29 58 30 61 31 74 32 92 33 59 34
REMARK SMILES IDX 60 35 73 37 93 38 62 39 47 40 48 41 56 42 49 43 55 44 50 45
REMARK SMILES IDX 51 46 52 47 53 48 54 49 77 50 78 51 86 52 79 53 85 54 80 55
REMARK SMILES IDX 81 56 82 57 83 58 84 59 63 60 64 61 72 62 65 63 71 64 66 65
REMARK SMILES IDX 67 66 68 67 69 68 70 69 7 70 8 71 9 72 10 74 11 75 14 76
REMARK SMILES IDX 15 77 16 79 17 80 28 81 29 82 30 84 31 85 32 86 37 87 33 88
REMARK SMILES IDX 36 89 34 90 35 91 18 92 19 93 20 94 27 95 21 96 22 97 26 98
REMARK SMILES IDX 23 100 25 101 24 102 12 103 13 104
REMARK H PARENT 3 7 91 25 61 36 8 73 14 78 28 83 21 99 13 105
REMARK Flexibility Score: inf
ROOT
ATOM      1  C   UNL A   1      35.239  22.532  24.376  1.00  0.00     0.023 C 
ENDROOT
BRANCH   1   2
ATOM      2  C   UNL A   1      35.573  23.937  24.879  1.00  0.00     0.023 C 
BRANCH   2   3
ATOM      3  C   UNL A   1      36.534  23.996  26.061  1.00  0.00     0.116 C 
BRANCH   3   4
ATOM      4  N   UNL A   1      37.602  23.014  25.967  1.00  0.00    -0.352 N 
ATOM      5  O   UNL A   1      39.726  22.262  25.991  1.00  0.00    -0.269 OA
ATOM      6  C   UNL A   1      38.929  23.139  26.308  1.00  0.00     0.251 C 
ATOM      7  H   UNL A   1      37.338  22.137  25.607  1.00  0.00     0.163 HD
BRANCH   6   8
ATOM      8  C   UNL A   1      39.394  24.339  27.038  1.00  0.00     0.039 A 
ATOM      9  C   UNL A   1      39.103  24.500  28.396  1.00  0.00     0.014 A 
ATOM     10  C   UNL A   1      40.140  25.306  26.360  1.00  0.00     0.014 A 
ATOM     11  C   UNL A   1      39.446  25.685  29.039  1.00  0.00     0.010 A 
ATOM     12  C   UNL A   1      40.546  26.465  27.028  1.00  0.00     0.010 A 
ATOM     13  C   UNL A   1      40.179  26.676  28.366  1.00  0.00    -0.014 A 
BRANCH  13  14
ATOM     14  C   UNL A   1      40.610  27.888  29.108  1.00  0.00     0.031 A 
ATOM     15  C   UNL A   1      39.690  29.064  29.290  1.00  0.00     0.074 A 
ATOM     16  C   UNL A   1      41.845  27.905  29.648  1.00  0.00     0.049 A 
ATOM     17  N   UNL A   1      39.904  30.178  29.945  1.00  0.00    -0.248 NA
ATOM     18  C   UNL A   1      38.363  28.987  28.658  1.00  0.00     0.031 C 
ATOM     19  C   UNL A   1      42.834  26.830  29.525  1.00  0.00     0.029 A 
ATOM     20  N   UNL A   1      42.474  28.846  30.423  1.00  0.00    -0.354 N 
ATOM     21  C   UNL A   1      38.753  30.942  29.788  1.00  0.00     0.074 A 
ATOM     22  C   UNL A   1      37.845  30.170  28.965  1.00  0.00     0.031 C 
ATOM     23  C   UNL A   1      43.926  27.152  30.234  1.00  0.00     0.029 A 
ATOM     24  C   UNL A   1      43.737  28.475  30.818  1.00  0.00     0.049 A 
ATOM     25  H   UNL A   1      42.060  29.703  30.672  1.00  0.00     0.167 HD
ATOM     26  C   UNL A   1      38.480  32.171  30.288  1.00  0.00     0.031 A 
ATOM     27  C   UNL A   1      44.653  29.130  31.555  1.00  0.00     0.031 A 
ATOM     28  C   UNL A   1      39.380  32.931  31.115  1.00  0.00     0.049 A 
ATOM     29  C   UNL A   1      44.323  30.492  32.089  1.00  0.00     0.074 A 
ATOM     30  C   UNL A   1      39.172  34.167  31.703  1.00  0.00     0.029 A 
ATOM     31  N   UNL A   1      40.659  32.531  31.472  1.00  0.00    -0.354 N 
ATOM     32  N   UNL A   1      43.212  31.176  31.961  1.00  0.00    -0.248 NA
ATOM     33  C   UNL A   1      45.371  31.171  32.863  1.00  0.00     0.031 C 
ATOM     34  C   UNL A   1      40.340  34.534  32.379  1.00  0.00     0.029 A 
ATOM     35  C   UNL A   1      41.260  33.506  32.250  1.00  0.00     0.049 A 
ATOM     36  H   UNL A   1      41.078  31.679  31.210  1.00  0.00     0.167 HD
ATOM     37  C   UNL A   1      43.425  32.366  32.645  1.00  0.00     0.074 A 
ATOM     38  C   UNL A   1      44.759  32.297  33.206  1.00  0.00     0.031 C 
ATOM     39  C   UNL A   1      42.591  33.425  32.791  1.00  0.00     0.031 A 
BRANCH  26  40
ATOM     40  C   UNL A   1      37.153  32.793  29.942  1.00  0.00    -0.014 A 
ATOM     41  C   UNL A   1      35.992  32.474  30.667  1.00  0.00     0.010 A 
ATOM     42  C   UNL A   1      37.085  33.774  28.937  1.00  0.00     0.010 A 
ATOM     43  C   UNL A   1      34.781  33.112  30.380  1.00  0.00     0.020 A 
ATOM     44  C   UNL A   1      35.882  34.428  28.658  1.00  0.00     0.020 A 
ATOM     45  C   UNL A   1      34.734  34.085  29.375  1.00  0.00     0.054 A 
BRANCH  45  46
ATOM     46  S   UNL A   1      33.161  34.931  29.053  1.00  0.00     0.124 S 
ATOM     47  O   UNL A   1      32.543  34.927  30.377  1.00  0.00    -0.237 OA
ATOM     48  O   UNL A   1      33.593  36.239  28.567  1.00  0.00    -0.237 OA
ATOM     49  O   UNL A   1      32.509  34.083  28.058  1.00  0.00    -0.744 OA
ENDBRANCH  45  46
ENDBRANCH  26  40
BRANCH  27  50
ATOM     50  C   UNL A   1      45.978  28.506  31.809  1.00  0.00    -0.014 A 
ATOM     51  C   UNL A   1      46.185  27.695  32.937  1.00  0.00     0.010 A 
ATOM     52  C   UNL A   1      47.037  28.711  30.906  1.00  0.00     0.010 A 
ATOM     53  C   UNL A   1      47.434  27.112  33.166  1.00  0.00     0.020 A 
ATOM     54  C   UNL A   1      48.278  28.109  31.118  1.00  0.00     0.020 A 
ATOM     55  C   UNL A   1      48.473  27.323  32.255  1.00  0.00     0.054 A 
BRANCH  55  56
ATOM     56  S   UNL A   1      50.074  26.519  32.537  1.00  0.00     0.124 S 
ATOM     57  O   UNL A   1      50.651  27.354  33.585  1.00  0.00    -0.237 OA
ATOM     58  O   UNL A   1      49.687  25.170  32.944  1.00  0.00    -0.237 OA
ATOM     59  O   UNL A   1      50.729  26.603  31.233  1.00  0.00    -0.744 OA
ENDBRANCH  55  56
ENDBRANCH  27  50
BRANCH  39  60
ATOM     60  C   UNL A   1      43.099  34.586  33.598  1.00  0.00    -0.014 A 
ATOM     61  C   UNL A   1      43.811  35.633  32.986  1.00  0.00     0.010 A 
ATOM     62  C   UNL A   1      42.836  34.645  34.978  1.00  0.00     0.010 A 
ATOM     63  C   UNL A   1      44.281  36.705  33.748  1.00  0.00     0.020 A 
ATOM     64  C   UNL A   1      43.286  35.726  35.739  1.00  0.00     0.020 A 
ATOM     65  C   UNL A   1      44.020  36.742  35.122  1.00  0.00     0.054 A 
BRANCH  65  66
ATOM     66  S   UNL A   1      44.612  38.158  36.088  1.00  0.00     0.124 S 
ATOM     67  O   UNL A   1      43.948  37.947  37.371  1.00  0.00    -0.237 OA
ATOM     68  O   UNL A   1      46.059  37.966  36.091  1.00  0.00    -0.237 OA
ATOM     69  O   UNL A   1      44.144  39.314  35.326  1.00  0.00    -0.744 OA
ENDBRANCH  65  66
ENDBRANCH  39  60
ENDBRANCH  13  14
ENDBRANCH   6   8
ENDBRANCH   3   4
ENDBRANCH   2   3
ENDBRANCH   1   2
BRANCH   1  70
ATOM     70  C   UNL A   1      33.845  22.367  23.775  1.00  0.00     0.116 C 
BRANCH  70  71
ATOM     71  N   UNL A   1      33.723  23.008  22.475  1.00  0.00    -0.354 N 
ATOM     72  C   UNL A   1      33.182  24.220  22.157  1.00  0.00     0.244 C 
ATOM     73  H   UNL A   1      34.081  22.493  21.716  1.00  0.00     0.163 HD
ATOM     74  O   UNL A   1      33.268  24.606  20.988  1.00  0.00    -0.273 OA
BRANCH  72  75
ATOM     75  C   UNL A   1      32.427  25.035  23.219  1.00  0.00     0.197 C 
BRANCH  75  76
ATOM     76  N   UNL A   1      32.861  26.432  23.104  1.00  0.00    -0.340 N 
ATOM     77  C   UNL A   1      32.349  27.617  23.516  1.00  0.00     0.243 C 
ATOM     78  H   UNL A   1      33.713  26.531  22.622  1.00  0.00     0.164 HD
ATOM     79  O   UNL A   1      33.039  28.615  23.264  1.00  0.00    -0.273 OA
BRANCH  77  80
ATOM     80  C   UNL A   1      31.030  27.804  24.310  1.00  0.00     0.176 C 
BRANCH  80  81
ATOM     81  N   UNL A   1      30.933  27.198  25.635  1.00  0.00    -0.340 N 
ATOM     82  C   UNL A   1      31.524  27.484  26.833  1.00  0.00     0.251 C 
ATOM     83  H   UNL A   1      30.319  26.430  25.673  1.00  0.00     0.164 HD
ATOM     84  O   UNL A   1      31.218  26.820  27.818  1.00  0.00    -0.269 OA
BRANCH  82  85
ATOM     85  C   UNL A   1      32.589  28.502  26.954  1.00  0.00     0.040 A 
ATOM     86  C   UNL A   1      33.946  28.218  26.772  1.00  0.00     0.017 A 
ATOM     87  C   UNL A   1      32.178  29.818  27.220  1.00  0.00     0.017 A 
ATOM     88  C   UNL A   1      34.891  29.239  26.921  1.00  0.00     0.040 A 
ATOM     89  C   UNL A   1      33.122  30.835  27.358  1.00  0.00     0.040 A 
ATOM     90  C   UNL A   1      34.471  30.533  27.217  1.00  0.00     0.123 A 
ATOM     91  F   UNL A   1      35.380  31.506  27.361  1.00  0.00    -0.207 F 
ENDBRANCH  82  85
ENDBRANCH  80  81
BRANCH  80  92
ATOM     92  C   UNL A   1      30.628  29.302  24.283  1.00  0.00     0.072 C 
BRANCH  92  93
ATOM     93  C   UNL A   1      29.595  29.701  23.268  1.00  0.00    -0.020 A 
ATOM     94  C   UNL A   1      28.834  28.869  22.470  1.00  0.00     0.087 A 
ATOM     95  C   UNL A   1      29.168  31.040  22.980  1.00  0.00     0.003 A 
ATOM     96  N   UNL A   1      28.064  29.644  21.645  1.00  0.00    -0.361 N 
ATOM     97  C   UNL A   1      28.240  30.973  21.942  1.00  0.00     0.046 A 
ATOM     98  C   UNL A   1      29.479  32.309  23.516  1.00  0.00     0.010 A 
ATOM     99  H   UNL A   1      27.470  29.298  20.940  1.00  0.00     0.166 HD
ATOM    100  C   UNL A   1      27.635  32.107  21.387  1.00  0.00     0.026 A 
ATOM    101  C   UNL A   1      28.859  33.450  22.996  1.00  0.00     0.001 A 
ATOM    102  C   UNL A   1      27.959  33.349  21.939  1.00  0.00     0.002 A 
ENDBRANCH  92  93
ENDBRANCH  80  92
ENDBRANCH  77  80
ENDBRANCH  75  76
BRANCH  75 103
ATOM    103  C   UNL A   1      30.925  24.900  22.928  1.00  0.00     0.191 C 
BRANCH 103 104
ATOM    104  O   UNL A   1      30.507  23.536  22.943  1.00  0.00    -0.394 OA
ATOM    105  H   UNL A   1      30.238  23.270  22.050  1.00  0.00     0.210 HD
ENDBRANCH 103 104
ENDBRANCH  75 103
ENDBRANCH  72  75
ENDBRANCH  70  71
ENDBRANCH   1  70
TORSDOF 22
ENDMDL
MODEL 3
REMARK VINA RESULT:     -11.5      3.647      9.805
REMARK SMILES O=C(NCCCCNC(=O)[C@H](CO)NC(=O)[C@H](Cc1c[nH]c2ccccc12)NC(=O)c1ccc(F)cc1)c1ccc(-c2c3nc(c(-c4ccc(S(=O)(=O)[O-])cc4)c4ccc([nH]4)c(-c4ccc(S(=O)(=O)[O-])cc4)c4nc(c(-c5ccc(S(=O)(=O)[O-])cc5)c5ccc2[nH]5)C=C4)C=C3)cc1
REMARK SMILES IDX 6 1 5 2 4 3 3 4 1 5 2 6 38 8 39 9 97 10 40 11 96 12 41 13
REMARK SMILES IDX 42 14 43 15 90 16 44 17 95 18 89 19 91 20 45 21 94 22 88 23
REMARK SMILES IDX 87 24 46 26 76 27 57 28 75 29 58 30 61 31 74 32 92 33 59 34
REMARK SMILES IDX 60 35 73 37 93 38 62 39 47 40 48 41 56 42 49 43 55 44 50 45
REMARK SMILES IDX 51 46 52 47 53 48 54 49 77 50 78 51 86 52 79 53 85 54 80 55
REMARK SMILES IDX 81 56 82 57 83 58 84 59 63 60 64 61 72 62 65 63 71 64 66 65
REMARK SMILES IDX 67 66 68 67 69 68 70 69 7 70 8 71 9 72 10 74 11 75 14 76
REMARK SMILES IDX 15 77 16 79 17 80 28 81 29 82 30 84 31 85 32 86 37 87 33 88
REMARK SMILES IDX 36 89 34 90 35 91 18 92 19 93 20 94 27 95 21 96 22 97 26 98
REMARK SMILES IDX 23 100 25 101 24 102 12 103 13 104
REMARK H PARENT 3 7 91 25 61 36 8 73 14 78 28 83 21 99 13 105
REMARK Flexibility Score: inf
ROOT
ATOM      1  C   UNL A   1      35.325  22.718  24.225  1.00  0.00     0.023 C 
ENDROOT
BRANCH   1   2
ATOM      2  C   UNL A   1      36.172  23.882  24.739  1.00  0.00     0.023 C 
BRANCH   2   3
ATOM      3  C   UNL A   1      36.823  23.665  26.101  1.00  0.00     0.116 C 
BRANCH   3   4
ATOM      4  N   UNL A   1      37.794  22.583  26.093  1.00  0.00    -0.352 N 
ATOM      5  O   UNL A   1      39.843  21.644  26.093  1.00  0.00    -0.269 OA
ATOM      6  C   UNL A   1      39.151  22.632  26.319  1.00  0.00     0.251 C 
ATOM      7  H   UNL A   1      37.429  21.690  25.898  1.00  0.00     0.163 HD
BRANCH   6   8
ATOM      8  C   UNL A   1      39.772  23.880  26.813  1.00  0.00     0.039 A 
ATOM      9  C   UNL A   1      39.819  25.019  26.004  1.00  0.00     0.014 A 
ATOM     10  C   UNL A   1      40.303  23.914  28.105  1.00  0.00     0.014 A 
ATOM     11  C   UNL A   1      40.509  26.146  26.438  1.00  0.00     0.010 A 
ATOM     12  C   UNL A   1      40.933  25.074  28.567  1.00  0.00     0.010 A 
ATOM     13  C   UNL A   1      41.065  26.190  27.728  1.00  0.00    -0.014 A 
BRANCH  13  14
ATOM     14  C   UNL A   1      41.713  27.441  28.194  1.00  0.00     0.031 A 
ATOM     15  C   UNL A   1      43.199  27.644  28.081  1.00  0.00     0.074 A 
ATOM     16  C   UNL A   1      40.933  28.418  28.701  1.00  0.00     0.049 A 
ATOM     17  N   UNL A   1      43.910  28.695  28.407  1.00  0.00    -0.248 NA
ATOM     18  C   UNL A   1      43.993  26.530  27.537  1.00  0.00     0.031 C 
ATOM     19  C   UNL A   1      39.481  28.331  28.876  1.00  0.00     0.029 A 
ATOM     20  N   UNL A   1      41.245  29.678  29.142  1.00  0.00    -0.354 N 
ATOM     21  C   UNL A   1      45.231  28.365  28.130  1.00  0.00     0.074 A 
ATOM     22  C   UNL A   1      45.228  27.010  27.619  1.00  0.00     0.031 C 
ATOM     23  C   UNL A   1      39.023  29.501  29.346  1.00  0.00     0.029 A 
ATOM     24  C   UNL A   1      40.151  30.401  29.555  1.00  0.00     0.049 A 
ATOM     25  H   UNL A   1      42.164  30.031  29.161  1.00  0.00     0.167 HD
ATOM     26  C   UNL A   1      46.342  29.124  28.284  1.00  0.00     0.031 A 
ATOM     27  C   UNL A   1      40.062  31.645  30.061  1.00  0.00     0.031 A 
ATOM     28  C   UNL A   1      46.341  30.475  28.782  1.00  0.00     0.049 A 
ATOM     29  C   UNL A   1      41.311  32.458  30.227  1.00  0.00     0.074 A 
ATOM     30  C   UNL A   1      47.415  31.337  28.932  1.00  0.00     0.029 A 
ATOM     31  N   UNL A   1      45.216  31.161  29.212  1.00  0.00    -0.354 N 
ATOM     32  N   UNL A   1      42.545  32.138  29.918  1.00  0.00    -0.248 NA
ATOM     33  C   UNL A   1      41.156  33.797  30.810  1.00  0.00     0.031 C 
ATOM     34  C   UNL A   1      46.945  32.529  29.493  1.00  0.00     0.029 A 
ATOM     35  C   UNL A   1      45.572  32.426  29.650  1.00  0.00     0.049 A 
ATOM     36  H   UNL A   1      44.299  30.802  29.207  1.00  0.00     0.167 HD
ATOM     37  C   UNL A   1      43.314  33.241  30.265  1.00  0.00     0.074 A 
ATOM     38  C   UNL A   1      42.404  34.244  30.781  1.00  0.00     0.031 C 
ATOM     39  C   UNL A   1      44.656  33.407  30.170  1.00  0.00     0.031 A 
BRANCH  26  40
ATOM     40  C   UNL A   1      47.670  28.510  27.928  1.00  0.00    -0.014 A 
ATOM     41  C   UNL A   1      48.357  27.689  28.839  1.00  0.00     0.010 A 
ATOM     42  C   UNL A   1      48.195  28.688  26.635  1.00  0.00     0.010 A 
ATOM     43  C   UNL A   1      49.555  27.070  28.469  1.00  0.00     0.020 A 
ATOM     44  C   UNL A   1      49.382  28.056  26.255  1.00  0.00     0.020 A 
ATOM     45  C   UNL A   1      50.062  27.259  27.179  1.00  0.00     0.054 A 
BRANCH  45  46
ATOM     46  S   UNL A   1      51.594  26.408  26.709  1.00  0.00     0.124 S 
ATOM     47  O   UNL A   1      51.482  26.372  25.253  1.00  0.00    -0.237 OA
ATOM     48  O   UNL A   1      52.629  27.293  27.237  1.00  0.00    -0.237 OA
ATOM     49  O   UNL A   1      51.488  25.111  27.374  1.00  0.00    -0.744 OA
ENDBRANCH  45  46
ENDBRANCH  26  40
BRANCH  27  50
ATOM     50  C   UNL A   1      38.737  32.182  30.467  1.00  0.00    -0.014 A 
ATOM     51  C   UNL A   1      38.038  33.074  29.637  1.00  0.00     0.010 A 
ATOM     52  C   UNL A   1      38.161  31.784  31.688  1.00  0.00     0.010 A 
ATOM     53  C   UNL A   1      36.793  33.572  30.027  1.00  0.00     0.020 A 
ATOM     54  C   UNL A   1      36.904  32.259  32.068  1.00  0.00     0.020 A 
ATOM     55  C   UNL A   1      36.234  33.162  31.241  1.00  0.00     0.054 A 
BRANCH  55  56
ATOM     56  S   UNL A   1      34.593  33.776  31.712  1.00  0.00     0.124 S 
ATOM     57  O   UNL A   1      33.985  34.037  30.412  1.00  0.00    -0.237 OA
ATOM     58  O   UNL A   1      34.033  32.653  32.459  1.00  0.00    -0.237 OA
ATOM     59  O   UNL A   1      34.894  34.959  32.516  1.00  0.00    -0.744 OA
ENDBRANCH  55  56
ENDBRANCH  27  50
BRANCH  39  60
ATOM     60  C   UNL A   1      45.215  34.725  30.625  1.00  0.00    -0.014 A 
ATOM     61  C   UNL A   1      45.321  35.808  29.735  1.00  0.00     0.010 A 
ATOM     62  C   UNL A   1      45.611  34.890  31.964  1.00  0.00     0.010 A 
ATOM     63  C   UNL A   1      45.845  37.028  30.170  1.00  0.00     0.020 A 
ATOM     64  C   UNL A   1      46.116  36.115  32.407  1.00  0.00     0.020 A 
ATOM     65  C   UNL A   1      46.245  37.171  31.502  1.00  0.00     0.054 A 
BRANCH  65  66
ATOM     66  S   UNL A   1      46.894  38.773  32.055  1.00  0.00     0.124 S 
ATOM     67  O   UNL A   1      45.688  39.593  32.087  1.00  0.00    -0.237 OA
ATOM     68  O   UNL A   1      47.474  38.455  33.358  1.00  0.00    -0.237 OA
ATOM     69  O   UNL A   1      47.863  39.126  31.019  1.00  0.00    -0.744 OA
ENDBRANCH  65  66
ENDBRANCH  39  60
ENDBRANCH  13  14
ENDBRANCH   6   8
ENDBRANCH   3   4
ENDBRANCH   2   3
ENDBRANCH   1   2
BRANCH   1  70
ATOM     70  C   UNL A   1      33.860  23.046  23.953  1.00  0.00     0.116 C 
BRANCH  70  71
ATOM     71  N   UNL A   1      33.631  23.460  22.577  1.00  0.00    -0.354 N 
ATOM     72  C   UNL A   1      33.050  24.602  22.104  1.00  0.00     0.244 C 
ATOM     73  H   UNL A   1      33.937  22.826  21.890  1.00  0.00     0.163 HD
ATOM     74  O   UNL A   1      33.042  24.786  20.884  1.00  0.00    -0.273 OA
BRANCH  72  75
ATOM     75  C   UNL A   1      32.367  25.581  23.070  1.00  0.00     0.197 C 
BRANCH  75  76
ATOM     76  N   UNL A   1      32.582  26.940  22.558  1.00  0.00    -0.340 N 
ATOM     77  C   UNL A   1      32.098  28.162  22.888  1.00  0.00     0.243 C 
ATOM     78  H   UNL A   1      33.220  26.971  21.808  1.00  0.00     0.164 HD
ATOM     79  O   UNL A   1      32.556  29.112  22.237  1.00  0.00    -0.273 OA
BRANCH  77  80
ATOM     80  C   UNL A   1      31.088  28.456  24.027  1.00  0.00     0.176 C 
BRANCH  80  81
ATOM     81  N   UNL A   1      29.765  27.842  23.950  1.00  0.00    -0.340 N 
ATOM     82  C   UNL A   1      28.589  28.237  23.378  1.00  0.00     0.251 C 
ATOM     83  H   UNL A   1      29.710  26.967  24.399  1.00  0.00     0.164 HD
ATOM     84  O   UNL A   1      27.622  27.484  23.431  1.00  0.00    -0.269 OA
BRANCH  82  85
ATOM     85  C   UNL A   1      28.423  29.582  22.788  1.00  0.00     0.040 A 
ATOM     86  C   UNL A   1      28.641  29.859  21.435  1.00  0.00     0.017 A 
ATOM     87  C   UNL A   1      27.980  30.599  23.650  1.00  0.00     0.017 A 
ATOM     88  C   UNL A   1      28.476  31.165  20.963  1.00  0.00     0.040 A 
ATOM     89  C   UNL A   1      27.807  31.898  23.173  1.00  0.00     0.040 A 
ATOM     90  C   UNL A   1      28.068  32.171  21.836  1.00  0.00     0.123 A 
ATOM     91  F   UNL A   1      27.915  33.420  21.378  1.00  0.00    -0.207 F 
ENDBRANCH  82  85
ENDBRANCH  80  81
BRANCH  80  92
ATOM     92  C   UNL A   1      31.789  28.245  25.394  1.00  0.00     0.072 C 
BRANCH  92  93
ATOM     93  C   UNL A   1      32.233  29.485  26.119  1.00  0.00    -0.020 A 
ATOM     94  C   UNL A   1      31.510  30.644  26.322  1.00  0.00     0.087 A 
ATOM     95  C   UNL A   1      33.489  29.667  26.788  1.00  0.00     0.003 A 
ATOM     96  N   UNL A   1      32.310  31.545  26.973  1.00  0.00    -0.361 N 
ATOM     97  C   UNL A   1      33.519  30.971  27.279  1.00  0.00     0.046 A 
ATOM     98  C   UNL A   1      34.604  28.836  27.031  1.00  0.00     0.010 A 
ATOM     99  H   UNL A   1      32.054  32.470  27.191  1.00  0.00     0.166 HD
ATOM    100  C   UNL A   1      34.618  31.500  27.967  1.00  0.00     0.026 A 
ATOM    101  C   UNL A   1      35.698  29.338  27.745  1.00  0.00     0.001 A 
ATOM    102  C   UNL A   1      35.706  30.655  28.195  1.00  0.00     0.002 A 
ENDBRANCH  92  93
ENDBRANCH  80  92
ENDBRANCH  77  80
ENDBRANCH  75  76
BRANCH  75 103
ATOM    103  C   UNL A   1      30.870  25.236  23.102  1.00  0.00     0.191 C 
BRANCH 103 104
ATOM    104  O   UNL A   1      30.635  23.882  22.718  1.00  0.00    -0.394 OA
ATOM    105  H   UNL A   1      31.106  23.694  21.891  1.00  0.00     0.210 HD
ENDBRANCH 103 104
ENDBRANCH  75 103
ENDBRANCH  72  75
ENDBRANCH  70  71
ENDBRANCH   1  70
TORSDOF 22
ENDMDL
