MODEL 1
REMARK VINA RESULT:     -11.9      0.000      0.000
REMARK SMILES CC[N@@H+]1CCO[C@@H](Cn2cc(C(=O)NCCCCNC(=O)c3ccc(-c4c5nc(c(-c6ccc(S(=O)(=O)[O-])cc6)c6ccc([nH]6)c(-c6ccc(S(=O)(=O)[O-])cc6)c6nc(c(-c7ccc(S(=O)(=O)[O-])cc7)c7ccc4[nH]7)C=C6)C=C5)cc3)nn2)C1
REMARK SMILES IDX 16 1 15 2 14 3 12 4 13 5 11 7 9 8 10 9 83 10 82 11 8 12 7 13
REMARK SMILES IDX 3 14 4 15 84 16 5 18 6 19 2 20 1 21 17 22 18 23 19 24 20 25
REMARK SMILES IDX 21 27 22 28 23 29 81 30 24 31 80 32 25 33 26 34 27 35 74 36
REMARK SMILES IDX 28 37 79 38 73 39 75 40 29 41 78 42 72 43 71 44 30 46 60 47
REMARK SMILES IDX 41 48 59 49 42 50 45 51 58 52 76 53 43 54 44 55 57 57 77 58
REMARK SMILES IDX 46 59 31 60 32 61 40 62 33 63 39 64 34 65 35 66 36 67 37 68
REMARK SMILES IDX 38 69 61 70 62 71 70 72 63 73 69 74 64 75 65 76 66 77 67 78
REMARK SMILES IDX 68 79 47 80 48 81 56 82 49 83 55 84 50 85 51 86 52 87 53 88
REMARK SMILES IDX 54 89
REMARK H PARENT 14 6 3 17 19 26 75 45 45 56
REMARK Flexibility Score: inf
ROOT
ATOM      1  C   UNL A   1      36.267  20.873  24.899  1.00  0.00     0.023 C 
ENDROOT
BRANCH   1   2
ATOM      2  C   UNL A   1      35.065  21.116  25.816  1.00  0.00     0.116 C 
BRANCH   2   3
ATOM      3  N   UNL A   1      34.032  20.115  25.645  1.00  0.00    -0.351 N 
ATOM      4  C   UNL A   1      32.710  20.206  25.271  1.00  0.00     0.273 C 
ATOM      5  O   UNL A   1      32.107  19.139  25.137  1.00  0.00    -0.267 OA
ATOM      6  H   UNL A   1      34.333  19.196  25.830  1.00  0.00     0.163 HD
BRANCH   4   7
ATOM      7  C   UNL A   1      32.059  21.490  25.019  1.00  0.00     0.170 A 
ATOM      8  N   UNL A   1      31.184  23.308  24.218  1.00  0.00    -0.249 N 
ATOM      9  C   UNL A   1      32.124  22.355  23.943  1.00  0.00     0.145 A 
ATOM     10  N   UNL A   1      30.686  23.161  25.451  1.00  0.00    -0.067 NA
ATOM     11  N   UNL A   1      31.209  22.052  25.953  1.00  0.00    -0.125 NA
BRANCH   8  12
ATOM     12  C   UNL A   1      30.576  24.240  23.293  1.00  0.00     0.184 C 
BRANCH  12  13
ATOM     13  C   UNL A   1      31.040  25.672  23.566  1.00  0.00     0.194 C 
ATOM     14  N   UNL A   1      32.742  27.427  22.989  1.00  0.00    -0.331 N 
ATOM     15  C   UNL A   1      31.618  28.366  22.859  1.00  0.00     0.291 C 
ATOM     16  C   UNL A   1      32.285  26.055  22.729  1.00  0.00     0.296 C 
ATOM     17  H   UNL A   1      33.424  27.613  22.255  1.00  0.00     0.348 HD
ATOM     18  C   UNL A   1      30.365  27.931  23.638  1.00  0.00     0.222 C 
ATOM     19  O   UNL A   1      29.960  26.590  23.298  1.00  0.00    -0.365 OA
BRANCH  14  20
ATOM     20  C   UNL A   1      33.598  27.662  24.158  1.00  0.00     0.258 C 
ATOM     21  C   UNL A   1      33.535  29.001  24.888  1.00  0.00     0.071 C 
ENDBRANCH  14  20
ENDBRANCH  12  13
ENDBRANCH   8  12
ENDBRANCH   4   7
ENDBRANCH   2   3
ENDBRANCH   1   2
BRANCH   1  22
ATOM     22  C   UNL A   1      36.967  22.137  24.372  1.00  0.00     0.023 C 
BRANCH  22  23
ATOM     23  C   UNL A   1      37.814  22.887  25.395  1.00  0.00     0.116 C 
BRANCH  23  24
ATOM     24  N   UNL A   1      38.617  22.005  26.245  1.00  0.00    -0.352 N 
ATOM     25  C   UNL A   1      39.774  22.323  26.938  1.00  0.00     0.251 C 
ATOM     26  H   UNL A   1      38.299  21.078  26.335  1.00  0.00     0.163 HD
ATOM     27  O   UNL A   1      40.568  21.445  27.271  1.00  0.00    -0.269 OA
BRANCH  25  28
ATOM     28  C   UNL A   1      40.023  23.733  27.281  1.00  0.00     0.039 A 
ATOM     29  C   UNL A   1      39.037  24.716  27.170  1.00  0.00     0.014 A 
ATOM     30  C   UNL A   1      41.281  24.041  27.788  1.00  0.00     0.014 A 
ATOM     31  C   UNL A   1      39.303  25.991  27.669  1.00  0.00     0.010 A 
ATOM     32  C   UNL A   1      41.479  25.236  28.427  1.00  0.00     0.010 A 
ATOM     33  C   UNL A   1      40.521  26.238  28.325  1.00  0.00    -0.014 A 
BRANCH  33  34
ATOM     34  C   UNL A   1      40.772  27.502  29.015  1.00  0.00     0.031 A 
ATOM     35  C   UNL A   1      41.830  28.354  28.403  1.00  0.00     0.074 A 
ATOM     36  C   UNL A   1      39.967  27.983  29.990  1.00  0.00     0.049 A 
ATOM     37  N   UNL A   1      42.999  28.618  28.884  1.00  0.00    -0.248 NA
ATOM     38  C   UNL A   1      41.624  28.859  27.036  1.00  0.00     0.031 C 
ATOM     39  C   UNL A   1      38.708  27.420  30.498  1.00  0.00     0.029 A 
ATOM     40  N   UNL A   1      40.046  29.165  30.658  1.00  0.00    -0.354 N 
ATOM     41  C   UNL A   1      43.591  29.509  27.994  1.00  0.00     0.074 A 
ATOM     42  C   UNL A   1      42.786  29.471  26.799  1.00  0.00     0.031 C 
ATOM     43  C   UNL A   1      38.030  28.366  31.186  1.00  0.00     0.029 A 
ATOM     44  C   UNL A   1      38.885  29.526  31.336  1.00  0.00     0.049 A 
ATOM     45  H   UNL A   1      40.860  29.720  30.663  1.00  0.00     0.167 HD
ATOM     46  C   UNL A   1      44.552  30.387  28.399  1.00  0.00     0.031 A 
ATOM     47  C   UNL A   1      38.639  30.701  31.968  1.00  0.00     0.031 A 
ATOM     48  C   UNL A   1      45.043  30.062  29.715  1.00  0.00     0.049 A 
ATOM     49  C   UNL A   1      39.958  31.311  32.260  1.00  0.00     0.074 A 
ATOM     50  C   UNL A   1      45.667  28.969  30.280  1.00  0.00     0.029 A 
ATOM     51  N   UNL A   1      44.532  30.793  30.763  1.00  0.00    -0.354 N 
ATOM     52  N   UNL A   1      40.823  30.780  33.079  1.00  0.00    -0.248 NA
ATOM     53  C   UNL A   1      40.505  32.252  31.298  1.00  0.00     0.031 C 
ATOM     54  C   UNL A   1      45.081  28.844  31.574  1.00  0.00     0.029 A 
ATOM     55  C   UNL A   1      44.198  29.911  31.758  1.00  0.00     0.049 A 
ATOM     56  H   UNL A   1      44.425  31.771  30.793  1.00  0.00     0.167 HD
ATOM     57  C   UNL A   1      42.052  30.965  32.463  1.00  0.00     0.074 A 
ATOM     58  C   UNL A   1      41.804  31.964  31.423  1.00  0.00     0.031 C 
ATOM     59  C   UNL A   1      43.084  30.093  32.666  1.00  0.00     0.031 A 
BRANCH  46  60
ATOM     60  C   UNL A   1      44.758  31.759  27.800  1.00  0.00    -0.014 A 
ATOM     61  C   UNL A   1      46.009  32.066  27.225  1.00  0.00     0.010 A 
ATOM     62  C   UNL A   1      43.879  32.837  28.030  1.00  0.00     0.010 A 
ATOM     63  C   UNL A   1      46.390  33.390  26.969  1.00  0.00     0.020 A 
ATOM     64  C   UNL A   1      44.231  34.157  27.738  1.00  0.00     0.020 A 
ATOM     65  C   UNL A   1      45.500  34.429  27.243  1.00  0.00     0.054 A 
BRANCH  65  66
ATOM     66  S   UNL A   1      46.039  36.140  27.011  1.00  0.00     0.124 S 
ATOM     67  O   UNL A   1      46.801  36.382  28.232  1.00  0.00    -0.237 OA
ATOM     68  O   UNL A   1      46.822  36.052  25.782  1.00  0.00    -0.237 OA
ATOM     69  O   UNL A   1      44.785  36.880  26.894  1.00  0.00    -0.744 OA
ENDBRANCH  65  66
ENDBRANCH  46  60
BRANCH  47  70
ATOM     70  C   UNL A   1      37.364  31.457  32.055  1.00  0.00    -0.014 A 
ATOM     71  C   UNL A   1      36.895  31.949  33.288  1.00  0.00     0.010 A 
ATOM     72  C   UNL A   1      36.761  31.954  30.881  1.00  0.00     0.010 A 
ATOM     73  C   UNL A   1      35.912  32.953  33.342  1.00  0.00     0.020 A 
ATOM     74  C   UNL A   1      35.777  32.951  30.927  1.00  0.00     0.020 A 
ATOM     75  C   UNL A   1      35.376  33.466  32.158  1.00  0.00     0.054 A 
BRANCH  75  76
ATOM     76  S   UNL A   1      34.254  34.897  32.229  1.00  0.00     0.124 S 
ATOM     77  O   UNL A   1      34.110  35.249  30.819  1.00  0.00    -0.237 OA
ATOM     78  O   UNL A   1      33.065  34.336  32.863  1.00  0.00    -0.237 OA
ATOM     79  O   UNL A   1      34.986  35.868  33.040  1.00  0.00    -0.744 OA
ENDBRANCH  75  76
ENDBRANCH  47  70
BRANCH  59  80
ATOM     80  C   UNL A   1      42.970  29.089  33.794  1.00  0.00    -0.014 A 
ATOM     81  C   UNL A   1      43.437  29.314  35.105  1.00  0.00     0.010 A 
ATOM     82  C   UNL A   1      42.218  27.928  33.544  1.00  0.00     0.010 A 
ATOM     83  C   UNL A   1      43.178  28.386  36.128  1.00  0.00     0.020 A 
ATOM     84  C   UNL A   1      41.942  27.011  34.561  1.00  0.00     0.020 A 
ATOM     85  C   UNL A   1      42.430  27.238  35.847  1.00  0.00     0.054 A 
BRANCH  85  86
ATOM     86  S   UNL A   1      42.061  26.059  37.176  1.00  0.00     0.124 S 
ATOM     87  O   UNL A   1      42.368  24.773  36.556  1.00  0.00    -0.237 OA
ATOM     88  O   UNL A   1      42.968  26.475  38.243  1.00  0.00    -0.237 OA
ATOM     89  O   UNL A   1      40.644  26.285  37.459  1.00  0.00    -0.744 OA
ENDBRANCH  85  86
ENDBRANCH  59  80
ENDBRANCH  33  34
ENDBRANCH  25  28
ENDBRANCH  23  24
ENDBRANCH  22  23
ENDBRANCH   1  22
TORSDOF 17
ENDMDL
MODEL 2
REMARK VINA RESULT:     -11.8      1.959      2.613
REMARK SMILES CC[N@@H+]1CCO[C@@H](Cn2cc(C(=O)NCCCCNC(=O)c3ccc(-c4c5nc(c(-c6ccc(S(=O)(=O)[O-])cc6)c6ccc([nH]6)c(-c6ccc(S(=O)(=O)[O-])cc6)c6nc(c(-c7ccc(S(=O)(=O)[O-])cc7)c7ccc4[nH]7)C=C6)C=C5)cc3)nn2)C1
REMARK SMILES IDX 16 1 15 2 14 3 12 4 13 5 11 7 9 8 10 9 83 10 82 11 8 12 7 13
REMARK SMILES IDX 3 14 4 15 84 16 5 18 6 19 2 20 1 21 17 22 18 23 19 24 20 25
REMARK SMILES IDX 21 27 22 28 23 29 81 30 24 31 80 32 25 33 26 34 27 35 74 36
REMARK SMILES IDX 28 37 79 38 73 39 75 40 29 41 78 42 72 43 71 44 30 46 60 47
REMARK SMILES IDX 41 48 59 49 42 50 45 51 58 52 76 53 43 54 44 55 57 57 77 58
REMARK SMILES IDX 46 59 31 60 32 61 40 62 33 63 39 64 34 65 35 66 36 67 37 68
REMARK SMILES IDX 38 69 61 70 62 71 70 72 63 73 69 74 64 75 65 76 66 77 67 78
REMARK SMILES IDX 68 79 47 80 48 81 56 82 49 83 55 84 50 85 51 86 52 87 53 88
REMARK SMILES IDX 54 89
REMARK H PARENT 14 6 3 17 19 26 75 45 45 56
REMARK Flexibility Score: inf
ROOT
ATOM      1  C   UNL A   1      38.715  23.884  26.538  1.00  0.00     0.023 C 
ENDROOT
BRANCH   1   2
ATOM      2  C   UNL A   1      37.280  23.914  26.003  1.00  0.00     0.116 C 
BRANCH   2   3
ATOM      3  N   UNL A   1      36.702  22.589  25.906  1.00  0.00    -0.351 N 
ATOM      4  C   UNL A   1      35.667  22.086  25.150  1.00  0.00     0.273 C 
ATOM      5  O   UNL A   1      35.469  20.872  25.238  1.00  0.00    -0.267 OA
ATOM      6  H   UNL A   1      37.132  21.923  26.490  1.00  0.00     0.163 HD
BRANCH   4   7
ATOM      7  C   UNL A   1      34.862  22.931  24.271  1.00  0.00     0.170 A 
ATOM      8  N   UNL A   1      33.591  24.422  23.335  1.00  0.00    -0.249 N 
ATOM      9  C   UNL A   1      33.850  23.833  24.541  1.00  0.00     0.145 A 
ATOM     10  N   UNL A   1      34.259  23.820  22.345  1.00  0.00    -0.067 NA
ATOM     11  N   UNL A   1      35.042  22.907  22.901  1.00  0.00    -0.125 NA
BRANCH   8  12
ATOM     12  C   UNL A   1      32.897  25.669  23.094  1.00  0.00     0.184 C 
BRANCH  12  13
ATOM     13  C   UNL A   1      32.832  26.519  24.364  1.00  0.00     0.194 C 
ATOM     14  N   UNL A   1      33.195  28.812  25.324  1.00  0.00    -0.331 N 
ATOM     15  C   UNL A   1      31.886  28.663  25.976  1.00  0.00     0.291 C 
ATOM     16  C   UNL A   1      33.249  27.988  24.108  1.00  0.00     0.296 C 
ATOM     17  H   UNL A   1      33.299  29.769  24.989  1.00  0.00     0.348 HD
ATOM     18  C   UNL A   1      31.455  27.198  26.155  1.00  0.00     0.222 C 
ATOM     19  O   UNL A   1      31.498  26.470  24.912  1.00  0.00    -0.365 OA
BRANCH  14  20
ATOM     20  C   UNL A   1      34.340  28.768  26.241  1.00  0.00     0.258 C 
ATOM     21  C   UNL A   1      34.186  29.274  27.673  1.00  0.00     0.071 C 
ENDBRANCH  14  20
ENDBRANCH  12  13
ENDBRANCH   8  12
ENDBRANCH   4   7
ENDBRANCH   2   3
ENDBRANCH   1   2
BRANCH   1  22
ATOM     22  C   UNL A   1      39.400  22.507  26.527  1.00  0.00     0.023 C 
BRANCH  22  23
ATOM     23  C   UNL A   1      40.768  22.454  27.198  1.00  0.00     0.116 C 
BRANCH  23  24
ATOM     24  N   UNL A   1      41.876  22.298  26.252  1.00  0.00    -0.352 N 
ATOM     25  C   UNL A   1      42.515  23.292  25.530  1.00  0.00     0.251 C 
ATOM     26  H   UNL A   1      42.204  21.381  26.114  1.00  0.00     0.163 HD
ATOM     27  O   UNL A   1      43.126  23.024  24.496  1.00  0.00    -0.269 OA
BRANCH  25  28
ATOM     28  C   UNL A   1      42.462  24.674  26.035  1.00  0.00     0.039 A 
ATOM     29  C   UNL A   1      41.647  25.651  25.457  1.00  0.00     0.014 A 
ATOM     30  C   UNL A   1      43.219  24.957  27.166  1.00  0.00     0.014 A 
ATOM     31  C   UNL A   1      41.529  26.886  26.093  1.00  0.00     0.010 A 
ATOM     32  C   UNL A   1      42.972  26.101  27.877  1.00  0.00     0.010 A 
ATOM     33  C   UNL A   1      42.175  27.097  27.324  1.00  0.00    -0.014 A 
BRANCH  33  34
ATOM     34  C   UNL A   1      41.941  28.306  28.110  1.00  0.00     0.031 A 
ATOM     35  C   UNL A   1      42.988  29.357  27.974  1.00  0.00     0.074 A 
ATOM     36  C   UNL A   1      40.769  28.567  28.732  1.00  0.00     0.049 A 
ATOM     37  N   UNL A   1      43.840  29.734  28.868  1.00  0.00    -0.248 NA
ATOM     38  C   UNL A   1      43.209  29.965  26.652  1.00  0.00     0.031 C 
ATOM     39  C   UNL A   1      39.526  27.783  28.708  1.00  0.00     0.029 A 
ATOM     40  N   UNL A   1      40.399  29.674  29.431  1.00  0.00    -0.354 N 
ATOM     41  C   UNL A   1      44.555  30.786  28.303  1.00  0.00     0.074 A 
ATOM     42  C   UNL A   1      44.256  30.757  26.892  1.00  0.00     0.031 C 
ATOM     43  C   UNL A   1      38.495  28.547  29.132  1.00  0.00     0.029 A 
ATOM     44  C   UNL A   1      39.028  29.796  29.639  1.00  0.00     0.049 A 
ATOM     45  H   UNL A   1      41.049  30.336  29.763  1.00  0.00     0.167 HD
ATOM     46  C   UNL A   1      45.140  31.745  29.074  1.00  0.00     0.031 A 
ATOM     47  C   UNL A   1      38.374  30.854  30.182  1.00  0.00     0.031 A 
ATOM     48  C   UNL A   1      45.169  31.361  30.463  1.00  0.00     0.049 A 
ATOM     49  C   UNL A   1      39.374  31.612  30.972  1.00  0.00     0.074 A 
ATOM     50  C   UNL A   1      45.721  30.316  31.174  1.00  0.00     0.029 A 
ATOM     51  N   UNL A   1      44.196  31.901  31.274  1.00  0.00    -0.354 N 
ATOM     52  N   UNL A   1      39.960  31.128  32.032  1.00  0.00    -0.248 NA
ATOM     53  C   UNL A   1      40.065  32.714  30.325  1.00  0.00     0.031 C 
ATOM     54  C   UNL A   1      44.736  29.978  32.149  1.00  0.00     0.029 A 
ATOM     55  C   UNL A   1      43.679  30.885  32.034  1.00  0.00     0.049 A 
ATOM     56  H   UNL A   1      43.922  32.846  31.303  1.00  0.00     0.167 HD
ATOM     57  C   UNL A   1      41.278  31.547  31.928  1.00  0.00     0.074 A 
ATOM     58  C   UNL A   1      41.259  32.601  30.914  1.00  0.00     0.031 C 
ATOM     59  C   UNL A   1      42.298  30.813  32.466  1.00  0.00     0.031 A 
BRANCH  46  60
ATOM     60  C   UNL A   1      45.313  33.187  28.654  1.00  0.00    -0.014 A 
ATOM     61  C   UNL A   1      46.586  33.782  28.784  1.00  0.00     0.010 A 
ATOM     62  C   UNL A   1      44.227  34.051  28.406  1.00  0.00     0.010 A 
ATOM     63  C   UNL A   1      46.748  35.173  28.749  1.00  0.00     0.020 A 
ATOM     64  C   UNL A   1      44.384  35.436  28.325  1.00  0.00     0.020 A 
ATOM     65  C   UNL A   1      45.640  35.991  28.534  1.00  0.00     0.054 A 
BRANCH  65  66
ATOM     66  S   UNL A   1      45.841  37.788  28.597  1.00  0.00     0.124 S 
ATOM     67  O   UNL A   1      45.932  38.030  30.033  1.00  0.00    -0.237 OA
ATOM     68  O   UNL A   1      47.074  37.987  27.841  1.00  0.00    -0.237 OA
ATOM     69  O   UNL A   1      44.632  38.290  27.949  1.00  0.00    -0.744 OA
ENDBRANCH  65  66
ENDBRANCH  46  60
BRANCH  47  70
ATOM     70  C   UNL A   1      37.046  31.409  29.818  1.00  0.00    -0.014 A 
ATOM     71  C   UNL A   1      36.139  31.828  30.809  1.00  0.00     0.010 A 
ATOM     72  C   UNL A   1      36.791  31.805  28.488  1.00  0.00     0.010 A 
ATOM     73  C   UNL A   1      35.059  32.672  30.493  1.00  0.00     0.020 A 
ATOM     74  C   UNL A   1      35.715  32.642  28.166  1.00  0.00     0.020 A 
ATOM     75  C   UNL A   1      34.869  33.095  29.175  1.00  0.00     0.054 A 
BRANCH  75  76
ATOM     76  S   UNL A   1      33.593  34.340  28.809  1.00  0.00     0.124 S 
ATOM     77  O   UNL A   1      33.055  34.632  30.135  1.00  0.00    -0.237 OA
ATOM     78  O   UNL A   1      34.366  35.414  28.192  1.00  0.00    -0.237 OA
ATOM     79  O   UNL A   1      32.679  33.642  27.908  1.00  0.00    -0.744 OA
ENDBRANCH  75  76
ENDBRANCH  47  70
BRANCH  59  80
ATOM     80  C   UNL A   1      41.955  29.694  33.426  1.00  0.00    -0.014 A 
ATOM     81  C   UNL A   1      41.582  28.394  33.028  1.00  0.00     0.010 A 
ATOM     82  C   UNL A   1      42.170  29.936  34.794  1.00  0.00     0.010 A 
ATOM     83  C   UNL A   1      41.406  27.375  33.980  1.00  0.00     0.020 A 
ATOM     84  C   UNL A   1      42.015  28.923  35.743  1.00  0.00     0.020 A 
ATOM     85  C   UNL A   1      41.624  27.649  35.333  1.00  0.00     0.054 A 
BRANCH  85  86
ATOM     86  S   UNL A   1      41.436  26.323  36.559  1.00  0.00     0.124 S 
ATOM     87  O   UNL A   1      42.811  26.095  36.996  1.00  0.00    -0.237 OA
ATOM     88  O   UNL A   1      40.551  26.923  37.555  1.00  0.00    -0.237 OA
ATOM     89  O   UNL A   1      40.840  25.226  35.797  1.00  0.00    -0.744 OA
ENDBRANCH  85  86
ENDBRANCH  59  80
ENDBRANCH  33  34
ENDBRANCH  25  28
ENDBRANCH  23  24
ENDBRANCH  22  23
ENDBRANCH   1  22
TORSDOF 17
ENDMDL
MODEL 3
REMARK VINA RESULT:     -11.5      2.675      9.589
REMARK SMILES CC[N@@H+]1CCO[C@@H](Cn2cc(C(=O)NCCCCNC(=O)c3ccc(-c4c5nc(c(-c6ccc(S(=O)(=O)[O-])cc6)c6ccc([nH]6)c(-c6ccc(S(=O)(=O)[O-])cc6)c6nc(c(-c7ccc(S(=O)(=O)[O-])cc7)c7ccc4[nH]7)C=C6)C=C5)cc3)nn2)C1
REMARK SMILES IDX 16 1 15 2 14 3 12 4 13 5 11 7 9 8 10 9 83 10 82 11 8 12 7 13
REMARK SMILES IDX 3 14 4 15 84 16 5 18 6 19 2 20 1 21 17 22 18 23 19 24 20 25
REMARK SMILES IDX 21 27 22 28 23 29 81 30 24 31 80 32 25 33 26 34 27 35 74 36
REMARK SMILES IDX 28 37 79 38 73 39 75 40 29 41 78 42 72 43 71 44 30 46 60 47
REMARK SMILES IDX 41 48 59 49 42 50 45 51 58 52 76 53 43 54 44 55 57 57 77 58
REMARK SMILES IDX 46 59 31 60 32 61 40 62 33 63 39 64 34 65 35 66 36 67 37 68
REMARK SMILES IDX 38 69 61 70 62 71 70 72 63 73 69 74 64 75 65 76 66 77 67 78
REMARK SMILES IDX 68 79 47 80 48 81 56 82 49 83 55 84 50 85 51 86 52 87 53 88
REMARK SMILES IDX 54 89
REMARK H PARENT 14 6 3 17 19 26 75 45 45 56
REMARK Flexibility Score: inf
ROOT
ATOM      1  C   UNL A   1      33.548  29.051  24.866  1.00  0.00     0.023 C 
ENDROOT
BRANCH   1   2
ATOM      2  C   UNL A   1      33.782  28.131  23.665  1.00  0.00     0.116 C 
BRANCH   2   3
ATOM      3  N   UNL A   1      32.619  28.041  22.807  1.00  0.00    -0.351 N 
ATOM      4  C   UNL A   1      31.451  27.318  22.906  1.00  0.00     0.273 C 
ATOM      5  O   UNL A   1      30.605  27.528  22.034  1.00  0.00    -0.267 OA
ATOM      6  H   UNL A   1      32.674  28.603  22.000  1.00  0.00     0.163 HD
BRANCH   4   7
ATOM      7  C   UNL A   1      31.209  26.375  23.996  1.00  0.00     0.170 A 
ATOM      8  N   UNL A   1      31.267  24.842  25.532  1.00  0.00    -0.249 N 
ATOM      9  C   UNL A   1      31.832  25.189  24.337  1.00  0.00     0.145 A 
ATOM     10  N   UNL A   1      30.243  25.645  25.839  1.00  0.00    -0.067 NA
ATOM     11  N   UNL A   1      30.195  26.590  24.910  1.00  0.00    -0.125 NA
BRANCH   8  12
ATOM     12  C   UNL A   1      31.779  23.907  26.511  1.00  0.00     0.184 C 
BRANCH  12  13
ATOM     13  C   UNL A   1      32.531  22.758  25.835  1.00  0.00     0.194 C 
ATOM     14  N   UNL A   1      34.292  20.993  26.141  1.00  0.00    -0.331 N 
ATOM     15  C   UNL A   1      33.347  20.051  25.525  1.00  0.00     0.291 C 
ATOM     16  C   UNL A   1      33.560  22.094  26.783  1.00  0.00     0.296 C 
ATOM     17  H   UNL A   1      34.780  20.530  26.908  1.00  0.00     0.348 HD
ATOM     18  C   UNL A   1      32.287  20.736  24.646  1.00  0.00     0.222 C 
ATOM     19  O   UNL A   1      31.588  21.775  25.359  1.00  0.00    -0.365 OA
BRANCH  14  20
ATOM     20  C   UNL A   1      35.451  21.327  25.305  1.00  0.00     0.258 C 
ATOM     21  C   UNL A   1      36.517  20.271  25.029  1.00  0.00     0.071 C 
ENDBRANCH  14  20
ENDBRANCH  12  13
ENDBRANCH   8  12
ENDBRANCH   4   7
ENDBRANCH   2   3
ENDBRANCH   1   2
BRANCH   1  22
ATOM     22  C   UNL A   1      33.186  28.345  26.184  1.00  0.00     0.023 C 
BRANCH  22  23
ATOM     23  C   UNL A   1      33.747  28.993  27.446  1.00  0.00     0.116 C 
BRANCH  23  24
ATOM     24  N   UNL A   1      33.527  30.440  27.504  1.00  0.00    -0.352 N 
ATOM     25  C   UNL A   1      34.382  31.405  28.010  1.00  0.00     0.251 C 
ATOM     26  H   UNL A   1      32.672  30.766  27.140  1.00  0.00     0.163 HD
ATOM     27  O   UNL A   1      33.951  32.496  28.379  1.00  0.00    -0.269 OA
BRANCH  25  28
ATOM     28  C   UNL A   1      35.821  31.101  28.084  1.00  0.00     0.039 A 
ATOM     29  C   UNL A   1      36.738  31.961  28.693  1.00  0.00     0.014 A 
ATOM     30  C   UNL A   1      36.229  29.875  27.570  1.00  0.00     0.014 A 
ATOM     31  C   UNL A   1      38.051  31.526  28.866  1.00  0.00     0.010 A 
ATOM     32  C   UNL A   1      37.467  29.385  27.891  1.00  0.00     0.010 A 
ATOM     33  C   UNL A   1      38.405  30.219  28.487  1.00  0.00    -0.014 A 
BRANCH  33  34
ATOM     34  C   UNL A   1      39.717  29.662  28.807  1.00  0.00     0.031 A 
ATOM     35  C   UNL A   1      40.002  29.521  30.263  1.00  0.00     0.074 A 
ATOM     36  C   UNL A   1      40.527  29.100  27.881  1.00  0.00     0.049 A 
ATOM     37  N   UNL A   1      40.849  30.198  30.964  1.00  0.00    -0.248 NA
ATOM     38  C   UNL A   1      39.154  28.623  31.063  1.00  0.00     0.031 C 
ATOM     39  C   UNL A   1      40.265  28.876  26.452  1.00  0.00     0.029 A 
ATOM     40  N   UNL A   1      41.730  28.490  28.054  1.00  0.00    -0.354 N 
ATOM     41  C   UNL A   1      40.809  29.658  32.246  1.00  0.00     0.074 A 
ATOM     42  C   UNL A   1      39.629  28.831  32.292  1.00  0.00     0.031 C 
ATOM     43  C   UNL A   1      41.143  27.972  25.963  1.00  0.00     0.029 A 
ATOM     44  C   UNL A   1      42.142  27.706  26.980  1.00  0.00     0.049 A 
ATOM     45  H   UNL A   1      42.267  28.594  28.873  1.00  0.00     0.167 HD
ATOM     46  C   UNL A   1      41.880  29.737  33.085  1.00  0.00     0.031 A 
ATOM     47  C   UNL A   1      43.223  26.887  26.931  1.00  0.00     0.031 A 
ATOM     48  C   UNL A   1      42.867  30.667  32.596  1.00  0.00     0.049 A 
ATOM     49  C   UNL A   1      44.155  27.351  27.987  1.00  0.00     0.074 A 
ATOM     50  C   UNL A   1      42.875  32.015  32.302  1.00  0.00     0.029 A 
ATOM     51  N   UNL A   1      43.954  30.129  31.946  1.00  0.00    -0.354 N 
ATOM     52  N   UNL A   1      44.741  28.516  27.958  1.00  0.00    -0.248 NA
ATOM     53  C   UNL A   1      44.074  26.724  29.295  1.00  0.00     0.031 C 
ATOM     54  C   UNL A   1      43.659  32.123  31.115  1.00  0.00     0.029 A 
ATOM     55  C   UNL A   1      44.152  30.855  30.800  1.00  0.00     0.049 A 
ATOM     56  H   UNL A   1      44.492  29.362  32.248  1.00  0.00     0.167 HD
ATOM     57  C   UNL A   1      44.699  28.964  29.271  1.00  0.00     0.074 A 
ATOM     58  C   UNL A   1      44.370  27.778  30.062  1.00  0.00     0.031 C 
ATOM     59  C   UNL A   1      44.658  30.298  29.562  1.00  0.00     0.031 A 
BRANCH  46  60
ATOM     60  C   UNL A   1      42.229  28.693  34.121  1.00  0.00    -0.014 A 
ATOM     61  C   UNL A   1      42.845  27.497  33.695  1.00  0.00     0.010 A 
ATOM     62  C   UNL A   1      41.725  28.718  35.437  1.00  0.00     0.010 A 
ATOM     63  C   UNL A   1      42.882  26.363  34.517  1.00  0.00     0.020 A 
ATOM     64  C   UNL A   1      41.796  27.607  36.280  1.00  0.00     0.020 A 
ATOM     65  C   UNL A   1      42.342  26.424  35.801  1.00  0.00     0.054 A 
BRANCH  65  66
ATOM     66  S   UNL A   1      42.298  24.925  36.814  1.00  0.00     0.124 S 
ATOM     67  O   UNL A   1      42.161  23.883  35.802  1.00  0.00    -0.237 OA
ATOM     68  O   UNL A   1      43.586  24.979  37.500  1.00  0.00    -0.237 OA
ATOM     69  O   UNL A   1      41.132  25.127  37.672  1.00  0.00    -0.744 OA
ENDBRANCH  65  66
ENDBRANCH  46  60
BRANCH  47  70
ATOM     70  C   UNL A   1      43.359  25.572  26.257  1.00  0.00    -0.014 A 
ATOM     71  C   UNL A   1      44.300  25.380  25.227  1.00  0.00     0.010 A 
ATOM     72  C   UNL A   1      42.774  24.424  26.830  1.00  0.00     0.010 A 
ATOM     73  C   UNL A   1      44.694  24.087  24.836  1.00  0.00     0.020 A 
ATOM     74  C   UNL A   1      43.158  23.134  26.443  1.00  0.00     0.020 A 
ATOM     75  C   UNL A   1      44.137  22.971  25.466  1.00  0.00     0.054 A 
BRANCH  75  76
ATOM     76  S   UNL A   1      44.794  21.314  25.095  1.00  0.00     0.124 S 
ATOM     77  O   UNL A   1      43.856  20.444  25.799  1.00  0.00    -0.237 OA
ATOM     78  O   UNL A   1      44.727  21.265  23.637  1.00  0.00    -0.237 OA
ATOM     79  O   UNL A   1      46.145  21.348  25.649  1.00  0.00    -0.744 OA
ENDBRANCH  75  76
ENDBRANCH  47  70
BRANCH  59  80
ATOM     80  C   UNL A   1      44.954  31.289  28.456  1.00  0.00    -0.014 A 
ATOM     81  C   UNL A   1      43.990  31.777  27.550  1.00  0.00     0.010 A 
ATOM     82  C   UNL A   1      46.237  31.861  28.435  1.00  0.00     0.010 A 
ATOM     83  C   UNL A   1      44.315  32.793  26.635  1.00  0.00     0.020 A 
ATOM     84  C   UNL A   1      46.561  32.883  27.540  1.00  0.00     0.020 A 
ATOM     85  C   UNL A   1      45.601  33.339  26.637  1.00  0.00     0.054 A 
BRANCH  85  86
ATOM     86  S   UNL A   1      46.010  34.678  25.482  1.00  0.00     0.124 S 
ATOM     87  O   UNL A   1      45.147  34.389  24.340  1.00  0.00    -0.237 OA
ATOM     88  O   UNL A   1      45.668  35.879  26.241  1.00  0.00    -0.237 OA
ATOM     89  O   UNL A   1      47.441  34.501  25.235  1.00  0.00    -0.744 OA
ENDBRANCH  85  86
ENDBRANCH  59  80
ENDBRANCH  33  34
ENDBRANCH  25  28
ENDBRANCH  23  24
ENDBRANCH  22  23
ENDBRANCH   1  22
TORSDOF 17
ENDMDL
