MODEL 1
REMARK VINA RESULT:     -11.3      0.000      0.000
REMARK SMILES Cc1cc(C)cc(S(=O)(=O)N2CSC[C@H]2C(=O)NCCCCNC(=O)c2ccc(-c3c4nc(c(-c5ccc(S(=O)(=O)[O-])cc5)c5ccc([nH]5)c(-c5ccc(S(=O)(=O)[O-])cc5)c5nc(c(-c6ccc(S(=O)(=O)[O-])cc6)c6ccc3[nH]6)C=C5)C=C4)cc2)c1
REMARK SMILES IDX 21 1 20 2 19 3 18 4 16 5 17 6 15 8 11 9 12 10 13 11 14 12
REMARK SMILES IDX 8 13 9 14 10 15 7 16 1 17 2 18 3 19 86 20 4 21 5 22 6 23
REMARK SMILES IDX 22 24 23 25 24 26 25 28 26 29 27 30 85 31 28 32 84 33 29 34
REMARK SMILES IDX 30 35 31 36 78 37 32 38 83 39 77 40 79 41 33 42 82 43 76 44
REMARK SMILES IDX 75 45 34 47 64 48 45 49 63 50 46 51 49 52 62 53 80 54 47 55
REMARK SMILES IDX 48 56 61 58 81 59 50 60 35 61 36 62 44 63 37 64 43 65 38 66
REMARK SMILES IDX 39 67 40 68 41 69 42 70 65 71 66 72 74 73 67 74 73 75 68 76
REMARK SMILES IDX 69 77 70 78 71 79 72 80 51 81 52 82 60 83 53 84 59 85 54 86
REMARK SMILES IDX 55 87 56 88 57 89 58 90
REMARK H PARENT 18 7 23 27 79 46 49 57
REMARK Flexibility Score: inf
ROOT
ATOM      1  C   UNL A   1      32.151  28.196  27.535  1.00  0.00     0.023 C 
ENDROOT
BRANCH   1   2
ATOM      2  C   UNL A   1      31.695  27.215  26.459  1.00  0.00     0.023 C 
BRANCH   2   3
ATOM      3  C   UNL A   1      32.205  25.796  26.656  1.00  0.00     0.116 C 
BRANCH   3   4
ATOM      4  N   UNL A   1      31.161  24.860  27.008  1.00  0.00    -0.355 N 
ATOM      5  C   UNL A   1      30.984  23.549  26.673  1.00  0.00     0.239 C 
ATOM      6  O   UNL A   1      30.068  22.952  27.249  1.00  0.00    -0.273 OA
ATOM      7  H   UNL A   1      30.459  25.231  27.589  1.00  0.00     0.163 HD
BRANCH   5   8
ATOM      8  C   UNL A   1      31.872  22.808  25.664  1.00  0.00     0.173 C 
ATOM      9  N   UNL A   1      32.583  23.726  24.744  1.00  0.00    -0.175 NA
ATOM     10  C   UNL A   1      34.032  23.755  24.880  1.00  0.00     0.172 C 
ATOM     11  S   UNL A   1      34.540  22.294  25.821  1.00  0.00    -0.143 SA
ATOM     12  C   UNL A   1      32.849  21.824  26.303  1.00  0.00     0.101 C 
BRANCH   9  13
ATOM     13  S   UNL A   1      31.915  24.062  23.234  1.00  0.00     0.244 S 
ATOM     14  O   UNL A   1      30.561  23.541  23.254  1.00  0.00    -0.207 OA
ATOM     15  O   UNL A   1      32.860  23.675  22.218  1.00  0.00    -0.207 OA
BRANCH  13  16
ATOM     16  C   UNL A   1      31.748  25.840  23.116  1.00  0.00     0.083 A 
ATOM     17  C   UNL A   1      29.028  28.487  22.937  1.00  0.00     0.044 C 
ATOM     18  C   UNL A   1      30.385  27.847  22.957  1.00  0.00    -0.050 A 
ATOM     19  C   UNL A   1      31.540  28.602  22.748  1.00  0.00     0.007 A 
ATOM     20  C   UNL A   1      30.509  26.475  23.175  1.00  0.00     0.025 A 
ATOM     21  C   UNL A   1      32.804  27.990  22.733  1.00  0.00    -0.050 A 
ATOM     22  C   UNL A   1      34.026  28.837  22.535  1.00  0.00     0.044 C 
ATOM     23  C   UNL A   1      32.902  26.601  22.901  1.00  0.00     0.025 A 
ENDBRANCH  13  16
ENDBRANCH   9  13
ENDBRANCH   5   8
ENDBRANCH   3   4
ENDBRANCH   2   3
ENDBRANCH   1   2
BRANCH   1  24
ATOM     24  C   UNL A   1      33.516  28.842  27.301  1.00  0.00     0.116 C 
BRANCH  24  25
ATOM     25  N   UNL A   1      33.593  30.238  27.714  1.00  0.00    -0.352 N 
ATOM     26  C   UNL A   1      34.668  30.898  28.269  1.00  0.00     0.251 C 
ATOM     27  H   UNL A   1      32.778  30.774  27.581  1.00  0.00     0.163 HD
ATOM     28  O   UNL A   1      34.569  32.063  28.636  1.00  0.00    -0.269 OA
BRANCH  26  29
ATOM     29  C   UNL A   1      35.927  30.153  28.454  1.00  0.00     0.039 A 
ATOM     30  C   UNL A   1      36.870  30.157  27.424  1.00  0.00     0.014 A 
ATOM     31  C   UNL A   1      36.216  29.564  29.688  1.00  0.00     0.014 A 
ATOM     32  C   UNL A   1      38.148  29.653  27.667  1.00  0.00     0.010 A 
ATOM     33  C   UNL A   1      37.509  29.122  29.946  1.00  0.00     0.010 A 
ATOM     34  C   UNL A   1      38.493  29.185  28.946  1.00  0.00    -0.014 A 
BRANCH  34  35
ATOM     35  C   UNL A   1      39.891  28.816  29.281  1.00  0.00     0.031 A 
ATOM     36  C   UNL A   1      40.810  29.824  29.910  1.00  0.00     0.074 A 
ATOM     37  C   UNL A   1      40.355  27.600  28.929  1.00  0.00     0.049 A 
ATOM     38  N   UNL A   1      42.082  29.712  30.192  1.00  0.00    -0.248 NA
ATOM     39  C   UNL A   1      40.231  31.134  30.243  1.00  0.00     0.031 C 
ATOM     40  C   UNL A   1      39.574  26.551  28.267  1.00  0.00     0.029 A 
ATOM     41  N   UNL A   1      41.603  27.044  29.065  1.00  0.00    -0.354 N 
ATOM     42  C   UNL A   1      42.460  30.940  30.719  1.00  0.00     0.074 A 
ATOM     43  C   UNL A   1      41.294  31.795  30.680  1.00  0.00     0.031 C 
ATOM     44  C   UNL A   1      40.354  25.476  28.075  1.00  0.00     0.029 A 
ATOM     45  C   UNL A   1      41.699  25.769  28.557  1.00  0.00     0.049 A 
ATOM     46  H   UNL A   1      42.359  27.514  29.486  1.00  0.00     0.167 HD
ATOM     47  C   UNL A   1      43.666  31.315  31.209  1.00  0.00     0.031 A 
ATOM     48  C   UNL A   1      42.753  24.935  28.476  1.00  0.00     0.031 A 
ATOM     49  C   UNL A   1      44.821  30.460  31.255  1.00  0.00     0.049 A 
ATOM     50  C   UNL A   1      44.085  25.382  29.008  1.00  0.00     0.074 A 
ATOM     51  C   UNL A   1      46.068  30.726  31.794  1.00  0.00     0.029 A 
ATOM     52  N   UNL A   1      44.876  29.175  30.734  1.00  0.00    -0.354 N 
ATOM     53  N   UNL A   1      44.404  26.521  29.575  1.00  0.00    -0.248 NA
ATOM     54  C   UNL A   1      45.201  24.432  28.893  1.00  0.00     0.031 C 
ATOM     55  C   UNL A   1      46.892  29.622  31.554  1.00  0.00     0.029 A 
ATOM     56  C   UNL A   1      46.144  28.648  30.911  1.00  0.00     0.049 A 
ATOM     57  H   UNL A   1      44.125  28.708  30.304  1.00  0.00     0.167 HD
ATOM     58  C   UNL A   1      45.752  26.420  29.895  1.00  0.00     0.074 A 
ATOM     59  C   UNL A   1      46.184  25.101  29.479  1.00  0.00     0.031 C 
ATOM     60  C   UNL A   1      46.561  27.338  30.479  1.00  0.00     0.031 A 
BRANCH  47  61
ATOM     61  C   UNL A   1      43.794  32.721  31.732  1.00  0.00    -0.014 A 
ATOM     62  C   UNL A   1      43.671  32.997  33.105  1.00  0.00     0.010 A 
ATOM     63  C   UNL A   1      44.079  33.775  30.844  1.00  0.00     0.010 A 
ATOM     64  C   UNL A   1      43.788  34.307  33.577  1.00  0.00     0.020 A 
ATOM     65  C   UNL A   1      44.223  35.083  31.315  1.00  0.00     0.020 A 
ATOM     66  C   UNL A   1      44.059  35.343  32.677  1.00  0.00     0.054 A 
BRANCH  66  67
ATOM     67  S   UNL A   1      44.225  37.030  33.319  1.00  0.00     0.124 S 
ATOM     68  O   UNL A   1      42.849  37.345  33.696  1.00  0.00    -0.237 OA
ATOM     69  O   UNL A   1      45.156  36.861  34.433  1.00  0.00    -0.237 OA
ATOM     70  O   UNL A   1      44.748  37.785  32.183  1.00  0.00    -0.744 OA
ENDBRANCH  66  67
ENDBRANCH  47  61
BRANCH  48  71
ATOM     71  C   UNL A   1      42.589  23.588  27.863  1.00  0.00    -0.014 A 
ATOM     72  C   UNL A   1      42.778  23.406  26.482  1.00  0.00     0.010 A 
ATOM     73  C   UNL A   1      42.258  22.477  28.660  1.00  0.00     0.010 A 
ATOM     74  C   UNL A   1      42.627  22.142  25.906  1.00  0.00     0.020 A 
ATOM     75  C   UNL A   1      42.129  21.206  28.093  1.00  0.00     0.020 A 
ATOM     76  C   UNL A   1      42.305  21.049  26.716  1.00  0.00     0.054 A 
BRANCH  76  77
ATOM     77  S   UNL A   1      42.169  19.406  25.957  1.00  0.00     0.124 S 
ATOM     78  O   UNL A   1      40.737  19.312  25.693  1.00  0.00    -0.237 OA
ATOM     79  O   UNL A   1      43.024  19.532  24.779  1.00  0.00    -0.237 OA
ATOM     80  O   UNL A   1      42.677  18.510  26.992  1.00  0.00    -0.744 OA
ENDBRANCH  76  77
ENDBRANCH  48  71
BRANCH  60  81
ATOM     81  C   UNL A   1      47.995  26.947  30.709  1.00  0.00    -0.014 A 
ATOM     82  C   UNL A   1      48.991  27.272  29.770  1.00  0.00     0.010 A 
ATOM     83  C   UNL A   1      48.361  26.300  31.902  1.00  0.00     0.010 A 
ATOM     84  C   UNL A   1      50.325  26.936  30.013  1.00  0.00     0.020 A 
ATOM     85  C   UNL A   1      49.698  25.984  32.159  1.00  0.00     0.020 A 
ATOM     86  C   UNL A   1      50.670  26.294  31.206  1.00  0.00     0.054 A 
BRANCH  86  87
ATOM     87  S   UNL A   1      52.416  25.917  31.521  1.00  0.00     0.124 S 
ATOM     88  O   UNL A   1      52.346  24.539  32.003  1.00  0.00    -0.237 OA
ATOM     89  O   UNL A   1      53.025  26.092  30.205  1.00  0.00    -0.237 OA
ATOM     90  O   UNL A   1      52.809  26.907  32.521  1.00  0.00    -0.744 OA
ENDBRANCH  86  87
ENDBRANCH  60  81
ENDBRANCH  34  35
ENDBRANCH  26  29
ENDBRANCH  24  25
ENDBRANCH   1  24
TORSDOF 16
ENDMDL
MODEL 2
REMARK VINA RESULT:     -11.2      4.491     10.099
REMARK SMILES Cc1cc(C)cc(S(=O)(=O)N2CSC[C@H]2C(=O)NCCCCNC(=O)c2ccc(-c3c4nc(c(-c5ccc(S(=O)(=O)[O-])cc5)c5ccc([nH]5)c(-c5ccc(S(=O)(=O)[O-])cc5)c5nc(c(-c6ccc(S(=O)(=O)[O-])cc6)c6ccc3[nH]6)C=C5)C=C4)cc2)c1
REMARK SMILES IDX 21 1 20 2 19 3 18 4 16 5 17 6 15 8 11 9 12 10 13 11 14 12
REMARK SMILES IDX 8 13 9 14 10 15 7 16 1 17 2 18 3 19 86 20 4 21 5 22 6 23
REMARK SMILES IDX 22 24 23 25 24 26 25 28 26 29 27 30 85 31 28 32 84 33 29 34
REMARK SMILES IDX 30 35 31 36 78 37 32 38 83 39 77 40 79 41 33 42 82 43 76 44
REMARK SMILES IDX 75 45 34 47 64 48 45 49 63 50 46 51 49 52 62 53 80 54 47 55
REMARK SMILES IDX 48 56 61 58 81 59 50 60 35 61 36 62 44 63 37 64 43 65 38 66
REMARK SMILES IDX 39 67 40 68 41 69 42 70 65 71 66 72 74 73 67 74 73 75 68 76
REMARK SMILES IDX 69 77 70 78 71 79 72 80 51 81 52 82 60 83 53 84 59 85 54 86
REMARK SMILES IDX 55 87 56 88 57 89 58 90
REMARK H PARENT 18 7 23 27 79 46 49 57
REMARK Flexibility Score: inf
ROOT
ATOM      1  C   UNL A   1      37.832  22.971  25.674  1.00  0.00     0.023 C 
ENDROOT
BRANCH   1   2
ATOM      2  C   UNL A   1      36.344  23.309  25.696  1.00  0.00     0.023 C 
BRANCH   2   3
ATOM      3  C   UNL A   1      35.443  22.126  26.017  1.00  0.00     0.116 C 
BRANCH   3   4
ATOM      4  N   UNL A   1      34.625  22.337  27.190  1.00  0.00    -0.355 N 
ATOM      5  C   UNL A   1      33.269  22.377  27.339  1.00  0.00     0.239 C 
ATOM      6  O   UNL A   1      32.843  22.425  28.500  1.00  0.00    -0.273 OA
ATOM      7  H   UNL A   1      35.132  22.475  28.022  1.00  0.00     0.163 HD
BRANCH   5   8
ATOM      8  C   UNL A   1      32.287  22.332  26.160  1.00  0.00     0.173 C 
ATOM      9  N   UNL A   1      32.447  23.481  25.239  1.00  0.00    -0.175 NA
ATOM     10  C   UNL A   1      32.918  23.153  23.901  1.00  0.00     0.172 C 
ATOM     11  S   UNL A   1      32.708  21.372  23.649  1.00  0.00    -0.143 SA
ATOM     12  C   UNL A   1      32.305  21.015  25.387  1.00  0.00     0.101 C 
BRANCH   9  13
ATOM     13  S   UNL A   1      31.463  24.835  25.429  1.00  0.00     0.244 S 
ATOM     14  O   UNL A   1      31.028  24.841  26.815  1.00  0.00    -0.207 OA
ATOM     15  O   UNL A   1      30.520  24.874  24.341  1.00  0.00    -0.207 OA
BRANCH  13  16
ATOM     16  C   UNL A   1      32.507  26.276  25.243  1.00  0.00     0.083 A 
ATOM     17  C   UNL A   1      34.167  28.945  27.378  1.00  0.00     0.044 C 
ATOM     18  C   UNL A   1      33.718  28.167  26.176  1.00  0.00    -0.050 A 
ATOM     19  C   UNL A   1      33.985  28.619  24.884  1.00  0.00     0.007 A 
ATOM     20  C   UNL A   1      33.009  26.976  26.339  1.00  0.00     0.025 A 
ATOM     21  C   UNL A   1      33.532  27.904  23.765  1.00  0.00    -0.050 A 
ATOM     22  C   UNL A   1      33.864  28.404  22.391  1.00  0.00     0.044 C 
ATOM     23  C   UNL A   1      32.775  26.737  23.950  1.00  0.00     0.025 A 
ENDBRANCH  13  16
ENDBRANCH   9  13
ENDBRANCH   5   8
ENDBRANCH   3   4
ENDBRANCH   2   3
ENDBRANCH   1   2
BRANCH   1  24
ATOM     24  C   UNL A   1      38.718  23.842  26.563  1.00  0.00     0.116 C 
BRANCH  24  25
ATOM     25  N   UNL A   1      40.135  23.788  26.226  1.00  0.00    -0.352 N 
ATOM     26  C   UNL A   1      41.124  24.680  26.581  1.00  0.00     0.251 C 
ATOM     27  H   UNL A   1      40.421  23.021  25.680  1.00  0.00     0.163 HD
ATOM     28  O   UNL A   1      42.269  24.547  26.166  1.00  0.00    -0.269 OA
BRANCH  26  29
ATOM     29  C   UNL A   1      40.759  25.827  27.434  1.00  0.00     0.039 A 
ATOM     30  C   UNL A   1      39.803  25.645  28.435  1.00  0.00     0.014 A 
ATOM     31  C   UNL A   1      41.453  27.034  27.317  1.00  0.00     0.014 A 
ATOM     32  C   UNL A   1      39.614  26.646  29.388  1.00  0.00     0.010 A 
ATOM     33  C   UNL A   1      41.308  28.002  28.304  1.00  0.00     0.010 A 
ATOM     34  C   UNL A   1      40.406  27.807  29.362  1.00  0.00    -0.014 A 
BRANCH  34  35
ATOM     35  C   UNL A   1      40.354  28.800  30.463  1.00  0.00     0.031 A 
ATOM     36  C   UNL A   1      41.237  28.642  31.668  1.00  0.00     0.074 A 
ATOM     37  C   UNL A   1      39.441  29.792  30.415  1.00  0.00     0.049 A 
ATOM     38  N   UNL A   1      41.268  29.357  32.762  1.00  0.00    -0.248 NA
ATOM     39  C   UNL A   1      42.190  27.522  31.651  1.00  0.00     0.031 C 
ATOM     40  C   UNL A   1      38.492  30.021  29.321  1.00  0.00     0.029 A 
ATOM     41  N   UNL A   1      39.149  30.785  31.317  1.00  0.00    -0.354 N 
ATOM     42  C   UNL A   1      42.231  28.766  33.570  1.00  0.00     0.074 A 
ATOM     43  C   UNL A   1      42.730  27.609  32.858  1.00  0.00     0.031 C 
ATOM     44  C   UNL A   1      37.741  31.097  29.608  1.00  0.00     0.029 A 
ATOM     45  C   UNL A   1      38.121  31.608  30.920  1.00  0.00     0.049 A 
ATOM     46  H   UNL A   1      39.631  30.898  32.168  1.00  0.00     0.167 HD
ATOM     47  C   UNL A   1      42.672  29.161  34.788  1.00  0.00     0.031 A 
ATOM     48  C   UNL A   1      37.540  32.649  31.546  1.00  0.00     0.031 A 
ATOM     49  C   UNL A   1      42.180  30.316  35.490  1.00  0.00     0.049 A 
ATOM     50  C   UNL A   1      38.034  33.055  32.906  1.00  0.00     0.074 A 
ATOM     51  C   UNL A   1      42.611  30.837  36.698  1.00  0.00     0.029 A 
ATOM     52  N   UNL A   1      41.142  31.125  35.053  1.00  0.00    -0.354 N 
ATOM     53  N   UNL A   1      38.999  32.529  33.621  1.00  0.00    -0.248 NA
ATOM     54  C   UNL A   1      37.362  34.197  33.544  1.00  0.00     0.031 C 
ATOM     55  C   UNL A   1      41.799  31.930  37.016  1.00  0.00     0.029 A 
ATOM     56  C   UNL A   1      40.896  32.121  35.982  1.00  0.00     0.049 A 
ATOM     57  H   UNL A   1      40.652  31.008  34.207  1.00  0.00     0.167 HD
ATOM     58  C   UNL A   1      39.060  33.283  34.788  1.00  0.00     0.074 A 
ATOM     59  C   UNL A   1      38.048  34.315  34.672  1.00  0.00     0.031 C 
ATOM     60  C   UNL A   1      39.877  33.133  35.858  1.00  0.00     0.031 A 
BRANCH  47  61
ATOM     61  C   UNL A   1      43.742  28.328  35.441  1.00  0.00    -0.014 A 
ATOM     62  C   UNL A   1      43.410  27.290  36.331  1.00  0.00     0.010 A 
ATOM     63  C   UNL A   1      45.096  28.559  35.133  1.00  0.00     0.010 A 
ATOM     64  C   UNL A   1      44.412  26.526  36.934  1.00  0.00     0.020 A 
ATOM     65  C   UNL A   1      46.100  27.780  35.714  1.00  0.00     0.020 A 
ATOM     66  C   UNL A   1      45.752  26.779  36.624  1.00  0.00     0.054 A 
BRANCH  66  67
ATOM     67  S   UNL A   1      47.032  25.760  37.406  1.00  0.00     0.124 S 
ATOM     68  O   UNL A   1      47.859  25.386  36.261  1.00  0.00    -0.237 OA
ATOM     69  O   UNL A   1      47.651  26.688  38.349  1.00  0.00    -0.237 OA
ATOM     70  O   UNL A   1      46.280  24.665  38.016  1.00  0.00    -0.744 OA
ENDBRANCH  66  67
ENDBRANCH  47  61
BRANCH  48  71
ATOM     71  C   UNL A   1      36.421  33.380  30.891  1.00  0.00    -0.014 A 
ATOM     72  C   UNL A   1      35.177  33.501  31.533  1.00  0.00     0.010 A 
ATOM     73  C   UNL A   1      36.599  33.973  29.627  1.00  0.00     0.010 A 
ATOM     74  C   UNL A   1      34.126  34.189  30.919  1.00  0.00     0.020 A 
ATOM     75  C   UNL A   1      35.559  34.683  29.020  1.00  0.00     0.020 A 
ATOM     76  C   UNL A   1      34.325  34.777  29.667  1.00  0.00     0.054 A 
BRANCH  76  77
ATOM     77  S   UNL A   1      32.965  35.714  28.914  1.00  0.00     0.124 S 
ATOM     78  O   UNL A   1      32.338  34.708  28.065  1.00  0.00    -0.237 OA
ATOM     79  O   UNL A   1      32.190  36.136  30.078  1.00  0.00    -0.237 OA
ATOM     80  O   UNL A   1      33.649  36.795  28.206  1.00  0.00    -0.744 OA
ENDBRANCH  76  77
ENDBRANCH  48  71
BRANCH  60  81
ATOM     81  C   UNL A   1      39.718  34.110  36.991  1.00  0.00    -0.014 A 
ATOM     82  C   UNL A   1      38.982  33.769  38.140  1.00  0.00     0.010 A 
ATOM     83  C   UNL A   1      40.358  35.361  36.930  1.00  0.00     0.010 A 
ATOM     84  C   UNL A   1      38.872  34.672  39.200  1.00  0.00     0.020 A 
ATOM     85  C   UNL A   1      40.271  36.256  38.000  1.00  0.00     0.020 A 
ATOM     86  C   UNL A   1      39.518  35.910  39.123  1.00  0.00     0.054 A 
BRANCH  86  87
ATOM     87  S   UNL A   1      39.404  37.042  40.536  1.00  0.00     0.124 S 
ATOM     88  O   UNL A   1      40.808  37.212  40.901  1.00  0.00    -0.237 OA
ATOM     89  O   UNL A   1      38.759  38.217  39.955  1.00  0.00    -0.237 OA
ATOM     90  O   UNL A   1      38.592  36.308  41.504  1.00  0.00    -0.744 OA
ENDBRANCH  86  87
ENDBRANCH  60  81
ENDBRANCH  34  35
ENDBRANCH  26  29
ENDBRANCH  24  25
ENDBRANCH   1  24
TORSDOF 16
ENDMDL
MODEL 3
REMARK VINA RESULT:     -11.0      2.999      4.374
REMARK SMILES Cc1cc(C)cc(S(=O)(=O)N2CSC[C@H]2C(=O)NCCCCNC(=O)c2ccc(-c3c4nc(c(-c5ccc(S(=O)(=O)[O-])cc5)c5ccc([nH]5)c(-c5ccc(S(=O)(=O)[O-])cc5)c5nc(c(-c6ccc(S(=O)(=O)[O-])cc6)c6ccc3[nH]6)C=C5)C=C4)cc2)c1
REMARK SMILES IDX 21 1 20 2 19 3 18 4 16 5 17 6 15 8 11 9 12 10 13 11 14 12
REMARK SMILES IDX 8 13 9 14 10 15 7 16 1 17 2 18 3 19 86 20 4 21 5 22 6 23
REMARK SMILES IDX 22 24 23 25 24 26 25 28 26 29 27 30 85 31 28 32 84 33 29 34
REMARK SMILES IDX 30 35 31 36 78 37 32 38 83 39 77 40 79 41 33 42 82 43 76 44
REMARK SMILES IDX 75 45 34 47 64 48 45 49 63 50 46 51 49 52 62 53 80 54 47 55
REMARK SMILES IDX 48 56 61 58 81 59 50 60 35 61 36 62 44 63 37 64 43 65 38 66
REMARK SMILES IDX 39 67 40 68 41 69 42 70 65 71 66 72 74 73 67 74 73 75 68 76
REMARK SMILES IDX 69 77 70 78 71 79 72 80 51 81 52 82 60 83 53 84 59 85 54 86
REMARK SMILES IDX 55 87 56 88 57 89 58 90
REMARK H PARENT 18 7 23 27 79 46 49 57
REMARK Flexibility Score: inf
ROOT
ATOM      1  C   UNL A   1      34.559  31.482  27.638  1.00  0.00     0.023 C 
ENDROOT
BRANCH   1   2
ATOM      2  C   UNL A   1      33.369  30.542  27.465  1.00  0.00     0.023 C 
BRANCH   2   3
ATOM      3  C   UNL A   1      33.391  29.744  26.170  1.00  0.00     0.116 C 
BRANCH   3   4
ATOM      4  N   UNL A   1      32.223  29.964  25.348  1.00  0.00    -0.355 N 
ATOM      5  C   UNL A   1      31.533  29.116  24.530  1.00  0.00     0.239 C 
ATOM      6  O   UNL A   1      30.471  29.545  24.062  1.00  0.00    -0.273 OA
ATOM      7  H   UNL A   1      31.864  30.879  25.384  1.00  0.00     0.163 HD
BRANCH   5   8
ATOM      8  C   UNL A   1      31.995  27.689  24.209  1.00  0.00     0.173 C 
ATOM      9  N   UNL A   1      30.989  26.665  24.574  1.00  0.00    -0.175 NA
ATOM     10  C   UNL A   1      30.402  25.935  23.460  1.00  0.00     0.172 C 
ATOM     11  S   UNL A   1      31.447  26.192  22.003  1.00  0.00    -0.143 SA
ATOM     12  C   UNL A   1      32.460  27.496  22.767  1.00  0.00     0.101 C 
BRANCH   9  13
ATOM     13  S   UNL A   1      31.103  25.889  26.065  1.00  0.00     0.244 S 
ATOM     14  O   UNL A   1      29.818  25.258  26.304  1.00  0.00    -0.207 OA
ATOM     15  O   UNL A   1      31.685  26.803  27.015  1.00  0.00    -0.207 OA
BRANCH  13  16
ATOM     16  C   UNL A   1      32.273  24.549  25.872  1.00  0.00     0.083 A 
ATOM     17  C   UNL A   1      36.024  23.986  25.664  1.00  0.00     0.044 C 
ATOM     18  C   UNL A   1      34.548  23.717  25.668  1.00  0.00    -0.050 A 
ATOM     19  C   UNL A   1      34.047  22.446  25.385  1.00  0.00     0.007 A 
ATOM     20  C   UNL A   1      33.650  24.749  25.944  1.00  0.00     0.025 A 
ATOM     21  C   UNL A   1      32.663  22.211  25.356  1.00  0.00    -0.050 A 
ATOM     22  C   UNL A   1      32.161  20.825  25.079  1.00  0.00     0.044 C 
ATOM     23  C   UNL A   1      31.775  23.273  25.584  1.00  0.00     0.025 A 
ENDBRANCH  13  16
ENDBRANCH   9  13
ENDBRANCH   5   8
ENDBRANCH   3   4
ENDBRANCH   2   3
ENDBRANCH   1   2
BRANCH   1  24
ATOM     24  C   UNL A   1      35.766  30.889  28.365  1.00  0.00     0.116 C 
BRANCH  24  25
ATOM     25  N   UNL A   1      35.585  30.754  29.806  1.00  0.00    -0.352 N 
ATOM     26  C   UNL A   1      36.381  30.068  30.697  1.00  0.00     0.251 C 
ATOM     27  H   UNL A   1      34.800  31.208  30.188  1.00  0.00     0.163 HD
ATOM     28  O   UNL A   1      36.069  29.979  31.879  1.00  0.00    -0.269 OA
BRANCH  26  29
ATOM     29  C   UNL A   1      37.594  29.403  30.185  1.00  0.00     0.039 A 
ATOM     30  C   UNL A   1      37.925  29.551  28.837  1.00  0.00     0.014 A 
ATOM     31  C   UNL A   1      38.455  28.744  31.066  1.00  0.00     0.014 A 
ATOM     32  C   UNL A   1      39.176  29.122  28.391  1.00  0.00     0.010 A 
ATOM     33  C   UNL A   1      39.724  28.377  30.633  1.00  0.00     0.010 A 
ATOM     34  C   UNL A   1      40.105  28.585  29.298  1.00  0.00    -0.014 A 
BRANCH  34  35
ATOM     35  C   UNL A   1      41.501  28.292  28.888  1.00  0.00     0.031 A 
ATOM     36  C   UNL A   1      42.518  29.395  28.822  1.00  0.00     0.074 A 
ATOM     37  C   UNL A   1      41.824  27.046  28.486  1.00  0.00     0.049 A 
ATOM     38  N   UNL A   1      43.756  29.347  28.406  1.00  0.00    -0.248 NA
ATOM     39  C   UNL A   1      42.080  30.730  29.259  1.00  0.00     0.031 C 
ATOM     40  C   UNL A   1      40.910  25.900  28.456  1.00  0.00     0.029 A 
ATOM     41  N   UNL A   1      43.006  26.537  28.008  1.00  0.00    -0.354 N 
ATOM     42  C   UNL A   1      44.241  30.644  28.514  1.00  0.00     0.074 A 
ATOM     43  C   UNL A   1      43.151  31.465  28.995  1.00  0.00     0.031 C 
ATOM     44  C   UNL A   1      41.571  24.821  28.006  1.00  0.00     0.029 A 
ATOM     45  C   UNL A   1      42.939  25.204  27.674  1.00  0.00     0.049 A 
ATOM     46  H   UNL A   1      43.824  27.075  27.914  1.00  0.00     0.167 HD
ATOM     47  C   UNL A   1      45.487  31.107  28.252  1.00  0.00     0.031 A 
ATOM     48  C   UNL A   1      43.869  24.385  27.147  1.00  0.00     0.031 A 
ATOM     49  C   UNL A   1      46.570  30.286  27.781  1.00  0.00     0.049 A 
ATOM     50  C   UNL A   1      45.238  24.927  26.847  1.00  0.00     0.074 A 
ATOM     51  C   UNL A   1      47.886  30.649  27.552  1.00  0.00     0.029 A 
ATOM     52  N   UNL A   1      46.464  28.942  27.458  1.00  0.00    -0.354 N 
ATOM     53  N   UNL A   1      45.700  26.141  27.029  1.00  0.00    -0.248 NA
ATOM     54  C   UNL A   1      46.213  23.990  26.271  1.00  0.00     0.031 C 
ATOM     55  C   UNL A   1      48.563  29.536  27.041  1.00  0.00     0.029 A 
ATOM     56  C   UNL A   1      47.681  28.468  27.002  1.00  0.00     0.049 A 
ATOM     57  H   UNL A   1      45.644  28.405  27.543  1.00  0.00     0.167 HD
ATOM     58  C   UNL A   1      47.023  26.111  26.603  1.00  0.00     0.074 A 
ATOM     59  C   UNL A   1      47.293  24.752  26.174  1.00  0.00     0.031 C 
ATOM     60  C   UNL A   1      47.930  27.116  26.567  1.00  0.00     0.031 A 
BRANCH  47  61
ATOM     61  C   UNL A   1      45.740  32.575  28.466  1.00  0.00    -0.014 A 
ATOM     62  C   UNL A   1      46.191  33.058  29.707  1.00  0.00     0.010 A 
ATOM     63  C   UNL A   1      45.561  33.479  27.402  1.00  0.00     0.010 A 
ATOM     64  C   UNL A   1      46.418  34.424  29.895  1.00  0.00     0.020 A 
ATOM     65  C   UNL A   1      45.812  34.842  27.578  1.00  0.00     0.020 A 
ATOM     66  C   UNL A   1      46.223  35.308  28.829  1.00  0.00     0.054 A 
BRANCH  66  67
ATOM     67  S   UNL A   1      46.544  37.073  29.094  1.00  0.00     0.124 S 
ATOM     68  O   UNL A   1      45.213  37.573  29.432  1.00  0.00    -0.237 OA
ATOM     69  O   UNL A   1      47.507  37.063  30.193  1.00  0.00    -0.237 OA
ATOM     70  O   UNL A   1      47.073  37.528  27.811  1.00  0.00    -0.744 OA
ENDBRANCH  66  67
ENDBRANCH  47  61
BRANCH  48  71
ATOM     71  C   UNL A   1      43.534  22.962  26.869  1.00  0.00    -0.014 A 
ATOM     72  C   UNL A   1      43.886  22.374  25.641  1.00  0.00     0.010 A 
ATOM     73  C   UNL A   1      42.874  22.182  27.836  1.00  0.00     0.010 A 
ATOM     74  C   UNL A   1      43.574  21.037  25.380  1.00  0.00     0.020 A 
ATOM     75  C   UNL A   1      42.582  20.837  27.589  1.00  0.00     0.020 A 
ATOM     76  C   UNL A   1      42.925  20.277  26.357  1.00  0.00     0.054 A 
BRANCH  76  77
ATOM     77  S   UNL A   1      42.580  18.527  26.018  1.00  0.00     0.124 S 
ATOM     78  O   UNL A   1      41.162  18.559  25.678  1.00  0.00    -0.237 OA
ATOM     79  O   UNL A   1      43.490  18.234  24.914  1.00  0.00    -0.237 OA
ATOM     80  O   UNL A   1      42.909  17.866  27.278  1.00  0.00    -0.744 OA
ENDBRANCH  76  77
ENDBRANCH  48  71
BRANCH  60  81
ATOM     81  C   UNL A   1      49.305  26.787  26.052  1.00  0.00    -0.014 A 
ATOM     82  C   UNL A   1      50.267  26.195  26.890  1.00  0.00     0.010 A 
ATOM     83  C   UNL A   1      49.620  27.020  24.702  1.00  0.00     0.010 A 
ATOM     84  C   UNL A   1      51.528  25.862  26.391  1.00  0.00     0.020 A 
ATOM     85  C   UNL A   1      50.872  26.664  24.193  1.00  0.00     0.020 A 
ATOM     86  C   UNL A   1      51.822  26.098  25.045  1.00  0.00     0.054 A 
BRANCH  86  87
ATOM     87  S   UNL A   1      53.448  25.607  24.408  1.00  0.00     0.124 S 
ATOM     88  O   UNL A   1      53.315  25.897  22.982  1.00  0.00    -0.237 OA
ATOM     89  O   UNL A   1      54.360  26.478  25.145  1.00  0.00    -0.237 OA
ATOM     90  O   UNL A   1      53.539  24.188  24.749  1.00  0.00    -0.744 OA
ENDBRANCH  86  87
ENDBRANCH  60  81
ENDBRANCH  34  35
ENDBRANCH  26  29
ENDBRANCH  24  25
ENDBRANCH   1  24
TORSDOF 16
ENDMDL
