MODEL 1
REMARK VINA RESULT:     -11.4      0.000      0.000
REMARK SMILES C[C@@H](CCC(=O)NCCCCNC(=O)c1ccc(-c2c3nc(c(-c4ccc(S(=O)(=O)[O-])cc4)c4ccc([nH]4)c(-c4ccc(S(=O)(=O)[O-])cc4)c4nc(c(-c5ccc(S(=O)(=O)[O-])cc5)c5ccc2[nH]5)C=C4)C=C3)cc1)[C@@H]1CC[C@H]2[C@@H]3CC[C@H]4CC(=O)CC[C@@]4(C)[C@H]3CC(=O)[C@@]21C
REMARK SMILES IDX 9 1 8 2 7 3 5 4 6 5 4 7 3 8 2 9 1 10 75 11 76 12 94 13 77 14
REMARK SMILES IDX 78 15 92 16 95 17 79 18 91 19 93 20 80 21 90 22 81 23 88 24
REMARK SMILES IDX 82 25 87 26 89 27 83 28 86 29 84 30 85 31 10 32 11 33 12 34
REMARK SMILES IDX 13 35 14 37 15 38 16 39 74 40 17 41 73 42 18 43 19 44 20 45
REMARK SMILES IDX 67 46 21 47 72 48 66 49 68 50 22 51 71 52 65 53 64 54 23 56
REMARK SMILES IDX 53 57 34 58 52 59 35 60 38 61 51 62 69 63 36 64 37 65 50 67
REMARK SMILES IDX 70 68 39 69 24 70 25 71 33 72 26 73 32 74 27 75 28 76 29 77
REMARK SMILES IDX 30 78 31 79 54 80 55 81 63 82 56 83 62 84 57 85 58 86 59 87
REMARK SMILES IDX 60 88 61 89 40 90 41 91 49 92 42 93 48 94 43 95 44 96 45 97
REMARK SMILES IDX 46 98 47 99
REMARK H PARENT 7 6 12 36 68 55 38 66
REMARK Flexibility Score: inf
ROOT
ATOM      1  C   UNL A   1      39.801  24.237  27.362  1.00  0.00     0.023 C 
ENDROOT
BRANCH   1   2
ATOM      2  C   UNL A   1      38.327  23.979  26.972  1.00  0.00     0.116 C 
BRANCH   2   3
ATOM      3  N   UNL A   1      38.066  23.775  25.550  1.00  0.00    -0.356 N 
ATOM      4  C   UNL A   1      37.043  23.254  24.815  1.00  0.00     0.220 C 
ATOM      5  O   UNL A   1      37.033  23.378  23.586  1.00  0.00    -0.275 OA
ATOM      6  H   UNL A   1      38.808  24.090  24.984  1.00  0.00     0.163 HD
BRANCH   4   7
ATOM      7  C   UNL A   1      35.948  22.464  25.454  1.00  0.00     0.100 C 
BRANCH   7   8
ATOM      8  C   UNL A   1      35.568  21.295  24.552  1.00  0.00     0.013 C 
BRANCH   8   9
ATOM      9  C   UNL A   1      34.377  20.406  24.977  1.00  0.00    -0.010 C 
ATOM     10  C   UNL A   1      34.636  18.922  24.711  1.00  0.00     0.008 C 
BRANCH   9  11
ATOM     11  C   UNL A   1      32.916  21.059  24.975  1.00  0.00     0.005 C 
ATOM     12  C   UNL A   1      32.511  20.967  23.434  1.00  0.00     0.005 C 
ATOM     13  C   UNL A   1      32.222  22.473  25.374  1.00  0.00     0.032 C 
ATOM     14  C   UNL A   1      31.881  22.277  23.020  1.00  0.00     0.005 C 
ATOM     15  C   UNL A   1      32.431  23.234  24.057  1.00  0.00     0.006 C 
ATOM     16  C   UNL A   1      32.428  23.498  26.512  1.00  0.00     0.139 C 
ATOM     17  C   UNL A   1      30.736  22.086  25.698  1.00  0.00     0.020 C 
ATOM     18  C   UNL A   1      31.910  24.656  23.839  1.00  0.00    -0.003 C 
ATOM     19  C   UNL A   1      31.753  24.877  26.362  1.00  0.00     0.080 C 
ATOM     20  O   UNL A   1      32.891  23.236  27.617  1.00  0.00    -0.299 OA
ATOM     21  C   UNL A   1      32.725  25.209  22.650  1.00  0.00     0.004 C 
ATOM     22  C   UNL A   1      32.125  25.556  25.054  1.00  0.00     0.006 C 
ATOM     23  C   UNL A   1      32.536  26.673  22.380  1.00  0.00     0.005 C 
ATOM     24  C   UNL A   1      31.624  27.020  24.813  1.00  0.00    -0.025 C 
ATOM     25  C   UNL A   1      32.511  27.551  23.640  1.00  0.00     0.002 C 
ATOM     26  C   UNL A   1      30.106  27.225  24.522  1.00  0.00     0.015 C 
ATOM     27  C   UNL A   1      31.879  27.808  26.126  1.00  0.00     0.012 C 
ATOM     28  C   UNL A   1      32.079  28.925  23.205  1.00  0.00     0.079 C 
ATOM     29  C   UNL A   1      29.709  27.878  23.190  1.00  0.00     0.076 C 
ATOM     30  C   UNL A   1      30.706  28.855  22.596  1.00  0.00     0.133 C 
ATOM     31  O   UNL A   1      30.430  29.544  21.613  1.00  0.00    -0.300 OA
ENDBRANCH   9  11
ENDBRANCH   8   9
ENDBRANCH   7   8
ENDBRANCH   4   7
ENDBRANCH   2   3
ENDBRANCH   1   2
BRANCH   1  32
ATOM     32  C   UNL A   1      40.942  23.705  26.487  1.00  0.00     0.023 C 
BRANCH  32  33
ATOM     33  C   UNL A   1      41.799  24.652  25.636  1.00  0.00     0.116 C 
BRANCH  33  34
ATOM     34  N   UNL A   1      43.242  24.555  25.906  1.00  0.00    -0.352 N 
ATOM     35  C   UNL A   1      44.128  24.948  26.898  1.00  0.00     0.251 C 
ATOM     36  H   UNL A   1      43.708  24.077  25.182  1.00  0.00     0.163 HD
ATOM     37  O   UNL A   1      45.301  24.600  26.721  1.00  0.00    -0.269 OA
BRANCH  35  38
ATOM     38  C   UNL A   1      43.835  25.798  28.109  1.00  0.00     0.039 A 
ATOM     39  C   UNL A   1      44.569  26.994  28.298  1.00  0.00     0.014 A 
ATOM     40  C   UNL A   1      42.867  25.523  29.058  1.00  0.00     0.014 A 
ATOM     41  C   UNL A   1      44.251  27.942  29.311  1.00  0.00     0.010 A 
ATOM     42  C   UNL A   1      42.500  26.497  30.015  1.00  0.00     0.010 A 
ATOM     43  C   UNL A   1      43.151  27.746  30.147  1.00  0.00    -0.014 A 
BRANCH  43  44
ATOM     44  C   UNL A   1      42.636  28.745  31.170  1.00  0.00     0.031 A 
ATOM     45  C   UNL A   1      43.145  28.655  32.585  1.00  0.00     0.074 A 
ATOM     46  C   UNL A   1      41.638  29.644  30.955  1.00  0.00     0.049 A 
ATOM     47  N   UNL A   1      42.793  29.365  33.627  1.00  0.00    -0.248 NA
ATOM     48  C   UNL A   1      44.182  27.649  32.863  1.00  0.00     0.031 C 
ATOM     49  C   UNL A   1      41.051  29.978  29.672  1.00  0.00     0.029 A 
ATOM     50  N   UNL A   1      40.889  30.418  31.828  1.00  0.00    -0.354 N 
ATOM     51  C   UNL A   1      43.606  28.930  34.659  1.00  0.00     0.074 A 
ATOM     52  C   UNL A   1      44.336  27.781  34.170  1.00  0.00     0.031 C 
ATOM     53  C   UNL A   1      39.936  30.711  29.836  1.00  0.00     0.029 A 
ATOM     54  C   UNL A   1      39.796  31.039  31.245  1.00  0.00     0.049 A 
ATOM     55  H   UNL A   1      41.114  30.518  32.780  1.00  0.00     0.167 HD
ATOM     56  C   UNL A   1      43.824  29.497  35.867  1.00  0.00     0.031 A 
ATOM     57  C   UNL A   1      38.827  31.844  31.737  1.00  0.00     0.031 A 
ATOM     58  C   UNL A   1      43.119  30.637  36.377  1.00  0.00     0.049 A 
ATOM     59  C   UNL A   1      38.974  32.372  33.138  1.00  0.00     0.074 A 
ATOM     60  C   UNL A   1      43.351  31.337  37.547  1.00  0.00     0.029 A 
ATOM     61  N   UNL A   1      42.029  31.231  35.763  1.00  0.00    -0.354 N 
ATOM     62  N   UNL A   1      39.885  32.072  34.030  1.00  0.00    -0.248 NA
ATOM     63  C   UNL A   1      38.034  33.421  33.565  1.00  0.00     0.031 C 
ATOM     64  C   UNL A   1      42.361  32.317  37.672  1.00  0.00     0.029 A 
ATOM     65  C   UNL A   1      41.549  32.263  36.550  1.00  0.00     0.049 A 
ATOM     66  H   UNL A   1      41.651  30.959  34.896  1.00  0.00     0.167 HD
ATOM     67  C   UNL A   1      39.682  32.952  35.085  1.00  0.00     0.074 A 
ATOM     68  C   UNL A   1      38.543  33.775  34.738  1.00  0.00     0.031 C 
ATOM     69  C   UNL A   1      40.412  33.085  36.219  1.00  0.00     0.031 A 
BRANCH  56  70
ATOM     70  C   UNL A   1      44.942  28.901  36.670  1.00  0.00    -0.014 A 
ATOM     71  C   UNL A   1      44.667  27.882  37.606  1.00  0.00     0.010 A 
ATOM     72  C   UNL A   1      46.250  29.389  36.542  1.00  0.00     0.010 A 
ATOM     73  C   UNL A   1      45.667  27.419  38.456  1.00  0.00     0.020 A 
ATOM     74  C   UNL A   1      47.263  28.901  37.370  1.00  0.00     0.020 A 
ATOM     75  C   UNL A   1      46.958  27.941  38.339  1.00  0.00     0.054 A 
BRANCH  75  76
ATOM     76  S   UNL A   1      48.231  27.336  39.478  1.00  0.00     0.124 S 
ATOM     77  O   UNL A   1      49.417  27.335  38.628  1.00  0.00    -0.237 OA
ATOM     78  O   UNL A   1      48.215  28.339  40.537  1.00  0.00    -0.237 OA
ATOM     79  O   UNL A   1      47.741  26.012  39.868  1.00  0.00    -0.744 OA
ENDBRANCH  75  76
ENDBRANCH  56  70
BRANCH  57  80
ATOM     80  C   UNL A   1      37.693  32.323  30.882  1.00  0.00    -0.014 A 
ATOM     81  C   UNL A   1      37.729  33.591  30.271  1.00  0.00     0.010 A 
ATOM     82  C   UNL A   1      36.535  31.536  30.726  1.00  0.00     0.010 A 
ATOM     83  C   UNL A   1      36.626  34.075  29.552  1.00  0.00     0.020 A 
ATOM     84  C   UNL A   1      35.436  32.010  29.993  1.00  0.00     0.020 A 
ATOM     85  C   UNL A   1      35.484  33.281  29.420  1.00  0.00     0.054 A 
BRANCH  85  86
ATOM     86  S   UNL A   1      34.073  33.926  28.471  1.00  0.00     0.124 S 
ATOM     87  O   UNL A   1      33.377  34.736  29.466  1.00  0.00    -0.237 OA
ATOM     88  O   UNL A   1      34.726  34.669  27.397  1.00  0.00    -0.237 OA
ATOM     89  O   UNL A   1      33.366  32.720  28.043  1.00  0.00    -0.744 OA
ENDBRANCH  85  86
ENDBRANCH  57  80
BRANCH  69  90
ATOM     90  C   UNL A   1      40.043  34.194  37.166  1.00  0.00    -0.014 A 
ATOM     91  C   UNL A   1      39.215  33.966  38.278  1.00  0.00     0.010 A 
ATOM     92  C   UNL A   1      40.596  35.474  36.972  1.00  0.00     0.010 A 
ATOM     93  C   UNL A   1      38.934  35.004  39.171  1.00  0.00     0.020 A 
ATOM     94  C   UNL A   1      40.340  36.505  37.878  1.00  0.00     0.020 A 
ATOM     95  C   UNL A   1      39.503  36.265  38.968  1.00  0.00     0.054 A 
BRANCH  95  96
ATOM     96  S   UNL A   1      39.184  37.573  40.184  1.00  0.00     0.124 S 
ATOM     97  O   UNL A   1      40.502  38.188  40.322  1.00  0.00    -0.237 OA
ATOM     98  O   UNL A   1      38.176  38.391  39.515  1.00  0.00    -0.237 OA
ATOM     99  O   UNL A   1      38.708  36.847  41.359  1.00  0.00    -0.744 OA
ENDBRANCH  95  96
ENDBRANCH  69  90
ENDBRANCH  43  44
ENDBRANCH  35  38
ENDBRANCH  33  34
ENDBRANCH  32  33
ENDBRANCH   1  32
TORSDOF 17
ENDMDL
MODEL 2
REMARK VINA RESULT:     -11.3     10.704     18.040
REMARK SMILES C[C@@H](CCC(=O)NCCCCNC(=O)c1ccc(-c2c3nc(c(-c4ccc(S(=O)(=O)[O-])cc4)c4ccc([nH]4)c(-c4ccc(S(=O)(=O)[O-])cc4)c4nc(c(-c5ccc(S(=O)(=O)[O-])cc5)c5ccc2[nH]5)C=C4)C=C3)cc1)[C@@H]1CC[C@H]2[C@@H]3CC[C@H]4CC(=O)CC[C@@]4(C)[C@H]3CC(=O)[C@@]21C
REMARK SMILES IDX 9 1 8 2 7 3 5 4 6 5 4 7 3 8 2 9 1 10 75 11 76 12 94 13 77 14
REMARK SMILES IDX 78 15 92 16 95 17 79 18 91 19 93 20 80 21 90 22 81 23 88 24
REMARK SMILES IDX 82 25 87 26 89 27 83 28 86 29 84 30 85 31 10 32 11 33 12 34
REMARK SMILES IDX 13 35 14 37 15 38 16 39 74 40 17 41 73 42 18 43 19 44 20 45
REMARK SMILES IDX 67 46 21 47 72 48 66 49 68 50 22 51 71 52 65 53 64 54 23 56
REMARK SMILES IDX 53 57 34 58 52 59 35 60 38 61 51 62 69 63 36 64 37 65 50 67
REMARK SMILES IDX 70 68 39 69 24 70 25 71 33 72 26 73 32 74 27 75 28 76 29 77
REMARK SMILES IDX 30 78 31 79 54 80 55 81 63 82 56 83 62 84 57 85 58 86 59 87
REMARK SMILES IDX 60 88 61 89 40 90 41 91 49 92 42 93 48 94 43 95 44 96 45 97
REMARK SMILES IDX 46 98 47 99
REMARK H PARENT 7 6 12 36 68 55 38 66
REMARK Flexibility Score: inf
ROOT
ATOM      1  C   UNL A   1      43.240  38.247  27.724  1.00  0.00     0.023 C 
ENDROOT
BRANCH   1   2
ATOM      2  C   UNL A   1      43.831  39.134  26.604  1.00  0.00     0.116 C 
BRANCH   2   3
ATOM      3  N   UNL A   1      44.270  40.468  27.006  1.00  0.00    -0.356 N 
ATOM      4  C   UNL A   1      44.210  41.715  26.461  1.00  0.00     0.220 C 
ATOM      5  O   UNL A   1      44.520  42.704  27.133  1.00  0.00    -0.275 OA
ATOM      6  H   UNL A   1      44.716  40.466  27.884  1.00  0.00     0.163 HD
BRANCH   4   7
ATOM      7  C   UNL A   1      43.839  41.922  25.029  1.00  0.00     0.100 C 
BRANCH   7   8
ATOM      8  C   UNL A   1      44.103  43.373  24.638  1.00  0.00     0.013 C 
BRANCH   8   9
ATOM      9  C   UNL A   1      43.530  43.879  23.294  1.00  0.00    -0.010 C 
ATOM     10  C   UNL A   1      42.026  43.624  23.171  1.00  0.00     0.008 C 
BRANCH   9  11
ATOM     11  C   UNL A   1      44.517  43.947  22.037  1.00  0.00     0.005 C 
ATOM     12  C   UNL A   1      45.761  44.752  22.631  1.00  0.00     0.005 C 
ATOM     13  C   UNL A   1      44.502  44.519  20.516  1.00  0.00     0.032 C 
ATOM     14  C   UNL A   1      46.199  45.784  21.618  1.00  0.00     0.005 C 
ATOM     15  C   UNL A   1      44.945  45.964  20.787  1.00  0.00     0.006 C 
ATOM     16  C   UNL A   1      43.440  44.589  19.394  1.00  0.00     0.139 C 
ATOM     17  C   UNL A   1      45.551  43.625  19.766  1.00  0.00     0.020 C 
ATOM     18  C   UNL A   1      45.158  46.983  19.666  1.00  0.00    -0.003 C 
ATOM     19  C   UNL A   1      43.742  45.490  18.180  1.00  0.00     0.080 C 
ATOM     20  O   UNL A   1      42.488  43.824  19.282  1.00  0.00    -0.299 OA
ATOM     21  C   UNL A   1      45.104  48.363  20.355  1.00  0.00     0.004 C 
ATOM     22  C   UNL A   1      44.072  46.915  18.594  1.00  0.00     0.006 C 
ATOM     23  C   UNL A   1      45.080  49.536  19.419  1.00  0.00     0.005 C 
ATOM     24  C   UNL A   1      44.273  47.984  17.467  1.00  0.00    -0.025 C 
ATOM     25  C   UNL A   1      44.158  49.359  18.204  1.00  0.00     0.002 C 
ATOM     26  C   UNL A   1      45.576  47.899  16.615  1.00  0.00     0.015 C 
ATOM     27  C   UNL A   1      43.124  47.785  16.443  1.00  0.00     0.012 C 
ATOM     28  C   UNL A   1      44.440  50.505  17.271  1.00  0.00     0.079 C 
ATOM     29  C   UNL A   1      46.523  49.107  16.621  1.00  0.00     0.076 C 
ATOM     30  C   UNL A   1      45.881  50.464  16.840  1.00  0.00     0.133 C 
ATOM     31  O   UNL A   1      46.519  51.510  16.718  1.00  0.00    -0.300 OA
ENDBRANCH   9  11
ENDBRANCH   8   9
ENDBRANCH   7   8
ENDBRANCH   4   7
ENDBRANCH   2   3
ENDBRANCH   1   2
BRANCH   1  32
ATOM     32  C   UNL A   1      43.246  38.724  29.181  1.00  0.00     0.023 C 
BRANCH  32  33
ATOM     33  C   UNL A   1      44.254  38.166  30.196  1.00  0.00     0.116 C 
BRANCH  33  34
ATOM     34  N   UNL A   1      45.657  38.286  29.770  1.00  0.00    -0.352 N 
ATOM     35  C   UNL A   1      46.622  37.483  29.180  1.00  0.00     0.251 C 
ATOM     36  H   UNL A   1      46.009  39.188  29.955  1.00  0.00     0.163 HD
ATOM     37  O   UNL A   1      47.703  38.039  28.959  1.00  0.00    -0.269 OA
BRANCH  35  38
ATOM     38  C   UNL A   1      46.519  36.015  28.851  1.00  0.00     0.039 A 
ATOM     39  C   UNL A   1      46.913  35.067  29.829  1.00  0.00     0.014 A 
ATOM     40  C   UNL A   1      46.034  35.497  27.664  1.00  0.00     0.014 A 
ATOM     41  C   UNL A   1      46.696  33.668  29.677  1.00  0.00     0.010 A 
ATOM     42  C   UNL A   1      45.747  34.117  27.545  1.00  0.00     0.010 A 
ATOM     43  C   UNL A   1      46.033  33.169  28.555  1.00  0.00    -0.014 A 
BRANCH  43  44
ATOM     44  C   UNL A   1      45.627  31.720  28.347  1.00  0.00     0.031 A 
ATOM     45  C   UNL A   1      44.271  31.275  28.832  1.00  0.00     0.074 A 
ATOM     46  C   UNL A   1      46.441  30.737  27.878  1.00  0.00     0.049 A 
ATOM     47  N   UNL A   1      43.750  30.074  28.812  1.00  0.00    -0.248 NA
ATOM     48  C   UNL A   1      43.390  32.305  29.403  1.00  0.00     0.031 C 
ATOM     49  C   UNL A   1      47.746  30.924  27.275  1.00  0.00     0.029 A 
ATOM     50  N   UNL A   1      46.317  29.356  27.880  1.00  0.00    -0.354 N 
ATOM     51  C   UNL A   1      42.468  30.223  29.310  1.00  0.00     0.074 A 
ATOM     52  C   UNL A   1      42.352  31.583  29.788  1.00  0.00     0.031 C 
ATOM     53  C   UNL A   1      48.383  29.747  27.147  1.00  0.00     0.029 A 
ATOM     54  C   UNL A   1      47.471  28.679  27.520  1.00  0.00     0.049 A 
ATOM     55  H   UNL A   1      45.480  28.895  28.116  1.00  0.00     0.167 HD
ATOM     56  C   UNL A   1      41.433  29.353  29.269  1.00  0.00     0.031 A 
ATOM     57  C   UNL A   1      47.770  27.364  27.417  1.00  0.00     0.031 A 
ATOM     58  C   UNL A   1      41.517  28.001  28.799  1.00  0.00     0.049 A 
ATOM     59  C   UNL A   1      46.651  26.363  27.516  1.00  0.00     0.074 A 
ATOM     60  C   UNL A   1      40.494  27.086  28.627  1.00  0.00     0.029 A 
ATOM     61  N   UNL A   1      42.693  27.358  28.448  1.00  0.00    -0.354 N 
ATOM     62  N   UNL A   1      45.392  26.575  27.807  1.00  0.00    -0.248 NA
ATOM     63  C   UNL A   1      46.964  24.966  27.172  1.00  0.00     0.031 C 
ATOM     64  C   UNL A   1      41.059  25.870  28.230  1.00  0.00     0.029 A 
ATOM     65  C   UNL A   1      42.427  26.045  28.100  1.00  0.00     0.049 A 
ATOM     66  H   UNL A   1      43.585  27.773  28.446  1.00  0.00     0.167 HD
ATOM     67  C   UNL A   1      44.748  25.362  27.596  1.00  0.00     0.074 A 
ATOM     68  C   UNL A   1      45.758  24.411  27.186  1.00  0.00     0.031 C 
ATOM     69  C   UNL A   1      43.425  25.086  27.696  1.00  0.00     0.031 A 
BRANCH  56  70
ATOM     70  C   UNL A   1      40.105  29.905  29.692  1.00  0.00    -0.014 A 
ATOM     71  C   UNL A   1      39.185  30.344  28.716  1.00  0.00     0.010 A 
ATOM     72  C   UNL A   1      39.791  30.046  31.051  1.00  0.00     0.010 A 
ATOM     73  C   UNL A   1      38.010  30.987  29.095  1.00  0.00     0.020 A 
ATOM     74  C   UNL A   1      38.597  30.659  31.434  1.00  0.00     0.020 A 
ATOM     75  C   UNL A   1      37.729  31.149  30.454  1.00  0.00     0.054 A 
BRANCH  75  76
ATOM     76  S   UNL A   1      36.204  32.013  30.913  1.00  0.00     0.124 S 
ATOM     77  O   UNL A   1      35.866  31.371  32.180  1.00  0.00    -0.237 OA
ATOM     78  O   UNL A   1      36.640  33.402  31.007  1.00  0.00    -0.237 OA
ATOM     79  O   UNL A   1      35.296  31.720  29.803  1.00  0.00    -0.744 OA
ENDBRANCH  75  76
ENDBRANCH  56  70
BRANCH  57  80
ATOM     80  C   UNL A   1      49.153  26.896  27.075  1.00  0.00    -0.014 A 
ATOM     81  C   UNL A   1      50.124  26.709  28.078  1.00  0.00     0.010 A 
ATOM     82  C   UNL A   1      49.527  26.698  25.732  1.00  0.00     0.010 A 
ATOM     83  C   UNL A   1      51.442  26.364  27.746  1.00  0.00     0.020 A 
ATOM     84  C   UNL A   1      50.842  26.337  25.398  1.00  0.00     0.020 A 
ATOM     85  C   UNL A   1      51.794  26.183  26.407  1.00  0.00     0.054 A 
BRANCH  85  86
ATOM     86  S   UNL A   1      53.507  25.723  26.003  1.00  0.00     0.124 S 
ATOM     87  O   UNL A   1      54.119  25.624  27.325  1.00  0.00    -0.237 OA
ATOM     88  O   UNL A   1      53.336  24.460  25.291  1.00  0.00    -0.237 OA
ATOM     89  O   UNL A   1      53.978  26.836  25.180  1.00  0.00    -0.744 OA
ENDBRANCH  85  86
ENDBRANCH  57  80
BRANCH  69  90
ATOM     90  C   UNL A   1      42.964  23.707  27.312  1.00  0.00    -0.014 A 
ATOM     91  C   UNL A   1      42.735  23.355  25.972  1.00  0.00     0.010 A 
ATOM     92  C   UNL A   1      42.824  22.727  28.314  1.00  0.00     0.010 A 
ATOM     93  C   UNL A   1      42.360  22.050  25.640  1.00  0.00     0.020 A 
ATOM     94  C   UNL A   1      42.478  21.416  27.983  1.00  0.00     0.020 A 
ATOM     95  C   UNL A   1      42.240  21.087  26.648  1.00  0.00     0.054 A 
BRANCH  95  96
ATOM     96  S   UNL A   1      41.826  19.383  26.183  1.00  0.00     0.124 S 
ATOM     97  O   UNL A   1      40.396  19.482  25.907  1.00  0.00    -0.237 OA
ATOM     98  O   UNL A   1      42.678  19.154  25.019  1.00  0.00    -0.237 OA
ATOM     99  O   UNL A   1      42.180  18.605  27.369  1.00  0.00    -0.744 OA
ENDBRANCH  95  96
ENDBRANCH  69  90
ENDBRANCH  43  44
ENDBRANCH  35  38
ENDBRANCH  33  34
ENDBRANCH  32  33
ENDBRANCH   1  32
TORSDOF 17
ENDMDL
MODEL 3
REMARK VINA RESULT:     -11.0      6.295     14.186
REMARK SMILES C[C@@H](CCC(=O)NCCCCNC(=O)c1ccc(-c2c3nc(c(-c4ccc(S(=O)(=O)[O-])cc4)c4ccc([nH]4)c(-c4ccc(S(=O)(=O)[O-])cc4)c4nc(c(-c5ccc(S(=O)(=O)[O-])cc5)c5ccc2[nH]5)C=C4)C=C3)cc1)[C@@H]1CC[C@H]2[C@@H]3CC[C@H]4CC(=O)CC[C@@]4(C)[C@H]3CC(=O)[C@@]21C
REMARK SMILES IDX 9 1 8 2 7 3 5 4 6 5 4 7 3 8 2 9 1 10 75 11 76 12 94 13 77 14
REMARK SMILES IDX 78 15 92 16 95 17 79 18 91 19 93 20 80 21 90 22 81 23 88 24
REMARK SMILES IDX 82 25 87 26 89 27 83 28 86 29 84 30 85 31 10 32 11 33 12 34
REMARK SMILES IDX 13 35 14 37 15 38 16 39 74 40 17 41 73 42 18 43 19 44 20 45
REMARK SMILES IDX 67 46 21 47 72 48 66 49 68 50 22 51 71 52 65 53 64 54 23 56
REMARK SMILES IDX 53 57 34 58 52 59 35 60 38 61 51 62 69 63 36 64 37 65 50 67
REMARK SMILES IDX 70 68 39 69 24 70 25 71 33 72 26 73 32 74 27 75 28 76 29 77
REMARK SMILES IDX 30 78 31 79 54 80 55 81 63 82 56 83 62 84 57 85 58 86 59 87
REMARK SMILES IDX 60 88 61 89 40 90 41 91 49 92 42 93 48 94 43 95 44 96 45 97
REMARK SMILES IDX 46 98 47 99
REMARK H PARENT 7 6 12 36 68 55 38 66
REMARK Flexibility Score: inf
ROOT
ATOM      1  C   UNL A   1      34.485  33.334  32.076  1.00  0.00     0.023 C 
ENDROOT
BRANCH   1   2
ATOM      2  C   UNL A   1      34.679  34.510  33.061  1.00  0.00     0.116 C 
BRANCH   2   3
ATOM      3  N   UNL A   1      35.858  34.438  33.921  1.00  0.00    -0.356 N 
ATOM      4  C   UNL A   1      37.200  34.594  33.743  1.00  0.00     0.220 C 
ATOM      5  O   UNL A   1      37.955  34.646  34.719  1.00  0.00    -0.275 OA
ATOM      6  H   UNL A   1      35.628  34.226  34.854  1.00  0.00     0.163 HD
BRANCH   4   7
ATOM      7  C   UNL A   1      37.806  34.637  32.379  1.00  0.00     0.100 C 
BRANCH   7   8
ATOM      8  C   UNL A   1      38.652  33.387  32.156  1.00  0.00     0.013 C 
BRANCH   8   9
ATOM      9  C   UNL A   1      40.165  33.570  31.898  1.00  0.00    -0.010 C 
ATOM     10  C   UNL A   1      40.518  33.463  30.413  1.00  0.00     0.008 C 
BRANCH   9  11
ATOM     11  C   UNL A   1      41.178  33.181  33.074  1.00  0.00     0.005 C 
ATOM     12  C   UNL A   1      42.598  33.409  32.382  1.00  0.00     0.005 C 
ATOM     13  C   UNL A   1      41.513  31.893  34.006  1.00  0.00     0.032 C 
ATOM     14  C   UNL A   1      43.499  32.248  32.732  1.00  0.00     0.005 C 
ATOM     15  C   UNL A   1      42.499  31.165  33.081  1.00  0.00     0.006 C 
ATOM     16  C   UNL A   1      40.661  30.798  34.689  1.00  0.00     0.139 C 
ATOM     17  C   UNL A   1      42.142  32.517  35.301  1.00  0.00     0.020 C 
ATOM     18  C   UNL A   1      43.199  29.866  33.486  1.00  0.00    -0.003 C 
ATOM     19  C   UNL A   1      41.399  29.566  35.250  1.00  0.00     0.080 C 
ATOM     20  O   UNL A   1      39.487  30.927  35.020  1.00  0.00    -0.299 OA
ATOM     21  C   UNL A   1      43.677  29.232  32.161  1.00  0.00     0.004 C 
ATOM     22  C   UNL A   1      42.265  28.890  34.198  1.00  0.00     0.006 C 
ATOM     23  C   UNL A   1      44.214  27.837  32.286  1.00  0.00     0.005 C 
ATOM     24  C   UNL A   1      42.975  27.546  34.577  1.00  0.00    -0.025 C 
ATOM     25  C   UNL A   1      43.393  26.922  33.206  1.00  0.00     0.002 C 
ATOM     26  C   UNL A   1      44.180  27.621  35.564  1.00  0.00     0.015 C 
ATOM     27  C   UNL A   1      41.925  26.670  35.310  1.00  0.00     0.012 C 
ATOM     28  C   UNL A   1      44.195  25.664  33.399  1.00  0.00     0.079 C 
ATOM     29  C   UNL A   1      45.543  27.106  35.078  1.00  0.00     0.076 C 
ATOM     30  C   UNL A   1      45.513  25.998  34.043  1.00  0.00     0.133 C 
ATOM     31  O   UNL A   1      46.537  25.411  33.693  1.00  0.00    -0.300 OA
ENDBRANCH   9  11
ENDBRANCH   8   9
ENDBRANCH   7   8
ENDBRANCH   4   7
ENDBRANCH   2   3
ENDBRANCH   1   2
BRANCH   1  32
ATOM     32  C   UNL A   1      34.857  33.487  30.597  1.00  0.00     0.023 C 
BRANCH  32  33
ATOM     33  C   UNL A   1      35.577  32.364  29.837  1.00  0.00     0.116 C 
BRANCH  33  34
ATOM     34  N   UNL A   1      35.708  31.115  30.605  1.00  0.00    -0.352 N 
ATOM     35  C   UNL A   1      36.707  30.206  30.921  1.00  0.00     0.251 C 
ATOM     36  H   UNL A   1      34.847  30.852  31.005  1.00  0.00     0.163 HD
ATOM     37  O   UNL A   1      36.357  29.281  31.663  1.00  0.00    -0.269 OA
BRANCH  35  38
ATOM     38  C   UNL A   1      38.126  30.185  30.411  1.00  0.00     0.039 A 
ATOM     39  C   UNL A   1      39.175  29.915  31.324  1.00  0.00     0.014 A 
ATOM     40  C   UNL A   1      38.501  30.379  29.094  1.00  0.00     0.014 A 
ATOM     41  C   UNL A   1      40.521  29.708  30.911  1.00  0.00     0.010 A 
ATOM     42  C   UNL A   1      39.821  30.098  28.673  1.00  0.00     0.010 A 
ATOM     43  C   UNL A   1      40.859  29.719  29.557  1.00  0.00    -0.014 A 
BRANCH  43  44
ATOM     44  C   UNL A   1      42.227  29.380  28.990  1.00  0.00     0.031 A 
ATOM     45  C   UNL A   1      42.533  27.942  28.657  1.00  0.00     0.074 A 
ATOM     46  C   UNL A   1      43.268  30.248  28.880  1.00  0.00     0.049 A 
ATOM     47  N   UNL A   1      43.655  27.425  28.223  1.00  0.00    -0.248 NA
ATOM     48  C   UNL A   1      41.444  26.967  28.825  1.00  0.00     0.031 C 
ATOM     49  C   UNL A   1      43.203  31.686  29.054  1.00  0.00     0.029 A 
ATOM     50  N   UNL A   1      44.619  30.045  28.644  1.00  0.00    -0.354 N 
ATOM     51  C   UNL A   1      43.383  26.084  28.013  1.00  0.00     0.074 A 
ATOM     52  C   UNL A   1      42.057  25.833  28.534  1.00  0.00     0.031 C 
ATOM     53  C   UNL A   1      44.438  32.213  29.120  1.00  0.00     0.029 A 
ATOM     54  C   UNL A   1      45.407  31.167  28.839  1.00  0.00     0.049 A 
ATOM     55  H   UNL A   1      44.987  29.177  28.361  1.00  0.00     0.167 HD
ATOM     56  C   UNL A   1      44.111  25.163  27.343  1.00  0.00     0.031 A 
ATOM     57  C   UNL A   1      46.738  31.384  28.736  1.00  0.00     0.031 A 
ATOM     58  C   UNL A   1      45.426  25.385  26.814  1.00  0.00     0.049 A 
ATOM     59  C   UNL A   1      47.597  30.309  28.125  1.00  0.00     0.074 A 
ATOM     60  C   UNL A   1      46.190  24.538  26.031  1.00  0.00     0.029 A 
ATOM     61  N   UNL A   1      46.184  26.523  27.031  1.00  0.00    -0.354 N 
ATOM     62  N   UNL A   1      47.250  29.101  27.759  1.00  0.00    -0.248 NA
ATOM     63  C   UNL A   1      48.992  30.657  27.815  1.00  0.00     0.031 C 
ATOM     64  C   UNL A   1      47.436  25.140  25.826  1.00  0.00     0.029 A 
ATOM     65  C   UNL A   1      47.424  26.386  26.434  1.00  0.00     0.049 A 
ATOM     66  H   UNL A   1      45.884  27.313  27.536  1.00  0.00     0.167 HD
ATOM     67  C   UNL A   1      48.354  28.577  27.099  1.00  0.00     0.074 A 
ATOM     68  C   UNL A   1      49.392  29.584  27.143  1.00  0.00     0.031 C 
ATOM     69  C   UNL A   1      48.469  27.378  26.476  1.00  0.00     0.031 A 
BRANCH  56  70
ATOM     70  C   UNL A   1      43.429  23.851  27.097  1.00  0.00    -0.014 A 
ATOM     71  C   UNL A   1      43.138  22.997  28.181  1.00  0.00     0.010 A 
ATOM     72  C   UNL A   1      43.130  23.437  25.791  1.00  0.00     0.010 A 
ATOM     73  C   UNL A   1      42.634  21.720  27.956  1.00  0.00     0.020 A 
ATOM     74  C   UNL A   1      42.592  22.169  25.564  1.00  0.00     0.020 A 
ATOM     75  C   UNL A   1      42.374  21.310  26.646  1.00  0.00     0.054 A 
BRANCH  75  76
ATOM     76  S   UNL A   1      41.744  19.632  26.385  1.00  0.00     0.124 S 
ATOM     77  O   UNL A   1      42.160  18.961  27.612  1.00  0.00    -0.237 OA
ATOM     78  O   UNL A   1      40.309  19.848  26.239  1.00  0.00    -0.237 OA
ATOM     79  O   UNL A   1      42.432  19.192  25.169  1.00  0.00    -0.744 OA
ENDBRANCH  75  76
ENDBRANCH  56  70
BRANCH  57  80
ATOM     80  C   UNL A   1      47.350  32.706  29.090  1.00  0.00    -0.014 A 
ATOM     81  C   UNL A   1      48.011  32.895  30.319  1.00  0.00     0.010 A 
ATOM     82  C   UNL A   1      47.217  33.808  28.223  1.00  0.00     0.010 A 
ATOM     83  C   UNL A   1      48.497  34.158  30.687  1.00  0.00     0.020 A 
ATOM     84  C   UNL A   1      47.717  35.070  28.581  1.00  0.00     0.020 A 
ATOM     85  C   UNL A   1      48.344  35.239  29.816  1.00  0.00     0.054 A 
BRANCH  85  86
ATOM     86  S   UNL A   1      48.995  36.864  30.311  1.00  0.00     0.124 S 
ATOM     87  O   UNL A   1      50.381  36.792  29.858  1.00  0.00    -0.237 OA
ATOM     88  O   UNL A   1      48.137  37.787  29.574  1.00  0.00    -0.237 OA
ATOM     89  O   UNL A   1      48.814  36.880  31.762  1.00  0.00    -0.744 OA
ENDBRANCH  85  86
ENDBRANCH  57  80
BRANCH  69  90
ATOM     90  C   UNL A   1      49.748  27.089  25.741  1.00  0.00    -0.014 A 
ATOM     91  C   UNL A   1      49.897  27.393  24.377  1.00  0.00     0.010 A 
ATOM     92  C   UNL A   1      50.844  26.563  26.451  1.00  0.00     0.010 A 
ATOM     93  C   UNL A   1      51.116  27.163  23.733  1.00  0.00     0.020 A 
ATOM     94  C   UNL A   1      52.072  26.359  25.818  1.00  0.00     0.020 A 
ATOM     95  C   UNL A   1      52.197  26.653  24.460  1.00  0.00     0.054 A 
BRANCH  95  96
ATOM     96  S   UNL A   1      53.790  26.435  23.619  1.00  0.00     0.124 S 
ATOM     97  O   UNL A   1      54.358  25.295  24.334  1.00  0.00    -0.237 OA
ATOM     98  O   UNL A   1      53.389  26.176  22.238  1.00  0.00    -0.237 OA
ATOM     99  O   UNL A   1      54.473  27.709  23.834  1.00  0.00    -0.744 OA
ENDBRANCH  95  96
ENDBRANCH  69  90
ENDBRANCH  43  44
ENDBRANCH  35  38
ENDBRANCH  33  34
ENDBRANCH  32  33
ENDBRANCH   1  32
TORSDOF 17
ENDMDL
