MODEL 1
REMARK VINA RESULT:     -11.1      0.000      0.000
REMARK SMILES O=C(NCCCCNC(=O)c1ccccc1S[C@H]1CCOC2(CCCCC2)C1)c1ccc(-c2c3nc(c(-c4ccc(S(=O)(=O)[O-])cc4)c4ccc([nH]4)c(-c4ccc(S(=O)(=O)[O-])cc4)c4nc(c(-c5ccc(S(=O)(=O)[O-])cc5)c5ccc2[nH]5)C=C4)C=C3)cc1
REMARK SMILES IDX 5 1 4 2 3 3 1 4 2 5 29 7 30 8 88 9 31 10 87 11 32 12 33 13
REMARK SMILES IDX 34 14 81 15 35 16 86 17 80 18 82 19 36 20 85 21 79 22 78 23
REMARK SMILES IDX 37 25 67 26 48 27 66 28 49 29 52 30 65 31 83 32 50 33 51 34
REMARK SMILES IDX 64 36 84 37 53 38 38 39 39 40 47 41 40 42 46 43 41 44 42 45
REMARK SMILES IDX 43 46 44 47 45 48 68 49 69 50 77 51 70 52 76 53 71 54 72 55
REMARK SMILES IDX 73 56 74 57 75 58 54 59 55 60 63 61 56 62 62 63 57 64 58 65
REMARK SMILES IDX 59 66 60 67 61 68 6 69 7 70 8 71 9 72 10 74 11 75 12 76
REMARK SMILES IDX 16 77 13 78 15 79 14 80 17 81 18 82 19 83 28 84 20 85 22 86
REMARK SMILES IDX 21 87 23 88 27 89 24 90 26 91 25 92
REMARK H PARENT 3 6 82 24 52 35 8 73
REMARK Flexibility Score: inf
ROOT
ATOM      1  C   UNL A   1      33.380  27.821  26.873  1.00  0.00     0.023 C 
ENDROOT
BRANCH   1   2
ATOM      2  C   UNL A   1      33.861  29.076  26.153  1.00  0.00     0.116 C 
BRANCH   2   3
ATOM      3  N   UNL A   1      33.698  30.287  26.947  1.00  0.00    -0.352 N 
ATOM      4  O   UNL A   1      34.134  31.776  28.585  1.00  0.00    -0.269 OA
ATOM      5  C   UNL A   1      34.516  30.817  27.919  1.00  0.00     0.251 C 
ATOM      6  H   UNL A   1      32.882  30.804  26.759  1.00  0.00     0.163 HD
BRANCH   5   7
ATOM      7  C   UNL A   1      35.838  30.207  28.186  1.00  0.00     0.039 A 
ATOM      8  C   UNL A   1      36.121  29.642  29.429  1.00  0.00     0.014 A 
ATOM      9  C   UNL A   1      36.816  30.227  27.189  1.00  0.00     0.014 A 
ATOM     10  C   UNL A   1      37.427  29.279  29.739  1.00  0.00     0.010 A 
ATOM     11  C   UNL A   1      38.107  29.769  27.472  1.00  0.00     0.010 A 
ATOM     12  C   UNL A   1      38.439  29.345  28.768  1.00  0.00    -0.014 A 
BRANCH  12  13
ATOM     13  C   UNL A   1      39.827  28.954  29.140  1.00  0.00     0.031 A 
ATOM     14  C   UNL A   1      40.688  29.851  29.993  1.00  0.00     0.074 A 
ATOM     15  C   UNL A   1      40.289  27.748  28.756  1.00  0.00     0.049 A 
ATOM     16  N   UNL A   1      41.887  29.626  30.470  1.00  0.00    -0.248 NA
ATOM     17  C   UNL A   1      40.143  31.170  30.350  1.00  0.00     0.031 C 
ATOM     18  C   UNL A   1      39.557  26.790  27.923  1.00  0.00     0.029 A 
ATOM     19  N   UNL A   1      41.467  27.105  29.042  1.00  0.00    -0.354 N 
ATOM     20  C   UNL A   1      42.250  30.781  31.154  1.00  0.00     0.074 A 
ATOM     21  C   UNL A   1      41.153  31.713  31.016  1.00  0.00     0.031 C 
ATOM     22  C   UNL A   1      40.268  25.657  27.825  1.00  0.00     0.029 A 
ATOM     23  C   UNL A   1      41.530  25.829  28.534  1.00  0.00     0.049 A 
ATOM     24  H   UNL A   1      42.195  27.517  29.561  1.00  0.00     0.167 HD
ATOM     25  C   UNL A   1      43.391  31.042  31.840  1.00  0.00     0.031 A 
ATOM     26  C   UNL A   1      42.496  24.894  28.627  1.00  0.00     0.031 A 
ATOM     27  C   UNL A   1      44.475  30.106  31.996  1.00  0.00     0.049 A 
ATOM     28  C   UNL A   1      43.745  25.204  29.399  1.00  0.00     0.074 A 
ATOM     29  C   UNL A   1      45.655  30.265  32.704  1.00  0.00     0.029 A 
ATOM     30  N   UNL A   1      44.514  28.837  31.438  1.00  0.00    -0.354 N 
ATOM     31  N   UNL A   1      44.054  26.294  30.060  1.00  0.00    -0.248 NA
ATOM     32  C   UNL A   1      44.773  24.156  29.439  1.00  0.00     0.031 C 
ATOM     33  C   UNL A   1      46.425  29.108  32.540  1.00  0.00     0.029 A 
ATOM     34  C   UNL A   1      45.704  28.210  31.770  1.00  0.00     0.049 A 
ATOM     35  H   UNL A   1      43.801  28.440  30.888  1.00  0.00     0.167 HD
ATOM     36  C   UNL A   1      45.308  26.056  30.609  1.00  0.00     0.074 A 
ATOM     37  C   UNL A   1      45.690  24.713  30.218  1.00  0.00     0.031 C 
ATOM     38  C   UNL A   1      46.074  26.877  31.369  1.00  0.00     0.031 A 
BRANCH  25  39
ATOM     39  C   UNL A   1      43.541  32.410  32.453  1.00  0.00    -0.014 A 
ATOM     40  C   UNL A   1      43.121  32.673  33.768  1.00  0.00     0.010 A 
ATOM     41  C   UNL A   1      44.151  33.439  31.711  1.00  0.00     0.010 A 
ATOM     42  C   UNL A   1      43.272  33.951  34.317  1.00  0.00     0.020 A 
ATOM     43  C   UNL A   1      44.325  34.711  32.263  1.00  0.00     0.020 A 
ATOM     44  C   UNL A   1      43.866  34.964  33.558  1.00  0.00     0.054 A 
BRANCH  44  45
ATOM     45  S   UNL A   1      44.061  36.611  34.294  1.00  0.00     0.124 S 
ATOM     46  O   UNL A   1      43.670  36.367  35.681  1.00  0.00    -0.237 OA
ATOM     47  O   UNL A   1      45.479  36.893  34.083  1.00  0.00    -0.237 OA
ATOM     48  O   UNL A   1      43.142  37.446  33.526  1.00  0.00    -0.744 OA
ENDBRANCH  44  45
ENDBRANCH  25  39
BRANCH  26  49
ATOM     49  C   UNL A   1      42.305  23.573  27.972  1.00  0.00    -0.014 A 
ATOM     50  C   UNL A   1      42.958  23.275  26.763  1.00  0.00     0.010 A 
ATOM     51  C   UNL A   1      41.494  22.594  28.573  1.00  0.00     0.010 A 
ATOM     52  C   UNL A   1      42.795  22.023  26.162  1.00  0.00     0.020 A 
ATOM     53  C   UNL A   1      41.350  21.333  27.991  1.00  0.00     0.020 A 
ATOM     54  C   UNL A   1      41.993  21.060  26.782  1.00  0.00     0.054 A 
BRANCH  54  55
ATOM     55  S   UNL A   1      41.846  19.418  26.022  1.00  0.00     0.124 S 
ATOM     56  O   UNL A   1      40.413  19.339  25.751  1.00  0.00    -0.237 OA
ATOM     57  O   UNL A   1      42.708  19.532  24.848  1.00  0.00    -0.237 OA
ATOM     58  O   UNL A   1      42.339  18.518  27.062  1.00  0.00    -0.744 OA
ENDBRANCH  54  55
ENDBRANCH  26  49
BRANCH  38  59
ATOM     59  C   UNL A   1      47.390  26.330  31.850  1.00  0.00    -0.014 A 
ATOM     60  C   UNL A   1      47.493  25.658  33.080  1.00  0.00     0.010 A 
ATOM     61  C   UNL A   1      48.535  26.474  31.046  1.00  0.00     0.010 A 
ATOM     62  C   UNL A   1      48.728  25.174  33.519  1.00  0.00     0.020 A 
ATOM     63  C   UNL A   1      49.768  25.970  31.470  1.00  0.00     0.020 A 
ATOM     64  C   UNL A   1      49.859  25.340  32.712  1.00  0.00     0.054 A 
BRANCH  64  65
ATOM     65  S   UNL A   1      51.451  24.687  33.289  1.00  0.00     0.124 S 
ATOM     66  O   UNL A   1      51.122  24.239  34.640  1.00  0.00    -0.237 OA
ATOM     67  O   UNL A   1      51.733  23.624  32.327  1.00  0.00    -0.237 OA
ATOM     68  O   UNL A   1      52.344  25.840  33.214  1.00  0.00    -0.744 OA
ENDBRANCH  64  65
ENDBRANCH  38  59
ENDBRANCH  12  13
ENDBRANCH   5   7
ENDBRANCH   2   3
ENDBRANCH   1   2
BRANCH   1  69
ATOM     69  C   UNL A   1      31.872  27.577  26.830  1.00  0.00     0.023 C 
BRANCH  69  70
ATOM     70  C   UNL A   1      31.456  26.173  26.408  1.00  0.00     0.116 C 
BRANCH  70  71
ATOM     71  N   UNL A   1      30.279  26.159  25.559  1.00  0.00    -0.352 N 
ATOM     72  C   UNL A   1      30.208  26.464  24.222  1.00  0.00     0.252 C 
ATOM     73  H   UNL A   1      29.433  25.901  25.992  1.00  0.00     0.163 HD
ATOM     74  O   UNL A   1      29.143  26.422  23.614  1.00  0.00    -0.269 OA
BRANCH  72  75
ATOM     75  C   UNL A   1      31.428  26.923  23.528  1.00  0.00     0.053 A 
ATOM     76  C   UNL A   1      31.529  28.307  23.326  1.00  0.00     0.015 A 
ATOM     77  C   UNL A   1      32.435  26.039  23.090  1.00  0.00     0.020 A 
ATOM     78  C   UNL A   1      32.658  28.835  22.711  1.00  0.00     0.001 A 
ATOM     79  C   UNL A   1      33.550  26.593  22.446  1.00  0.00     0.016 A 
ATOM     80  C   UNL A   1      33.668  27.980  22.278  1.00  0.00     0.001 A 
BRANCH  77  81
ATOM     81  S   UNL A   1      32.217  24.273  23.271  1.00  0.00    -0.122 SA
BRANCH  81  82
ATOM     82  C   UNL A   1      33.331  23.742  24.631  1.00  0.00     0.057 C 
ATOM     83  C   UNL A   1      32.786  22.695  25.601  1.00  0.00     0.043 C 
ATOM     84  C   UNL A   1      34.568  23.137  23.949  1.00  0.00     0.050 C 
ATOM     85  C   UNL A   1      33.879  22.342  26.606  1.00  0.00     0.162 C 
ATOM     86  C   UNL A   1      35.640  22.709  24.969  1.00  0.00     0.069 C 
ATOM     87  O   UNL A   1      35.058  21.860  25.971  1.00  0.00    -0.375 OA
ATOM     88  C   UNL A   1      36.319  23.949  25.595  1.00  0.00     0.035 C 
ATOM     89  C   UNL A   1      36.697  21.849  24.238  1.00  0.00     0.035 C 
ATOM     90  C   UNL A   1      37.531  23.602  26.455  1.00  0.00     0.003 C 
ATOM     91  C   UNL A   1      37.905  21.512  25.114  1.00  0.00     0.003 C 
ATOM     92  C   UNL A   1      38.547  22.773  25.678  1.00  0.00     0.000 C 
ENDBRANCH  81  82
ENDBRANCH  77  81
ENDBRANCH  72  75
ENDBRANCH  70  71
ENDBRANCH  69  70
ENDBRANCH   1  69
TORSDOF 16
ENDMDL
MODEL 2
REMARK VINA RESULT:     -10.9      3.946      9.694
REMARK SMILES O=C(NCCCCNC(=O)c1ccccc1S[C@H]1CCOC2(CCCCC2)C1)c1ccc(-c2c3nc(c(-c4ccc(S(=O)(=O)[O-])cc4)c4ccc([nH]4)c(-c4ccc(S(=O)(=O)[O-])cc4)c4nc(c(-c5ccc(S(=O)(=O)[O-])cc5)c5ccc2[nH]5)C=C4)C=C3)cc1
REMARK SMILES IDX 5 1 4 2 3 3 1 4 2 5 29 7 30 8 88 9 31 10 87 11 32 12 33 13
REMARK SMILES IDX 34 14 81 15 35 16 86 17 80 18 82 19 36 20 85 21 79 22 78 23
REMARK SMILES IDX 37 25 67 26 48 27 66 28 49 29 52 30 65 31 83 32 50 33 51 34
REMARK SMILES IDX 64 36 84 37 53 38 38 39 39 40 47 41 40 42 46 43 41 44 42 45
REMARK SMILES IDX 43 46 44 47 45 48 68 49 69 50 77 51 70 52 76 53 71 54 72 55
REMARK SMILES IDX 73 56 74 57 75 58 54 59 55 60 63 61 56 62 62 63 57 64 58 65
REMARK SMILES IDX 59 66 60 67 61 68 6 69 7 70 8 71 9 72 10 74 11 75 12 76
REMARK SMILES IDX 16 77 13 78 15 79 14 80 17 81 18 82 19 83 28 84 20 85 22 86
REMARK SMILES IDX 21 87 23 88 27 89 24 90 26 91 25 92
REMARK H PARENT 3 6 82 24 52 35 8 73
REMARK Flexibility Score: inf
ROOT
ATOM      1  C   UNL A   1      38.652  19.705  24.848  1.00  0.00     0.023 C 
ENDROOT
BRANCH   1   2
ATOM      2  C   UNL A   1      39.489  20.013  26.085  1.00  0.00     0.116 C 
BRANCH   2   3
ATOM      3  N   UNL A   1      40.707  19.217  26.164  1.00  0.00    -0.352 N 
ATOM      4  O   UNL A   1      42.924  18.808  26.248  1.00  0.00    -0.269 OA
ATOM      5  C   UNL A   1      42.009  19.619  26.362  1.00  0.00     0.251 C 
ATOM      6  H   UNL A   1      40.580  18.246  26.060  1.00  0.00     0.163 HD
BRANCH   5   7
ATOM      7  C   UNL A   1      42.306  21.035  26.673  1.00  0.00     0.039 A 
ATOM      8  C   UNL A   1      42.404  21.981  25.652  1.00  0.00     0.014 A 
ATOM      9  C   UNL A   1      42.516  21.415  28.001  1.00  0.00     0.014 A 
ATOM     10  C   UNL A   1      42.901  23.248  25.935  1.00  0.00     0.010 A 
ATOM     11  C   UNL A   1      42.922  22.722  28.294  1.00  0.00     0.010 A 
ATOM     12  C   UNL A   1      43.174  23.634  27.258  1.00  0.00    -0.014 A 
BRANCH  12  13
ATOM     13  C   UNL A   1      43.712  24.997  27.519  1.00  0.00     0.031 A 
ATOM     14  C   UNL A   1      45.147  25.342  27.209  1.00  0.00     0.074 A 
ATOM     15  C   UNL A   1      42.878  25.949  27.981  1.00  0.00     0.049 A 
ATOM     16  N   UNL A   1      45.752  26.500  27.304  1.00  0.00    -0.248 NA
ATOM     17  C   UNL A   1      46.019  24.252  26.743  1.00  0.00     0.031 C 
ATOM     18  C   UNL A   1      41.469  25.741  28.325  1.00  0.00     0.029 A 
ATOM     19  N   UNL A   1      43.079  27.287  28.206  1.00  0.00    -0.354 N 
ATOM     20  C   UNL A   1      47.075  26.274  26.941  1.00  0.00     0.074 A 
ATOM     21  C   UNL A   1      47.191  24.864  26.641  1.00  0.00     0.031 C 
ATOM     22  C   UNL A   1      40.916  26.919  28.649  1.00  0.00     0.029 A 
ATOM     23  C   UNL A   1      41.941  27.954  28.595  1.00  0.00     0.049 A 
ATOM     24  H   UNL A   1      43.953  27.728  28.099  1.00  0.00     0.167 HD
ATOM     25  C   UNL A   1      48.099  27.159  26.859  1.00  0.00     0.031 A 
ATOM     26  C   UNL A   1      41.739  29.255  28.876  1.00  0.00     0.031 A 
ATOM     27  C   UNL A   1      47.979  28.567  27.138  1.00  0.00     0.049 A 
ATOM     28  C   UNL A   1      42.887  30.216  28.769  1.00  0.00     0.074 A 
ATOM     29  C   UNL A   1      48.951  29.548  27.046  1.00  0.00     0.029 A 
ATOM     30  N   UNL A   1      46.817  29.195  27.560  1.00  0.00    -0.354 N 
ATOM     31  N   UNL A   1      44.123  29.982  28.398  1.00  0.00    -0.248 NA
ATOM     32  C   UNL A   1      42.611  31.615  29.118  1.00  0.00     0.031 C 
ATOM     33  C   UNL A   1      48.388  30.764  27.453  1.00  0.00     0.029 A 
ATOM     34  C   UNL A   1      47.053  30.547  27.751  1.00  0.00     0.049 A 
ATOM     35  H   UNL A   1      45.952  28.747  27.702  1.00  0.00     0.167 HD
ATOM     36  C   UNL A   1      44.769  31.211  28.452  1.00  0.00     0.074 A 
ATOM     37  C   UNL A   1      43.783  32.186  28.874  1.00  0.00     0.031 C 
ATOM     38  C   UNL A   1      46.064  31.504  28.177  1.00  0.00     0.031 A 
BRANCH  25  39
ATOM     39  C   UNL A   1      49.456  26.624  26.479  1.00  0.00    -0.014 A 
ATOM     40  C   UNL A   1      50.234  25.885  27.386  1.00  0.00     0.010 A 
ATOM     41  C   UNL A   1      49.940  26.831  25.173  1.00  0.00     0.010 A 
ATOM     42  C   UNL A   1      51.489  25.397  27.009  1.00  0.00     0.020 A 
ATOM     43  C   UNL A   1      51.184  26.326  24.785  1.00  0.00     0.020 A 
ATOM     44  C   UNL A   1      51.960  25.628  25.713  1.00  0.00     0.054 A 
BRANCH  44  45
ATOM     45  S   UNL A   1      53.587  24.976  25.243  1.00  0.00     0.124 S 
ATOM     46  O   UNL A   1      53.381  23.536  25.370  1.00  0.00    -0.237 OA
ATOM     47  O   UNL A   1      53.750  25.468  23.877  1.00  0.00    -0.237 OA
ATOM     48  O   UNL A   1      54.494  25.565  26.225  1.00  0.00    -0.744 OA
ENDBRANCH  44  45
ENDBRANCH  25  39
BRANCH  26  49
ATOM     49  C   UNL A   1      40.384  29.718  29.278  1.00  0.00    -0.014 A 
ATOM     50  C   UNL A   1      39.427  30.054  28.305  1.00  0.00     0.010 A 
ATOM     51  C   UNL A   1      40.035  29.792  30.638  1.00  0.00     0.010 A 
ATOM     52  C   UNL A   1      38.146  30.465  28.685  1.00  0.00     0.020 A 
ATOM     53  C   UNL A   1      38.748  30.176  31.022  1.00  0.00     0.020 A 
ATOM     54  C   UNL A   1      37.815  30.522  30.042  1.00  0.00     0.054 A 
BRANCH  54  55
ATOM     55  S   UNL A   1      36.129  30.995  30.516  1.00  0.00     0.124 S 
ATOM     56  O   UNL A   1      35.345  30.473  29.401  1.00  0.00    -0.237 OA
ATOM     57  O   UNL A   1      35.952  30.307  31.793  1.00  0.00    -0.237 OA
ATOM     58  O   UNL A   1      36.199  32.452  30.608  1.00  0.00    -0.744 OA
ENDBRANCH  54  55
ENDBRANCH  26  49
BRANCH  38  59
ATOM     59  C   UNL A   1      46.478  32.945  28.298  1.00  0.00    -0.014 A 
ATOM     60  C   UNL A   1      46.978  33.460  29.506  1.00  0.00     0.010 A 
ATOM     61  C   UNL A   1      46.383  33.789  27.177  1.00  0.00     0.010 A 
ATOM     62  C   UNL A   1      47.339  34.806  29.604  1.00  0.00     0.020 A 
ATOM     63  C   UNL A   1      46.766  35.130  27.263  1.00  0.00     0.020 A 
ATOM     64  C   UNL A   1      47.224  35.634  28.482  1.00  0.00     0.054 A 
BRANCH  64  65
ATOM     65  S   UNL A   1      47.717  37.375  28.623  1.00  0.00     0.124 S 
ATOM     66  O   UNL A   1      46.503  37.991  29.151  1.00  0.00    -0.237 OA
ATOM     67  O   UNL A   1      48.846  37.319  29.548  1.00  0.00    -0.237 OA
ATOM     68  O   UNL A   1      48.062  37.747  27.253  1.00  0.00    -0.744 OA
ENDBRANCH  64  65
ENDBRANCH  38  59
ENDBRANCH  12  13
ENDBRANCH   5   7
ENDBRANCH   2   3
ENDBRANCH   1   2
BRANCH   1  69
ATOM     69  C   UNL A   1      37.145  19.887  25.015  1.00  0.00     0.023 C 
BRANCH  69  70
ATOM     70  C   UNL A   1      36.686  21.326  25.219  1.00  0.00     0.116 C 
BRANCH  70  71
ATOM     71  N   UNL A   1      35.870  21.501  26.407  1.00  0.00    -0.352 N 
ATOM     72  C   UNL A   1      34.499  21.499  26.487  1.00  0.00     0.252 C 
ATOM     73  H   UNL A   1      36.355  21.639  27.252  1.00  0.00     0.163 HD
ATOM     74  O   UNL A   1      33.923  21.669  27.558  1.00  0.00    -0.269 OA
BRANCH  72  75
ATOM     75  C   UNL A   1      33.710  21.367  25.247  1.00  0.00     0.053 A 
ATOM     76  C   UNL A   1      33.217  20.083  24.973  1.00  0.00     0.015 A 
ATOM     77  C   UNL A   1      33.459  22.452  24.383  1.00  0.00     0.020 A 
ATOM     78  C   UNL A   1      32.434  19.870  23.844  1.00  0.00     0.001 A 
ATOM     79  C   UNL A   1      32.693  22.205  23.236  1.00  0.00     0.016 A 
ATOM     80  C   UNL A   1      32.168  20.930  22.981  1.00  0.00     0.001 A 
BRANCH  77  81
ATOM     81  S   UNL A   1      34.197  24.048  24.713  1.00  0.00    -0.122 SA
BRANCH  81  82
ATOM     82  C   UNL A   1      32.812  25.210  25.039  1.00  0.00     0.057 C 
ATOM     83  C   UNL A   1      31.665  24.692  25.905  1.00  0.00     0.043 C 
ATOM     84  C   UNL A   1      33.435  26.410  25.769  1.00  0.00     0.050 C 
ATOM     85  C   UNL A   1      30.659  25.821  26.113  1.00  0.00     0.162 C 
ATOM     86  C   UNL A   1      32.401  27.518  26.048  1.00  0.00     0.069 C 
ATOM     87  O   UNL A   1      31.253  26.966  26.713  1.00  0.00    -0.375 OA
ATOM     88  C   UNL A   1      32.010  28.238  24.736  1.00  0.00     0.035 C 
ATOM     89  C   UNL A   1      33.023  28.533  27.034  1.00  0.00     0.035 C 
ATOM     90  C   UNL A   1      31.153  29.480  24.964  1.00  0.00     0.003 C 
ATOM     91  C   UNL A   1      32.152  29.771  27.249  1.00  0.00     0.003 C 
ATOM     92  C   UNL A   1      31.824  30.452  25.926  1.00  0.00     0.000 C 
ENDBRANCH  81  82
ENDBRANCH  77  81
ENDBRANCH  72  75
ENDBRANCH  70  71
ENDBRANCH  69  70
ENDBRANCH   1  69
TORSDOF 16
ENDMDL
MODEL 3
REMARK VINA RESULT:     -10.9      1.401      8.785
REMARK SMILES O=C(NCCCCNC(=O)c1ccccc1S[C@H]1CCOC2(CCCCC2)C1)c1ccc(-c2c3nc(c(-c4ccc(S(=O)(=O)[O-])cc4)c4ccc([nH]4)c(-c4ccc(S(=O)(=O)[O-])cc4)c4nc(c(-c5ccc(S(=O)(=O)[O-])cc5)c5ccc2[nH]5)C=C4)C=C3)cc1
REMARK SMILES IDX 5 1 4 2 3 3 1 4 2 5 29 7 30 8 88 9 31 10 87 11 32 12 33 13
REMARK SMILES IDX 34 14 81 15 35 16 86 17 80 18 82 19 36 20 85 21 79 22 78 23
REMARK SMILES IDX 37 25 67 26 48 27 66 28 49 29 52 30 65 31 83 32 50 33 51 34
REMARK SMILES IDX 64 36 84 37 53 38 38 39 39 40 47 41 40 42 46 43 41 44 42 45
REMARK SMILES IDX 43 46 44 47 45 48 68 49 69 50 77 51 70 52 76 53 71 54 72 55
REMARK SMILES IDX 73 56 74 57 75 58 54 59 55 60 63 61 56 62 62 63 57 64 58 65
REMARK SMILES IDX 59 66 60 67 61 68 6 69 7 70 8 71 9 72 10 74 11 75 12 76
REMARK SMILES IDX 16 77 13 78 15 79 14 80 17 81 18 82 19 83 28 84 20 85 22 86
REMARK SMILES IDX 21 87 23 88 27 89 24 90 26 91 25 92
REMARK H PARENT 3 6 82 24 52 35 8 73
REMARK Flexibility Score: inf
ROOT
ATOM      1  C   UNL A   1      32.027  27.695  27.347  1.00  0.00     0.023 C 
ENDROOT
BRANCH   1   2
ATOM      2  C   UNL A   1      33.394  28.361  27.227  1.00  0.00     0.116 C 
BRANCH   2   3
ATOM      3  N   UNL A   1      33.358  29.792  27.498  1.00  0.00    -0.352 N 
ATOM      4  O   UNL A   1      34.062  31.774  28.312  1.00  0.00    -0.269 OA
ATOM      5  C   UNL A   1      34.333  30.613  28.016  1.00  0.00     0.251 C 
ATOM      6  H   UNL A   1      32.508  30.238  27.276  1.00  0.00     0.163 HD
BRANCH   5   7
ATOM      7  C   UNL A   1      35.695  30.085  28.253  1.00  0.00     0.039 A 
ATOM      8  C   UNL A   1      36.052  29.574  29.501  1.00  0.00     0.014 A 
ATOM      9  C   UNL A   1      36.636  30.129  27.221  1.00  0.00     0.014 A 
ATOM     10  C   UNL A   1      37.386  29.293  29.773  1.00  0.00     0.010 A 
ATOM     11  C   UNL A   1      37.960  29.751  27.470  1.00  0.00     0.010 A 
ATOM     12  C   UNL A   1      38.359  29.385  28.764  1.00  0.00    -0.014 A 
BRANCH  12  13
ATOM     13  C   UNL A   1      39.778  29.082  29.097  1.00  0.00     0.031 A 
ATOM     14  C   UNL A   1      40.411  27.772  28.701  1.00  0.00     0.074 A 
ATOM     15  C   UNL A   1      40.521  30.027  29.706  1.00  0.00     0.049 A 
ATOM     16  N   UNL A   1      41.653  27.382  28.845  1.00  0.00    -0.248 NA
ATOM     17  C   UNL A   1      39.541  26.765  28.072  1.00  0.00     0.031 C 
ATOM     18  C   UNL A   1      40.025  31.335  30.147  1.00  0.00     0.029 A 
ATOM     19  N   UNL A   1      41.853  30.053  30.029  1.00  0.00    -0.354 N 
ATOM     20  C   UNL A   1      41.707  26.082  28.355  1.00  0.00     0.074 A 
ATOM     21  C   UNL A   1      40.370  25.740  27.926  1.00  0.00     0.031 C 
ATOM     22  C   UNL A   1      41.051  32.060  30.616  1.00  0.00     0.029 A 
ATOM     23  C   UNL A   1      42.263  31.251  30.566  1.00  0.00     0.049 A 
ATOM     24  H   UNL A   1      42.458  29.289  29.889  1.00  0.00     0.167 HD
ATOM     25  C   UNL A   1      42.774  25.250  28.266  1.00  0.00     0.031 A 
ATOM     26  C   UNL A   1      43.480  31.660  30.974  1.00  0.00     0.031 A 
ATOM     27  C   UNL A   1      44.111  25.598  28.674  1.00  0.00     0.049 A 
ATOM     28  C   UNL A   1      44.646  30.722  30.856  1.00  0.00     0.074 A 
ATOM     29  C   UNL A   1      45.264  24.835  28.587  1.00  0.00     0.029 A 
ATOM     30  N   UNL A   1      44.477  26.808  29.243  1.00  0.00    -0.354 N 
ATOM     31  N   UNL A   1      44.678  29.507  30.365  1.00  0.00    -0.248 NA
ATOM     32  C   UNL A   1      45.940  31.214  31.346  1.00  0.00     0.031 C 
ATOM     33  C   UNL A   1      46.319  25.569  29.142  1.00  0.00     0.029 A 
ATOM     34  C   UNL A   1      45.832  26.807  29.530  1.00  0.00     0.049 A 
ATOM     35  H   UNL A   1      43.864  27.559  29.417  1.00  0.00     0.167 HD
ATOM     36  C   UNL A   1      46.000  29.093  30.472  1.00  0.00     0.074 A 
ATOM     37  C   UNL A   1      46.739  30.196  31.056  1.00  0.00     0.031 C 
ATOM     38  C   UNL A   1      46.552  27.907  30.117  1.00  0.00     0.031 A 
BRANCH  25  39
ATOM     39  C   UNL A   1      42.535  23.862  27.730  1.00  0.00    -0.014 A 
ATOM     40  C   UNL A   1      42.710  23.562  26.369  1.00  0.00     0.010 A 
ATOM     41  C   UNL A   1      42.168  22.831  28.617  1.00  0.00     0.010 A 
ATOM     42  C   UNL A   1      42.483  22.265  25.895  1.00  0.00     0.020 A 
ATOM     43  C   UNL A   1      41.962  21.529  28.151  1.00  0.00     0.020 A 
ATOM     44  C   UNL A   1      42.102  21.259  26.788  1.00  0.00     0.054 A 
BRANCH  44  45
ATOM     45  S   UNL A   1      41.824  19.582  26.152  1.00  0.00     0.124 S 
ATOM     46  O   UNL A   1      42.267  18.758  27.274  1.00  0.00    -0.237 OA
ATOM     47  O   UNL A   1      40.385  19.570  25.895  1.00  0.00    -0.237 OA
ATOM     48  O   UNL A   1      42.666  19.518  24.961  1.00  0.00    -0.744 OA
ENDBRANCH  44  45
ENDBRANCH  25  39
BRANCH  26  49
ATOM     49  C   UNL A   1      43.648  33.030  31.525  1.00  0.00    -0.014 A 
ATOM     50  C   UNL A   1      43.833  34.127  30.665  1.00  0.00     0.010 A 
ATOM     51  C   UNL A   1      43.590  33.249  32.913  1.00  0.00     0.010 A 
ATOM     52  C   UNL A   1      43.966  35.418  31.185  1.00  0.00     0.020 A 
ATOM     53  C   UNL A   1      43.696  34.540  33.435  1.00  0.00     0.020 A 
ATOM     54  C   UNL A   1      43.895  35.616  32.567  1.00  0.00     0.054 A 
BRANCH  54  55
ATOM     55  S   UNL A   1      44.004  37.305  33.220  1.00  0.00     0.124 S 
ATOM     56  O   UNL A   1      44.068  38.098  31.996  1.00  0.00    -0.237 OA
ATOM     57  O   UNL A   1      42.771  37.429  33.992  1.00  0.00    -0.237 OA
ATOM     58  O   UNL A   1      45.229  37.281  34.018  1.00  0.00    -0.744 OA
ENDBRANCH  54  55
ENDBRANCH  26  49
BRANCH  38  59
ATOM     59  C   UNL A   1      48.034  27.754  30.327  1.00  0.00    -0.014 A 
ATOM     60  C   UNL A   1      48.952  28.122  29.328  1.00  0.00     0.010 A 
ATOM     61  C   UNL A   1      48.513  27.256  31.552  1.00  0.00     0.010 A 
ATOM     62  C   UNL A   1      50.324  27.954  29.535  1.00  0.00     0.020 A 
ATOM     63  C   UNL A   1      49.884  27.110  31.772  1.00  0.00     0.020 A 
ATOM     64  C   UNL A   1      50.781  27.443  30.754  1.00  0.00     0.054 A 
BRANCH  64  65
ATOM     65  S   UNL A   1      52.566  27.252  31.012  1.00  0.00     0.124 S 
ATOM     66  O   UNL A   1      53.008  28.641  31.112  1.00  0.00    -0.237 OA
ATOM     67  O   UNL A   1      52.635  26.482  32.251  1.00  0.00    -0.237 OA
ATOM     68  O   UNL A   1      53.013  26.540  29.817  1.00  0.00    -0.744 OA
ENDBRANCH  64  65
ENDBRANCH  38  59
ENDBRANCH  12  13
ENDBRANCH   5   7
ENDBRANCH   2   3
ENDBRANCH   1   2
BRANCH   1  69
ATOM     69  C   UNL A   1      31.799  26.498  26.425  1.00  0.00     0.023 C 
BRANCH  69  70
ATOM     70  C   UNL A   1      32.952  25.504  26.359  1.00  0.00     0.116 C 
BRANCH  70  71
ATOM     71  N   UNL A   1      32.524  24.123  26.495  1.00  0.00    -0.352 N 
ATOM     72  C   UNL A   1      33.232  22.992  26.172  1.00  0.00     0.252 C 
ATOM     73  H   UNL A   1      31.621  23.982  26.859  1.00  0.00     0.163 HD
ATOM     74  O   UNL A   1      32.751  21.874  26.326  1.00  0.00    -0.269 OA
BRANCH  72  75
ATOM     75  C   UNL A   1      34.566  23.135  25.556  1.00  0.00     0.053 A 
ATOM     76  C   UNL A   1      35.622  23.393  26.443  1.00  0.00     0.015 A 
ATOM     77  C   UNL A   1      34.782  23.022  24.168  1.00  0.00     0.020 A 
ATOM     78  C   UNL A   1      36.920  23.509  25.958  1.00  0.00     0.001 A 
ATOM     79  C   UNL A   1      36.094  23.173  23.700  1.00  0.00     0.016 A 
ATOM     80  C   UNL A   1      37.155  23.393  24.590  1.00  0.00     0.001 A 
BRANCH  77  81
ATOM     81  S   UNL A   1      33.394  22.800  23.061  1.00  0.00    -0.122 SA
BRANCH  81  82
ATOM     82  C   UNL A   1      33.042  24.444  22.321  1.00  0.00     0.057 C 
ATOM     83  C   UNL A   1      32.738  24.476  20.824  1.00  0.00     0.043 C 
ATOM     84  C   UNL A   1      31.802  24.978  23.055  1.00  0.00     0.050 C 
ATOM     85  C   UNL A   1      32.409  25.912  20.422  1.00  0.00     0.162 C 
ATOM     86  C   UNL A   1      31.424  26.398  22.592  1.00  0.00     0.069 C 
ATOM     87  O   UNL A   1      31.312  26.438  21.160  1.00  0.00    -0.375 OA
ATOM     88  C   UNL A   1      32.450  27.430  23.115  1.00  0.00     0.035 C 
ATOM     89  C   UNL A   1      30.019  26.734  23.143  1.00  0.00     0.035 C 
ATOM     90  C   UNL A   1      32.024  28.876  22.874  1.00  0.00     0.003 C 
ATOM     91  C   UNL A   1      29.610  28.187  22.894  1.00  0.00     0.003 C 
ATOM     92  C   UNL A   1      30.643  29.155  23.455  1.00  0.00     0.000 C 
ENDBRANCH  81  82
ENDBRANCH  77  81
ENDBRANCH  72  75
ENDBRANCH  70  71
ENDBRANCH  69  70
ENDBRANCH   1  69
TORSDOF 16
ENDMDL
