MODEL 1
REMARK VINA RESULT:     -10.1      0.000      0.000
REMARK SMILES Cc1ccc(F)cc1NC(=O)c1nn(C)cc1C(=O)NCCCCNC(=O)c1ccc(-c2c3nc(c(-c4ccc(S(=O)(=O)[O-])cc4)c4ccc([nH]4)c(-c4ccc(S(=O)(=O)[O-])cc4)c4nc(c(-c5ccc(S(=O)(=O)[O-])cc5)c5ccc2[nH]5)C=C4)C=C3)cc1
REMARK SMILES IDX 23 1 22 2 21 3 20 4 18 5 19 6 17 8 12 9 13 10 14 11 16 12
REMARK SMILES IDX 15 13 10 14 9 15 11 17 8 18 1 19 2 20 3 21 4 22 7 23 5 24
REMARK SMILES IDX 6 25 24 26 25 27 26 28 27 30 28 31 29 32 87 33 30 34 86 35
REMARK SMILES IDX 31 36 32 37 33 38 80 39 34 40 85 41 79 42 81 43 35 44 84 45
REMARK SMILES IDX 78 46 77 47 36 49 66 50 47 51 65 52 48 53 51 54 64 55 82 56
REMARK SMILES IDX 49 57 50 58 63 60 83 61 52 62 37 63 38 64 46 65 39 66 45 67
REMARK SMILES IDX 40 68 41 69 42 70 43 71 44 72 67 73 68 74 76 75 69 76 75 77
REMARK SMILES IDX 70 78 71 79 72 80 73 81 74 82 53 83 54 84 62 85 55 86 61 87
REMARK SMILES IDX 56 88 57 89 58 90 59 91 60 92
REMARK H PARENT 20 7 9 16 25 29 81 48 51 59
REMARK Flexibility Score: inf
ROOT
ATOM      1  C   UNL A   1      33.512  33.583  28.374  1.00  0.00     0.023 C 
ENDROOT
BRANCH   1   2
ATOM      2  C   UNL A   1      34.127  34.729  29.168  1.00  0.00     0.023 C 
BRANCH   2   3
ATOM      3  C   UNL A   1      34.023  34.625  30.687  1.00  0.00     0.116 C 
BRANCH   3   4
ATOM      4  N   UNL A   1      34.407  33.332  31.227  1.00  0.00    -0.352 N 
ATOM      5  C   UNL A   1      35.630  32.783  31.533  1.00  0.00     0.255 C 
ATOM      6  O   UNL A   1      35.639  31.640  32.002  1.00  0.00    -0.269 OA
ATOM      7  H   UNL A   1      33.647  32.734  31.409  1.00  0.00     0.163 HD
BRANCH   5   8
ATOM      8  C   UNL A   1      36.871  33.490  31.268  1.00  0.00     0.090 A 
ATOM      9  C   UNL A   1      37.843  33.920  32.237  1.00  0.00     0.163 A 
ATOM     10  N   UNL A   1      38.913  34.483  31.636  1.00  0.00    -0.167 NA
ATOM     11  N   UNL A   1      38.618  34.448  30.335  1.00  0.00    -0.274 N 
ATOM     12  C   UNL A   1      37.371  33.977  30.073  1.00  0.00     0.123 A 
ATOM     13  C   UNL A   1      39.611  34.849  29.367  1.00  0.00     0.173 C 
BRANCH   9  14
ATOM     14  C   UNL A   1      37.795  33.833  33.702  1.00  0.00     0.277 C 
ATOM     15  N   UNL A   1      38.369  32.785  34.392  1.00  0.00    -0.320 N 
ATOM     16  H   UNL A   1      38.157  32.792  35.353  1.00  0.00     0.170 HD
ATOM     17  O   UNL A   1      37.219  34.695  34.374  1.00  0.00    -0.267 OA
BRANCH  15  18
ATOM     18  C   UNL A   1      39.193  31.709  34.014  1.00  0.00     0.047 A 
ATOM     19  C   UNL A   1      41.318  33.070  34.598  1.00  0.00     0.046 C 
ATOM     20  C   UNL A   1      40.593  31.817  34.176  1.00  0.00    -0.027 A 
ATOM     21  C   UNL A   1      41.407  30.694  33.915  1.00  0.00     0.008 A 
ATOM     22  C   UNL A   1      40.858  29.500  33.460  1.00  0.00     0.039 A 
ATOM     23  C   UNL A   1      38.673  30.531  33.468  1.00  0.00     0.065 A 
ATOM     24  C   UNL A   1      39.498  29.443  33.212  1.00  0.00     0.125 A 
ATOM     25  F   UNL A   1      38.963  28.316  32.722  1.00  0.00    -0.207 F 
ENDBRANCH  15  18
ENDBRANCH   9  14
ENDBRANCH   5   8
ENDBRANCH   3   4
ENDBRANCH   2   3
ENDBRANCH   1   2
BRANCH   1  26
ATOM     26  C   UNL A   1      34.481  32.499  27.921  1.00  0.00     0.116 C 
BRANCH  26  27
ATOM     27  N   UNL A   1      33.851  31.206  27.680  1.00  0.00    -0.352 N 
ATOM     28  C   UNL A   1      34.416  29.952  27.765  1.00  0.00     0.251 C 
ATOM     29  H   UNL A   1      32.901  31.233  27.422  1.00  0.00     0.163 HD
ATOM     30  O   UNL A   1      33.771  28.955  27.459  1.00  0.00    -0.269 OA
BRANCH  28  31
ATOM     31  C   UNL A   1      35.826  29.834  28.191  1.00  0.00     0.039 A 
ATOM     32  C   UNL A   1      36.112  29.427  29.496  1.00  0.00     0.014 A 
ATOM     33  C   UNL A   1      36.853  30.037  27.267  1.00  0.00     0.014 A 
ATOM     34  C   UNL A   1      37.431  29.132  29.851  1.00  0.00     0.010 A 
ATOM     35  C   UNL A   1      38.151  29.670  27.601  1.00  0.00     0.010 A 
ATOM     36  C   UNL A   1      38.453  29.203  28.891  1.00  0.00    -0.014 A 
BRANCH  36  37
ATOM     37  C   UNL A   1      39.854  28.805  29.190  1.00  0.00     0.031 A 
ATOM     38  C   UNL A   1      40.814  29.837  29.716  1.00  0.00     0.074 A 
ATOM     39  C   UNL A   1      40.290  27.568  28.874  1.00  0.00     0.049 A 
ATOM     40  N   UNL A   1      42.112  29.765  29.845  1.00  0.00    -0.248 NA
ATOM     41  C   UNL A   1      40.243  31.136  30.111  1.00  0.00     0.031 C 
ATOM     42  C   UNL A   1      39.467  26.485  28.326  1.00  0.00     0.029 A 
ATOM     43  N   UNL A   1      41.549  27.020  28.940  1.00  0.00    -0.354 N 
ATOM     44  C   UNL A   1      42.517  31.018  30.289  1.00  0.00     0.074 A 
ATOM     45  C   UNL A   1      41.331  31.840  30.383  1.00  0.00     0.031 C 
ATOM     46  C   UNL A   1      40.241  25.407  28.111  1.00  0.00     0.029 A 
ATOM     47  C   UNL A   1      41.621  25.733  28.455  1.00  0.00     0.049 A 
ATOM     48  H   UNL A   1      42.327  27.503  29.301  1.00  0.00     0.167 HD
ATOM     49  C   UNL A   1      43.764  31.442  30.598  1.00  0.00     0.031 A 
ATOM     50  C   UNL A   1      42.682  24.919  28.282  1.00  0.00     0.031 A 
ATOM     51  C   UNL A   1      44.931  30.605  30.554  1.00  0.00     0.049 A 
ATOM     52  C   UNL A   1      44.055  25.412  28.657  1.00  0.00     0.074 A 
ATOM     53  C   UNL A   1      46.224  30.921  30.930  1.00  0.00     0.029 A 
ATOM     54  N   UNL A   1      44.947  29.291  30.118  1.00  0.00    -0.354 N 
ATOM     55  N   UNL A   1      44.407  26.581  29.137  1.00  0.00    -0.248 NA
ATOM     56  C   UNL A   1      45.175  24.476  28.474  1.00  0.00     0.031 C 
ATOM     57  C   UNL A   1      47.033  29.810  30.681  1.00  0.00     0.029 A 
ATOM     58  C   UNL A   1      46.232  28.786  30.202  1.00  0.00     0.049 A 
ATOM     59  H   UNL A   1      44.162  28.792  29.797  1.00  0.00     0.167 HD
ATOM     60  C   UNL A   1      45.779  26.504  29.353  1.00  0.00     0.074 A 
ATOM     61  C   UNL A   1      46.194  25.176  28.954  1.00  0.00     0.031 C 
ATOM     62  C   UNL A   1      46.619  27.448  29.838  1.00  0.00     0.031 A 
BRANCH  49  63
ATOM     63  C   UNL A   1      43.941  32.875  31.018  1.00  0.00    -0.014 A 
ATOM     64  C   UNL A   1      43.887  33.920  30.080  1.00  0.00     0.010 A 
ATOM     65  C   UNL A   1      44.073  33.185  32.384  1.00  0.00     0.010 A 
ATOM     66  C   UNL A   1      43.979  35.250  30.499  1.00  0.00     0.020 A 
ATOM     67  C   UNL A   1      44.140  34.514  32.810  1.00  0.00     0.020 A 
ATOM     68  C   UNL A   1      44.100  35.538  31.862  1.00  0.00     0.054 A 
BRANCH  68  69
ATOM     69  S   UNL A   1      44.149  37.275  32.381  1.00  0.00     0.124 S 
ATOM     70  O   UNL A   1      43.880  37.972  31.126  1.00  0.00    -0.237 OA
ATOM     71  O   UNL A   1      43.082  37.342  33.377  1.00  0.00    -0.237 OA
ATOM     72  O   UNL A   1      45.501  37.443  32.909  1.00  0.00    -0.744 OA
ENDBRANCH  68  69
ENDBRANCH  49  63
BRANCH  50  73
ATOM     73  C   UNL A   1      42.504  23.554  27.711  1.00  0.00    -0.014 A 
ATOM     74  C   UNL A   1      42.240  22.457  28.551  1.00  0.00     0.010 A 
ATOM     75  C   UNL A   1      42.639  23.336  26.328  1.00  0.00     0.010 A 
ATOM     76  C   UNL A   1      42.158  21.164  28.025  1.00  0.00     0.020 A 
ATOM     77  C   UNL A   1      42.528  22.049  25.794  1.00  0.00     0.020 A 
ATOM     78  C   UNL A   1      42.311  20.968  26.650  1.00  0.00     0.054 A 
BRANCH  78  79
ATOM     79  S   UNL A   1      42.199  19.282  25.985  1.00  0.00     0.124 S 
ATOM     80  O   UNL A   1      40.771  19.162  25.707  1.00  0.00    -0.237 OA
ATOM     81  O   UNL A   1      43.070  19.344  24.813  1.00  0.00    -0.237 OA
ATOM     82  O   UNL A   1      42.697  18.451  27.079  1.00  0.00    -0.744 OA
ENDBRANCH  78  79
ENDBRANCH  50  73
BRANCH  62  83
ATOM     83  C   UNL A   1      48.061  27.074  30.045  1.00  0.00    -0.014 A 
ATOM     84  C   UNL A   1      49.038  27.367  29.077  1.00  0.00     0.010 A 
ATOM     85  C   UNL A   1      48.455  26.521  31.277  1.00  0.00     0.010 A 
ATOM     86  C   UNL A   1      50.386  27.106  29.339  1.00  0.00     0.020 A 
ATOM     87  C   UNL A   1      49.803  26.283  31.552  1.00  0.00     0.020 A 
ATOM     88  C   UNL A   1      50.760  26.573  30.577  1.00  0.00     0.054 A 
BRANCH  88  89
ATOM     89  S   UNL A   1      52.523  26.328  30.927  1.00  0.00     0.124 S 
ATOM     90  O   UNL A   1      52.506  25.114  31.738  1.00  0.00    -0.237 OA
ATOM     91  O   UNL A   1      53.098  26.184  29.592  1.00  0.00    -0.237 OA
ATOM     92  O   UNL A   1      52.908  27.547  31.635  1.00  0.00    -0.744 OA
ENDBRANCH  88  89
ENDBRANCH  62  83
ENDBRANCH  36  37
ENDBRANCH  28  31
ENDBRANCH  26  27
ENDBRANCH   1  26
TORSDOF 16
ENDMDL
MODEL 2
REMARK VINA RESULT:      -9.4      4.542      7.605
REMARK SMILES Cc1ccc(F)cc1NC(=O)c1nn(C)cc1C(=O)NCCCCNC(=O)c1ccc(-c2c3nc(c(-c4ccc(S(=O)(=O)[O-])cc4)c4ccc([nH]4)c(-c4ccc(S(=O)(=O)[O-])cc4)c4nc(c(-c5ccc(S(=O)(=O)[O-])cc5)c5ccc2[nH]5)C=C4)C=C3)cc1
REMARK SMILES IDX 23 1 22 2 21 3 20 4 18 5 19 6 17 8 12 9 13 10 14 11 16 12
REMARK SMILES IDX 15 13 10 14 9 15 11 17 8 18 1 19 2 20 3 21 4 22 7 23 5 24
REMARK SMILES IDX 6 25 24 26 25 27 26 28 27 30 28 31 29 32 87 33 30 34 86 35
REMARK SMILES IDX 31 36 32 37 33 38 80 39 34 40 85 41 79 42 81 43 35 44 84 45
REMARK SMILES IDX 78 46 77 47 36 49 66 50 47 51 65 52 48 53 51 54 64 55 82 56
REMARK SMILES IDX 49 57 50 58 63 60 83 61 52 62 37 63 38 64 46 65 39 66 45 67
REMARK SMILES IDX 40 68 41 69 42 70 43 71 44 72 67 73 68 74 76 75 69 76 75 77
REMARK SMILES IDX 70 78 71 79 72 80 73 81 74 82 53 83 54 84 62 85 55 86 61 87
REMARK SMILES IDX 56 88 57 89 58 90 59 91 60 92
REMARK H PARENT 20 7 9 16 25 29 81 48 51 59
REMARK Flexibility Score: inf
ROOT
ATOM      1  C   UNL A   1      33.490  28.810  26.832  1.00  0.00     0.023 C 
ENDROOT
BRANCH   1   2
ATOM      2  C   UNL A   1      33.355  28.406  25.369  1.00  0.00     0.023 C 
BRANCH   2   3
ATOM      3  C   UNL A   1      33.733  26.967  25.032  1.00  0.00     0.116 C 
BRANCH   3   4
ATOM      4  N   UNL A   1      33.703  26.656  23.613  1.00  0.00    -0.352 N 
ATOM      5  C   UNL A   1      33.899  25.487  22.918  1.00  0.00     0.255 C 
ATOM      6  O   UNL A   1      33.793  25.532  21.688  1.00  0.00    -0.269 OA
ATOM      7  H   UNL A   1      33.503  27.431  23.040  1.00  0.00     0.163 HD
BRANCH   5   8
ATOM      8  C   UNL A   1      34.273  24.253  23.589  1.00  0.00     0.090 A 
ATOM      9  C   UNL A   1      33.614  22.979  23.481  1.00  0.00     0.163 A 
ATOM     10  N   UNL A   1      34.270  22.031  24.184  1.00  0.00    -0.167 NA
ATOM     11  N   UNL A   1      35.287  22.684  24.750  1.00  0.00    -0.274 N 
ATOM     12  C   UNL A   1      35.266  24.024  24.525  1.00  0.00     0.123 A 
ATOM     13  C   UNL A   1      36.292  21.946  25.477  1.00  0.00     0.173 C 
BRANCH   9  14
ATOM     14  C   UNL A   1      32.389  22.626  22.753  1.00  0.00     0.277 C 
ATOM     15  N   UNL A   1      31.160  23.158  23.088  1.00  0.00    -0.320 N 
ATOM     16  H   UNL A   1      30.412  22.744  22.600  1.00  0.00     0.170 HD
ATOM     17  O   UNL A   1      32.411  21.821  21.816  1.00  0.00    -0.267 OA
BRANCH  15  18
ATOM     18  C   UNL A   1      30.748  24.165  23.981  1.00  0.00     0.047 A 
ATOM     19  C   UNL A   1      31.011  22.554  25.992  1.00  0.00     0.046 C 
ATOM     20  C   UNL A   1      30.743  23.900  25.369  1.00  0.00    -0.027 A 
ATOM     21  C   UNL A   1      30.452  24.948  26.270  1.00  0.00     0.008 A 
ATOM     22  C   UNL A   1      30.128  26.220  25.811  1.00  0.00     0.039 A 
ATOM     23  C   UNL A   1      30.330  25.424  23.539  1.00  0.00     0.065 A 
ATOM     24  C   UNL A   1      30.040  26.435  24.448  1.00  0.00     0.125 A 
ATOM     25  F   UNL A   1      29.675  27.640  23.991  1.00  0.00    -0.207 F 
ENDBRANCH  15  18
ENDBRANCH   9  14
ENDBRANCH   5   8
ENDBRANCH   3   4
ENDBRANCH   2   3
ENDBRANCH   1   2
BRANCH   1  26
ATOM     26  C   UNL A   1      34.904  29.125  27.303  1.00  0.00     0.116 C 
BRANCH  26  27
ATOM     27  N   UNL A   1      34.960  30.030  28.445  1.00  0.00    -0.352 N 
ATOM     28  C   UNL A   1      36.031  30.302  29.267  1.00  0.00     0.251 C 
ATOM     29  H   UNL A   1      34.124  30.506  28.656  1.00  0.00     0.163 HD
ATOM     30  O   UNL A   1      35.901  31.038  30.239  1.00  0.00    -0.269 OA
BRANCH  28  31
ATOM     31  C   UNL A   1      37.329  29.656  28.981  1.00  0.00     0.039 A 
ATOM     32  C   UNL A   1      37.858  29.731  27.690  1.00  0.00     0.014 A 
ATOM     33  C   UNL A   1      38.057  29.063  30.014  1.00  0.00     0.014 A 
ATOM     34  C   UNL A   1      39.163  29.291  27.455  1.00  0.00     0.010 A 
ATOM     35  C   UNL A   1      39.379  28.697  29.793  1.00  0.00     0.010 A 
ATOM     36  C   UNL A   1      39.951  28.817  28.516  1.00  0.00    -0.014 A 
BRANCH  36  37
ATOM     37  C   UNL A   1      41.375  28.431  28.338  1.00  0.00     0.031 A 
ATOM     38  C   UNL A   1      42.431  29.504  28.324  1.00  0.00     0.074 A 
ATOM     39  C   UNL A   1      41.702  27.150  28.067  1.00  0.00     0.049 A 
ATOM     40  N   UNL A   1      43.688  29.417  27.981  1.00  0.00    -0.248 NA
ATOM     41  C   UNL A   1      42.004  30.860  28.709  1.00  0.00     0.031 C 
ATOM     42  C   UNL A   1      40.769  26.021  28.019  1.00  0.00     0.029 A 
ATOM     43  N   UNL A   1      42.914  26.586  27.749  1.00  0.00    -0.354 N 
ATOM     44  C   UNL A   1      44.190  30.711  28.062  1.00  0.00     0.074 A 
ATOM     45  C   UNL A   1      43.096  31.568  28.462  1.00  0.00     0.031 C 
ATOM     46  C   UNL A   1      41.442  24.904  27.694  1.00  0.00     0.029 A 
ATOM     47  C   UNL A   1      42.843  25.241  27.461  1.00  0.00     0.049 A 
ATOM     48  H   UNL A   1      43.756  27.096  27.729  1.00  0.00     0.167 HD
ATOM     49  C   UNL A   1      45.451  31.143  27.832  1.00  0.00     0.031 A 
ATOM     50  C   UNL A   1      43.792  24.383  27.034  1.00  0.00     0.031 A 
ATOM     51  C   UNL A   1      46.546  30.279  27.487  1.00  0.00     0.049 A 
ATOM     52  C   UNL A   1      45.193  24.890  26.808  1.00  0.00     0.074 A 
ATOM     53  C   UNL A   1      47.878  30.613  27.317  1.00  0.00     0.029 A 
ATOM     54  N   UNL A   1      46.441  28.915  27.270  1.00  0.00    -0.354 N 
ATOM     55  N   UNL A   1      45.660  26.107  26.954  1.00  0.00    -0.248 NA
ATOM     56  C   UNL A   1      46.196  23.909  26.367  1.00  0.00     0.031 C 
ATOM     57  C   UNL A   1      48.572  29.457  26.954  1.00  0.00     0.029 A 
ATOM     58  C   UNL A   1      47.682  28.396  26.951  1.00  0.00     0.049 A 
ATOM     59  H   UNL A   1      45.607  28.395  27.332  1.00  0.00     0.167 HD
ATOM     60  C   UNL A   1      47.018  26.027  26.664  1.00  0.00     0.074 A 
ATOM     61  C   UNL A   1      47.299  24.645  26.337  1.00  0.00     0.031 C 
ATOM     62  C   UNL A   1      47.949  27.010  26.669  1.00  0.00     0.031 A 
BRANCH  49  63
ATOM     63  C   UNL A   1      45.727  32.617  27.947  1.00  0.00    -0.014 A 
ATOM     64  C   UNL A   1      46.183  33.179  29.152  1.00  0.00     0.010 A 
ATOM     65  C   UNL A   1      45.614  33.434  26.807  1.00  0.00     0.010 A 
ATOM     66  C   UNL A   1      46.504  34.537  29.219  1.00  0.00     0.020 A 
ATOM     67  C   UNL A   1      45.959  34.787  26.863  1.00  0.00     0.020 A 
ATOM     68  C   UNL A   1      46.395  35.331  28.072  1.00  0.00     0.054 A 
BRANCH  68  69
ATOM     69  S   UNL A   1      46.886  37.074  28.173  1.00  0.00     0.124 S 
ATOM     70  O   UNL A   1      46.326  37.616  26.938  1.00  0.00    -0.237 OA
ATOM     71  O   UNL A   1      46.236  37.518  29.404  1.00  0.00    -0.237 OA
ATOM     72  O   UNL A   1      48.345  37.023  28.226  1.00  0.00    -0.744 OA
ENDBRANCH  68  69
ENDBRANCH  49  63
BRANCH  50  73
ATOM     73  C   UNL A   1      43.458  22.955  26.770  1.00  0.00    -0.014 A 
ATOM     74  C   UNL A   1      43.085  22.102  27.824  1.00  0.00     0.010 A 
ATOM     75  C   UNL A   1      43.552  22.430  25.468  1.00  0.00     0.010 A 
ATOM     76  C   UNL A   1      42.856  20.742  27.589  1.00  0.00     0.020 A 
ATOM     77  C   UNL A   1      43.295  21.077  25.225  1.00  0.00     0.020 A 
ATOM     78  C   UNL A   1      42.970  20.237  26.291  1.00  0.00     0.054 A 
BRANCH  78  79
ATOM     79  S   UNL A   1      42.666  18.471  26.006  1.00  0.00     0.124 S 
ATOM     80  O   UNL A   1      41.253  18.464  25.640  1.00  0.00    -0.237 OA
ATOM     81  O   UNL A   1      43.601  18.157  24.928  1.00  0.00    -0.237 OA
ATOM     82  O   UNL A   1      42.983  17.859  27.294  1.00  0.00    -0.744 OA
ENDBRANCH  78  79
ENDBRANCH  50  73
BRANCH  62  83
ATOM     83  C   UNL A   1      49.378  26.633  26.388  1.00  0.00    -0.014 A 
ATOM     84  C   UNL A   1      50.152  25.944  27.337  1.00  0.00     0.010 A 
ATOM     85  C   UNL A   1      49.912  26.876  25.109  1.00  0.00     0.010 A 
ATOM     86  C   UNL A   1      51.441  25.511  27.012  1.00  0.00     0.020 A 
ATOM     87  C   UNL A   1      51.188  26.423  24.772  1.00  0.00     0.020 A 
ATOM     88  C   UNL A   1      51.947  25.747  25.730  1.00  0.00     0.054 A 
BRANCH  88  89
ATOM     89  S   UNL A   1      53.586  25.096  25.303  1.00  0.00     0.124 S 
ATOM     90  O   UNL A   1      53.773  25.607  23.949  1.00  0.00    -0.237 OA
ATOM     91  O   UNL A   1      54.443  25.692  26.325  1.00  0.00    -0.237 OA
ATOM     92  O   UNL A   1      53.421  23.647  25.406  1.00  0.00    -0.744 OA
ENDBRANCH  88  89
ENDBRANCH  62  83
ENDBRANCH  36  37
ENDBRANCH  28  31
ENDBRANCH  26  27
ENDBRANCH   1  26
TORSDOF 16
ENDMDL
MODEL 3
REMARK VINA RESULT:      -9.3      3.640      6.636
REMARK SMILES Cc1ccc(F)cc1NC(=O)c1nn(C)cc1C(=O)NCCCCNC(=O)c1ccc(-c2c3nc(c(-c4ccc(S(=O)(=O)[O-])cc4)c4ccc([nH]4)c(-c4ccc(S(=O)(=O)[O-])cc4)c4nc(c(-c5ccc(S(=O)(=O)[O-])cc5)c5ccc2[nH]5)C=C4)C=C3)cc1
REMARK SMILES IDX 23 1 22 2 21 3 20 4 18 5 19 6 17 8 12 9 13 10 14 11 16 12
REMARK SMILES IDX 15 13 10 14 9 15 11 17 8 18 1 19 2 20 3 21 4 22 7 23 5 24
REMARK SMILES IDX 6 25 24 26 25 27 26 28 27 30 28 31 29 32 87 33 30 34 86 35
REMARK SMILES IDX 31 36 32 37 33 38 80 39 34 40 85 41 79 42 81 43 35 44 84 45
REMARK SMILES IDX 78 46 77 47 36 49 66 50 47 51 65 52 48 53 51 54 64 55 82 56
REMARK SMILES IDX 49 57 50 58 63 60 83 61 52 62 37 63 38 64 46 65 39 66 45 67
REMARK SMILES IDX 40 68 41 69 42 70 43 71 44 72 67 73 68 74 76 75 69 76 75 77
REMARK SMILES IDX 70 78 71 79 72 80 73 81 74 82 53 83 54 84 62 85 55 86 61 87
REMARK SMILES IDX 56 88 57 89 58 90 59 91 60 92
REMARK H PARENT 20 7 9 16 25 29 81 48 51 59
REMARK Flexibility Score: inf
ROOT
ATOM      1  C   UNL A   1      31.994  28.104  27.479  1.00  0.00     0.023 C 
ENDROOT
BRANCH   1   2
ATOM      2  C   UNL A   1      31.795  26.741  26.828  1.00  0.00     0.023 C 
BRANCH   2   3
ATOM      3  C   UNL A   1      30.622  26.625  25.859  1.00  0.00     0.116 C 
BRANCH   3   4
ATOM      4  N   UNL A   1      30.561  25.364  25.139  1.00  0.00    -0.352 N 
ATOM      5  C   UNL A   1      31.269  24.875  24.067  1.00  0.00     0.255 C 
ATOM      6  O   UNL A   1      30.995  23.735  23.678  1.00  0.00    -0.269 OA
ATOM      7  H   UNL A   1      29.884  24.740  25.487  1.00  0.00     0.163 HD
BRANCH   5   8
ATOM      8  C   UNL A   1      32.262  25.680  23.378  1.00  0.00     0.090 A 
ATOM      9  C   UNL A   1      33.180  25.236  22.363  1.00  0.00     0.163 A 
ATOM     10  N   UNL A   1      33.913  26.264  21.886  1.00  0.00    -0.167 NA
ATOM     11  N   UNL A   1      33.506  27.318  22.596  1.00  0.00    -0.274 N 
ATOM     12  C   UNL A   1      32.614  27.004  23.573  1.00  0.00     0.123 A 
ATOM     13  C   UNL A   1      33.986  28.636  22.256  1.00  0.00     0.173 C 
BRANCH   9  14
ATOM     14  C   UNL A   1      33.399  23.882  21.838  1.00  0.00     0.277 C 
ATOM     15  N   UNL A   1      34.024  22.902  22.581  1.00  0.00    -0.320 N 
ATOM     16  H   UNL A   1      34.212  22.085  22.065  1.00  0.00     0.170 HD
ATOM     17  O   UNL A   1      33.042  23.574  20.696  1.00  0.00    -0.267 OA
BRANCH  15  18
ATOM     18  C   UNL A   1      34.452  22.822  23.920  1.00  0.00     0.047 A 
ATOM     19  C   UNL A   1      32.759  20.920  24.395  1.00  0.00     0.046 C 
ATOM     20  C   UNL A   1      33.900  21.833  24.766  1.00  0.00    -0.027 A 
ATOM     21  C   UNL A   1      34.419  21.672  26.069  1.00  0.00     0.008 A 
ATOM     22  C   UNL A   1      35.430  22.498  26.546  1.00  0.00     0.039 A 
ATOM     23  C   UNL A   1      35.403  23.700  24.450  1.00  0.00     0.065 A 
ATOM     24  C   UNL A   1      35.889  23.524  25.740  1.00  0.00     0.125 A 
ATOM     25  F   UNL A   1      36.825  24.362  26.206  1.00  0.00    -0.207 F 
ENDBRANCH  15  18
ENDBRANCH   9  14
ENDBRANCH   5   8
ENDBRANCH   3   4
ENDBRANCH   2   3
ENDBRANCH   1   2
BRANCH   1  26
ATOM     26  C   UNL A   1      33.385  28.708  27.333  1.00  0.00     0.116 C 
BRANCH  26  27
ATOM     27  N   UNL A   1      33.444  30.135  27.628  1.00  0.00    -0.352 N 
ATOM     28  C   UNL A   1      34.513  30.866  28.097  1.00  0.00     0.251 C 
ATOM     29  H   UNL A   1      32.613  30.640  27.472  1.00  0.00     0.163 HD
ATOM     30  O   UNL A   1      34.386  32.056  28.367  1.00  0.00    -0.269 OA
BRANCH  28  31
ATOM     31  C   UNL A   1      35.805  30.181  28.311  1.00  0.00     0.039 A 
ATOM     32  C   UNL A   1      36.746  30.162  27.279  1.00  0.00     0.014 A 
ATOM     33  C   UNL A   1      36.111  29.644  29.563  1.00  0.00     0.014 A 
ATOM     34  C   UNL A   1      38.035  29.685  27.532  1.00  0.00     0.010 A 
ATOM     35  C   UNL A   1      37.414  29.241  29.831  1.00  0.00     0.010 A 
ATOM     36  C   UNL A   1      38.393  29.268  28.823  1.00  0.00    -0.014 A 
BRANCH  36  37
ATOM     37  C   UNL A   1      39.776  28.846  29.168  1.00  0.00     0.031 A 
ATOM     38  C   UNL A   1      40.733  29.860  29.735  1.00  0.00     0.074 A 
ATOM     39  C   UNL A   1      40.204  27.605  28.859  1.00  0.00     0.049 A 
ATOM     40  N   UNL A   1      42.024  29.766  29.910  1.00  0.00    -0.248 NA
ATOM     41  C   UNL A   1      40.167  31.164  30.120  1.00  0.00     0.031 C 
ATOM     42  C   UNL A   1      39.384  26.538  28.274  1.00  0.00     0.029 A 
ATOM     43  N   UNL A   1      41.451  27.037  28.965  1.00  0.00    -0.354 N 
ATOM     44  C   UNL A   1      42.432  31.010  30.377  1.00  0.00     0.074 A 
ATOM     45  C   UNL A   1      41.256  31.849  30.435  1.00  0.00     0.031 C 
ATOM     46  C   UNL A   1      40.148  25.450  28.078  1.00  0.00     0.029 A 
ATOM     47  C   UNL A   1      41.521  25.752  28.473  1.00  0.00     0.049 A 
ATOM     48  H   UNL A   1      42.223  27.505  29.357  1.00  0.00     0.167 HD
ATOM     49  C   UNL A   1      43.673  31.413  30.733  1.00  0.00     0.031 A 
ATOM     50  C   UNL A   1      42.574  24.923  28.332  1.00  0.00     0.031 A 
ATOM     51  C   UNL A   1      44.829  30.558  30.724  1.00  0.00     0.049 A 
ATOM     52  C   UNL A   1      43.941  25.392  28.759  1.00  0.00     0.074 A 
ATOM     53  C   UNL A   1      46.112  30.851  31.148  1.00  0.00     0.029 A 
ATOM     54  N   UNL A   1      44.839  29.246  30.279  1.00  0.00    -0.354 N 
ATOM     55  N   UNL A   1      44.293  26.552  29.260  1.00  0.00    -0.248 NA
ATOM     56  C   UNL A   1      45.052  24.440  28.608  1.00  0.00     0.031 C 
ATOM     57  C   UNL A   1      46.912  29.729  30.919  1.00  0.00     0.029 A 
ATOM     58  C   UNL A   1      46.113  28.721  30.404  1.00  0.00     0.049 A 
ATOM     59  H   UNL A   1      44.058  28.762  29.927  1.00  0.00     0.167 HD
ATOM     60  C   UNL A   1      45.656  26.452  29.523  1.00  0.00     0.074 A 
ATOM     61  C   UNL A   1      46.064  25.120  29.129  1.00  0.00     0.031 C 
ATOM     62  C   UNL A   1      46.492  27.380  30.044  1.00  0.00     0.031 A 
BRANCH  49  63
ATOM     63  C   UNL A   1      43.857  32.840  31.170  1.00  0.00    -0.014 A 
ATOM     64  C   UNL A   1      43.947  33.881  30.231  1.00  0.00     0.010 A 
ATOM     65  C   UNL A   1      43.848  33.150  32.542  1.00  0.00     0.010 A 
ATOM     66  C   UNL A   1      44.044  35.209  30.657  1.00  0.00     0.020 A 
ATOM     67  C   UNL A   1      43.919  34.478  32.972  1.00  0.00     0.020 A 
ATOM     68  C   UNL A   1      44.023  35.498  32.025  1.00  0.00     0.054 A 
BRANCH  68  69
ATOM     69  S   UNL A   1      44.080  37.235  32.546  1.00  0.00     0.124 S 
ATOM     70  O   UNL A   1      45.443  37.351  33.058  1.00  0.00    -0.237 OA
ATOM     71  O   UNL A   1      43.815  37.951  31.300  1.00  0.00    -0.237 OA
ATOM     72  O   UNL A   1      43.026  37.331  33.553  1.00  0.00    -0.744 OA
ENDBRANCH  68  69
ENDBRANCH  49  63
BRANCH  50  73
ATOM     73  C   UNL A   1      42.396  23.565  27.745  1.00  0.00    -0.014 A 
ATOM     74  C   UNL A   1      42.113  22.461  28.570  1.00  0.00     0.010 A 
ATOM     75  C   UNL A   1      42.549  23.360  26.362  1.00  0.00     0.010 A 
ATOM     76  C   UNL A   1      42.031  21.174  28.030  1.00  0.00     0.020 A 
ATOM     77  C   UNL A   1      42.437  22.079  25.814  1.00  0.00     0.020 A 
ATOM     78  C   UNL A   1      42.202  20.990  26.655  1.00  0.00     0.054 A 
BRANCH  78  79
ATOM     79  S   UNL A   1      42.088  19.312  25.972  1.00  0.00     0.124 S 
ATOM     80  O   UNL A   1      42.585  18.502  27.080  1.00  0.00    -0.237 OA
ATOM     81  O   UNL A   1      40.662  19.183  25.682  1.00  0.00    -0.237 OA
ATOM     82  O   UNL A   1      42.954  19.365  24.796  1.00  0.00    -0.744 OA
ENDBRANCH  78  79
ENDBRANCH  50  73
BRANCH  62  83
ATOM     83  C   UNL A   1      47.920  26.982  30.299  1.00  0.00    -0.014 A 
ATOM     84  C   UNL A   1      48.916  27.172  29.325  1.00  0.00     0.010 A 
ATOM     85  C   UNL A   1      48.284  26.515  31.576  1.00  0.00     0.010 A 
ATOM     86  C   UNL A   1      50.253  26.893  29.625  1.00  0.00     0.020 A 
ATOM     87  C   UNL A   1      49.620  26.260  31.886  1.00  0.00     0.020 A 
ATOM     88  C   UNL A   1      50.597  26.447  30.905  1.00  0.00     0.054 A 
BRANCH  88  89
ATOM     89  S   UNL A   1      52.348  26.180  31.297  1.00  0.00     0.124 S 
ATOM     90  O   UNL A   1      52.320  24.867  31.934  1.00  0.00    -0.237 OA
ATOM     91  O   UNL A   1      52.981  26.227  29.982  1.00  0.00    -0.237 OA
ATOM     92  O   UNL A   1      52.679  27.296  32.181  1.00  0.00    -0.744 OA
ENDBRANCH  88  89
ENDBRANCH  62  83
ENDBRANCH  36  37
ENDBRANCH  28  31
ENDBRANCH  26  27
ENDBRANCH   1  26
TORSDOF 16
ENDMDL
