MODEL 1
REMARK VINA RESULT:      -8.7      0.000      0.000
REMARK SMILES CCN(CCC(=O)NCCCCNC(=O)c1ccc(-c2c3nc(c(-c4ccc(S(=O)(=O)[O-])cc4)c4ccc([nH]4)c(-c4ccc(S(=O)(=O)[O-])cc4)c4nc(c(-c5ccc(S(=O)(=O)[O-])cc5)c5ccc2[nH]5)C=C4)C=C3)cc1)C(=O)N(C)CCc1cccs1
REMARK SMILES IDX 6 1 7 2 8 3 5 5 4 6 3 7 2 8 1 9 76 10 77 11 78 12 79 13
REMARK SMILES IDX 80 14 81 15 82 16 83 17 86 18 84 19 85 20 9 21 10 22 11 23
REMARK SMILES IDX 12 24 13 25 14 26 15 28 16 29 17 30 75 31 18 32 74 33 19 34
REMARK SMILES IDX 20 35 21 36 68 37 22 38 73 39 67 40 69 41 23 42 72 43 66 44
REMARK SMILES IDX 65 45 24 47 54 48 35 49 53 50 36 51 39 52 52 53 70 54 37 55
REMARK SMILES IDX 38 56 51 58 71 59 40 60 25 61 26 62 34 63 27 64 33 65 28 66
REMARK SMILES IDX 29 67 30 68 31 69 32 70 55 71 56 72 64 73 57 74 63 75 58 76
REMARK SMILES IDX 59 77 60 78 61 79 62 80 41 81 42 82 50 83 43 84 49 85 44 86
REMARK SMILES IDX 45 87 46 88 47 89 48 90
REMARK H PARENT 8 4 13 27 69 46 39 57
REMARK Flexibility Score: inf
ROOT
ATOM      1  C   UNL A   1      30.942  25.729  25.539  1.00  0.00     0.221 C 
ATOM      2  O   UNL A   1      30.252  26.178  26.458  1.00  0.00    -0.275 OA
ATOM      3  N   UNL A   1      32.303  25.734  25.640  1.00  0.00    -0.356 N 
ATOM      4  H   UNL A   1      32.636  26.345  26.338  1.00  0.00     0.163 HD
ENDROOT
BRANCH   1   5
ATOM      5  C   UNL A   1      30.303  25.259  24.279  1.00  0.00     0.121 C 
BRANCH   5   6
ATOM      6  C   UNL A   1      30.685  26.204  23.157  1.00  0.00     0.131 C 
BRANCH   6   7
ATOM      7  N   UNL A   1      30.031  27.522  23.202  1.00  0.00    -0.324 N 
BRANCH   7   8
ATOM      8  C   UNL A   1      28.576  27.404  23.501  1.00  0.00     0.118 C 
ATOM      9  C   UNL A   1      27.565  28.480  23.157  1.00  0.00     0.027 C 
ENDBRANCH   7   8
BRANCH   7  10
ATOM     10  C   UNL A   1      30.640  28.743  22.796  1.00  0.00     0.319 C 
ATOM     11  O   UNL A   1      30.332  29.292  21.740  1.00  0.00    -0.248 OA
BRANCH  10  12
ATOM     12  N   UNL A   1      31.595  29.352  23.667  1.00  0.00    -0.327 N 
ATOM     13  C   UNL A   1      32.948  28.916  23.347  1.00  0.00     0.148 C 
BRANCH  12  14
ATOM     14  C   UNL A   1      31.378  29.455  25.195  1.00  0.00     0.126 C 
BRANCH  14  15
ATOM     15  C   UNL A   1      32.410  29.050  26.369  1.00  0.00     0.068 C 
BRANCH  15  16
ATOM     16  C   UNL A   1      33.551  29.915  26.964  1.00  0.00     0.006 A 
ATOM     17  C   UNL A   1      33.569  31.175  27.543  1.00  0.00     0.015 A 
ATOM     18  S   UNL A   1      35.066  29.178  27.474  1.00  0.00    -0.149 S 
ATOM     19  C   UNL A   1      34.905  31.687  27.711  1.00  0.00     0.012 A 
ATOM     20  C   UNL A   1      35.847  30.702  27.558  1.00  0.00     0.065 A 
ENDBRANCH  15  16
ENDBRANCH  14  15
ENDBRANCH  12  14
ENDBRANCH  10  12
ENDBRANCH   7  10
ENDBRANCH   6   7
ENDBRANCH   5   6
ENDBRANCH   1   5
BRANCH   3  21
ATOM     21  C   UNL A   1      33.367  25.033  24.942  1.00  0.00     0.116 C 
BRANCH  21  22
ATOM     22  C   UNL A   1      34.082  23.690  25.388  1.00  0.00     0.023 C 
BRANCH  22  23
ATOM     23  C   UNL A   1      35.182  23.433  26.446  1.00  0.00     0.023 C 
BRANCH  23  24
ATOM     24  C   UNL A   1      36.679  23.722  26.177  1.00  0.00     0.116 C 
BRANCH  24  25
ATOM     25  N   UNL A   1      37.546  22.566  26.179  1.00  0.00    -0.352 N 
ATOM     26  C   UNL A   1      38.910  22.502  26.342  1.00  0.00     0.251 C 
ATOM     27  H   UNL A   1      37.096  21.701  26.045  1.00  0.00     0.163 HD
ATOM     28  O   UNL A   1      39.494  21.435  26.135  1.00  0.00    -0.269 OA
BRANCH  26  29
ATOM     29  C   UNL A   1      39.703  23.693  26.733  1.00  0.00     0.039 A 
ATOM     30  C   UNL A   1      39.813  24.771  25.857  1.00  0.00     0.014 A 
ATOM     31  C   UNL A   1      40.417  23.724  27.929  1.00  0.00     0.014 A 
ATOM     32  C   UNL A   1      40.572  25.892  26.222  1.00  0.00     0.010 A 
ATOM     33  C   UNL A   1      41.095  24.872  28.339  1.00  0.00     0.010 A 
ATOM     34  C   UNL A   1      41.183  25.975  27.489  1.00  0.00    -0.014 A 
BRANCH  34  35
ATOM     35  C   UNL A   1      41.849  27.228  27.943  1.00  0.00     0.031 A 
ATOM     36  C   UNL A   1      41.070  28.358  28.568  1.00  0.00     0.074 A 
ATOM     37  C   UNL A   1      43.174  27.363  27.728  1.00  0.00     0.049 A 
ATOM     38  N   UNL A   1      41.515  29.481  29.078  1.00  0.00    -0.248 NA
ATOM     39  C   UNL A   1      39.604  28.236  28.594  1.00  0.00     0.031 C 
ATOM     40  C   UNL A   1      44.017  26.384  27.034  1.00  0.00     0.029 A 
ATOM     41  N   UNL A   1      44.050  28.358  28.080  1.00  0.00    -0.354 N 
ATOM     42  C   UNL A   1      40.388  30.197  29.471  1.00  0.00     0.074 A 
ATOM     43  C   UNL A   1      39.238  29.413  29.082  1.00  0.00     0.031 C 
ATOM     44  C   UNL A   1      45.294  26.790  27.078  1.00  0.00     0.029 A 
ATOM     45  C   UNL A   1      45.360  28.072  27.768  1.00  0.00     0.049 A 
ATOM     46  H   UNL A   1      43.769  29.196  28.515  1.00  0.00     0.167 HD
ATOM     47  C   UNL A   1      40.318  31.385  30.122  1.00  0.00     0.031 A 
ATOM     48  C   UNL A   1      46.493  28.753  28.027  1.00  0.00     0.031 A 
ATOM     49  C   UNL A   1      41.475  32.151  30.510  1.00  0.00     0.049 A 
ATOM     50  C   UNL A   1      46.400  30.041  28.795  1.00  0.00     0.074 A 
ATOM     51  C   UNL A   1      41.529  33.325  31.242  1.00  0.00     0.029 A 
ATOM     52  N   UNL A   1      42.784  31.817  30.192  1.00  0.00    -0.354 N 
ATOM     53  N   UNL A   1      45.332  30.644  29.259  1.00  0.00    -0.248 NA
ATOM     54  C   UNL A   1      47.662  30.729  29.089  1.00  0.00     0.031 C 
ATOM     55  C   UNL A   1      42.867  33.728  31.321  1.00  0.00     0.029 A 
ATOM     56  C   UNL A   1      43.652  32.773  30.690  1.00  0.00     0.049 A 
ATOM     57  H   UNL A   1      43.056  31.018  29.686  1.00  0.00     0.167 HD
ATOM     58  C   UNL A   1      45.794  31.776  29.918  1.00  0.00     0.074 A 
ATOM     59  C   UNL A   1      47.241  31.760  29.808  1.00  0.00     0.031 C 
ATOM     60  C   UNL A   1      45.088  32.742  30.558  1.00  0.00     0.031 A 
BRANCH  47  61
ATOM     61  C   UNL A   1      38.946  31.925  30.450  1.00  0.00    -0.014 A 
ATOM     62  C   UNL A   1      38.202  31.415  31.532  1.00  0.00     0.010 A 
ATOM     63  C   UNL A   1      38.395  32.968  29.682  1.00  0.00     0.010 A 
ATOM     64  C   UNL A   1      36.913  31.889  31.798  1.00  0.00     0.020 A 
ATOM     65  C   UNL A   1      37.117  33.468  29.964  1.00  0.00     0.020 A 
ATOM     66  C   UNL A   1      36.375  32.907  31.005  1.00  0.00     0.054 A 
BRANCH  66  67
ATOM     67  S   UNL A   1      34.696  33.494  31.365  1.00  0.00     0.124 S 
ATOM     68  O   UNL A   1      34.191  32.440  32.240  1.00  0.00    -0.237 OA
ATOM     69  O   UNL A   1      34.938  34.782  32.010  1.00  0.00    -0.237 OA
ATOM     70  O   UNL A   1      34.064  33.568  30.051  1.00  0.00    -0.744 OA
ENDBRANCH  66  67
ENDBRANCH  47  61
BRANCH  48  71
ATOM     71  C   UNL A   1      47.805  28.186  27.611  1.00  0.00    -0.014 A 
ATOM     72  C   UNL A   1      48.403  27.152  28.355  1.00  0.00     0.010 A 
ATOM     73  C   UNL A   1      48.439  28.633  26.437  1.00  0.00     0.010 A 
ATOM     74  C   UNL A   1      49.610  26.583  27.938  1.00  0.00     0.020 A 
ATOM     75  C   UNL A   1      49.632  28.047  26.002  1.00  0.00     0.020 A 
ATOM     76  C   UNL A   1      50.214  27.030  26.760  1.00  0.00     0.054 A 
BRANCH  76  77
ATOM     77  S   UNL A   1      51.742  26.226  26.200  1.00  0.00     0.124 S 
ATOM     78  O   UNL A   1      51.595  26.271  24.749  1.00  0.00    -0.237 OA
ATOM     79  O   UNL A   1      52.777  27.092  26.760  1.00  0.00    -0.237 OA
ATOM     80  O   UNL A   1      51.666  24.894  26.797  1.00  0.00    -0.744 OA
ENDBRANCH  76  77
ENDBRANCH  48  71
BRANCH  60  81
ATOM     81  C   UNL A   1      45.872  33.853  31.200  1.00  0.00    -0.014 A 
ATOM     82  C   UNL A   1      46.054  35.086  30.549  1.00  0.00     0.010 A 
ATOM     83  C   UNL A   1      46.389  33.677  32.497  1.00  0.00     0.010 A 
ATOM     84  C   UNL A   1      46.765  36.114  31.172  1.00  0.00     0.020 A 
ATOM     85  C   UNL A   1      47.075  34.713  33.134  1.00  0.00     0.020 A 
ATOM     86  C   UNL A   1      47.271  35.920  32.462  1.00  0.00     0.054 A 
BRANCH  86  87
ATOM     87  S   UNL A   1      48.151  37.286  33.265  1.00  0.00     0.124 S 
ATOM     88  O   UNL A   1      48.985  37.792  32.179  1.00  0.00    -0.237 OA
ATOM     89  O   UNL A   1      47.063  38.165  33.686  1.00  0.00    -0.237 OA
ATOM     90  O   UNL A   1      48.876  36.637  34.357  1.00  0.00    -0.744 OA
ENDBRANCH  86  87
ENDBRANCH  60  81
ENDBRANCH  34  35
ENDBRANCH  26  29
ENDBRANCH  24  25
ENDBRANCH  23  24
ENDBRANCH  22  23
ENDBRANCH  21  22
ENDBRANCH   3  21
TORSDOF 22
ENDMDL
MODEL 2
REMARK VINA RESULT:      -8.5      4.875      9.689
REMARK SMILES CCN(CCC(=O)NCCCCNC(=O)c1ccc(-c2c3nc(c(-c4ccc(S(=O)(=O)[O-])cc4)c4ccc([nH]4)c(-c4ccc(S(=O)(=O)[O-])cc4)c4nc(c(-c5ccc(S(=O)(=O)[O-])cc5)c5ccc2[nH]5)C=C4)C=C3)cc1)C(=O)N(C)CCc1cccs1
REMARK SMILES IDX 6 1 7 2 8 3 5 5 4 6 3 7 2 8 1 9 76 10 77 11 78 12 79 13
REMARK SMILES IDX 80 14 81 15 82 16 83 17 86 18 84 19 85 20 9 21 10 22 11 23
REMARK SMILES IDX 12 24 13 25 14 26 15 28 16 29 17 30 75 31 18 32 74 33 19 34
REMARK SMILES IDX 20 35 21 36 68 37 22 38 73 39 67 40 69 41 23 42 72 43 66 44
REMARK SMILES IDX 65 45 24 47 54 48 35 49 53 50 36 51 39 52 52 53 70 54 37 55
REMARK SMILES IDX 38 56 51 58 71 59 40 60 25 61 26 62 34 63 27 64 33 65 28 66
REMARK SMILES IDX 29 67 30 68 31 69 32 70 55 71 56 72 64 73 57 74 63 75 58 76
REMARK SMILES IDX 59 77 60 78 61 79 62 80 41 81 42 82 50 83 43 84 49 85 44 86
REMARK SMILES IDX 45 87 46 88 47 89 48 90
REMARK H PARENT 8 4 13 27 69 46 39 57
REMARK Flexibility Score: inf
ROOT
ATOM      1  C   UNL A   1      36.903  22.373  24.315  1.00  0.00     0.221 C 
ATOM      2  O   UNL A   1      36.749  22.547  23.102  1.00  0.00    -0.275 OA
ATOM      3  N   UNL A   1      38.118  22.604  24.891  1.00  0.00    -0.356 N 
ATOM      4  H   UNL A   1      38.854  22.639  24.237  1.00  0.00     0.163 HD
ENDROOT
BRANCH   1   5
ATOM      5  C   UNL A   1      35.791  21.828  25.143  1.00  0.00     0.121 C 
BRANCH   5   6
ATOM      6  C   UNL A   1      35.003  22.986  25.722  1.00  0.00     0.131 C 
BRANCH   6   7
ATOM      7  N   UNL A   1      33.564  22.978  25.411  1.00  0.00    -0.324 N 
BRANCH   7   8
ATOM      8  C   UNL A   1      32.762  22.410  26.530  1.00  0.00     0.118 C 
ATOM      9  C   UNL A   1      33.333  22.131  27.906  1.00  0.00     0.027 C 
ENDBRANCH   7   8
BRANCH   7  10
ATOM     10  C   UNL A   1      33.011  23.263  24.130  1.00  0.00     0.319 C 
ATOM     11  O   UNL A   1      33.351  22.631  23.132  1.00  0.00    -0.248 OA
BRANCH  10  12
ATOM     12  N   UNL A   1      32.010  24.277  24.030  1.00  0.00    -0.327 N 
ATOM     13  C   UNL A   1      30.865  23.809  23.259  1.00  0.00     0.148 C 
BRANCH  12  14
ATOM     14  C   UNL A   1      32.350  25.750  23.701  1.00  0.00     0.126 C 
BRANCH  14  15
ATOM     15  C   UNL A   1      33.316  26.748  24.524  1.00  0.00     0.068 C 
BRANCH  15  16
ATOM     16  C   UNL A   1      32.922  27.710  25.675  1.00  0.00     0.006 A 
ATOM     17  C   UNL A   1      31.764  27.851  26.425  1.00  0.00     0.015 A 
ATOM     18  S   UNL A   1      34.157  28.537  26.618  1.00  0.00    -0.149 S 
ATOM     19  C   UNL A   1      31.758  29.058  27.211  1.00  0.00     0.012 A 
ATOM     20  C   UNL A   1      33.007  29.622  27.282  1.00  0.00     0.065 A 
ENDBRANCH  15  16
ENDBRANCH  14  15
ENDBRANCH  12  14
ENDBRANCH  10  12
ENDBRANCH   7  10
ENDBRANCH   6   7
ENDBRANCH   5   6
ENDBRANCH   1   5
BRANCH   3  21
ATOM     21  C   UNL A   1      38.561  22.808  26.259  1.00  0.00     0.116 C 
BRANCH  21  22
ATOM     22  C   UNL A   1      38.822  24.194  26.983  1.00  0.00     0.023 C 
BRANCH  22  23
ATOM     23  C   UNL A   1      40.062  25.120  26.979  1.00  0.00     0.023 C 
BRANCH  23  24
ATOM     24  C   UNL A   1      40.713  25.635  25.671  1.00  0.00     0.116 C 
BRANCH  24  25
ATOM     25  N   UNL A   1      42.127  25.373  25.536  1.00  0.00    -0.352 N 
ATOM     26  C   UNL A   1      43.179  25.885  26.259  1.00  0.00     0.251 C 
ATOM     27  H   UNL A   1      42.373  24.737  24.826  1.00  0.00     0.163 HD
ATOM     28  O   UNL A   1      44.333  25.675  25.877  1.00  0.00    -0.269 OA
BRANCH  26  29
ATOM     29  C   UNL A   1      42.961  26.709  27.472  1.00  0.00     0.039 A 
ATOM     30  C   UNL A   1      43.145  28.089  27.416  1.00  0.00     0.014 A 
ATOM     31  C   UNL A   1      42.658  26.122  28.699  1.00  0.00     0.014 A 
ATOM     32  C   UNL A   1      42.949  28.867  28.566  1.00  0.00     0.010 A 
ATOM     33  C   UNL A   1      42.370  26.896  29.822  1.00  0.00     0.010 A 
ATOM     34  C   UNL A   1      42.513  28.284  29.772  1.00  0.00    -0.014 A 
BRANCH  34  35
ATOM     35  C   UNL A   1      42.145  29.124  30.946  1.00  0.00     0.031 A 
ATOM     36  C   UNL A   1      42.987  29.151  32.197  1.00  0.00     0.074 A 
ATOM     37  C   UNL A   1      40.995  29.827  30.895  1.00  0.00     0.049 A 
ATOM     38  N   UNL A   1      42.838  29.884  33.274  1.00  0.00    -0.248 NA
ATOM     39  C   UNL A   1      44.119  28.214  32.270  1.00  0.00     0.031 C 
ATOM     40  C   UNL A   1      40.040  29.797  29.782  1.00  0.00     0.029 A 
ATOM     41  N   UNL A   1      40.436  30.713  31.781  1.00  0.00    -0.354 N 
ATOM     42  C   UNL A   1      43.845  29.488  34.150  1.00  0.00     0.074 A 
ATOM     43  C   UNL A   1      44.557  28.407  33.506  1.00  0.00     0.031 C 
ATOM     44  C   UNL A   1      39.058  30.679  30.018  1.00  0.00     0.029 A 
ATOM     45  C   UNL A   1      39.289  31.311  31.311  1.00  0.00     0.049 A 
ATOM     46  H   UNL A   1      40.820  30.903  32.668  1.00  0.00     0.167 HD
ATOM     47  C   UNL A   1      44.165  29.997  35.366  1.00  0.00     0.031 A 
ATOM     48  C   UNL A   1      38.519  32.276  31.848  1.00  0.00     0.031 A 
ATOM     49  C   UNL A   1      43.450  31.081  35.990  1.00  0.00     0.049 A 
ATOM     50  C   UNL A   1      38.919  32.865  33.171  1.00  0.00     0.074 A 
ATOM     51  C   UNL A   1      43.731  31.731  37.178  1.00  0.00     0.029 A 
ATOM     52  N   UNL A   1      42.306  31.671  35.471  1.00  0.00    -0.354 N 
ATOM     53  N   UNL A   1      39.943  32.556  33.931  1.00  0.00    -0.248 NA
ATOM     54  C   UNL A   1      38.074  33.941  33.700  1.00  0.00     0.031 C 
ATOM     55  C   UNL A   1      42.726  32.679  37.405  1.00  0.00     0.029 A 
ATOM     56  C   UNL A   1      41.853  32.661  36.327  1.00  0.00     0.049 A 
ATOM     57  H   UNL A   1      41.878  31.422  34.621  1.00  0.00     0.167 HD
ATOM     58  C   UNL A   1      39.876  33.413  35.022  1.00  0.00     0.074 A 
ATOM     59  C   UNL A   1      38.723  34.267  34.810  1.00  0.00     0.031 C 
ATOM     60  C   UNL A   1      40.695  33.490  36.100  1.00  0.00     0.031 A 
BRANCH  47  61
ATOM     61  C   UNL A   1      45.337  29.384  36.096  1.00  0.00    -0.014 A 
ATOM     62  C   UNL A   1      45.186  28.213  36.864  1.00  0.00     0.010 A 
ATOM     63  C   UNL A   1      46.613  29.970  36.001  1.00  0.00     0.010 A 
ATOM     64  C   UNL A   1      46.267  27.681  37.574  1.00  0.00     0.020 A 
ATOM     65  C   UNL A   1      47.706  29.423  36.685  1.00  0.00     0.020 A 
ATOM     66  C   UNL A   1      47.519  28.297  37.488  1.00  0.00     0.054 A 
BRANCH  66  67
ATOM     67  S   UNL A   1      48.901  27.592  38.429  1.00  0.00     0.124 S 
ATOM     68  O   UNL A   1      49.300  28.720  39.267  1.00  0.00    -0.237 OA
ATOM     69  O   UNL A   1      48.274  26.478  39.135  1.00  0.00    -0.237 OA
ATOM     70  O   UNL A   1      49.864  27.211  37.400  1.00  0.00    -0.744 OA
ENDBRANCH  66  67
ENDBRANCH  47  61
BRANCH  48  71
ATOM     71  C   UNL A   1      37.339  32.782  31.094  1.00  0.00    -0.014 A 
ATOM     72  C   UNL A   1      37.488  33.811  30.145  1.00  0.00     0.010 A 
ATOM     73  C   UNL A   1      36.071  32.202  31.276  1.00  0.00     0.010 A 
ATOM     74  C   UNL A   1      36.390  34.253  29.400  1.00  0.00     0.020 A 
ATOM     75  C   UNL A   1      34.977  32.623  30.512  1.00  0.00     0.020 A 
ATOM     76  C   UNL A   1      35.143  33.651  29.583  1.00  0.00     0.054 A 
BRANCH  76  77
ATOM     77  S   UNL A   1      33.750  34.192  28.552  1.00  0.00     0.124 S 
ATOM     78  O   UNL A   1      34.369  35.219  27.720  1.00  0.00    -0.237 OA
ATOM     79  O   UNL A   1      33.373  32.960  27.862  1.00  0.00    -0.237 OA
ATOM     80  O   UNL A   1      32.772  34.676  29.524  1.00  0.00    -0.744 OA
ENDBRANCH  76  77
ENDBRANCH  48  71
BRANCH  60  81
ATOM     81  C   UNL A   1      40.379  34.543  37.127  1.00  0.00    -0.014 A 
ATOM     82  C   UNL A   1      40.961  35.821  37.060  1.00  0.00     0.010 A 
ATOM     83  C   UNL A   1      39.446  34.263  38.143  1.00  0.00     0.010 A 
ATOM     84  C   UNL A   1      40.637  36.793  38.010  1.00  0.00     0.020 A 
ATOM     85  C   UNL A   1      39.099  35.242  39.076  1.00  0.00     0.020 A 
ATOM     86  C   UNL A   1      39.707  36.497  39.012  1.00  0.00     0.054 A 
BRANCH  86  87
ATOM     87  S   UNL A   1      39.271  37.791  40.205  1.00  0.00     0.124 S 
ATOM     88  O   UNL A   1      40.497  38.580  40.259  1.00  0.00    -0.237 OA
ATOM     89  O   UNL A   1      38.130  38.443  39.566  1.00  0.00    -0.237 OA
ATOM     90  O   UNL A   1      38.954  37.046  41.422  1.00  0.00    -0.744 OA
ENDBRANCH  86  87
ENDBRANCH  60  81
ENDBRANCH  34  35
ENDBRANCH  26  29
ENDBRANCH  24  25
ENDBRANCH  23  24
ENDBRANCH  22  23
ENDBRANCH  21  22
ENDBRANCH   3  21
TORSDOF 22
ENDMDL
MODEL 3
REMARK VINA RESULT:      -8.5      8.752     14.894
REMARK SMILES CCN(CCC(=O)NCCCCNC(=O)c1ccc(-c2c3nc(c(-c4ccc(S(=O)(=O)[O-])cc4)c4ccc([nH]4)c(-c4ccc(S(=O)(=O)[O-])cc4)c4nc(c(-c5ccc(S(=O)(=O)[O-])cc5)c5ccc2[nH]5)C=C4)C=C3)cc1)C(=O)N(C)CCc1cccs1
REMARK SMILES IDX 6 1 7 2 8 3 5 5 4 6 3 7 2 8 1 9 76 10 77 11 78 12 79 13
REMARK SMILES IDX 80 14 81 15 82 16 83 17 86 18 84 19 85 20 9 21 10 22 11 23
REMARK SMILES IDX 12 24 13 25 14 26 15 28 16 29 17 30 75 31 18 32 74 33 19 34
REMARK SMILES IDX 20 35 21 36 68 37 22 38 73 39 67 40 69 41 23 42 72 43 66 44
REMARK SMILES IDX 65 45 24 47 54 48 35 49 53 50 36 51 39 52 52 53 70 54 37 55
REMARK SMILES IDX 38 56 51 58 71 59 40 60 25 61 26 62 34 63 27 64 33 65 28 66
REMARK SMILES IDX 29 67 30 68 31 69 32 70 55 71 56 72 64 73 57 74 63 75 58 76
REMARK SMILES IDX 59 77 60 78 61 79 62 80 41 81 42 82 50 83 43 84 49 85 44 86
REMARK SMILES IDX 45 87 46 88 47 89 48 90
REMARK H PARENT 8 4 13 27 69 46 39 57
REMARK Flexibility Score: inf
ROOT
ATOM      1  C   UNL A   1      41.675  42.444  23.460  1.00  0.00     0.221 C 
ATOM      2  O   UNL A   1      40.539  42.838  23.179  1.00  0.00    -0.275 OA
ATOM      3  N   UNL A   1      41.981  42.098  24.744  1.00  0.00    -0.356 N 
ATOM      4  H   UNL A   1      41.336  42.445  25.402  1.00  0.00     0.163 HD
ENDROOT
BRANCH   1   5
ATOM      5  C   UNL A   1      42.742  42.425  22.421  1.00  0.00     0.121 C 
BRANCH   5   6
ATOM      6  C   UNL A   1      42.119  42.743  21.076  1.00  0.00     0.131 C 
BRANCH   6   7
ATOM      7  N   UNL A   1      43.021  43.390  20.109  1.00  0.00    -0.324 N 
BRANCH   7   8
ATOM      8  C   UNL A   1      44.295  43.821  20.748  1.00  0.00     0.118 C 
ATOM      9  C   UNL A   1      44.895  45.201  20.563  1.00  0.00     0.027 C 
ENDBRANCH   7   8
BRANCH   7  10
ATOM     10  C   UNL A   1      42.654  43.766  18.786  1.00  0.00     0.319 C 
ATOM     11  O   UNL A   1      43.122  43.192  17.804  1.00  0.00    -0.248 OA
BRANCH  10  12
ATOM     12  N   UNL A   1      41.688  44.804  18.615  1.00  0.00    -0.327 N 
ATOM     13  C   UNL A   1      40.387  44.255  18.251  1.00  0.00     0.148 C 
BRANCH  12  14
ATOM     14  C   UNL A   1      41.993  46.103  17.832  1.00  0.00     0.126 C 
BRANCH  14  15
ATOM     15  C   UNL A   1      43.440  46.731  17.486  1.00  0.00     0.068 C 
BRANCH  15  16
ATOM     16  C   UNL A   1      43.886  48.210  17.625  1.00  0.00     0.006 A 
ATOM     17  C   UNL A   1      43.584  49.199  18.549  1.00  0.00     0.015 A 
ATOM     18  S   UNL A   1      45.346  48.787  16.828  1.00  0.00    -0.149 S 
ATOM     19  C   UNL A   1      44.024  50.503  18.127  1.00  0.00     0.012 A 
ATOM     20  C   UNL A   1      44.905  50.425  17.077  1.00  0.00     0.065 A 
ENDBRANCH  15  16
ENDBRANCH  14  15
ENDBRANCH  12  14
ENDBRANCH  10  12
ENDBRANCH   7  10
ENDBRANCH   6   7
ENDBRANCH   5   6
ENDBRANCH   1   5
BRANCH   3  21
ATOM     21  C   UNL A   1      43.053  41.327  25.350  1.00  0.00     0.116 C 
BRANCH  21  22
ATOM     22  C   UNL A   1      42.915  40.210  26.467  1.00  0.00     0.023 C 
BRANCH  22  23
ATOM     23  C   UNL A   1      43.845  39.030  26.838  1.00  0.00     0.023 C 
BRANCH  23  24
ATOM     24  C   UNL A   1      43.601  38.136  28.079  1.00  0.00     0.116 C 
BRANCH  24  25
ATOM     25  N   UNL A   1      42.319  37.469  28.121  1.00  0.00    -0.352 N 
ATOM     26  C   UNL A   1      42.009  36.163  27.821  1.00  0.00     0.251 C 
ATOM     27  H   UNL A   1      41.562  38.029  28.405  1.00  0.00     0.163 HD
ATOM     28  O   UNL A   1      40.824  35.826  27.747  1.00  0.00    -0.269 OA
BRANCH  26  29
ATOM     29  C   UNL A   1      43.062  35.154  27.555  1.00  0.00     0.039 A 
ATOM     30  C   UNL A   1      43.425  34.860  26.242  1.00  0.00     0.014 A 
ATOM     31  C   UNL A   1      43.642  34.425  28.591  1.00  0.00     0.014 A 
ATOM     32  C   UNL A   1      44.414  33.898  25.990  1.00  0.00     0.010 A 
ATOM     33  C   UNL A   1      44.690  33.537  28.354  1.00  0.00     0.010 A 
ATOM     34  C   UNL A   1      45.092  33.259  27.047  1.00  0.00    -0.014 A 
BRANCH  34  35
ATOM     35  C   UNL A   1      46.253  32.362  26.787  1.00  0.00     0.031 A 
ATOM     36  C   UNL A   1      47.656  32.900  26.651  1.00  0.00     0.074 A 
ATOM     37  C   UNL A   1      46.017  31.046  26.612  1.00  0.00     0.049 A 
ATOM     38  N   UNL A   1      48.778  32.240  26.496  1.00  0.00    -0.248 NA
ATOM     39  C   UNL A   1      47.823  34.361  26.653  1.00  0.00     0.031 C 
ATOM     40  C   UNL A   1      44.691  30.422  26.612  1.00  0.00     0.029 A 
ATOM     41  N   UNL A   1      46.874  29.992  26.419  1.00  0.00    -0.354 N 
ATOM     42  C   UNL A   1      49.775  33.203  26.370  1.00  0.00     0.074 A 
ATOM     43  C   UNL A   1      49.118  34.491  26.401  1.00  0.00     0.031 C 
ATOM     44  C   UNL A   1      44.827  29.092  26.504  1.00  0.00     0.029 A 
ATOM     45  C   UNL A   1      46.244  28.769  26.390  1.00  0.00     0.049 A 
ATOM     46  H   UNL A   1      47.848  30.100  26.312  1.00  0.00     0.167 HD
ATOM     47  C   UNL A   1      51.116  33.032  26.266  1.00  0.00     0.031 A 
ATOM     48  C   UNL A   1      46.747  27.523  26.305  1.00  0.00     0.031 A 
ATOM     49  C   UNL A   1      51.757  31.742  26.245  1.00  0.00     0.049 A 
ATOM     50  C   UNL A   1      48.239  27.351  26.244  1.00  0.00     0.074 A 
ATOM     51  C   UNL A   1      53.109  31.448  26.224  1.00  0.00     0.029 A 
ATOM     52  N   UNL A   1      51.083  30.529  26.237  1.00  0.00    -0.354 N 
ATOM     53  N   UNL A   1      49.172  28.273  26.243  1.00  0.00    -0.248 NA
ATOM     54  C   UNL A   1      48.746  25.975  26.191  1.00  0.00     0.031 C 
ATOM     55  C   UNL A   1      53.251  30.057  26.151  1.00  0.00     0.029 A 
ATOM     56  C   UNL A   1      51.988  29.483  26.186  1.00  0.00     0.049 A 
ATOM     57  H   UNL A   1      50.104  30.426  26.263  1.00  0.00     0.167 HD
ATOM     58  C   UNL A   1      50.380  27.588  26.208  1.00  0.00     0.074 A 
ATOM     59  C   UNL A   1      50.057  26.174  26.210  1.00  0.00     0.031 C 
ATOM     60  C   UNL A   1      51.642  28.083  26.178  1.00  0.00     0.031 A 
BRANCH  47  61
ATOM     61  C   UNL A   1      51.975  34.271  26.167  1.00  0.00    -0.014 A 
ATOM     62  C   UNL A   1      52.459  34.917  27.322  1.00  0.00     0.010 A 
ATOM     63  C   UNL A   1      52.323  34.790  24.906  1.00  0.00     0.010 A 
ATOM     64  C   UNL A   1      53.213  36.091  27.219  1.00  0.00     0.020 A 
ATOM     65  C   UNL A   1      53.105  35.947  24.798  1.00  0.00     0.020 A 
ATOM     66  C   UNL A   1      53.523  36.604  25.957  1.00  0.00     0.054 A 
BRANCH  66  67
ATOM     67  S   UNL A   1      54.494  38.133  25.854  1.00  0.00     0.124 S 
ATOM     68  O   UNL A   1      55.566  37.748  24.939  1.00  0.00    -0.237 OA
ATOM     69  O   UNL A   1      53.529  39.091  25.321  1.00  0.00    -0.237 OA
ATOM     70  O   UNL A   1      54.910  38.375  27.233  1.00  0.00    -0.744 OA
ENDBRANCH  66  67
ENDBRANCH  47  61
BRANCH  48  71
ATOM     71  C   UNL A   1      45.828  26.352  26.342  1.00  0.00    -0.014 A 
ATOM     72  C   UNL A   1      45.445  25.785  27.571  1.00  0.00     0.010 A 
ATOM     73  C   UNL A   1      45.284  25.831  25.153  1.00  0.00     0.010 A 
ATOM     74  C   UNL A   1      44.543  24.718  27.611  1.00  0.00     0.020 A 
ATOM     75  C   UNL A   1      44.360  24.782  25.191  1.00  0.00     0.020 A 
ATOM     76  C   UNL A   1      44.000  24.227  26.420  1.00  0.00     0.054 A 
BRANCH  76  77
ATOM     77  S   UNL A   1      42.775  22.891  26.503  1.00  0.00     0.124 S 
ATOM     78  O   UNL A   1      43.209  22.153  27.685  1.00  0.00    -0.237 OA
ATOM     79  O   UNL A   1      41.518  23.624  26.639  1.00  0.00    -0.237 OA
ATOM     80  O   UNL A   1      42.945  22.192  25.230  1.00  0.00    -0.744 OA
ENDBRANCH  76  77
ENDBRANCH  48  71
BRANCH  60  81
ATOM     81  C   UNL A   1      52.769  27.086  26.160  1.00  0.00    -0.014 A 
ATOM     82  C   UNL A   1      53.453  26.784  24.970  1.00  0.00     0.010 A 
ATOM     83  C   UNL A   1      53.181  26.484  27.363  1.00  0.00     0.010 A 
ATOM     84  C   UNL A   1      54.512  25.873  24.978  1.00  0.00     0.020 A 
ATOM     85  C   UNL A   1      54.258  25.595  27.379  1.00  0.00     0.020 A 
ATOM     86  C   UNL A   1      54.908  25.284  26.183  1.00  0.00     0.054 A 
BRANCH  86  87
ATOM     87  S   UNL A   1      56.314  24.140  26.173  1.00  0.00     0.124 S 
ATOM     88  O   UNL A   1      56.739  24.192  24.777  1.00  0.00    -0.237 OA
ATOM     89  O   UNL A   1      57.231  24.751  27.133  1.00  0.00    -0.237 OA
ATOM     90  O   UNL A   1      55.730  22.870  26.600  1.00  0.00    -0.744 OA
ENDBRANCH  86  87
ENDBRANCH  60  81
ENDBRANCH  34  35
ENDBRANCH  26  29
ENDBRANCH  24  25
ENDBRANCH  23  24
ENDBRANCH  22  23
ENDBRANCH  21  22
ENDBRANCH   3  21
TORSDOF 22
ENDMDL
