MODEL 1
REMARK VINA RESULT:     -10.6      0.000      0.000
REMARK SMILES N#C[C@H]1CN(C(=O)N2CCNC(=O)[C@@H]2CC(=O)NCCCCNC(=O)c2ccc(-c3c4nc(c(-c5ccc(S(=O)(=O)[O-])cc5)c5ccc([nH]5)c(-c5ccc(S(=O)(=O)[O-])cc5)c5nc(c(-c6ccc(S(=O)(=O)[O-])cc6)c6ccc3[nH]6)C=C5)C=C4)cc2)CCO1
REMARK SMILES IDX 20 1 19 2 18 3 16 4 17 5 15 7 14 8 8 9 9 10 10 11 12 12
REMARK SMILES IDX 11 13 13 14 6 16 7 17 5 18 3 19 4 20 88 21 87 22 86 23 2 24
REMARK SMILES IDX 1 25 21 26 22 27 23 28 24 29 25 31 26 32 27 33 85 34 28 35
REMARK SMILES IDX 84 36 29 37 30 38 31 39 78 40 32 41 83 42 77 43 79 44 33 45
REMARK SMILES IDX 82 46 76 47 75 48 34 50 64 51 45 52 63 53 46 54 49 55 62 56
REMARK SMILES IDX 80 57 47 58 48 59 61 61 81 62 50 63 35 64 36 65 44 66 37 67
REMARK SMILES IDX 43 68 38 69 39 70 40 71 41 72 42 73 65 74 66 75 74 76 67 77
REMARK SMILES IDX 73 78 68 79 69 80 70 81 71 82 72 83 51 84 52 85 60 86 53 87
REMARK SMILES IDX 59 88 54 89 55 90 56 91 57 92 58 93
REMARK H PARENT 18 6 11 15 23 30 79 49 49 60
REMARK Flexibility Score: inf
ROOT
ATOM      1  C   UNL A   1      32.881  27.832  25.273  1.00  0.00     0.023 C 
ENDROOT
BRANCH   1   2
ATOM      2  C   UNL A   1      31.425  27.507  25.614  1.00  0.00     0.116 C 
BRANCH   2   3
ATOM      3  N   UNL A   1      31.356  26.394  26.541  1.00  0.00    -0.356 N 
ATOM      4  C   UNL A   1      31.775  25.110  26.382  1.00  0.00     0.222 C 
ATOM      5  O   UNL A   1      31.560  24.298  27.283  1.00  0.00    -0.275 OA
ATOM      6  H   UNL A   1      30.947  26.598  27.413  1.00  0.00     0.163 HD
BRANCH   4   7
ATOM      7  C   UNL A   1      32.577  24.726  25.167  1.00  0.00     0.135 C 
BRANCH   7   8
ATOM      8  C   UNL A   1      31.884  23.729  24.226  1.00  0.00     0.185 C 
ATOM      9  N   UNL A   1      32.795  22.845  23.473  1.00  0.00    -0.310 N 
ATOM     10  C   UNL A   1      33.650  23.515  22.500  1.00  0.00     0.143 C 
ATOM     11  C   UNL A   1      32.768  24.254  21.489  1.00  0.00     0.137 C 
ATOM     12  C   UNL A   1      31.042  24.576  23.259  1.00  0.00     0.243 C 
ATOM     13  N   UNL A   1      31.632  24.947  22.077  1.00  0.00    -0.353 N 
ATOM     14  O   UNL A   1      29.962  25.066  23.584  1.00  0.00    -0.273 OA
ATOM     15  H   UNL A   1      31.265  25.726  21.600  1.00  0.00     0.163 HD
BRANCH   9  16
ATOM     16  C   UNL A   1      32.914  21.482  23.635  1.00  0.00     0.320 C 
ATOM     17  O   UNL A   1      32.169  20.705  23.038  1.00  0.00    -0.248 OA
BRANCH  16  18
ATOM     18  N   UNL A   1      33.834  21.011  24.552  1.00  0.00    -0.319 N 
ATOM     19  C   UNL A   1      35.407  22.481  25.785  1.00  0.00     0.240 C 
ATOM     20  C   UNL A   1      35.229  21.475  24.628  1.00  0.00     0.169 C 
ATOM     21  O   UNL A   1      34.964  21.898  27.029  1.00  0.00    -0.360 OA
ATOM     22  C   UNL A   1      33.576  21.517  26.953  1.00  0.00     0.183 C 
ATOM     23  C   UNL A   1      33.347  20.489  25.837  1.00  0.00     0.150 C 
BRANCH  19  24
ATOM     24  C   UNL A   1      36.822  22.882  25.872  1.00  0.00     0.096 C 
ATOM     25  N   UNL A   1      37.953  23.147  25.953  1.00  0.00    -0.195 NA
ENDBRANCH  19  24
ENDBRANCH  16  18
ENDBRANCH   9  16
ENDBRANCH   7   8
ENDBRANCH   4   7
ENDBRANCH   2   3
ENDBRANCH   1   2
BRANCH   1  26
ATOM     26  C   UNL A   1      33.808  27.871  26.486  1.00  0.00     0.023 C 
BRANCH  26  27
ATOM     27  C   UNL A   1      33.214  28.565  27.700  1.00  0.00     0.116 C 
BRANCH  27  28
ATOM     28  N   UNL A   1      33.317  30.015  27.618  1.00  0.00    -0.352 N 
ATOM     29  C   UNL A   1      34.401  30.811  27.906  1.00  0.00     0.251 C 
ATOM     30  H   UNL A   1      32.507  30.487  27.316  1.00  0.00     0.163 HD
ATOM     31  O   UNL A   1      34.283  32.030  27.958  1.00  0.00    -0.269 OA
BRANCH  29  32
ATOM     32  C   UNL A   1      35.698  30.164  28.189  1.00  0.00     0.039 A 
ATOM     33  C   UNL A   1      36.663  30.108  27.183  1.00  0.00     0.014 A 
ATOM     34  C   UNL A   1      35.979  29.691  29.474  1.00  0.00     0.014 A 
ATOM     35  C   UNL A   1      37.944  29.652  27.491  1.00  0.00     0.010 A 
ATOM     36  C   UNL A   1      37.278  29.325  29.798  1.00  0.00     0.010 A 
ATOM     37  C   UNL A   1      38.276  29.306  28.812  1.00  0.00    -0.014 A 
BRANCH  37  38
ATOM     38  C   UNL A   1      39.663  28.941  29.192  1.00  0.00     0.031 A 
ATOM     39  C   UNL A   1      40.541  29.945  29.888  1.00  0.00     0.074 A 
ATOM     40  C   UNL A   1      40.155  27.735  28.847  1.00  0.00     0.049 A 
ATOM     41  N   UNL A   1      41.798  29.841  30.236  1.00  0.00    -0.248 NA
ATOM     42  C   UNL A   1      39.933  31.246  30.215  1.00  0.00     0.031 C 
ATOM     43  C   UNL A   1      39.412  26.684  28.148  1.00  0.00     0.029 A 
ATOM     44  N   UNL A   1      41.401  27.189  29.032  1.00  0.00    -0.354 N 
ATOM     45  C   UNL A   1      42.133  31.060  30.811  1.00  0.00     0.074 A 
ATOM     46  C   UNL A   1      40.968  31.910  30.709  1.00  0.00     0.031 C 
ATOM     47  C   UNL A   1      40.203  25.609  27.999  1.00  0.00     0.029 A 
ATOM     48  C   UNL A   1      41.526  25.913  28.535  1.00  0.00     0.049 A 
ATOM     49  H   UNL A   1      42.137  27.667  29.480  1.00  0.00     0.167 HD
ATOM     50  C   UNL A   1      43.299  31.433  31.390  1.00  0.00     0.031 A 
ATOM     51  C   UNL A   1      42.587  25.084  28.502  1.00  0.00     0.031 A 
ATOM     52  C   UNL A   1      44.459  30.586  31.475  1.00  0.00     0.049 A 
ATOM     53  C   UNL A   1      43.894  25.546  29.090  1.00  0.00     0.074 A 
ATOM     54  C   UNL A   1      45.678  30.855  32.074  1.00  0.00     0.029 A 
ATOM     55  N   UNL A   1      44.552  29.312  30.935  1.00  0.00    -0.354 N 
ATOM     56  N   UNL A   1      44.172  26.678  29.692  1.00  0.00    -0.248 NA
ATOM     57  C   UNL A   1      45.028  24.617  28.998  1.00  0.00     0.031 C 
ATOM     58  C   UNL A   1      46.531  29.774  31.832  1.00  0.00     0.029 A 
ATOM     59  C   UNL A   1      45.820  28.797  31.152  1.00  0.00     0.049 A 
ATOM     60  H   UNL A   1      43.825  28.841  30.466  1.00  0.00     0.167 HD
ATOM     61  C   UNL A   1      45.505  26.584  30.078  1.00  0.00     0.074 A 
ATOM     62  C   UNL A   1      45.971  25.278  29.657  1.00  0.00     0.031 C 
ATOM     63  C   UNL A   1      46.272  27.494  30.727  1.00  0.00     0.031 A 
BRANCH  50  64
ATOM     64  C   UNL A   1      43.379  32.828  31.957  1.00  0.00    -0.014 A 
ATOM     65  C   UNL A   1      43.151  33.075  33.325  1.00  0.00     0.010 A 
ATOM     66  C   UNL A   1      43.708  33.907  31.116  1.00  0.00     0.010 A 
ATOM     67  C   UNL A   1      43.196  34.378  33.826  1.00  0.00     0.020 A 
ATOM     68  C   UNL A   1      43.791  35.207  31.623  1.00  0.00     0.020 A 
ATOM     69  C   UNL A   1      43.513  35.436  32.971  1.00  0.00     0.054 A 
BRANCH  69  70
ATOM     70  S   UNL A   1      43.565  37.115  33.654  1.00  0.00     0.124 S 
ATOM     71  O   UNL A   1      43.655  37.930  32.445  1.00  0.00    -0.237 OA
ATOM     72  O   UNL A   1      42.301  37.204  34.379  1.00  0.00    -0.237 OA
ATOM     73  O   UNL A   1      44.762  37.114  34.491  1.00  0.00    -0.744 OA
ENDBRANCH  69  70
ENDBRANCH  50  64
BRANCH  51  74
ATOM     74  C   UNL A   1      42.458  23.726  27.902  1.00  0.00    -0.014 A 
ATOM     75  C   UNL A   1      42.772  23.515  26.548  1.00  0.00     0.010 A 
ATOM     76  C   UNL A   1      42.028  22.635  28.679  1.00  0.00     0.010 A 
ATOM     77  C   UNL A   1      42.641  22.245  25.978  1.00  0.00     0.020 A 
ATOM     78  C   UNL A   1      41.929  21.357  28.123  1.00  0.00     0.020 A 
ATOM     79  C   UNL A   1      42.227  21.173  26.772  1.00  0.00     0.054 A 
BRANCH  79  80
ATOM     80  S   UNL A   1      42.117  19.524  26.021  1.00  0.00     0.124 S 
ATOM     81  O   UNL A   1      43.011  19.652  24.875  1.00  0.00    -0.237 OA
ATOM     82  O   UNL A   1      42.587  18.659  27.100  1.00  0.00    -0.237 OA
ATOM     83  O   UNL A   1      40.699  19.389  25.698  1.00  0.00    -0.744 OA
ENDBRANCH  79  80
ENDBRANCH  51  74
BRANCH  63  84
ATOM     84  C   UNL A   1      47.691  27.107  31.057  1.00  0.00    -0.014 A 
ATOM     85  C   UNL A   1      47.991  26.299  32.168  1.00  0.00     0.010 A 
ATOM     86  C   UNL A   1      48.732  27.496  30.193  1.00  0.00     0.010 A 
ATOM     87  C   UNL A   1      49.308  25.902  32.417  1.00  0.00     0.020 A 
ATOM     88  C   UNL A   1      50.044  27.073  30.419  1.00  0.00     0.020 A 
ATOM     89  C   UNL A   1      50.324  26.285  31.536  1.00  0.00     0.054 A 
BRANCH  89  90
ATOM     90  S   UNL A   1      52.012  25.693  31.845  1.00  0.00     0.124 S 
ATOM     91  O   UNL A   1      52.457  26.584  32.912  1.00  0.00    -0.237 OA
ATOM     92  O   UNL A   1      51.793  24.302  32.237  1.00  0.00    -0.237 OA
ATOM     93  O   UNL A   1      52.685  25.875  30.561  1.00  0.00    -0.744 OA
ENDBRANCH  89  90
ENDBRANCH  63  84
ENDBRANCH  37  38
ENDBRANCH  29  32
ENDBRANCH  27  28
ENDBRANCH  26  27
ENDBRANCH   1  26
TORSDOF 18
ENDMDL
MODEL 2
REMARK VINA RESULT:     -10.6      2.347      3.030
REMARK SMILES N#C[C@H]1CN(C(=O)N2CCNC(=O)[C@@H]2CC(=O)NCCCCNC(=O)c2ccc(-c3c4nc(c(-c5ccc(S(=O)(=O)[O-])cc5)c5ccc([nH]5)c(-c5ccc(S(=O)(=O)[O-])cc5)c5nc(c(-c6ccc(S(=O)(=O)[O-])cc6)c6ccc3[nH]6)C=C5)C=C4)cc2)CCO1
REMARK SMILES IDX 20 1 19 2 18 3 16 4 17 5 15 7 14 8 8 9 9 10 10 11 12 12
REMARK SMILES IDX 11 13 13 14 6 16 7 17 5 18 3 19 4 20 88 21 87 22 86 23 2 24
REMARK SMILES IDX 1 25 21 26 22 27 23 28 24 29 25 31 26 32 27 33 85 34 28 35
REMARK SMILES IDX 84 36 29 37 30 38 31 39 78 40 32 41 83 42 77 43 79 44 33 45
REMARK SMILES IDX 82 46 76 47 75 48 34 50 64 51 45 52 63 53 46 54 49 55 62 56
REMARK SMILES IDX 80 57 47 58 48 59 61 61 81 62 50 63 35 64 36 65 44 66 37 67
REMARK SMILES IDX 43 68 38 69 39 70 40 71 41 72 42 73 65 74 66 75 74 76 67 77
REMARK SMILES IDX 73 78 68 79 69 80 70 81 71 82 72 83 51 84 52 85 60 86 53 87
REMARK SMILES IDX 59 88 54 89 55 90 56 91 57 92 58 93
REMARK H PARENT 18 6 11 15 23 30 79 49 49 60
REMARK Flexibility Score: inf
ROOT
ATOM      1  C   UNL A   1      31.797  28.047  26.712  1.00  0.00     0.023 C 
ENDROOT
BRANCH   1   2
ATOM      2  C   UNL A   1      31.381  26.936  25.746  1.00  0.00     0.116 C 
BRANCH   2   3
ATOM      3  N   UNL A   1      30.698  25.873  26.457  1.00  0.00    -0.356 N 
ATOM      4  C   UNL A   1      31.000  24.549  26.531  1.00  0.00     0.222 C 
ATOM      5  O   UNL A   1      30.241  23.799  27.145  1.00  0.00    -0.275 OA
ATOM      6  H   UNL A   1      29.898  26.150  26.961  1.00  0.00     0.163 HD
BRANCH   4   7
ATOM      7  C   UNL A   1      32.295  24.041  25.955  1.00  0.00     0.135 C 
BRANCH   7   8
ATOM      8  C   UNL A   1      32.150  22.856  24.988  1.00  0.00     0.185 C 
ATOM      9  N   UNL A   1      33.345  21.999  24.867  1.00  0.00    -0.310 N 
ATOM     10  C   UNL A   1      34.511  22.638  24.267  1.00  0.00     0.143 C 
ATOM     11  C   UNL A   1      34.141  23.131  22.865  1.00  0.00     0.137 C 
ATOM     12  C   UNL A   1      31.790  23.467  23.624  1.00  0.00     0.243 C 
ATOM     13  N   UNL A   1      32.829  23.752  22.774  1.00  0.00    -0.353 N 
ATOM     14  O   UNL A   1      30.656  23.861  23.359  1.00  0.00    -0.273 OA
ATOM     15  H   UNL A   1      32.677  24.414  22.061  1.00  0.00     0.163 HD
BRANCH   9  16
ATOM     16  C   UNL A   1      33.448  20.692  25.291  1.00  0.00     0.320 C 
ATOM     17  O   UNL A   1      33.354  20.405  26.485  1.00  0.00    -0.248 OA
BRANCH  16  18
ATOM     18  N   UNL A   1      33.746  19.722  24.354  1.00  0.00    -0.319 N 
ATOM     19  C   UNL A   1      33.824  17.298  24.876  1.00  0.00     0.240 C 
ATOM     20  C   UNL A   1      34.640  18.581  24.609  1.00  0.00     0.169 C 
ATOM     21  O   UNL A   1      32.920  17.042  23.780  1.00  0.00    -0.360 OA
ATOM     22  C   UNL A   1      32.009  18.142  23.596  1.00  0.00     0.183 C 
ATOM     23  C   UNL A   1      32.768  19.442  23.293  1.00  0.00     0.150 C 
BRANCH  19  24
ATOM     24  C   UNL A   1      34.744  16.164  25.070  1.00  0.00     0.096 C 
ATOM     25  N   UNL A   1      35.502  15.301  25.256  1.00  0.00    -0.195 NA
ENDBRANCH  19  24
ENDBRANCH  16  18
ENDBRANCH   9  16
ENDBRANCH   7   8
ENDBRANCH   4   7
ENDBRANCH   2   3
ENDBRANCH   1   2
BRANCH   1  26
ATOM     26  C   UNL A   1      33.295  28.090  27.000  1.00  0.00     0.023 C 
BRANCH  26  27
ATOM     27  C   UNL A   1      34.035  29.209  26.286  1.00  0.00     0.116 C 
BRANCH  27  28
ATOM     28  N   UNL A   1      33.795  30.510  26.894  1.00  0.00    -0.352 N 
ATOM     29  C   UNL A   1      34.507  31.127  27.895  1.00  0.00     0.251 C 
ATOM     30  H   UNL A   1      33.025  31.012  26.544  1.00  0.00     0.163 HD
ATOM     31  O   UNL A   1      34.080  32.147  28.426  1.00  0.00    -0.269 OA
BRANCH  29  32
ATOM     32  C   UNL A   1      35.775  30.516  28.342  1.00  0.00     0.039 A 
ATOM     33  C   UNL A   1      36.972  30.936  27.762  1.00  0.00     0.014 A 
ATOM     34  C   UNL A   1      35.775  29.591  29.390  1.00  0.00     0.014 A 
ATOM     35  C   UNL A   1      38.181  30.488  28.294  1.00  0.00     0.010 A 
ATOM     36  C   UNL A   1      36.979  29.221  29.974  1.00  0.00     0.010 A 
ATOM     37  C   UNL A   1      38.195  29.669  29.435  1.00  0.00    -0.014 A 
BRANCH  37  38
ATOM     38  C   UNL A   1      39.465  29.283  30.098  1.00  0.00     0.031 A 
ATOM     39  C   UNL A   1      39.954  30.052  31.294  1.00  0.00     0.074 A 
ATOM     40  C   UNL A   1      40.214  28.289  29.580  1.00  0.00     0.049 A 
ATOM     41  N   UNL A   1      41.069  29.915  31.964  1.00  0.00    -0.248 NA
ATOM     42  C   UNL A   1      39.086  31.134  31.788  1.00  0.00     0.031 C 
ATOM     43  C   UNL A   1      39.862  27.484  28.407  1.00  0.00     0.029 A 
ATOM     44  N   UNL A   1      41.432  27.789  29.968  1.00  0.00    -0.354 N 
ATOM     45  C   UNL A   1      41.042  30.894  32.949  1.00  0.00     0.074 A 
ATOM     46  C   UNL A   1      39.830  31.659  32.750  1.00  0.00     0.031 C 
ATOM     47  C   UNL A   1      40.821  26.568  28.197  1.00  0.00     0.029 A 
ATOM     48  C   UNL A   1      41.884  26.757  29.179  1.00  0.00     0.049 A 
ATOM     49  H   UNL A   1      41.935  28.136  30.741  1.00  0.00     0.167 HD
ATOM     50  C   UNL A   1      41.934  31.125  33.941  1.00  0.00     0.031 A 
ATOM     51  C   UNL A   1      43.030  26.050  29.229  1.00  0.00     0.031 A 
ATOM     52  C   UNL A   1      43.144  30.368  34.124  1.00  0.00     0.049 A 
ATOM     53  C   UNL A   1      44.039  26.371  30.299  1.00  0.00     0.074 A 
ATOM     54  C   UNL A   1      44.096  30.497  35.120  1.00  0.00     0.029 A 
ATOM     55  N   UNL A   1      43.577  29.351  33.286  1.00  0.00    -0.354 N 
ATOM     56  N   UNL A   1      43.964  27.256  31.265  1.00  0.00    -0.248 NA
ATOM     57  C   UNL A   1      45.286  25.594  30.289  1.00  0.00     0.031 C 
ATOM     58  C   UNL A   1      45.141  29.610  34.842  1.00  0.00     0.029 A 
ATOM     59  C   UNL A   1      44.802  28.870  33.720  1.00  0.00     0.049 A 
ATOM     60  H   UNL A   1      43.087  29.019  32.499  1.00  0.00     0.167 HD
ATOM     61  C   UNL A   1      45.139  27.120  31.996  1.00  0.00     0.074 A 
ATOM     62  C   UNL A   1      45.899  26.056  31.371  1.00  0.00     0.031 C 
ATOM     63  C   UNL A   1      45.549  27.810  33.088  1.00  0.00     0.031 A 
BRANCH  50  64
ATOM     64  C   UNL A   1      41.638  32.258  34.892  1.00  0.00    -0.014 A 
ATOM     65  C   UNL A   1      40.847  32.060  36.040  1.00  0.00     0.010 A 
ATOM     66  C   UNL A   1      42.177  33.534  34.648  1.00  0.00     0.010 A 
ATOM     67  C   UNL A   1      40.556  33.128  36.892  1.00  0.00     0.020 A 
ATOM     68  C   UNL A   1      41.918  34.596  35.519  1.00  0.00     0.020 A 
ATOM     69  C   UNL A   1      41.092  34.391  36.624  1.00  0.00     0.054 A 
BRANCH  69  70
ATOM     70  S   UNL A   1      40.697  35.756  37.750  1.00  0.00     0.124 S 
ATOM     71  O   UNL A   1      39.738  36.528  36.964  1.00  0.00    -0.237 OA
ATOM     72  O   UNL A   1      40.144  35.062  38.910  1.00  0.00    -0.237 OA
ATOM     73  O   UNL A   1      41.985  36.408  37.973  1.00  0.00    -0.744 OA
ENDBRANCH  69  70
ENDBRANCH  50  64
BRANCH  51  74
ATOM     74  C   UNL A   1      43.281  24.961  28.244  1.00  0.00    -0.014 A 
ATOM     75  C   UNL A   1      42.925  23.635  28.545  1.00  0.00     0.010 A 
ATOM     76  C   UNL A   1      43.871  25.242  26.998  1.00  0.00     0.010 A 
ATOM     77  C   UNL A   1      43.170  22.608  27.628  1.00  0.00     0.020 A 
ATOM     78  C   UNL A   1      44.085  24.225  26.064  1.00  0.00     0.020 A 
ATOM     79  C   UNL A   1      43.742  22.912  26.390  1.00  0.00     0.054 A 
BRANCH  79  80
ATOM     80  S   UNL A   1      44.000  21.569  25.196  1.00  0.00     0.124 S 
ATOM     81  O   UNL A   1      45.320  21.074  25.576  1.00  0.00    -0.237 OA
ATOM     82  O   UNL A   1      42.880  20.677  25.485  1.00  0.00    -0.237 OA
ATOM     83  O   UNL A   1      43.931  22.244  23.902  1.00  0.00    -0.744 OA
ENDBRANCH  79  80
ENDBRANCH  51  74
BRANCH  63  84
ATOM     84  C   UNL A   1      46.868  27.422  33.708  1.00  0.00    -0.014 A 
ATOM     85  C   UNL A   1      46.948  26.425  34.696  1.00  0.00     0.010 A 
ATOM     86  C   UNL A   1      48.055  28.012  33.234  1.00  0.00     0.010 A 
ATOM     87  C   UNL A   1      48.189  26.039  35.211  1.00  0.00     0.020 A 
ATOM     88  C   UNL A   1      49.299  27.605  33.720  1.00  0.00     0.020 A 
ATOM     89  C   UNL A   1      49.357  26.626  34.713  1.00  0.00     0.054 A 
BRANCH  89  90
ATOM     90  S   UNL A   1      50.957  26.051  35.347  1.00  0.00     0.124 S 
ATOM     91  O   UNL A   1      51.660  27.309  35.584  1.00  0.00    -0.237 OA
ATOM     92  O   UNL A   1      50.574  25.309  36.547  1.00  0.00    -0.237 OA
ATOM     93  O   UNL A   1      51.490  25.235  34.259  1.00  0.00    -0.744 OA
ENDBRANCH  89  90
ENDBRANCH  63  84
ENDBRANCH  37  38
ENDBRANCH  29  32
ENDBRANCH  27  28
ENDBRANCH  26  27
ENDBRANCH   1  26
TORSDOF 18
ENDMDL
MODEL 3
REMARK VINA RESULT:     -10.6      4.394      9.604
REMARK SMILES N#C[C@H]1CN(C(=O)N2CCNC(=O)[C@@H]2CC(=O)NCCCCNC(=O)c2ccc(-c3c4nc(c(-c5ccc(S(=O)(=O)[O-])cc5)c5ccc([nH]5)c(-c5ccc(S(=O)(=O)[O-])cc5)c5nc(c(-c6ccc(S(=O)(=O)[O-])cc6)c6ccc3[nH]6)C=C5)C=C4)cc2)CCO1
REMARK SMILES IDX 20 1 19 2 18 3 16 4 17 5 15 7 14 8 8 9 9 10 10 11 12 12
REMARK SMILES IDX 11 13 13 14 6 16 7 17 5 18 3 19 4 20 88 21 87 22 86 23 2 24
REMARK SMILES IDX 1 25 21 26 22 27 23 28 24 29 25 31 26 32 27 33 85 34 28 35
REMARK SMILES IDX 84 36 29 37 30 38 31 39 78 40 32 41 83 42 77 43 79 44 33 45
REMARK SMILES IDX 82 46 76 47 75 48 34 50 64 51 45 52 63 53 46 54 49 55 62 56
REMARK SMILES IDX 80 57 47 58 48 59 61 61 81 62 50 63 35 64 36 65 44 66 37 67
REMARK SMILES IDX 43 68 38 69 39 70 40 71 41 72 42 73 65 74 66 75 74 76 67 77
REMARK SMILES IDX 73 78 68 79 69 80 70 81 71 82 72 83 51 84 52 85 60 86 53 87
REMARK SMILES IDX 59 88 54 89 55 90 56 91 57 92 58 93
REMARK H PARENT 18 6 11 15 23 30 79 49 49 60
REMARK Flexibility Score: inf
ROOT
ATOM      1  C   UNL A   1      38.378  22.098  25.812  1.00  0.00     0.023 C 
ENDROOT
BRANCH   1   2
ATOM      2  C   UNL A   1      36.925  21.950  25.358  1.00  0.00     0.116 C 
BRANCH   2   3
ATOM      3  N   UNL A   1      36.021  22.131  26.478  1.00  0.00    -0.356 N 
ATOM      4  C   UNL A   1      34.681  22.360  26.478  1.00  0.00     0.222 C 
ATOM      5  O   UNL A   1      34.110  22.551  27.552  1.00  0.00    -0.275 OA
ATOM      6  H   UNL A   1      36.439  22.081  27.368  1.00  0.00     0.163 HD
BRANCH   4   7
ATOM      7  C   UNL A   1      33.904  22.277  25.191  1.00  0.00     0.135 C 
BRANCH   7   8
ATOM      8  C   UNL A   1      33.501  23.632  24.592  1.00  0.00     0.185 C 
ATOM      9  N   UNL A   1      32.228  24.184  25.094  1.00  0.00    -0.310 N 
ATOM     10  C   UNL A   1      31.036  23.420  24.741  1.00  0.00     0.143 C 
ATOM     11  C   UNL A   1      30.940  23.325  23.216  1.00  0.00     0.137 C 
ATOM     12  C   UNL A   1      33.427  23.417  23.071  1.00  0.00     0.243 C 
ATOM     13  N   UNL A   1      32.207  23.069  22.549  1.00  0.00    -0.353 N 
ATOM     14  O   UNL A   1      34.432  23.368  22.365  1.00  0.00    -0.273 OA
ATOM     15  H   UNL A   1      32.188  22.622  21.672  1.00  0.00     0.163 HD
BRANCH   9  16
ATOM     16  C   UNL A   1      32.087  25.314  25.870  1.00  0.00     0.320 C 
ATOM     17  O   UNL A   1      31.564  25.256  26.982  1.00  0.00    -0.248 OA
BRANCH  16  18
ATOM     18  N   UNL A   1      32.469  26.527  25.331  1.00  0.00    -0.319 N 
ATOM     19  C   UNL A   1      30.873  28.128  24.309  1.00  0.00     0.240 C 
ATOM     20  C   UNL A   1      31.956  27.058  24.058  1.00  0.00     0.169 C 
ATOM     21  O   UNL A   1      31.389  29.174  25.161  1.00  0.00    -0.360 OA
ATOM     22  C   UNL A   1      31.818  28.640  26.428  1.00  0.00     0.183 C 
ATOM     23  C   UNL A   1      32.923  27.590  26.239  1.00  0.00     0.150 C 
BRANCH  19  24
ATOM     24  C   UNL A   1      30.421  28.681  23.020  1.00  0.00     0.096 C 
ATOM     25  N   UNL A   1      30.036  29.071  21.994  1.00  0.00    -0.195 NA
ENDBRANCH  19  24
ENDBRANCH  16  18
ENDBRANCH   9  16
ENDBRANCH   7   8
ENDBRANCH   4   7
ENDBRANCH   2   3
ENDBRANCH   1   2
BRANCH   1  26
ATOM     26  C   UNL A   1      38.638  23.335  26.668  1.00  0.00     0.023 C 
BRANCH  26  27
ATOM     27  C   UNL A   1      40.109  23.604  26.942  1.00  0.00     0.116 C 
BRANCH  27  28
ATOM     28  N   UNL A   1      40.710  24.476  25.944  1.00  0.00    -0.352 N 
ATOM     29  C   UNL A   1      41.080  25.793  26.075  1.00  0.00     0.251 C 
ATOM     30  H   UNL A   1      40.873  24.070  25.062  1.00  0.00     0.163 HD
ATOM     31  O   UNL A   1      41.412  26.448  25.093  1.00  0.00    -0.269 OA
BRANCH  29  32
ATOM     32  C   UNL A   1      41.032  26.412  27.415  1.00  0.00     0.039 A 
ATOM     33  C   UNL A   1      42.151  27.101  27.885  1.00  0.00     0.014 A 
ATOM     34  C   UNL A   1      39.850  26.376  28.161  1.00  0.00     0.014 A 
ATOM     35  C   UNL A   1      42.055  27.827  29.072  1.00  0.00     0.010 A 
ATOM     36  C   UNL A   1      39.732  27.173  29.291  1.00  0.00     0.010 A 
ATOM     37  C   UNL A   1      40.831  27.911  29.756  1.00  0.00    -0.014 A 
BRANCH  37  38
ATOM     38  C   UNL A   1      40.667  28.778  30.949  1.00  0.00     0.031 A 
ATOM     39  C   UNL A   1      39.633  29.870  30.948  1.00  0.00     0.074 A 
ATOM     40  C   UNL A   1      41.496  28.631  32.001  1.00  0.00     0.049 A 
ATOM     41  N   UNL A   1      39.387  30.774  31.862  1.00  0.00    -0.248 NA
ATOM     42  C   UNL A   1      38.779  29.976  29.754  1.00  0.00     0.031 C 
ATOM     43  C   UNL A   1      42.556  27.626  32.112  1.00  0.00     0.029 A 
ATOM     44  N   UNL A   1      41.584  29.332  33.179  1.00  0.00    -0.354 N 
ATOM     45  C   UNL A   1      38.361  31.558  31.351  1.00  0.00     0.074 A 
ATOM     46  C   UNL A   1      38.073  31.064  30.023  1.00  0.00     0.031 C 
ATOM     47  C   UNL A   1      43.159  27.750  33.306  1.00  0.00     0.029 A 
ATOM     48  C   UNL A   1      42.572  28.880  34.021  1.00  0.00     0.049 A 
ATOM     49  H   UNL A   1      40.992  30.088  33.400  1.00  0.00     0.167 HD
ATOM     50  C   UNL A   1      37.704  32.585  31.941  1.00  0.00     0.031 A 
ATOM     51  C   UNL A   1      42.972  29.328  35.227  1.00  0.00     0.031 A 
ATOM     52  C   UNL A   1      38.005  33.080  33.258  1.00  0.00     0.049 A 
ATOM     53  C   UNL A   1      42.272  30.515  35.832  1.00  0.00     0.074 A 
ATOM     54  C   UNL A   1      37.374  34.091  33.962  1.00  0.00     0.029 A 
ATOM     55  N   UNL A   1      39.032  32.612  34.065  1.00  0.00    -0.354 N 
ATOM     56  N   UNL A   1      41.257  31.202  35.363  1.00  0.00    -0.248 NA
ATOM     57  C   UNL A   1      42.769  30.985  37.133  1.00  0.00     0.031 C 
ATOM     58  C   UNL A   1      38.065  34.284  35.162  1.00  0.00     0.029 A 
ATOM     59  C   UNL A   1      39.077  33.339  35.243  1.00  0.00     0.049 A 
ATOM     60  H   UNL A   1      39.640  31.872  33.835  1.00  0.00     0.167 HD
ATOM     61  C   UNL A   1      40.973  32.164  36.327  1.00  0.00     0.074 A 
ATOM     62  C   UNL A   1      41.913  31.960  37.410  1.00  0.00     0.031 C 
ATOM     63  C   UNL A   1      40.018  33.126  36.316  1.00  0.00     0.031 A 
BRANCH  50  64
ATOM     64  C   UNL A   1      36.606  33.252  31.151  1.00  0.00    -0.014 A 
ATOM     65  C   UNL A   1      36.849  33.790  29.873  1.00  0.00     0.010 A 
ATOM     66  C   UNL A   1      35.306  33.324  31.684  1.00  0.00     0.010 A 
ATOM     67  C   UNL A   1      35.829  34.435  29.169  1.00  0.00     0.020 A 
ATOM     68  C   UNL A   1      34.273  33.935  30.966  1.00  0.00     0.020 A 
ATOM     69  C   UNL A   1      34.547  34.505  29.722  1.00  0.00     0.054 A 
BRANCH  69  70
ATOM     70  S   UNL A   1      33.244  35.346  28.784  1.00  0.00     0.124 S 
ATOM     71  O   UNL A   1      32.428  35.923  29.849  1.00  0.00    -0.237 OA
ATOM     72  O   UNL A   1      33.998  36.305  27.981  1.00  0.00    -0.237 OA
ATOM     73  O   UNL A   1      32.608  34.269  28.029  1.00  0.00    -0.744 OA
ENDBRANCH  69  70
ENDBRANCH  50  64
BRANCH  51  74
ATOM     74  C   UNL A   1      44.084  28.647  35.948  1.00  0.00    -0.014 A 
ATOM     75  C   UNL A   1      45.409  29.091  35.793  1.00  0.00     0.010 A 
ATOM     76  C   UNL A   1      43.826  27.557  36.799  1.00  0.00     0.010 A 
ATOM     77  C   UNL A   1      46.456  28.447  36.460  1.00  0.00     0.020 A 
ATOM     78  C   UNL A   1      44.864  26.932  37.494  1.00  0.00     0.020 A 
ATOM     79  C   UNL A   1      46.175  27.376  37.312  1.00  0.00     0.054 A 
BRANCH  79  80
ATOM     80  S   UNL A   1      47.545  26.592  38.207  1.00  0.00     0.124 S 
ATOM     81  O   UNL A   1      48.387  27.737  38.537  1.00  0.00    -0.237 OA
ATOM     82  O   UNL A   1      46.862  25.961  39.332  1.00  0.00    -0.237 OA
ATOM     83  O   UNL A   1      48.106  25.663  37.228  1.00  0.00    -0.744 OA
ENDBRANCH  79  80
ENDBRANCH  51  74
BRANCH  63  84
ATOM     84  C   UNL A   1      39.911  34.020  37.525  1.00  0.00    -0.014 A 
ATOM     85  C   UNL A   1      40.602  35.242  37.597  1.00  0.00     0.010 A 
ATOM     86  C   UNL A   1      39.041  33.664  38.573  1.00  0.00     0.010 A 
ATOM     87  C   UNL A   1      40.439  36.082  38.702  1.00  0.00     0.020 A 
ATOM     88  C   UNL A   1      38.848  34.517  39.662  1.00  0.00     0.020 A 
ATOM     89  C   UNL A   1      39.556  35.718  39.723  1.00  0.00     0.054 A 
BRANCH  89  90
ATOM     90  S   UNL A   1      39.307  36.863  41.109  1.00  0.00     0.124 S 
ATOM     91  O   UNL A   1      38.622  36.019  42.083  1.00  0.00    -0.237 OA
ATOM     92  O   UNL A   1      40.676  37.241  41.456  1.00  0.00    -0.237 OA
ATOM     93  O   UNL A   1      38.497  37.935  40.534  1.00  0.00    -0.744 OA
ENDBRANCH  89  90
ENDBRANCH  63  84
ENDBRANCH  37  38
ENDBRANCH  29  32
ENDBRANCH  27  28
ENDBRANCH  26  27
ENDBRANCH   1  26
TORSDOF 18
ENDMDL
