MODEL 1
REMARK VINA RESULT:     -10.6      0.000      0.000
REMARK SMILES C[C@H](C[C@H]1CSc2ccccc21)C(=O)NCCCCNC(=O)c1ccc(-c2c3nc(c(-c4ccc(S(=O)(=O)[O-])cc4)c4ccc([nH]4)c(-c4ccc(S(=O)(=O)[O-])cc4)c4nc(c(-c5ccc(S(=O)(=O)[O-])cc5)c5ccc2[nH]5)C=C4)C=C3)cc1
REMARK SMILES IDX 18 1 17 2 16 3 15 4 13 5 14 6 2 8 1 9 3 10 4 11 5 12 12 13
REMARK SMILES IDX 6 14 7 15 11 16 8 17 10 18 9 19 19 20 20 21 21 22 22 24
REMARK SMILES IDX 23 25 24 26 82 27 25 28 81 29 26 30 27 31 28 32 75 33 29 34
REMARK SMILES IDX 80 35 74 36 76 37 30 38 79 39 73 40 72 41 31 43 61 44 42 45
REMARK SMILES IDX 60 46 43 47 46 48 59 49 77 50 44 51 45 52 58 54 78 55 47 56
REMARK SMILES IDX 32 57 33 58 41 59 34 60 40 61 35 62 36 63 37 64 38 65 39 66
REMARK SMILES IDX 62 67 63 68 71 69 64 70 70 71 65 72 66 73 67 74 68 75 69 76
REMARK SMILES IDX 48 77 49 78 57 79 50 80 56 81 51 82 52 83 53 84 54 85 55 86
REMARK H PARENT 15 7 20 23 76 42 46 53
REMARK Flexibility Score: inf
ROOT
ATOM      1  C   UNL A   1      33.563  28.966  25.795  1.00  0.00     0.023 C 
ENDROOT
BRANCH   1   2
ATOM      2  C   UNL A   1      32.480  29.287  24.773  1.00  0.00     0.023 C 
BRANCH   2   3
ATOM      3  C   UNL A   1      32.413  28.312  23.600  1.00  0.00     0.116 C 
BRANCH   3   4
ATOM      4  N   UNL A   1      31.756  27.071  23.938  1.00  0.00    -0.356 N 
ATOM      5  C   UNL A   1      32.262  25.831  24.181  1.00  0.00     0.222 C 
ATOM      6  O   UNL A   1      31.454  24.946  24.481  1.00  0.00    -0.275 OA
ATOM      7  H   UNL A   1      30.775  27.132  24.002  1.00  0.00     0.163 HD
BRANCH   5   8
ATOM      8  C   UNL A   1      33.770  25.518  24.175  1.00  0.00     0.076 C 
ATOM      9  C   UNL A   1      34.087  24.590  23.010  1.00  0.00     0.018 C 
BRANCH   8  10
ATOM     10  C   UNL A   1      34.382  25.234  25.568  1.00  0.00     0.022 C 
BRANCH  10  11
ATOM     11  C   UNL A   1      34.585  23.805  26.142  1.00  0.00     0.031 C 
ATOM     12  C   UNL A   1      33.502  22.737  25.859  1.00  0.00     0.083 C 
ATOM     13  C   UNL A   1      35.933  23.178  25.884  1.00  0.00    -0.030 A 
ATOM     14  S   UNL A   1      34.276  21.189  25.321  1.00  0.00    -0.125 SA
ATOM     15  C   UNL A   1      35.902  21.846  25.469  1.00  0.00     0.011 A 
ATOM     16  C   UNL A   1      37.161  23.783  26.149  1.00  0.00     0.005 A 
ATOM     17  C   UNL A   1      37.067  21.123  25.263  1.00  0.00     0.015 A 
ATOM     18  C   UNL A   1      38.340  23.058  25.963  1.00  0.00     0.000 A 
ATOM     19  C   UNL A   1      38.295  21.736  25.511  1.00  0.00     0.001 A 
ENDBRANCH  10  11
ENDBRANCH   8  10
ENDBRANCH   5   8
ENDBRANCH   3   4
ENDBRANCH   2   3
ENDBRANCH   1   2
BRANCH   1  20
ATOM     20  C   UNL A   1      33.186  29.240  27.246  1.00  0.00     0.116 C 
BRANCH  20  21
ATOM     21  N   UNL A   1      33.363  30.626  27.665  1.00  0.00    -0.352 N 
ATOM     22  C   UNL A   1      34.509  31.217  28.166  1.00  0.00     0.251 C 
ATOM     23  H   UNL A   1      32.575  31.209  27.582  1.00  0.00     0.163 HD
ATOM     24  O   UNL A   1      34.514  32.379  28.528  1.00  0.00    -0.269 OA
BRANCH  22  25
ATOM     25  C   UNL A   1      35.711  30.367  28.301  1.00  0.00     0.039 A 
ATOM     26  C   UNL A   1      35.925  29.665  29.487  1.00  0.00     0.014 A 
ATOM     27  C   UNL A   1      36.699  30.434  27.316  1.00  0.00     0.014 A 
ATOM     28  C   UNL A   1      37.204  29.213  29.778  1.00  0.00     0.010 A 
ATOM     29  C   UNL A   1      37.960  29.890  27.577  1.00  0.00     0.010 A 
ATOM     30  C   UNL A   1      38.242  29.340  28.837  1.00  0.00    -0.014 A 
BRANCH  30  31
ATOM     31  C   UNL A   1      39.619  28.933  29.218  1.00  0.00     0.031 A 
ATOM     32  C   UNL A   1      40.438  29.767  30.171  1.00  0.00     0.074 A 
ATOM     33  C   UNL A   1      40.094  27.751  28.782  1.00  0.00     0.049 A 
ATOM     34  N   UNL A   1      41.642  29.540  30.631  1.00  0.00    -0.248 NA
ATOM     35  C   UNL A   1      39.833  31.011  30.675  1.00  0.00     0.031 C 
ATOM     36  C   UNL A   1      39.374  26.836  27.895  1.00  0.00     0.029 A 
ATOM     37  N   UNL A   1      41.265  27.094  29.061  1.00  0.00    -0.354 N 
ATOM     38  C   UNL A   1      41.945  30.614  31.460  1.00  0.00     0.074 A 
ATOM     39  C   UNL A   1      40.810  31.509  31.422  1.00  0.00     0.031 C 
ATOM     40  C   UNL A   1      40.076  25.702  27.773  1.00  0.00     0.029 A 
ATOM     41  C   UNL A   1      41.334  25.839  28.503  1.00  0.00     0.049 A 
ATOM     42  H   UNL A   1      41.986  27.482  29.607  1.00  0.00     0.167 HD
ATOM     43  C   UNL A   1      43.064  30.829  32.194  1.00  0.00     0.031 A 
ATOM     44  C   UNL A   1      42.298  24.900  28.559  1.00  0.00     0.031 A 
ATOM     45  C   UNL A   1      44.188  29.931  32.235  1.00  0.00     0.049 A 
ATOM     46  C   UNL A   1      43.548  25.181  29.335  1.00  0.00     0.074 A 
ATOM     47  C   UNL A   1      45.379  30.080  32.923  1.00  0.00     0.029 A 
ATOM     48  N   UNL A   1      44.255  28.712  31.577  1.00  0.00    -0.354 N 
ATOM     49  N   UNL A   1      43.842  26.235  30.058  1.00  0.00    -0.248 NA
ATOM     50  C   UNL A   1      44.603  24.161  29.293  1.00  0.00     0.031 C 
ATOM     51  C   UNL A   1      46.184  28.971  32.647  1.00  0.00     0.029 A 
ATOM     52  C   UNL A   1      45.473  28.104  31.832  1.00  0.00     0.049 A 
ATOM     53  H   UNL A   1      43.542  28.335  31.013  1.00  0.00     0.167 HD
ATOM     54  C   UNL A   1      45.121  26.010  30.550  1.00  0.00     0.074 A 
ATOM     55  C   UNL A   1      45.534  24.708  30.065  1.00  0.00     0.031 C 
ATOM     56  C   UNL A   1      45.882  26.817  31.328  1.00  0.00     0.031 A 
BRANCH  43  57
ATOM     57  C   UNL A   1      43.144  32.094  33.010  1.00  0.00    -0.014 A 
ATOM     58  C   UNL A   1      43.719  33.251  32.452  1.00  0.00     0.010 A 
ATOM     59  C   UNL A   1      42.729  32.116  34.353  1.00  0.00     0.010 A 
ATOM     60  C   UNL A   1      43.890  34.403  33.225  1.00  0.00     0.020 A 
ATOM     61  C   UNL A   1      42.877  33.275  35.122  1.00  0.00     0.020 A 
ATOM     62  C   UNL A   1      43.472  34.406  34.558  1.00  0.00     0.054 A 
BRANCH  62  63
ATOM     63  S   UNL A   1      43.683  35.914  35.545  1.00  0.00     0.124 S 
ATOM     64  O   UNL A   1      44.581  35.467  36.605  1.00  0.00    -0.237 OA
ATOM     65  O   UNL A   1      44.258  36.853  34.583  1.00  0.00    -0.237 OA
ATOM     66  O   UNL A   1      42.321  36.232  35.970  1.00  0.00    -0.744 OA
ENDBRANCH  62  63
ENDBRANCH  43  57
BRANCH  44  67
ATOM     67  C   UNL A   1      42.074  23.612  27.853  1.00  0.00    -0.014 A 
ATOM     68  C   UNL A   1      41.518  22.516  28.540  1.00  0.00     0.010 A 
ATOM     69  C   UNL A   1      42.551  23.432  26.543  1.00  0.00     0.010 A 
ATOM     70  C   UNL A   1      41.516  21.246  27.961  1.00  0.00     0.020 A 
ATOM     71  C   UNL A   1      42.524  22.165  25.951  1.00  0.00     0.020 A 
ATOM     72  C   UNL A   1      42.043  21.076  26.679  1.00  0.00     0.054 A 
BRANCH  72  73
ATOM     73  S   UNL A   1      42.124  19.402  25.983  1.00  0.00     0.124 S 
ATOM     74  O   UNL A   1      42.601  18.628  27.125  1.00  0.00    -0.237 OA
ATOM     75  O   UNL A   1      40.741  19.150  25.586  1.00  0.00    -0.237 OA
ATOM     76  O   UNL A   1      43.071  19.540  24.879  1.00  0.00    -0.744 OA
ENDBRANCH  72  73
ENDBRANCH  44  67
BRANCH  56  77
ATOM     77  C   UNL A   1      47.260  26.342  31.697  1.00  0.00    -0.014 A 
ATOM     78  C   UNL A   1      48.340  26.587  30.830  1.00  0.00     0.010 A 
ATOM     79  C   UNL A   1      47.458  25.547  32.838  1.00  0.00     0.010 A 
ATOM     80  C   UNL A   1      49.590  26.017  31.080  1.00  0.00     0.020 A 
ATOM     81  C   UNL A   1      48.714  24.992  33.104  1.00  0.00     0.020 A 
ATOM     82  C   UNL A   1      49.765  25.211  32.210  1.00  0.00     0.054 A 
BRANCH  82  83
ATOM     83  S   UNL A   1      51.386  24.452  32.504  1.00  0.00     0.124 S 
ATOM     84  O   UNL A   1      52.237  25.173  31.562  1.00  0.00    -0.237 OA
ATOM     85  O   UNL A   1      51.627  24.738  33.916  1.00  0.00    -0.237 OA
ATOM     86  O   UNL A   1      51.162  23.042  32.192  1.00  0.00    -0.744 OA
ENDBRANCH  82  83
ENDBRANCH  56  77
ENDBRANCH  30  31
ENDBRANCH  22  25
ENDBRANCH  20  21
ENDBRANCH   1  20
TORSDOF 16
ENDMDL
MODEL 2
REMARK VINA RESULT:     -10.4      2.997      9.602
REMARK SMILES C[C@H](C[C@H]1CSc2ccccc21)C(=O)NCCCCNC(=O)c1ccc(-c2c3nc(c(-c4ccc(S(=O)(=O)[O-])cc4)c4ccc([nH]4)c(-c4ccc(S(=O)(=O)[O-])cc4)c4nc(c(-c5ccc(S(=O)(=O)[O-])cc5)c5ccc2[nH]5)C=C4)C=C3)cc1
REMARK SMILES IDX 18 1 17 2 16 3 15 4 13 5 14 6 2 8 1 9 3 10 4 11 5 12 12 13
REMARK SMILES IDX 6 14 7 15 11 16 8 17 10 18 9 19 19 20 20 21 21 22 22 24
REMARK SMILES IDX 23 25 24 26 82 27 25 28 81 29 26 30 27 31 28 32 75 33 29 34
REMARK SMILES IDX 80 35 74 36 76 37 30 38 79 39 73 40 72 41 31 43 61 44 42 45
REMARK SMILES IDX 60 46 43 47 46 48 59 49 77 50 44 51 45 52 58 54 78 55 47 56
REMARK SMILES IDX 32 57 33 58 41 59 34 60 40 61 35 62 36 63 37 64 38 65 39 66
REMARK SMILES IDX 62 67 63 68 71 69 64 70 70 71 65 72 66 73 67 74 68 75 69 76
REMARK SMILES IDX 48 77 49 78 57 79 50 80 56 81 51 82 52 83 53 84 54 85 55 86
REMARK H PARENT 15 7 20 23 76 42 46 53
REMARK Flexibility Score: inf
ROOT
ATOM      1  C   UNL A   1      37.026  23.331  24.219  1.00  0.00     0.023 C 
ENDROOT
BRANCH   1   2
ATOM      2  C   UNL A   1      35.710  23.033  23.511  1.00  0.00     0.023 C 
BRANCH   2   3
ATOM      3  C   UNL A   1      34.591  22.557  24.433  1.00  0.00     0.116 C 
BRANCH   3   4
ATOM      4  N   UNL A   1      33.290  23.040  24.033  1.00  0.00    -0.356 N 
ATOM      5  C   UNL A   1      32.531  24.063  24.513  1.00  0.00     0.222 C 
ATOM      6  O   UNL A   1      31.452  24.272  23.950  1.00  0.00    -0.275 OA
ATOM      7  H   UNL A   1      32.882  22.545  23.285  1.00  0.00     0.163 HD
BRANCH   5   8
ATOM      8  C   UNL A   1      32.992  24.994  25.651  1.00  0.00     0.076 C 
ATOM      9  C   UNL A   1      31.791  25.383  26.501  1.00  0.00     0.018 C 
BRANCH   8  10
ATOM     10  C   UNL A   1      34.016  26.076  25.232  1.00  0.00     0.022 C 
BRANCH  10  11
ATOM     11  C   UNL A   1      33.615  27.459  24.647  1.00  0.00     0.031 C 
ATOM     12  C   UNL A   1      32.401  27.529  23.691  1.00  0.00     0.083 C 
ATOM     13  C   UNL A   1      33.483  28.582  25.648  1.00  0.00    -0.030 A 
ATOM     14  S   UNL A   1      31.315  28.903  24.160  1.00  0.00    -0.125 SA
ATOM     15  C   UNL A   1      32.355  29.389  25.493  1.00  0.00     0.011 A 
ATOM     16  C   UNL A   1      34.446  28.926  26.596  1.00  0.00     0.005 A 
ATOM     17  C   UNL A   1      32.142  30.499  26.296  1.00  0.00     0.015 A 
ATOM     18  C   UNL A   1      34.250  30.053  27.397  1.00  0.00     0.000 A 
ATOM     19  C   UNL A   1      33.098  30.832  27.255  1.00  0.00     0.001 A 
ENDBRANCH  10  11
ENDBRANCH   8  10
ENDBRANCH   5   8
ENDBRANCH   3   4
ENDBRANCH   2   3
ENDBRANCH   1   2
BRANCH   1  20
ATOM     20  C   UNL A   1      37.150  22.754  25.625  1.00  0.00     0.116 C 
BRANCH  20  21
ATOM     21  N   UNL A   1      38.410  22.068  25.886  1.00  0.00    -0.352 N 
ATOM     22  C   UNL A   1      39.545  22.585  26.484  1.00  0.00     0.251 C 
ATOM     23  H   UNL A   1      38.459  21.127  25.605  1.00  0.00     0.163 HD
ATOM     24  O   UNL A   1      40.558  21.919  26.601  1.00  0.00    -0.269 OA
BRANCH  22  25
ATOM     25  C   UNL A   1      39.502  23.997  26.921  1.00  0.00     0.039 A 
ATOM     26  C   UNL A   1      40.075  24.982  26.116  1.00  0.00     0.014 A 
ATOM     27  C   UNL A   1      39.060  24.290  28.212  1.00  0.00     0.014 A 
ATOM     28  C   UNL A   1      40.401  26.205  26.683  1.00  0.00     0.010 A 
ATOM     29  C   UNL A   1      39.305  25.558  28.746  1.00  0.00     0.010 A 
ATOM     30  C   UNL A   1      40.041  26.501  28.011  1.00  0.00    -0.014 A 
BRANCH  30  31
ATOM     31  C   UNL A   1      40.490  27.782  28.614  1.00  0.00     0.031 A 
ATOM     32  C   UNL A   1      41.948  28.034  28.903  1.00  0.00     0.074 A 
ATOM     33  C   UNL A   1      39.588  28.763  28.809  1.00  0.00     0.049 A 
ATOM     34  N   UNL A   1      42.513  29.105  29.398  1.00  0.00    -0.248 NA
ATOM     35  C   UNL A   1      42.897  26.950  28.596  1.00  0.00     0.031 C 
ATOM     36  C   UNL A   1      38.157  28.652  28.522  1.00  0.00     0.029 A 
ATOM     37  N   UNL A   1      39.744  30.054  29.243  1.00  0.00    -0.354 N 
ATOM     38  C   UNL A   1      43.871  28.822  29.479  1.00  0.00     0.074 A 
ATOM     39  C   UNL A   1      44.048  27.468  29.006  1.00  0.00     0.031 C 
ATOM     40  C   UNL A   1      37.581  29.848  28.703  1.00  0.00     0.029 A 
ATOM     41  C   UNL A   1      38.582  30.789  29.198  1.00  0.00     0.049 A 
ATOM     42  H   UNL A   1      40.602  30.420  29.556  1.00  0.00     0.167 HD
ATOM     43  C   UNL A   1      44.880  29.623  29.900  1.00  0.00     0.031 A 
ATOM     44  C   UNL A   1      38.338  32.073  29.523  1.00  0.00     0.031 A 
ATOM     45  C   UNL A   1      44.700  30.974  30.362  1.00  0.00     0.049 A 
ATOM     46  C   UNL A   1      39.459  32.925  30.034  1.00  0.00     0.074 A 
ATOM     47  C   UNL A   1      45.658  31.851  30.840  1.00  0.00     0.029 A 
ATOM     48  N   UNL A   1      43.490  31.650  30.390  1.00  0.00    -0.354 N 
ATOM     49  N   UNL A   1      40.726  32.614  30.166  1.00  0.00    -0.248 NA
ATOM     50  C   UNL A   1      39.122  34.290  30.456  1.00  0.00     0.031 C 
ATOM     51  C   UNL A   1      45.019  33.043  31.196  1.00  0.00     0.029 A 
ATOM     52  C   UNL A   1      43.673  32.928  30.888  1.00  0.00     0.049 A 
ATOM     53  H   UNL A   1      42.627  31.275  30.097  1.00  0.00     0.167 HD
ATOM     54  C   UNL A   1      41.338  33.743  30.696  1.00  0.00     0.074 A 
ATOM     55  C   UNL A   1      40.307  34.753  30.835  1.00  0.00     0.031 C 
ATOM     56  C   UNL A   1      42.636  33.918  31.041  1.00  0.00     0.031 A 
BRANCH  43  57
ATOM     57  C   UNL A   1      46.279  29.061  29.897  1.00  0.00    -0.014 A 
ATOM     58  C   UNL A   1      46.782  28.429  31.049  1.00  0.00     0.010 A 
ATOM     59  C   UNL A   1      47.125  29.232  28.787  1.00  0.00     0.010 A 
ATOM     60  C   UNL A   1      48.108  27.989  31.097  1.00  0.00     0.020 A 
ATOM     61  C   UNL A   1      48.445  28.772  28.823  1.00  0.00     0.020 A 
ATOM     62  C   UNL A   1      48.933  28.169  29.984  1.00  0.00     0.054 A 
BRANCH  62  63
ATOM     63  S   UNL A   1      50.647  27.577  30.053  1.00  0.00     0.124 S 
ATOM     64  O   UNL A   1      50.858  27.082  28.696  1.00  0.00    -0.237 OA
ATOM     65  O   UNL A   1      51.392  28.783  30.409  1.00  0.00    -0.237 OA
ATOM     66  O   UNL A   1      50.610  26.553  31.096  1.00  0.00    -0.744 OA
ENDBRANCH  62  63
ENDBRANCH  43  57
BRANCH  44  67
ATOM     67  C   UNL A   1      36.958  32.597  29.349  1.00  0.00    -0.014 A 
ATOM     68  C   UNL A   1      36.556  33.132  28.110  1.00  0.00     0.010 A 
ATOM     69  C   UNL A   1      36.097  32.701  30.455  1.00  0.00     0.010 A 
ATOM     70  C   UNL A   1      35.352  33.832  28.000  1.00  0.00     0.020 A 
ATOM     71  C   UNL A   1      34.878  33.377  30.339  1.00  0.00     0.020 A 
ATOM     72  C   UNL A   1      34.534  33.970  29.123  1.00  0.00     0.054 A 
BRANCH  72  73
ATOM     73  S   UNL A   1      33.024  34.967  28.985  1.00  0.00     0.124 S 
ATOM     74  O   UNL A   1      32.251  34.202  28.010  1.00  0.00    -0.237 OA
ATOM     75  O   UNL A   1      32.504  34.955  30.350  1.00  0.00    -0.237 OA
ATOM     76  O   UNL A   1      33.515  36.262  28.519  1.00  0.00    -0.744 OA
ENDBRANCH  72  73
ENDBRANCH  44  67
BRANCH  56  77
ATOM     77  C   UNL A   1      43.035  35.243  31.630  1.00  0.00    -0.014 A 
ATOM     78  C   UNL A   1      43.618  36.226  30.809  1.00  0.00     0.010 A 
ATOM     79  C   UNL A   1      42.948  35.464  33.015  1.00  0.00     0.010 A 
ATOM     80  C   UNL A   1      44.137  37.396  31.368  1.00  0.00     0.020 A 
ATOM     81  C   UNL A   1      43.447  36.643  33.575  1.00  0.00     0.020 A 
ATOM     82  C   UNL A   1      44.060  37.591  32.751  1.00  0.00     0.054 A 
BRANCH  82  83
ATOM     83  S   UNL A   1      44.767  39.100  33.465  1.00  0.00     0.124 S 
ATOM     84  O   UNL A   1      45.980  38.598  34.106  1.00  0.00    -0.237 OA
ATOM     85  O   UNL A   1      44.978  39.946  32.293  1.00  0.00    -0.237 OA
ATOM     86  O   UNL A   1      43.725  39.566  34.378  1.00  0.00    -0.744 OA
ENDBRANCH  82  83
ENDBRANCH  56  77
ENDBRANCH  30  31
ENDBRANCH  22  25
ENDBRANCH  20  21
ENDBRANCH   1  20
TORSDOF 16
ENDMDL
MODEL 3
REMARK VINA RESULT:     -10.3      1.288      8.427
REMARK SMILES C[C@H](C[C@H]1CSc2ccccc21)C(=O)NCCCCNC(=O)c1ccc(-c2c3nc(c(-c4ccc(S(=O)(=O)[O-])cc4)c4ccc([nH]4)c(-c4ccc(S(=O)(=O)[O-])cc4)c4nc(c(-c5ccc(S(=O)(=O)[O-])cc5)c5ccc2[nH]5)C=C4)C=C3)cc1
REMARK SMILES IDX 18 1 17 2 16 3 15 4 13 5 14 6 2 8 1 9 3 10 4 11 5 12 12 13
REMARK SMILES IDX 6 14 7 15 11 16 8 17 10 18 9 19 19 20 20 21 21 22 22 24
REMARK SMILES IDX 23 25 24 26 82 27 25 28 81 29 26 30 27 31 28 32 75 33 29 34
REMARK SMILES IDX 80 35 74 36 76 37 30 38 79 39 73 40 72 41 31 43 61 44 42 45
REMARK SMILES IDX 60 46 43 47 46 48 59 49 77 50 44 51 45 52 58 54 78 55 47 56
REMARK SMILES IDX 32 57 33 58 41 59 34 60 40 61 35 62 36 63 37 64 38 65 39 66
REMARK SMILES IDX 62 67 63 68 71 69 64 70 70 71 65 72 66 73 67 74 68 75 69 76
REMARK SMILES IDX 48 77 49 78 57 79 50 80 56 81 51 82 52 83 53 84 54 85 55 86
REMARK H PARENT 15 7 20 23 76 42 46 53
REMARK Flexibility Score: inf
ROOT
ATOM      1  C   UNL A   1      31.861  28.248  27.579  1.00  0.00     0.023 C 
ENDROOT
BRANCH   1   2
ATOM      2  C   UNL A   1      31.542  26.992  26.778  1.00  0.00     0.023 C 
BRANCH   2   3
ATOM      3  C   UNL A   1      31.441  27.214  25.271  1.00  0.00     0.116 C 
BRANCH   3   4
ATOM      4  N   UNL A   1      31.202  25.992  24.538  1.00  0.00    -0.356 N 
ATOM      5  C   UNL A   1      32.065  25.056  24.058  1.00  0.00     0.222 C 
ATOM      6  O   UNL A   1      31.571  24.081  23.485  1.00  0.00    -0.275 OA
ATOM      7  H   UNL A   1      30.252  25.806  24.353  1.00  0.00     0.163 HD
BRANCH   5   8
ATOM      8  C   UNL A   1      33.589  25.126  24.270  1.00  0.00     0.076 C 
ATOM      9  C   UNL A   1      34.292  24.457  23.096  1.00  0.00     0.018 C 
BRANCH   8  10
ATOM     10  C   UNL A   1      34.061  24.830  25.714  1.00  0.00     0.022 C 
BRANCH  10  11
ATOM     11  C   UNL A   1      34.476  23.417  26.210  1.00  0.00     0.031 C 
ATOM     12  C   UNL A   1      33.567  22.216  25.855  1.00  0.00     0.083 C 
ATOM     13  C   UNL A   1      35.904  23.016  25.931  1.00  0.00    -0.030 A 
ATOM     14  S   UNL A   1      34.568  20.835  25.240  1.00  0.00    -0.125 SA
ATOM     15  C   UNL A   1      36.076  21.720  25.442  1.00  0.00     0.011 A 
ATOM     16  C   UNL A   1      37.026  23.783  26.243  1.00  0.00     0.005 A 
ATOM     17  C   UNL A   1      37.337  21.194  25.209  1.00  0.00     0.015 A 
ATOM     18  C   UNL A   1      38.301  23.256  26.029  1.00  0.00     0.000 A 
ATOM     19  C   UNL A   1      38.457  21.969  25.504  1.00  0.00     0.001 A 
ENDBRANCH  10  11
ENDBRANCH   8  10
ENDBRANCH   5   8
ENDBRANCH   3   4
ENDBRANCH   2   3
ENDBRANCH   1   2
BRANCH   1  20
ATOM     20  C   UNL A   1      33.207  28.891  27.269  1.00  0.00     0.116 C 
BRANCH  20  21
ATOM     21  N   UNL A   1      33.313  30.291  27.663  1.00  0.00    -0.352 N 
ATOM     22  C   UNL A   1      34.424  30.946  28.162  1.00  0.00     0.251 C 
ATOM     23  H   UNL A   1      32.498  30.833  27.563  1.00  0.00     0.163 HD
ATOM     24  O   UNL A   1      34.370  32.114  28.503  1.00  0.00    -0.269 OA
BRANCH  22  25
ATOM     25  C   UNL A   1      35.665  30.159  28.322  1.00  0.00     0.039 A 
ATOM     26  C   UNL A   1      35.994  29.643  29.575  1.00  0.00     0.014 A 
ATOM     27  C   UNL A   1      36.573  30.108  27.263  1.00  0.00     0.014 A 
ATOM     28  C   UNL A   1      37.307  29.274  29.826  1.00  0.00     0.010 A 
ATOM     29  C   UNL A   1      37.870  29.643  27.497  1.00  0.00     0.010 A 
ATOM     30  C   UNL A   1      38.267  29.291  28.797  1.00  0.00    -0.014 A 
BRANCH  30  31
ATOM     31  C   UNL A   1      39.683  28.981  29.123  1.00  0.00     0.031 A 
ATOM     32  C   UNL A   1      40.289  27.651  28.754  1.00  0.00     0.074 A 
ATOM     33  C   UNL A   1      40.454  29.944  29.663  1.00  0.00     0.049 A 
ATOM     34  N   UNL A   1      41.515  27.230  28.937  1.00  0.00    -0.248 NA
ATOM     35  C   UNL A   1      39.414  26.666  28.095  1.00  0.00     0.031 C 
ATOM     36  C   UNL A   1      39.990  31.286  30.019  1.00  0.00     0.029 A 
ATOM     37  N   UNL A   1      41.793  29.962  29.961  1.00  0.00    -0.354 N 
ATOM     38  C   UNL A   1      41.555  25.934  28.435  1.00  0.00     0.074 A 
ATOM     39  C   UNL A   1      40.225  25.624  27.962  1.00  0.00     0.031 C 
ATOM     40  C   UNL A   1      41.041  32.024  30.402  1.00  0.00     0.029 A 
ATOM     41  C   UNL A   1      42.237  31.187  30.401  1.00  0.00     0.049 A 
ATOM     42  H   UNL A   1      42.379  29.177  29.868  1.00  0.00     0.167 HD
ATOM     43  C   UNL A   1      42.608  25.084  28.366  1.00  0.00     0.031 A 
ATOM     44  C   UNL A   1      43.466  31.598  30.771  1.00  0.00     0.031 A 
ATOM     45  C   UNL A   1      43.933  25.401  28.830  1.00  0.00     0.049 A 
ATOM     46  C   UNL A   1      44.605  30.626  30.734  1.00  0.00     0.074 A 
ATOM     47  C   UNL A   1      45.056  24.592  28.834  1.00  0.00     0.029 A 
ATOM     48  N   UNL A   1      44.319  26.623  29.359  1.00  0.00    -0.354 N 
ATOM     49  N   UNL A   1      44.605  29.383  30.318  1.00  0.00    -0.248 NA
ATOM     50  C   UNL A   1      45.903  31.101  31.230  1.00  0.00     0.031 C 
ATOM     51  C   UNL A   1      46.111  25.312  29.403  1.00  0.00     0.029 A 
ATOM     52  C   UNL A   1      45.660  26.588  29.703  1.00  0.00     0.049 A 
ATOM     53  H   UNL A   1      43.726  27.402  29.472  1.00  0.00     0.167 HD
ATOM     54  C   UNL A   1      45.900  28.921  30.510  1.00  0.00     0.074 A 
ATOM     55  C   UNL A   1      46.664  30.026  31.055  1.00  0.00     0.031 C 
ATOM     56  C   UNL A   1      46.404  27.688  30.263  1.00  0.00     0.031 A 
BRANCH  43  57
ATOM     57  C   UNL A   1      42.377  23.716  27.777  1.00  0.00    -0.014 A 
ATOM     58  C   UNL A   1      42.137  22.621  28.626  1.00  0.00     0.010 A 
ATOM     59  C   UNL A   1      42.481  23.498  26.392  1.00  0.00     0.010 A 
ATOM     60  C   UNL A   1      42.018  21.329  28.104  1.00  0.00     0.020 A 
ATOM     61  C   UNL A   1      42.339  22.211  25.864  1.00  0.00     0.020 A 
ATOM     62  C   UNL A   1      42.125  21.132  26.725  1.00  0.00     0.054 A 
BRANCH  62  63
ATOM     63  S   UNL A   1      41.950  19.454  26.058  1.00  0.00     0.124 S 
ATOM     64  O   UNL A   1      42.461  18.632  27.149  1.00  0.00    -0.237 OA
ATOM     65  O   UNL A   1      40.513  19.353  25.808  1.00  0.00    -0.237 OA
ATOM     66  O   UNL A   1      42.778  19.481  24.852  1.00  0.00    -0.744 OA
ENDBRANCH  62  63
ENDBRANCH  43  57
BRANCH  44  67
ATOM     67  C   UNL A   1      43.641  33.012  31.192  1.00  0.00    -0.014 A 
ATOM     68  C   UNL A   1      43.896  34.010  30.232  1.00  0.00     0.010 A 
ATOM     69  C   UNL A   1      43.704  33.340  32.557  1.00  0.00     0.010 A 
ATOM     70  C   UNL A   1      44.289  35.290  30.630  1.00  0.00     0.020 A 
ATOM     71  C   UNL A   1      44.070  34.629  32.957  1.00  0.00     0.020 A 
ATOM     72  C   UNL A   1      44.397  35.582  31.991  1.00  0.00     0.054 A 
BRANCH  72  73
ATOM     73  S   UNL A   1      45.005  37.219  32.487  1.00  0.00     0.124 S 
ATOM     74  O   UNL A   1      45.516  36.951  33.828  1.00  0.00    -0.237 OA
ATOM     75  O   UNL A   1      46.017  37.507  31.474  1.00  0.00    -0.237 OA
ATOM     76  O   UNL A   1      43.810  38.057  32.426  1.00  0.00    -0.744 OA
ENDBRANCH  72  73
ENDBRANCH  44  67
BRANCH  56  77
ATOM     77  C   UNL A   1      47.849  27.439  30.595  1.00  0.00    -0.014 A 
ATOM     78  C   UNL A   1      48.836  27.625  29.610  1.00  0.00     0.010 A 
ATOM     79  C   UNL A   1      48.212  26.901  31.842  1.00  0.00     0.010 A 
ATOM     80  C   UNL A   1      50.158  27.248  29.854  1.00  0.00     0.020 A 
ATOM     81  C   UNL A   1      49.539  26.542  32.097  1.00  0.00     0.020 A 
ATOM     82  C   UNL A   1      50.498  26.695  31.093  1.00  0.00     0.054 A 
BRANCH  82  83
ATOM     83  S   UNL A   1      52.213  26.180  31.383  1.00  0.00     0.124 S 
ATOM     84  O   UNL A   1      52.782  26.239  30.039  1.00  0.00    -0.237 OA
ATOM     85  O   UNL A   1      52.702  27.190  32.318  1.00  0.00    -0.237 OA
ATOM     86  O   UNL A   1      52.075  24.838  31.945  1.00  0.00    -0.744 OA
ENDBRANCH  82  83
ENDBRANCH  56  77
ENDBRANCH  30  31
ENDBRANCH  22  25
ENDBRANCH  20  21
ENDBRANCH   1  20
TORSDOF 16
ENDMDL
