MODEL 1
REMARK VINA RESULT:     -10.4      0.000      0.000
REMARK SMILES CCN(Cc1ccccn1)C(=O)[C@H]1CC[C@@H](C(=O)NCCCCNC(=O)c2ccc(-c3c4nc(c(-c5ccc(S(=O)(=O)[O-])cc5)c5ccc([nH]5)c(-c5ccc(S(=O)(=O)[O-])cc5)c5nc(c(-c6ccc(S(=O)(=O)[O-])cc6)c6ccc3[nH]6)C=C5)C=C4)cc2)CC1
REMARK SMILES IDX 21 1 20 2 19 3 17 4 18 5 16 7 13 8 88 9 14 10 87 11 15 12
REMARK SMILES IDX 11 13 12 14 3 15 2 16 1 17 4 18 5 19 6 20 10 21 7 22 9 23
REMARK SMILES IDX 8 24 22 25 23 26 24 27 25 28 26 30 27 31 28 32 86 33 29 34
REMARK SMILES IDX 85 35 30 36 31 37 32 38 79 39 33 40 84 41 78 42 80 43 34 44
REMARK SMILES IDX 83 45 77 46 76 47 35 49 65 50 46 51 64 52 47 53 50 54 63 55
REMARK SMILES IDX 81 56 48 57 49 58 62 60 82 61 51 62 36 63 37 64 45 65 38 66
REMARK SMILES IDX 44 67 39 68 40 69 41 70 42 71 43 72 66 73 67 74 75 75 68 76
REMARK SMILES IDX 74 77 69 78 70 79 71 80 72 81 73 82 52 83 53 84 61 85 54 86
REMARK SMILES IDX 60 87 55 88 56 89 57 90 58 91 59 92
REMARK H PARENT 19 6 24 29 80 48 50 59
REMARK Flexibility Score: inf
ROOT
ATOM      1  C   UNL A   1      33.069  29.399  24.815  1.00  0.00     0.023 C 
ENDROOT
BRANCH   1   2
ATOM      2  C   UNL A   1      32.981  29.014  23.341  1.00  0.00     0.116 C 
BRANCH   2   3
ATOM      3  N   UNL A   1      31.863  28.155  23.039  1.00  0.00    -0.356 N 
ATOM      4  C   UNL A   1      31.813  26.866  22.626  1.00  0.00     0.223 C 
ATOM      5  O   UNL A   1      30.688  26.348  22.600  1.00  0.00    -0.275 OA
ATOM      6  H   UNL A   1      30.982  28.580  23.152  1.00  0.00     0.163 HD
BRANCH   4   7
ATOM      7  C   UNL A   1      33.021  26.047  22.137  1.00  0.00     0.078 C 
ATOM      8  C   UNL A   1      33.748  23.379  23.456  1.00  0.00     0.079 C 
ATOM      9  C   UNL A   1      32.910  23.431  22.144  1.00  0.00     0.014 C 
ATOM     10  C   UNL A   1      34.038  24.747  24.086  1.00  0.00     0.014 C 
ATOM     11  C   UNL A   1      32.792  24.749  21.378  1.00  0.00     0.014 C 
ATOM     12  C   UNL A   1      34.144  25.931  23.147  1.00  0.00     0.014 C 
BRANCH   8  13
ATOM     13  C   UNL A   1      33.079  22.382  24.465  1.00  0.00     0.226 C 
ATOM     14  O   UNL A   1      31.877  22.507  24.735  1.00  0.00    -0.275 OA
BRANCH  13  15
ATOM     15  N   UNL A   1      33.790  21.337  25.047  1.00  0.00    -0.337 N 
BRANCH  15  16
ATOM     16  C   UNL A   1      33.752  20.020  24.392  1.00  0.00     0.116 C 
ATOM     17  C   UNL A   1      32.610  19.142  24.867  1.00  0.00     0.027 C 
ENDBRANCH  15  16
BRANCH  15  18
ATOM     18  C   UNL A   1      34.616  21.424  26.256  1.00  0.00     0.175 C 
BRANCH  18  19
ATOM     19  C   UNL A   1      35.980  22.013  25.989  1.00  0.00     0.060 A 
ATOM     20  C   UNL A   1      36.226  23.363  26.233  1.00  0.00     0.026 A 
ATOM     21  N   UNL A   1      36.960  21.153  25.611  1.00  0.00    -0.259 NA
ATOM     22  C   UNL A   1      37.533  23.830  26.157  1.00  0.00     0.004 A 
ATOM     23  C   UNL A   1      38.218  21.635  25.542  1.00  0.00     0.111 A 
ATOM     24  C   UNL A   1      38.551  22.949  25.818  1.00  0.00     0.020 A 
ENDBRANCH  18  19
ENDBRANCH  15  18
ENDBRANCH  13  15
ENDBRANCH   8  13
ENDBRANCH   4   7
ENDBRANCH   2   3
ENDBRANCH   1   2
BRANCH   1  25
ATOM     25  C   UNL A   1      33.051  28.239  25.795  1.00  0.00     0.023 C 
BRANCH  25  26
ATOM     26  C   UNL A   1      33.657  28.528  27.161  1.00  0.00     0.116 C 
BRANCH  26  27
ATOM     27  N   UNL A   1      33.545  29.914  27.601  1.00  0.00    -0.352 N 
ATOM     28  C   UNL A   1      34.522  30.682  28.209  1.00  0.00     0.251 C 
ATOM     29  H   UNL A   1      32.677  30.352  27.449  1.00  0.00     0.163 HD
ATOM     30  O   UNL A   1      34.318  31.811  28.612  1.00  0.00    -0.269 OA
BRANCH  28  31
ATOM     31  C   UNL A   1      35.846  30.065  28.379  1.00  0.00     0.039 A 
ATOM     32  C   UNL A   1      36.776  30.133  27.340  1.00  0.00     0.014 A 
ATOM     33  C   UNL A   1      36.185  29.542  29.628  1.00  0.00     0.014 A 
ATOM     34  C   UNL A   1      38.088  29.733  27.583  1.00  0.00     0.010 A 
ATOM     35  C   UNL A   1      37.509  29.241  29.892  1.00  0.00     0.010 A 
ATOM     36  C   UNL A   1      38.468  29.320  28.870  1.00  0.00    -0.014 A 
BRANCH  36  37
ATOM     37  C   UNL A   1      39.853  28.908  29.188  1.00  0.00     0.031 A 
ATOM     38  C   UNL A   1      40.779  29.922  29.800  1.00  0.00     0.074 A 
ATOM     39  C   UNL A   1      40.295  27.688  28.832  1.00  0.00     0.049 A 
ATOM     40  N   UNL A   1      42.068  29.853  29.994  1.00  0.00    -0.248 NA
ATOM     41  C   UNL A   1      40.178  31.209  30.196  1.00  0.00     0.031 C 
ATOM     42  C   UNL A   1      39.493  26.641  28.193  1.00  0.00     0.029 A 
ATOM     43  N   UNL A   1      41.542  27.127  28.942  1.00  0.00    -0.354 N 
ATOM     44  C   UNL A   1      42.437  31.098  30.489  1.00  0.00     0.074 A 
ATOM     45  C   UNL A   1      41.248  31.918  30.515  1.00  0.00     0.031 C 
ATOM     46  C   UNL A   1      40.263  25.559  27.988  1.00  0.00     0.029 A 
ATOM     47  C   UNL A   1      41.619  25.849  28.440  1.00  0.00     0.049 A 
ATOM     48  H   UNL A   1      42.309  27.595  29.342  1.00  0.00     0.167 HD
ATOM     49  C   UNL A   1      43.656  31.512  30.907  1.00  0.00     0.031 A 
ATOM     50  C   UNL A   1      42.671  25.014  28.350  1.00  0.00     0.031 A 
ATOM     51  C   UNL A   1      44.818  30.667  30.915  1.00  0.00     0.049 A 
ATOM     52  C   UNL A   1      44.006  25.480  28.862  1.00  0.00     0.074 A 
ATOM     53  C   UNL A   1      46.088  30.955  31.378  1.00  0.00     0.029 A 
ATOM     54  N   UNL A   1      44.842  29.359  30.452  1.00  0.00    -0.354 N 
ATOM     55  N   UNL A   1      44.332  26.646  29.369  1.00  0.00    -0.248 NA
ATOM     56  C   UNL A   1      45.113  24.517  28.802  1.00  0.00     0.031 C 
ATOM     57  C   UNL A   1      46.891  29.829  31.165  1.00  0.00     0.029 A 
ATOM     58  C   UNL A   1      46.107  28.826  30.613  1.00  0.00     0.049 A 
ATOM     59  H   UNL A   1      44.072  28.883  30.067  1.00  0.00     0.167 HD
ATOM     60  C   UNL A   1      45.675  26.548  29.712  1.00  0.00     0.074 A 
ATOM     61  C   UNL A   1      46.096  25.204  29.369  1.00  0.00     0.031 C 
ATOM     62  C   UNL A   1      46.490  27.482  30.264  1.00  0.00     0.031 A 
BRANCH  49  63
ATOM     63  C   UNL A   1      43.776  32.934  31.387  1.00  0.00    -0.014 A 
ATOM     64  C   UNL A   1      43.616  33.258  32.746  1.00  0.00     0.010 A 
ATOM     65  C   UNL A   1      44.059  33.961  30.468  1.00  0.00     0.010 A 
ATOM     66  C   UNL A   1      43.685  34.588  33.171  1.00  0.00     0.020 A 
ATOM     67  C   UNL A   1      44.161  35.289  30.894  1.00  0.00     0.020 A 
ATOM     68  C   UNL A   1      43.953  35.596  32.240  1.00  0.00     0.054 A 
BRANCH  68  69
ATOM     69  S   UNL A   1      44.055  37.311  32.821  1.00  0.00     0.124 S 
ATOM     70  O   UNL A   1      45.400  37.356  33.388  1.00  0.00    -0.237 OA
ATOM     71  O   UNL A   1      43.866  38.078  31.593  1.00  0.00    -0.237 OA
ATOM     72  O   UNL A   1      42.966  37.414  33.789  1.00  0.00    -0.744 OA
ENDBRANCH  68  69
ENDBRANCH  49  63
BRANCH  50  73
ATOM     73  C   UNL A   1      42.495  23.649  27.784  1.00  0.00    -0.014 A 
ATOM     74  C   UNL A   1      42.756  23.408  26.423  1.00  0.00     0.010 A 
ATOM     75  C   UNL A   1      42.093  22.577  28.601  1.00  0.00     0.010 A 
ATOM     76  C   UNL A   1      42.601  22.127  25.885  1.00  0.00     0.020 A 
ATOM     77  C   UNL A   1      41.962  21.288  28.072  1.00  0.00     0.020 A 
ATOM     78  C   UNL A   1      42.206  21.073  26.714  1.00  0.00     0.054 A 
BRANCH  78  79
ATOM     79  S   UNL A   1      42.070  19.407  26.008  1.00  0.00     0.124 S 
ATOM     80  O   UNL A   1      40.634  19.292  25.777  1.00  0.00    -0.237 OA
ATOM     81  O   UNL A   1      42.899  19.504  24.808  1.00  0.00    -0.237 OA
ATOM     82  O   UNL A   1      42.608  18.546  27.058  1.00  0.00    -0.744 OA
ENDBRANCH  78  79
ENDBRANCH  50  73
BRANCH  62  83
ATOM     83  C   UNL A   1      47.904  27.068  30.562  1.00  0.00    -0.014 A 
ATOM     84  C   UNL A   1      48.920  27.211  29.601  1.00  0.00     0.010 A 
ATOM     85  C   UNL A   1      48.227  26.587  31.843  1.00  0.00     0.010 A 
ATOM     86  C   UNL A   1      50.233  26.848  29.910  1.00  0.00     0.020 A 
ATOM     87  C   UNL A   1      49.543  26.247  32.162  1.00  0.00     0.020 A 
ATOM     88  C   UNL A   1      50.535  26.367  31.188  1.00  0.00     0.054 A 
BRANCH  88  89
ATOM     89  S   UNL A   1      52.254  25.944  31.578  1.00  0.00     0.124 S 
ATOM     90  O   UNL A   1      52.913  26.133  30.288  1.00  0.00    -0.237 OA
ATOM     91  O   UNL A   1      52.601  26.919  32.609  1.00  0.00    -0.237 OA
ATOM     92  O   UNL A   1      52.173  24.560  32.040  1.00  0.00    -0.744 OA
ENDBRANCH  88  89
ENDBRANCH  62  83
ENDBRANCH  36  37
ENDBRANCH  28  31
ENDBRANCH  26  27
ENDBRANCH  25  26
ENDBRANCH   1  25
TORSDOF 19
ENDMDL
MODEL 2
REMARK VINA RESULT:      -9.8      3.785      9.506
REMARK SMILES CCN(Cc1ccccn1)C(=O)[C@H]1CC[C@@H](C(=O)NCCCCNC(=O)c2ccc(-c3c4nc(c(-c5ccc(S(=O)(=O)[O-])cc5)c5ccc([nH]5)c(-c5ccc(S(=O)(=O)[O-])cc5)c5nc(c(-c6ccc(S(=O)(=O)[O-])cc6)c6ccc3[nH]6)C=C5)C=C4)cc2)CC1
REMARK SMILES IDX 21 1 20 2 19 3 17 4 18 5 16 7 13 8 88 9 14 10 87 11 15 12
REMARK SMILES IDX 11 13 12 14 3 15 2 16 1 17 4 18 5 19 6 20 10 21 7 22 9 23
REMARK SMILES IDX 8 24 22 25 23 26 24 27 25 28 26 30 27 31 28 32 86 33 29 34
REMARK SMILES IDX 85 35 30 36 31 37 32 38 79 39 33 40 84 41 78 42 80 43 34 44
REMARK SMILES IDX 83 45 77 46 76 47 35 49 65 50 46 51 64 52 47 53 50 54 63 55
REMARK SMILES IDX 81 56 48 57 49 58 62 60 82 61 51 62 36 63 37 64 45 65 38 66
REMARK SMILES IDX 44 67 39 68 40 69 41 70 42 71 43 72 66 73 67 74 75 75 68 76
REMARK SMILES IDX 74 77 69 78 70 79 71 80 72 81 73 82 52 83 53 84 61 85 54 86
REMARK SMILES IDX 60 87 55 88 56 89 57 90 58 91 59 92
REMARK H PARENT 19 6 24 29 80 48 50 59
REMARK Flexibility Score: inf
ROOT
ATOM      1  C   UNL A   1      41.236  21.942  26.580  1.00  0.00     0.023 C 
ENDROOT
BRANCH   1   2
ATOM      2  C   UNL A   1      39.839  22.546  26.461  1.00  0.00     0.116 C 
BRANCH   2   3
ATOM      3  N   UNL A   1      38.835  21.591  26.065  1.00  0.00    -0.356 N 
ATOM      4  C   UNL A   1      37.742  21.721  25.275  1.00  0.00     0.223 C 
ATOM      5  O   UNL A   1      37.150  20.670  24.992  1.00  0.00    -0.275 OA
ATOM      6  H   UNL A   1      38.965  20.687  26.433  1.00  0.00     0.163 HD
BRANCH   4   7
ATOM      7  C   UNL A   1      37.166  23.057  24.775  1.00  0.00     0.078 C 
ATOM      8  C   UNL A   1      34.187  23.340  24.121  1.00  0.00     0.079 C 
ATOM      9  C   UNL A   1      34.759  23.790  25.498  1.00  0.00     0.014 C 
ATOM     10  C   UNL A   1      35.195  22.627  23.210  1.00  0.00     0.014 C 
ATOM     11  C   UNL A   1      36.273  23.881  25.691  1.00  0.00     0.014 C 
ATOM     12  C   UNL A   1      36.651  23.020  23.351  1.00  0.00     0.014 C 
BRANCH   8  13
ATOM     13  C   UNL A   1      32.882  22.499  24.347  1.00  0.00     0.226 C 
ATOM     14  O   UNL A   1      31.787  23.076  24.382  1.00  0.00    -0.275 OA
BRANCH  13  15
ATOM     15  N   UNL A   1      32.912  21.114  24.479  1.00  0.00    -0.337 N 
BRANCH  15  16
ATOM     16  C   UNL A   1      33.755  20.536  25.537  1.00  0.00     0.116 C 
ATOM     17  C   UNL A   1      33.457  21.091  26.917  1.00  0.00     0.027 C 
ENDBRANCH  15  16
BRANCH  15  18
ATOM     18  C   UNL A   1      32.150  20.154  23.675  1.00  0.00     0.175 C 
BRANCH  18  19
ATOM     19  C   UNL A   1      32.523  18.721  23.969  1.00  0.00     0.060 A 
ATOM     20  C   UNL A   1      33.327  18.004  23.084  1.00  0.00     0.026 A 
ATOM     21  N   UNL A   1      32.133  18.215  25.167  1.00  0.00    -0.259 NA
ATOM     22  C   UNL A   1      33.805  16.758  23.471  1.00  0.00     0.004 A 
ATOM     23  C   UNL A   1      32.609  17.002  25.515  1.00  0.00     0.111 A 
ATOM     24  C   UNL A   1      33.451  16.251  24.715  1.00  0.00     0.020 A 
ENDBRANCH  18  19
ENDBRANCH  15  18
ENDBRANCH  13  15
ENDBRANCH   8  13
ENDBRANCH   4   7
ENDBRANCH   2   3
ENDBRANCH   1   2
BRANCH   1  25
ATOM     25  C   UNL A   1      41.292  20.425  26.607  1.00  0.00     0.023 C 
BRANCH  25  26
ATOM     26  C   UNL A   1      42.669  19.827  26.857  1.00  0.00     0.116 C 
BRANCH  26  27
ATOM     27  N   UNL A   1      43.260  19.143  25.712  1.00  0.00    -0.352 N 
ATOM     28  C   UNL A   1      44.116  19.677  24.767  1.00  0.00     0.251 C 
ATOM     29  H   UNL A   1      43.021  18.195  25.599  1.00  0.00     0.163 HD
ATOM     30  O   UNL A   1      44.505  19.052  23.799  1.00  0.00    -0.269 OA
BRANCH  28  31
ATOM     31  C   UNL A   1      44.537  21.074  24.962  1.00  0.00     0.039 A 
ATOM     32  C   UNL A   1      44.200  22.035  24.006  1.00  0.00     0.014 A 
ATOM     33  C   UNL A   1      45.149  21.425  26.166  1.00  0.00     0.014 A 
ATOM     34  C   UNL A   1      44.419  23.379  24.297  1.00  0.00     0.010 A 
ATOM     35  C   UNL A   1      45.272  22.764  26.489  1.00  0.00     0.010 A 
ATOM     36  C   UNL A   1      44.921  23.752  25.554  1.00  0.00    -0.014 A 
BRANCH  36  37
ATOM     37  C   UNL A   1      45.150  25.166  25.923  1.00  0.00     0.031 A 
ATOM     38  C   UNL A   1      46.545  25.717  25.819  1.00  0.00     0.074 A 
ATOM     39  C   UNL A   1      44.150  25.899  26.447  1.00  0.00     0.049 A 
ATOM     40  N   UNL A   1      47.020  26.853  26.253  1.00  0.00    -0.248 NA
ATOM     41  C   UNL A   1      47.552  24.845  25.185  1.00  0.00     0.031 C 
ATOM     42  C   UNL A   1      42.769  25.449  26.635  1.00  0.00     0.029 A 
ATOM     43  N   UNL A   1      44.149  27.180  26.936  1.00  0.00    -0.354 N 
ATOM     44  C   UNL A   1      48.384  26.812  25.988  1.00  0.00     0.074 A 
ATOM     45  C   UNL A   1      48.668  25.520  25.406  1.00  0.00     0.031 C 
ATOM     46  C   UNL A   1      42.050  26.446  27.179  1.00  0.00     0.029 A 
ATOM     47  C   UNL A   1      42.927  27.587  27.416  1.00  0.00     0.049 A 
ATOM     48  H   UNL A   1      44.948  27.754  26.943  1.00  0.00     0.167 HD
ATOM     49  C   UNL A   1      49.312  27.775  26.192  1.00  0.00     0.031 A 
ATOM     50  C   UNL A   1      42.563  28.749  27.990  1.00  0.00     0.031 A 
ATOM     51  C   UNL A   1      49.002  29.070  26.731  1.00  0.00     0.049 A 
ATOM     52  C   UNL A   1      43.602  29.822  28.166  1.00  0.00     0.074 A 
ATOM     53  C   UNL A   1      49.845  30.149  26.919  1.00  0.00     0.029 A 
ATOM     54  N   UNL A   1      47.740  29.464  27.152  1.00  0.00    -0.354 N 
ATOM     55  N   UNL A   1      44.880  29.786  27.871  1.00  0.00    -0.248 NA
ATOM     56  C   UNL A   1      43.150  31.096  28.740  1.00  0.00     0.031 C 
ATOM     57  C   UNL A   1      49.098  31.187  27.486  1.00  0.00     0.029 A 
ATOM     58  C   UNL A   1      47.781  30.770  27.605  1.00  0.00     0.049 A 
ATOM     59  H   UNL A   1      46.936  28.898  27.131  1.00  0.00     0.167 HD
ATOM     60  C   UNL A   1      45.381  31.041  28.199  1.00  0.00     0.074 A 
ATOM     61  C   UNL A   1      44.264  31.816  28.701  1.00  0.00     0.031 C 
ATOM     62  C   UNL A   1      46.648  31.513  28.094  1.00  0.00     0.031 A 
BRANCH  49  63
ATOM     63  C   UNL A   1      50.735  27.453  25.824  1.00  0.00    -0.014 A 
ATOM     64  C   UNL A   1      51.200  27.612  24.505  1.00  0.00     0.010 A 
ATOM     65  C   UNL A   1      51.626  26.989  26.810  1.00  0.00     0.010 A 
ATOM     66  C   UNL A   1      52.510  27.265  24.168  1.00  0.00     0.020 A 
ATOM     67  C   UNL A   1      52.947  26.672  26.483  1.00  0.00     0.020 A 
ATOM     68  C   UNL A   1      53.375  26.793  25.160  1.00  0.00     0.054 A 
BRANCH  68  69
ATOM     69  S   UNL A   1      55.077  26.368  24.698  1.00  0.00     0.124 S 
ATOM     70  O   UNL A   1      55.105  24.929  24.945  1.00  0.00    -0.237 OA
ATOM     71  O   UNL A   1      55.137  26.764  23.293  1.00  0.00    -0.237 OA
ATOM     72  O   UNL A   1      55.893  27.172  25.604  1.00  0.00    -0.744 OA
ENDBRANCH  68  69
ENDBRANCH  49  63
BRANCH  50  73
ATOM     73  C   UNL A   1      41.151  28.966  28.409  1.00  0.00    -0.014 A 
ATOM     74  C   UNL A   1      40.788  28.850  29.763  1.00  0.00     0.010 A 
ATOM     75  C   UNL A   1      40.167  29.315  27.467  1.00  0.00     0.010 A 
ATOM     76  C   UNL A   1      39.466  29.061  30.164  1.00  0.00     0.020 A 
ATOM     77  C   UNL A   1      38.847  29.551  27.869  1.00  0.00     0.020 A 
ATOM     78  C   UNL A   1      38.503  29.412  29.215  1.00  0.00     0.054 A 
BRANCH  78  79
ATOM     79  S   UNL A   1      36.806  29.739  29.768  1.00  0.00     0.124 S 
ATOM     80  O   UNL A   1      36.023  29.305  28.615  1.00  0.00    -0.237 OA
ATOM     81  O   UNL A   1      36.696  28.902  30.960  1.00  0.00    -0.237 OA
ATOM     82  O   UNL A   1      36.801  31.177  30.024  1.00  0.00    -0.744 OA
ENDBRANCH  78  79
ENDBRANCH  50  73
BRANCH  62  83
ATOM     83  C   UNL A   1      46.882  32.942  28.496  1.00  0.00    -0.014 A 
ATOM     84  C   UNL A   1      46.729  33.991  27.573  1.00  0.00     0.010 A 
ATOM     85  C   UNL A   1      47.202  33.240  29.833  1.00  0.00     0.010 A 
ATOM     86  C   UNL A   1      46.922  35.314  27.976  1.00  0.00     0.020 A 
ATOM     87  C   UNL A   1      47.371  34.563  30.244  1.00  0.00     0.020 A 
ATOM     88  C   UNL A   1      47.244  35.591  29.309  1.00  0.00     0.054 A 
BRANCH  88  89
ATOM     89  S   UNL A   1      47.447  37.319  29.816  1.00  0.00     0.124 S 
ATOM     90  O   UNL A   1      48.900  37.442  29.900  1.00  0.00    -0.237 OA
ATOM     91  O   UNL A   1      46.815  38.053  28.722  1.00  0.00    -0.237 OA
ATOM     92  O   UNL A   1      46.741  37.389  31.095  1.00  0.00    -0.744 OA
ENDBRANCH  88  89
ENDBRANCH  62  83
ENDBRANCH  36  37
ENDBRANCH  28  31
ENDBRANCH  26  27
ENDBRANCH  25  26
ENDBRANCH   1  25
TORSDOF 19
ENDMDL
MODEL 3
REMARK VINA RESULT:      -9.7      3.789      9.390
REMARK SMILES CCN(Cc1ccccn1)C(=O)[C@H]1CC[C@@H](C(=O)NCCCCNC(=O)c2ccc(-c3c4nc(c(-c5ccc(S(=O)(=O)[O-])cc5)c5ccc([nH]5)c(-c5ccc(S(=O)(=O)[O-])cc5)c5nc(c(-c6ccc(S(=O)(=O)[O-])cc6)c6ccc3[nH]6)C=C5)C=C4)cc2)CC1
REMARK SMILES IDX 21 1 20 2 19 3 17 4 18 5 16 7 13 8 88 9 14 10 87 11 15 12
REMARK SMILES IDX 11 13 12 14 3 15 2 16 1 17 4 18 5 19 6 20 10 21 7 22 9 23
REMARK SMILES IDX 8 24 22 25 23 26 24 27 25 28 26 30 27 31 28 32 86 33 29 34
REMARK SMILES IDX 85 35 30 36 31 37 32 38 79 39 33 40 84 41 78 42 80 43 34 44
REMARK SMILES IDX 83 45 77 46 76 47 35 49 65 50 46 51 64 52 47 53 50 54 63 55
REMARK SMILES IDX 81 56 48 57 49 58 62 60 82 61 51 62 36 63 37 64 45 65 38 66
REMARK SMILES IDX 44 67 39 68 40 69 41 70 42 71 43 72 66 73 67 74 75 75 68 76
REMARK SMILES IDX 74 77 69 78 70 79 71 80 72 81 73 82 52 83 53 84 61 85 54 86
REMARK SMILES IDX 60 87 55 88 56 89 57 90 58 91 59 92
REMARK H PARENT 19 6 24 29 80 48 50 59
REMARK Flexibility Score: inf
ROOT
ATOM      1  C   UNL A   1      40.397  21.158  27.268  1.00  0.00     0.023 C 
ENDROOT
BRANCH   1   2
ATOM      2  C   UNL A   1      40.114  22.070  26.077  1.00  0.00     0.116 C 
BRANCH   2   3
ATOM      3  N   UNL A   1      39.043  23.006  26.314  1.00  0.00    -0.356 N 
ATOM      4  C   UNL A   1      37.791  23.077  25.802  1.00  0.00     0.223 C 
ATOM      5  O   UNL A   1      37.041  23.915  26.322  1.00  0.00    -0.275 OA
ATOM      6  H   UNL A   1      39.260  23.716  26.959  1.00  0.00     0.163 HD
BRANCH   4   7
ATOM      7  C   UNL A   1      37.275  22.256  24.608  1.00  0.00     0.078 C 
ATOM      8  C   UNL A   1      34.272  21.992  24.061  1.00  0.00     0.079 C 
ATOM      9  C   UNL A   1      35.142  23.044  23.309  1.00  0.00     0.014 C 
ATOM     10  C   UNL A   1      35.006  21.229  25.171  1.00  0.00     0.014 C 
ATOM     11  C   UNL A   1      36.666  22.971  23.411  1.00  0.00     0.014 C 
ATOM     12  C   UNL A   1      36.496  21.016  24.995  1.00  0.00     0.014 C 
BRANCH   8  13
ATOM     13  C   UNL A   1      32.953  22.671  24.569  1.00  0.00     0.226 C 
ATOM     14  O   UNL A   1      31.902  22.504  23.937  1.00  0.00    -0.275 OA
BRANCH  13  15
ATOM     15  N   UNL A   1      32.920  23.436  25.731  1.00  0.00    -0.337 N 
BRANCH  15  16
ATOM     16  C   UNL A   1      32.178  22.913  26.887  1.00  0.00     0.116 C 
ATOM     17  C   UNL A   1      33.073  22.377  27.987  1.00  0.00     0.027 C 
ENDBRANCH  15  16
BRANCH  15  18
ATOM     18  C   UNL A   1      33.591  24.725  25.934  1.00  0.00     0.175 C 
BRANCH  18  19
ATOM     19  C   UNL A   1      33.021  25.822  25.068  1.00  0.00     0.060 A 
ATOM     20  C   UNL A   1      33.729  26.289  23.962  1.00  0.00     0.026 A 
ATOM     21  N   UNL A   1      31.763  26.243  25.355  1.00  0.00    -0.259 NA
ATOM     22  C   UNL A   1      33.099  27.161  23.082  1.00  0.00     0.004 A 
ATOM     23  C   UNL A   1      31.178  27.092  24.485  1.00  0.00     0.111 A 
ATOM     24  C   UNL A   1      31.795  27.561  23.339  1.00  0.00     0.020 A 
ENDBRANCH  18  19
ENDBRANCH  15  18
ENDBRANCH  13  15
ENDBRANCH   8  13
ENDBRANCH   4   7
ENDBRANCH   2   3
ENDBRANCH   1   2
BRANCH   1  25
ATOM     25  C   UNL A   1      41.147  19.877  26.945  1.00  0.00     0.023 C 
BRANCH  25  26
ATOM     26  C   UNL A   1      42.657  20.018  26.822  1.00  0.00     0.116 C 
BRANCH  26  27
ATOM     27  N   UNL A   1      43.238  19.389  25.642  1.00  0.00    -0.352 N 
ATOM     28  C   UNL A   1      44.084  19.970  24.713  1.00  0.00     0.251 C 
ATOM     29  H   UNL A   1      43.003  18.446  25.488  1.00  0.00     0.163 HD
ATOM     30  O   UNL A   1      44.465  19.390  23.714  1.00  0.00    -0.269 OA
BRANCH  28  31
ATOM     31  C   UNL A   1      44.502  21.358  24.967  1.00  0.00     0.039 A 
ATOM     32  C   UNL A   1      43.843  22.405  24.319  1.00  0.00     0.014 A 
ATOM     33  C   UNL A   1      45.459  21.597  25.954  1.00  0.00     0.014 A 
ATOM     34  C   UNL A   1      44.103  23.713  24.719  1.00  0.00     0.010 A 
ATOM     35  C   UNL A   1      45.638  22.889  26.415  1.00  0.00     0.010 A 
ATOM     36  C   UNL A   1      44.973  23.959  25.793  1.00  0.00    -0.014 A 
BRANCH  36  37
ATOM     37  C   UNL A   1      45.265  25.327  26.275  1.00  0.00     0.031 A 
ATOM     38  C   UNL A   1      46.604  25.929  25.951  1.00  0.00     0.074 A 
ATOM     39  C   UNL A   1      44.391  25.963  27.078  1.00  0.00     0.049 A 
ATOM     40  N   UNL A   1      47.151  27.022  26.411  1.00  0.00    -0.248 NA
ATOM     41  C   UNL A   1      47.462  25.169  25.024  1.00  0.00     0.031 C 
ATOM     42  C   UNL A   1      43.082  25.450  27.491  1.00  0.00     0.029 A 
ATOM     43  N   UNL A   1      44.485  27.178  27.707  1.00  0.00    -0.354 N 
ATOM     44  C   UNL A   1      48.430  27.054  25.867  1.00  0.00     0.074 A 
ATOM     45  C   UNL A   1      48.595  25.849  25.088  1.00  0.00     0.031 C 
ATOM     46  C   UNL A   1      42.487  26.355  28.287  1.00  0.00     0.029 A 
ATOM     47  C   UNL A   1      43.387  27.488  28.474  1.00  0.00     0.049 A 
ATOM     48  H   UNL A   1      45.264  27.772  27.617  1.00  0.00     0.167 HD
ATOM     49  C   UNL A   1      49.374  28.016  25.989  1.00  0.00     0.031 A 
ATOM     50  C   UNL A   1      43.143  28.564  29.246  1.00  0.00     0.031 A 
ATOM     51  C   UNL A   1      49.175  29.229  26.732  1.00  0.00     0.049 A 
ATOM     52  C   UNL A   1      44.189  29.641  29.331  1.00  0.00     0.074 A 
ATOM     53  C   UNL A   1      50.032  30.305  26.870  1.00  0.00     0.029 A 
ATOM     54  N   UNL A   1      48.026  29.532  27.448  1.00  0.00    -0.354 N 
ATOM     55  N   UNL A   1      45.378  29.679  28.776  1.00  0.00    -0.248 NA
ATOM     56  C   UNL A   1      43.859  30.825  30.134  1.00  0.00     0.031 C 
ATOM     57  C   UNL A   1      49.414  31.246  27.699  1.00  0.00     0.029 A 
ATOM     58  C   UNL A   1      48.153  30.777  28.037  1.00  0.00     0.049 A 
ATOM     59  H   UNL A   1      47.239  28.947  27.526  1.00  0.00     0.167 HD
ATOM     60  C   UNL A   1      45.928  30.902  29.141  1.00  0.00     0.074 A 
ATOM     61  C   UNL A   1      44.935  31.579  29.953  1.00  0.00     0.031 C 
ATOM     62  C   UNL A   1      47.142  31.423  28.835  1.00  0.00     0.031 A 
BRANCH  49  63
ATOM     63  C   UNL A   1      50.691  27.783  25.299  1.00  0.00    -0.014 A 
ATOM     64  C   UNL A   1      51.781  27.216  25.985  1.00  0.00     0.010 A 
ATOM     65  C   UNL A   1      50.844  28.129  23.944  1.00  0.00     0.010 A 
ATOM     66  C   UNL A   1      53.012  27.048  25.346  1.00  0.00     0.020 A 
ATOM     67  C   UNL A   1      52.064  27.933  23.292  1.00  0.00     0.020 A 
ATOM     68  C   UNL A   1      53.147  27.412  24.003  1.00  0.00     0.054 A 
BRANCH  68  69
ATOM     69  S   UNL A   1      54.751  27.166  23.193  1.00  0.00     0.124 S 
ATOM     70  O   UNL A   1      54.358  26.535  21.936  1.00  0.00    -0.237 OA
ATOM     71  O   UNL A   1      55.264  28.529  23.077  1.00  0.00    -0.237 OA
ATOM     72  O   UNL A   1      55.480  26.307  24.121  1.00  0.00    -0.744 OA
ENDBRANCH  68  69
ENDBRANCH  49  63
BRANCH  50  73
ATOM     73  C   UNL A   1      41.848  28.686  29.970  1.00  0.00    -0.014 A 
ATOM     74  C   UNL A   1      40.719  29.213  29.316  1.00  0.00     0.010 A 
ATOM     75  C   UNL A   1      41.725  28.256  31.303  1.00  0.00     0.010 A 
ATOM     76  C   UNL A   1      39.498  29.324  29.987  1.00  0.00     0.020 A 
ATOM     77  C   UNL A   1      40.498  28.342  31.969  1.00  0.00     0.020 A 
ATOM     78  C   UNL A   1      39.394  28.886  31.310  1.00  0.00     0.054 A 
BRANCH  78  79
ATOM     79  S   UNL A   1      37.784  28.983  32.141  1.00  0.00     0.124 S 
ATOM     80  O   UNL A   1      36.858  28.939  31.014  1.00  0.00    -0.237 OA
ATOM     81  O   UNL A   1      37.797  27.799  32.996  1.00  0.00    -0.237 OA
ATOM     82  O   UNL A   1      37.844  30.257  32.854  1.00  0.00    -0.744 OA
ENDBRANCH  78  79
ENDBRANCH  50  73
BRANCH  62  83
ATOM     83  C   UNL A   1      47.446  32.802  29.348  1.00  0.00    -0.014 A 
ATOM     84  C   UNL A   1      47.122  33.945  28.596  1.00  0.00     0.010 A 
ATOM     85  C   UNL A   1      48.009  32.954  30.628  1.00  0.00     0.010 A 
ATOM     86  C   UNL A   1      47.387  35.218  29.106  1.00  0.00     0.020 A 
ATOM     87  C   UNL A   1      48.250  34.226  31.150  1.00  0.00     0.020 A 
ATOM     88  C   UNL A   1      47.950  35.350  30.379  1.00  0.00     0.054 A 
BRANCH  88  89
ATOM     89  S   UNL A   1      48.243  37.014  31.036  1.00  0.00     0.124 S 
ATOM     90  O   UNL A   1      46.975  37.681  30.750  1.00  0.00    -0.237 OA
ATOM     91  O   UNL A   1      48.516  36.760  32.448  1.00  0.00    -0.237 OA
ATOM     92  O   UNL A   1      49.388  37.494  30.263  1.00  0.00    -0.744 OA
ENDBRANCH  88  89
ENDBRANCH  62  83
ENDBRANCH  36  37
ENDBRANCH  28  31
ENDBRANCH  26  27
ENDBRANCH  25  26
ENDBRANCH   1  25
TORSDOF 19
ENDMDL
