MODEL 1
REMARK VINA RESULT:     -13.4      0.000      0.000
REMARK SMILES CC1=C(C)C[C@@H](C(=O)NCCCCNC(=O)c2ccc(-c3c4nc(c(-c5ccc(S(=O)(=O)[O-])cc5)c5ccc([nH]5)c(-c5ccc(S(=O)(=O)[O-])cc5)c5nc(c(-c6ccc(S(=O)(=O)[O-])cc6)c6ccc3[nH]6)C=C5)C=C4)cc2)[C@@H](C(=O)N2CCN(c3cccc(C(F)(F)F)c3)CC2)C1
REMARK SMILES IDX 11 1 10 2 9 3 7 4 8 5 6 7 1 8 2 9 3 10 96 11 4 12 5 13 77 14
REMARK SMILES IDX 78 15 79 16 80 17 81 18 95 19 82 20 94 21 83 22 84 23 85 24
REMARK SMILES IDX 93 25 86 26 88 27 87 28 89 29 90 30 91 31 92 32 12 33 13 34
REMARK SMILES IDX 14 35 15 36 16 38 17 39 18 40 76 41 19 42 75 43 20 44 21 45
REMARK SMILES IDX 22 46 69 47 23 48 74 49 68 50 70 51 24 52 73 53 67 54 66 55
REMARK SMILES IDX 25 57 55 58 36 59 54 60 37 61 40 62 53 63 71 64 38 65 39 66
REMARK SMILES IDX 52 68 72 69 41 70 26 71 27 72 35 73 28 74 34 75 29 76 30 77
REMARK SMILES IDX 31 78 32 79 33 80 56 81 57 82 65 83 58 84 64 85 59 86 60 87
REMARK SMILES IDX 61 88 62 89 63 90 42 91 43 92 51 93 44 94 50 95 45 96 46 97
REMARK SMILES IDX 47 98 48 99 49 100
REMARK H PARENT 9 6 14 37 70 56 40 67
REMARK Flexibility Score: inf
ROOT
ATOM      1  C   UNL A   1      34.614  28.268  25.839  1.00  0.00     0.023 C 
ENDROOT
BRANCH   1   2
ATOM      2  C   UNL A   1      33.783  28.811  24.680  1.00  0.00     0.116 C 
BRANCH   2   3
ATOM      3  N   UNL A   1      32.694  29.671  25.079  1.00  0.00    -0.356 N 
ATOM      4  C   UNL A   1      31.436  29.838  24.603  1.00  0.00     0.224 C 
ATOM      5  O   UNL A   1      30.693  30.586  25.252  1.00  0.00    -0.275 OA
ATOM      6  H   UNL A   1      32.907  30.250  25.846  1.00  0.00     0.163 HD
BRANCH   4   7
ATOM      7  C   UNL A   1      30.869  29.132  23.367  1.00  0.00     0.095 C 
ATOM      8  C   UNL A   1      26.511  28.407  23.375  1.00  0.00     0.039 C 
ATOM      9  C   UNL A   1      27.976  28.670  23.115  1.00  0.00    -0.074 C 
ATOM     10  C   UNL A   1      28.484  29.833  22.658  1.00  0.00    -0.074 C 
ATOM     11  C   UNL A   1      28.853  27.490  23.479  1.00  0.00     0.045 C 
ATOM     12  C   UNL A   1      27.688  31.067  22.310  1.00  0.00     0.039 C 
ATOM     13  C   UNL A   1      29.974  30.039  22.518  1.00  0.00     0.045 C 
ATOM     14  C   UNL A   1      30.387  27.680  23.476  1.00  0.00     0.095 C 
BRANCH  14  15
ATOM     15  C   UNL A   1      30.989  26.881  24.644  1.00  0.00     0.226 C 
ATOM     16  O   UNL A   1      31.030  27.262  25.808  1.00  0.00    -0.275 OA
ATOM     17  N   UNL A   1      31.352  25.584  24.313  1.00  0.00    -0.339 N 
ATOM     18  C   UNL A   1      31.012  24.527  25.271  1.00  0.00     0.141 C 
ATOM     19  C   UNL A   1      32.641  25.389  23.651  1.00  0.00     0.141 C 
ATOM     20  C   UNL A   1      31.035  23.142  24.603  1.00  0.00     0.138 C 
ATOM     21  C   UNL A   1      32.759  24.005  22.997  1.00  0.00     0.138 C 
ATOM     22  N   UNL A   1      32.312  22.947  23.906  1.00  0.00    -0.368 N 
BRANCH  22  23
ATOM     23  C   UNL A   1      33.104  21.868  24.218  1.00  0.00     0.037 A 
ATOM     24  C   UNL A   1      32.537  20.605  24.425  1.00  0.00     0.026 A 
ATOM     25  C   UNL A   1      34.488  22.002  24.368  1.00  0.00     0.039 A 
ATOM     26  C   UNL A   1      33.325  19.501  24.752  1.00  0.00     0.003 A 
ATOM     27  C   UNL A   1      35.296  20.910  24.726  1.00  0.00     0.058 A 
ATOM     28  C   UNL A   1      34.700  19.653  24.904  1.00  0.00     0.013 A 
BRANCH  27  29
ATOM     29  C   UNL A   1      36.780  21.075  24.927  1.00  0.00     0.416 C 
ATOM     30  F   UNL A   1      37.382  21.727  23.895  1.00  0.00    -0.166 F 
ATOM     31  F   UNL A   1      37.071  21.802  26.044  1.00  0.00    -0.166 F 
ATOM     32  F   UNL A   1      37.451  19.898  25.070  1.00  0.00    -0.166 F 
ENDBRANCH  27  29
ENDBRANCH  22  23
ENDBRANCH  14  15
ENDBRANCH   4   7
ENDBRANCH   2   3
ENDBRANCH   1   2
BRANCH   1  33
ATOM     33  C   UNL A   1      34.330  28.906  27.194  1.00  0.00     0.023 C 
BRANCH  33  34
ATOM     34  C   UNL A   1      35.398  29.884  27.653  1.00  0.00     0.116 C 
BRANCH  34  35
ATOM     35  N   UNL A   1      35.321  30.190  29.076  1.00  0.00    -0.352 N 
ATOM     36  C   UNL A   1      36.275  29.971  30.040  1.00  0.00     0.251 C 
ATOM     37  H   UNL A   1      34.483  30.604  29.384  1.00  0.00     0.163 HD
ATOM     38  O   UNL A   1      36.035  30.183  31.220  1.00  0.00    -0.269 OA
BRANCH  36  39
ATOM     39  C   UNL A   1      37.580  29.432  29.615  1.00  0.00     0.039 A 
ATOM     40  C   UNL A   1      37.998  29.637  28.300  1.00  0.00     0.014 A 
ATOM     41  C   UNL A   1      38.413  28.805  30.545  1.00  0.00     0.014 A 
ATOM     42  C   UNL A   1      39.290  29.266  27.931  1.00  0.00     0.010 A 
ATOM     43  C   UNL A   1      39.724  28.514  30.199  1.00  0.00     0.010 A 
ATOM     44  C   UNL A   1      40.171  28.734  28.888  1.00  0.00    -0.014 A 
BRANCH  44  45
ATOM     45  C   UNL A   1      41.567  28.384  28.538  1.00  0.00     0.031 A 
ATOM     46  C   UNL A   1      42.615  29.459  28.497  1.00  0.00     0.074 A 
ATOM     47  C   UNL A   1      41.864  27.122  28.175  1.00  0.00     0.049 A 
ATOM     48  N   UNL A   1      43.871  29.372  28.146  1.00  0.00    -0.248 NA
ATOM     49  C   UNL A   1      42.184  30.818  28.863  1.00  0.00     0.031 C 
ATOM     50  C   UNL A   1      40.912  26.009  28.107  1.00  0.00     0.029 A 
ATOM     51  N   UNL A   1      43.053  26.565  27.778  1.00  0.00    -0.354 N 
ATOM     52  C   UNL A   1      44.371  30.666  28.221  1.00  0.00     0.074 A 
ATOM     53  C   UNL A   1      43.271  31.526  28.600  1.00  0.00     0.031 C 
ATOM     54  C   UNL A   1      41.558  24.902  27.710  1.00  0.00     0.029 A 
ATOM     55  C   UNL A   1      42.959  25.229  27.468  1.00  0.00     0.049 A 
ATOM     56  H   UNL A   1      43.894  27.074  27.721  1.00  0.00     0.167 HD
ATOM     57  C   UNL A   1      45.638  31.098  28.015  1.00  0.00     0.031 A 
ATOM     58  C   UNL A   1      43.897  24.367  27.033  1.00  0.00     0.031 A 
ATOM     59  C   UNL A   1      46.728  30.233  27.659  1.00  0.00     0.049 A 
ATOM     60  C   UNL A   1      45.307  24.855  26.856  1.00  0.00     0.074 A 
ATOM     61  C   UNL A   1      48.065  30.552  27.496  1.00  0.00     0.029 A 
ATOM     62  N   UNL A   1      46.606  28.874  27.409  1.00  0.00    -0.354 N 
ATOM     63  N   UNL A   1      45.784  26.067  27.014  1.00  0.00    -0.248 NA
ATOM     64  C   UNL A   1      46.310  23.857  26.461  1.00  0.00     0.031 C 
ATOM     65  C   UNL A   1      48.745  29.390  27.112  1.00  0.00     0.029 A 
ATOM     66  C   UNL A   1      47.839  28.339  27.080  1.00  0.00     0.049 A 
ATOM     67  H   UNL A   1      45.765  28.363  27.459  1.00  0.00     0.167 HD
ATOM     68  C   UNL A   1      47.146  25.976  26.755  1.00  0.00     0.074 A 
ATOM     69  C   UNL A   1      47.419  24.585  26.446  1.00  0.00     0.031 C 
ATOM     70  C   UNL A   1      48.086  26.953  26.770  1.00  0.00     0.031 A 
BRANCH  57  71
ATOM     71  C   UNL A   1      45.891  32.573  28.170  1.00  0.00    -0.014 A 
ATOM     72  C   UNL A   1      45.758  33.451  27.078  1.00  0.00     0.010 A 
ATOM     73  C   UNL A   1      46.283  33.090  29.418  1.00  0.00     0.010 A 
ATOM     74  C   UNL A   1      46.074  34.805  27.214  1.00  0.00     0.020 A 
ATOM     75  C   UNL A   1      46.572  34.449  29.567  1.00  0.00     0.020 A 
ATOM     76  C   UNL A   1      46.492  35.294  28.456  1.00  0.00     0.054 A 
BRANCH  76  77
ATOM     77  S   UNL A   1      46.912  37.051  28.605  1.00  0.00     0.124 S 
ATOM     78  O   UNL A   1      46.734  37.519  27.232  1.00  0.00    -0.237 OA
ATOM     79  O   UNL A   1      45.927  37.539  29.566  1.00  0.00    -0.237 OA
ATOM     80  O   UNL A   1      48.291  37.037  29.085  1.00  0.00    -0.744 OA
ENDBRANCH  76  77
ENDBRANCH  57  71
BRANCH  58  81
ATOM     81  C   UNL A   1      43.526  22.952  26.768  1.00  0.00    -0.014 A 
ATOM     82  C   UNL A   1      43.902  22.329  25.567  1.00  0.00     0.010 A 
ATOM     83  C   UNL A   1      42.842  22.203  27.743  1.00  0.00     0.010 A 
ATOM     84  C   UNL A   1      43.598  20.983  25.341  1.00  0.00     0.020 A 
ATOM     85  C   UNL A   1      42.555  20.852  27.531  1.00  0.00     0.020 A 
ATOM     86  C   UNL A   1      42.930  20.250  26.328  1.00  0.00     0.054 A 
BRANCH  86  87
ATOM     87  S   UNL A   1      42.620  18.484  26.049  1.00  0.00     0.124 S 
ATOM     88  O   UNL A   1      42.966  17.907  27.344  1.00  0.00    -0.237 OA
ATOM     89  O   UNL A   1      41.200  18.462  25.705  1.00  0.00    -0.237 OA
ATOM     90  O   UNL A   1      43.523  18.149  24.950  1.00  0.00    -0.744 OA
ENDBRANCH  86  87
ENDBRANCH  58  81
BRANCH  70  91
ATOM     91  C   UNL A   1      49.501  26.551  26.463  1.00  0.00    -0.014 A 
ATOM     92  C   UNL A   1      50.329  26.000  27.456  1.00  0.00     0.010 A 
ATOM     93  C   UNL A   1      49.988  26.672  25.149  1.00  0.00     0.010 A 
ATOM     94  C   UNL A   1      51.631  25.600  27.146  1.00  0.00     0.020 A 
ATOM     95  C   UNL A   1      51.281  26.252  24.829  1.00  0.00     0.020 A 
ATOM     96  C   UNL A   1      52.099  25.730  25.834  1.00  0.00     0.054 A 
BRANCH  96  97
ATOM     97  S   UNL A   1      53.776  25.159  25.443  1.00  0.00     0.124 S 
ATOM     98  O   UNL A   1      53.633  23.710  25.538  1.00  0.00    -0.237 OA
ATOM     99  O   UNL A   1      53.990  25.683  24.096  1.00  0.00    -0.237 OA
ATOM    100  O   UNL A   1      54.601  25.775  26.481  1.00  0.00    -0.744 OA
ENDBRANCH  96  97
ENDBRANCH  70  91
ENDBRANCH  44  45
ENDBRANCH  36  39
ENDBRANCH  34  35
ENDBRANCH  33  34
ENDBRANCH   1  33
TORSDOF 17
ENDMDL
MODEL 2
REMARK VINA RESULT:     -12.7      1.071      7.887
REMARK SMILES CC1=C(C)C[C@@H](C(=O)NCCCCNC(=O)c2ccc(-c3c4nc(c(-c5ccc(S(=O)(=O)[O-])cc5)c5ccc([nH]5)c(-c5ccc(S(=O)(=O)[O-])cc5)c5nc(c(-c6ccc(S(=O)(=O)[O-])cc6)c6ccc3[nH]6)C=C5)C=C4)cc2)[C@@H](C(=O)N2CCN(c3cccc(C(F)(F)F)c3)CC2)C1
REMARK SMILES IDX 11 1 10 2 9 3 7 4 8 5 6 7 1 8 2 9 3 10 96 11 4 12 5 13 77 14
REMARK SMILES IDX 78 15 79 16 80 17 81 18 95 19 82 20 94 21 83 22 84 23 85 24
REMARK SMILES IDX 93 25 86 26 88 27 87 28 89 29 90 30 91 31 92 32 12 33 13 34
REMARK SMILES IDX 14 35 15 36 16 38 17 39 18 40 76 41 19 42 75 43 20 44 21 45
REMARK SMILES IDX 22 46 69 47 23 48 74 49 68 50 70 51 24 52 73 53 67 54 66 55
REMARK SMILES IDX 25 57 55 58 36 59 54 60 37 61 40 62 53 63 71 64 38 65 39 66
REMARK SMILES IDX 52 68 72 69 41 70 26 71 27 72 35 73 28 74 34 75 29 76 30 77
REMARK SMILES IDX 31 78 32 79 33 80 56 81 57 82 65 83 58 84 64 85 59 86 60 87
REMARK SMILES IDX 61 88 62 89 63 90 42 91 43 92 51 93 44 94 50 95 45 96 46 97
REMARK SMILES IDX 47 98 48 99 49 100
REMARK H PARENT 9 6 14 37 70 56 40 67
REMARK Flexibility Score: inf
ROOT
ATOM      1  C   UNL A   1      34.558  28.523  26.154  1.00  0.00     0.023 C 
ENDROOT
BRANCH   1   2
ATOM      2  C   UNL A   1      33.666  28.868  24.965  1.00  0.00     0.116 C 
BRANCH   2   3
ATOM      3  N   UNL A   1      32.570  29.755  25.278  1.00  0.00    -0.356 N 
ATOM      4  C   UNL A   1      31.341  29.921  24.733  1.00  0.00     0.224 C 
ATOM      5  O   UNL A   1      30.576  30.700  25.317  1.00  0.00    -0.275 OA
ATOM      6  H   UNL A   1      32.753  30.356  26.035  1.00  0.00     0.163 HD
BRANCH   4   7
ATOM      7  C   UNL A   1      30.827  29.181  23.494  1.00  0.00     0.095 C 
ATOM      8  C   UNL A   1      26.499  28.299  23.415  1.00  0.00     0.039 C 
ATOM      9  C   UNL A   1      27.959  28.611  23.184  1.00  0.00    -0.074 C 
ATOM     10  C   UNL A   1      28.435  29.787  22.723  1.00  0.00    -0.074 C 
ATOM     11  C   UNL A   1      28.870  27.469  23.581  1.00  0.00     0.045 C 
ATOM     12  C   UNL A   1      27.604  30.988  22.343  1.00  0.00     0.039 C 
ATOM     13  C   UNL A   1      29.920  30.045  22.614  1.00  0.00     0.045 C 
ATOM     14  C   UNL A   1      30.396  27.714  23.610  1.00  0.00     0.095 C 
BRANCH  14  15
ATOM     15  C   UNL A   1      31.000  26.951  24.801  1.00  0.00     0.226 C 
ATOM     16  O   UNL A   1      30.891  27.282  25.975  1.00  0.00    -0.275 OA
ATOM     17  N   UNL A   1      31.561  25.729  24.461  1.00  0.00    -0.339 N 
ATOM     18  C   UNL A   1      31.288  24.595  25.351  1.00  0.00     0.141 C 
ATOM     19  C   UNL A   1      32.916  25.735  23.911  1.00  0.00     0.141 C 
ATOM     20  C   UNL A   1      31.554  23.256  24.643  1.00  0.00     0.138 C 
ATOM     21  C   UNL A   1      33.275  24.409  23.226  1.00  0.00     0.138 C 
ATOM     22  N   UNL A   1      32.900  23.262  24.057  1.00  0.00    -0.368 N 
BRANCH  22  23
ATOM     23  C   UNL A   1      33.801  22.285  24.404  1.00  0.00     0.037 A 
ATOM     24  C   UNL A   1      35.095  22.623  24.817  1.00  0.00     0.026 A 
ATOM     25  C   UNL A   1      33.467  20.928  24.328  1.00  0.00     0.039 A 
ATOM     26  C   UNL A   1      36.025  21.642  25.163  1.00  0.00     0.003 A 
ATOM     27  C   UNL A   1      34.398  19.924  24.644  1.00  0.00     0.058 A 
ATOM     28  C   UNL A   1      35.679  20.297  25.075  1.00  0.00     0.013 A 
BRANCH  27  29
ATOM     29  C   UNL A   1      34.040  18.466  24.516  1.00  0.00     0.416 C 
ATOM     30  F   UNL A   1      33.341  18.193  23.380  1.00  0.00    -0.166 F 
ATOM     31  F   UNL A   1      35.144  17.667  24.474  1.00  0.00    -0.166 F 
ATOM     32  F   UNL A   1      33.283  17.994  25.546  1.00  0.00    -0.166 F 
ENDBRANCH  27  29
ENDBRANCH  22  23
ENDBRANCH  14  15
ENDBRANCH   4   7
ENDBRANCH   2   3
ENDBRANCH   1   2
BRANCH   1  33
ATOM     33  C   UNL A   1      34.483  29.499  27.323  1.00  0.00     0.023 C 
BRANCH  33  34
ATOM     34  C   UNL A   1      35.826  29.790  27.971  1.00  0.00     0.116 C 
BRANCH  34  35
ATOM     35  N   UNL A   1      35.761  29.835  29.427  1.00  0.00    -0.352 N 
ATOM     36  C   UNL A   1      36.731  29.466  30.327  1.00  0.00     0.251 C 
ATOM     37  H   UNL A   1      34.919  30.170  29.811  1.00  0.00     0.163 HD
ATOM     38  O   UNL A   1      36.501  29.459  31.528  1.00  0.00    -0.269 OA
BRANCH  36  39
ATOM     39  C   UNL A   1      38.039  29.039  29.801  1.00  0.00     0.039 A 
ATOM     40  C   UNL A   1      38.252  29.059  28.422  1.00  0.00     0.014 A 
ATOM     41  C   UNL A   1      39.071  28.705  30.682  1.00  0.00     0.014 A 
ATOM     42  C   UNL A   1      39.529  28.804  27.927  1.00  0.00     0.010 A 
ATOM     43  C   UNL A   1      40.357  28.533  30.193  1.00  0.00     0.010 A 
ATOM     44  C   UNL A   1      40.596  28.574  28.811  1.00  0.00    -0.014 A 
BRANCH  44  45
ATOM     45  C   UNL A   1      41.974  28.355  28.314  1.00  0.00     0.031 A 
ATOM     46  C   UNL A   1      42.380  26.994  27.825  1.00  0.00     0.074 A 
ATOM     47  C   UNL A   1      42.873  29.355  28.387  1.00  0.00     0.049 A 
ATOM     48  N   UNL A   1      43.552  26.580  27.420  1.00  0.00    -0.248 NA
ATOM     49  C   UNL A   1      41.341  25.952  27.828  1.00  0.00     0.031 C 
ATOM     50  C   UNL A   1      42.611  30.698  28.911  1.00  0.00     0.029 A 
ATOM     51  N   UNL A   1      44.197  29.390  28.033  1.00  0.00    -0.354 N 
ATOM     52  C   UNL A   1      43.398  25.227  27.148  1.00  0.00     0.074 A 
ATOM     53  C   UNL A   1      42.034  24.878  27.484  1.00  0.00     0.031 C 
ATOM     54  C   UNL A   1      43.734  31.429  28.829  1.00  0.00     0.029 A 
ATOM     55  C   UNL A   1      44.800  30.601  28.274  1.00  0.00     0.049 A 
ATOM     56  H   UNL A   1      44.671  28.621  27.643  1.00  0.00     0.167 HD
ATOM     57  C   UNL A   1      44.302  24.356  26.643  1.00  0.00     0.031 A 
ATOM     58  C   UNL A   1      46.070  30.998  28.074  1.00  0.00     0.031 A 
ATOM     59  C   UNL A   1      45.649  24.716  26.293  1.00  0.00     0.049 A 
ATOM     60  C   UNL A   1      47.048  30.031  27.468  1.00  0.00     0.074 A 
ATOM     61  C   UNL A   1      46.627  23.933  25.708  1.00  0.00     0.029 A 
ATOM     62  N   UNL A   1      46.207  25.970  26.499  1.00  0.00    -0.354 N 
ATOM     63  N   UNL A   1      46.863  28.775  27.136  1.00  0.00    -0.248 NA
ATOM     64  C   UNL A   1      48.399  30.538  27.192  1.00  0.00     0.031 C 
ATOM     65  C   UNL A   1      47.790  24.704  25.592  1.00  0.00     0.029 A 
ATOM     66  C   UNL A   1      47.521  25.981  26.064  1.00  0.00     0.049 A 
ATOM     67  H   UNL A   1      45.737  26.739  26.895  1.00  0.00     0.167 HD
ATOM     68  C   UNL A   1      48.068  28.345  26.596  1.00  0.00     0.074 A 
ATOM     69  C   UNL A   1      48.970  29.480  26.630  1.00  0.00     0.031 C 
ATOM     70  C   UNL A   1      48.401  27.121  26.115  1.00  0.00     0.031 A 
BRANCH  57  71
ATOM     71  C   UNL A   1      43.849  22.934  26.450  1.00  0.00    -0.014 A 
ATOM     72  C   UNL A   1      42.797  22.397  27.215  1.00  0.00     0.010 A 
ATOM     73  C   UNL A   1      44.492  22.116  25.504  1.00  0.00     0.010 A 
ATOM     74  C   UNL A   1      42.439  21.053  27.084  1.00  0.00     0.020 A 
ATOM     75  C   UNL A   1      44.118  20.778  25.348  1.00  0.00     0.020 A 
ATOM     76  C   UNL A   1      43.111  20.248  26.159  1.00  0.00     0.054 A 
BRANCH  76  77
ATOM     77  S   UNL A   1      42.640  18.503  26.018  1.00  0.00     0.124 S 
ATOM     78  O   UNL A   1      42.994  17.989  27.339  1.00  0.00    -0.237 OA
ATOM     79  O   UNL A   1      41.208  18.576  25.737  1.00  0.00    -0.237 OA
ATOM     80  O   UNL A   1      43.462  18.011  24.917  1.00  0.00    -0.744 OA
ENDBRANCH  76  77
ENDBRANCH  57  71
BRANCH  58  81
ATOM     81  C   UNL A   1      46.469  32.387  28.426  1.00  0.00    -0.014 A 
ATOM     82  C   UNL A   1      47.014  32.674  29.689  1.00  0.00     0.010 A 
ATOM     83  C   UNL A   1      46.357  33.420  27.477  1.00  0.00     0.010 A 
ATOM     84  C   UNL A   1      47.435  33.970  30.000  1.00  0.00     0.020 A 
ATOM     85  C   UNL A   1      46.798  34.712  27.776  1.00  0.00     0.020 A 
ATOM     86  C   UNL A   1      47.330  34.981  29.040  1.00  0.00     0.054 A 
BRANCH  86  87
ATOM     87  S   UNL A   1      47.962  36.636  29.435  1.00  0.00     0.124 S 
ATOM     88  O   UNL A   1      46.776  37.466  29.251  1.00  0.00    -0.237 OA
ATOM     89  O   UNL A   1      48.417  36.480  30.815  1.00  0.00    -0.237 OA
ATOM     90  O   UNL A   1      49.028  36.837  28.456  1.00  0.00    -0.744 OA
ENDBRANCH  86  87
ENDBRANCH  58  81
BRANCH  70  91
ATOM     91  C   UNL A   1      49.790  26.951  25.568  1.00  0.00    -0.014 A 
ATOM     92  C   UNL A   1      50.088  27.269  24.232  1.00  0.00     0.010 A 
ATOM     93  C   UNL A   1      50.824  26.524  26.421  1.00  0.00     0.010 A 
ATOM     94  C   UNL A   1      51.392  27.137  23.750  1.00  0.00     0.020 A 
ATOM     95  C   UNL A   1      52.134  26.414  25.949  1.00  0.00     0.020 A 
ATOM     96  C   UNL A   1      52.407  26.709  24.612  1.00  0.00     0.054 A 
BRANCH  96  97
ATOM     97  S   UNL A   1      54.102  26.591  23.977  1.00  0.00     0.124 S 
ATOM     98  O   UNL A   1      54.642  27.906  24.310  1.00  0.00    -0.237 OA
ATOM     99  O   UNL A   1      54.655  25.473  24.736  1.00  0.00    -0.237 OA
ATOM    100  O   UNL A   1      53.919  26.336  22.549  1.00  0.00    -0.744 OA
ENDBRANCH  96  97
ENDBRANCH  70  91
ENDBRANCH  44  45
ENDBRANCH  36  39
ENDBRANCH  34  35
ENDBRANCH  33  34
ENDBRANCH   1  33
TORSDOF 17
ENDMDL
MODEL 3
REMARK VINA RESULT:     -12.3      4.763      5.636
REMARK SMILES CC1=C(C)C[C@@H](C(=O)NCCCCNC(=O)c2ccc(-c3c4nc(c(-c5ccc(S(=O)(=O)[O-])cc5)c5ccc([nH]5)c(-c5ccc(S(=O)(=O)[O-])cc5)c5nc(c(-c6ccc(S(=O)(=O)[O-])cc6)c6ccc3[nH]6)C=C5)C=C4)cc2)[C@@H](C(=O)N2CCN(c3cccc(C(F)(F)F)c3)CC2)C1
REMARK SMILES IDX 11 1 10 2 9 3 7 4 8 5 6 7 1 8 2 9 3 10 96 11 4 12 5 13 77 14
REMARK SMILES IDX 78 15 79 16 80 17 81 18 95 19 82 20 94 21 83 22 84 23 85 24
REMARK SMILES IDX 93 25 86 26 88 27 87 28 89 29 90 30 91 31 92 32 12 33 13 34
REMARK SMILES IDX 14 35 15 36 16 38 17 39 18 40 76 41 19 42 75 43 20 44 21 45
REMARK SMILES IDX 22 46 69 47 23 48 74 49 68 50 70 51 24 52 73 53 67 54 66 55
REMARK SMILES IDX 25 57 55 58 36 59 54 60 37 61 40 62 53 63 71 64 38 65 39 66
REMARK SMILES IDX 52 68 72 69 41 70 26 71 27 72 35 73 28 74 34 75 29 76 30 77
REMARK SMILES IDX 31 78 32 79 33 80 56 81 57 82 65 83 58 84 64 85 59 86 60 87
REMARK SMILES IDX 61 88 62 89 63 90 42 91 43 92 51 93 44 94 50 95 45 96 46 97
REMARK SMILES IDX 47 98 48 99 49 100
REMARK H PARENT 9 6 14 37 70 56 40 67
REMARK Flexibility Score: inf
ROOT
ATOM      1  C   UNL A   1      34.425  27.954  25.609  1.00  0.00     0.023 C 
ENDROOT
BRANCH   1   2
ATOM      2  C   UNL A   1      33.750  28.693  24.458  1.00  0.00     0.116 C 
BRANCH   2   3
ATOM      3  N   UNL A   1      32.679  29.574  24.861  1.00  0.00    -0.356 N 
ATOM      4  C   UNL A   1      31.405  29.727  24.425  1.00  0.00     0.224 C 
ATOM      5  O   UNL A   1      30.689  30.505  25.069  1.00  0.00    -0.275 OA
ATOM      6  H   UNL A   1      32.923  30.184  25.594  1.00  0.00     0.163 HD
BRANCH   4   7
ATOM      7  C   UNL A   1      30.790  28.972  23.242  1.00  0.00     0.095 C 
ATOM      8  C   UNL A   1      26.427  28.305  23.423  1.00  0.00     0.039 C 
ATOM      9  C   UNL A   1      27.885  28.536  23.104  1.00  0.00    -0.074 C 
ATOM     10  C   UNL A   1      28.392  29.670  22.577  1.00  0.00    -0.074 C 
ATOM     11  C   UNL A   1      28.761  27.363  23.494  1.00  0.00     0.045 C 
ATOM     12  C   UNL A   1      27.599  30.898  22.199  1.00  0.00     0.039 C 
ATOM     13  C   UNL A   1      29.879  29.851  22.381  1.00  0.00     0.045 C 
ATOM     14  C   UNL A   1      30.296  27.533  23.433  1.00  0.00     0.095 C 
BRANCH  14  15
ATOM     15  C   UNL A   1      30.926  26.781  24.617  1.00  0.00     0.226 C 
ATOM     16  O   UNL A   1      30.949  27.185  25.774  1.00  0.00    -0.275 OA
ATOM     17  N   UNL A   1      31.341  25.494  24.311  1.00  0.00    -0.339 N 
ATOM     18  C   UNL A   1      31.042  24.442  25.288  1.00  0.00     0.141 C 
ATOM     19  C   UNL A   1      32.639  25.338  23.655  1.00  0.00     0.141 C 
ATOM     20  C   UNL A   1      31.122  23.047  24.646  1.00  0.00     0.138 C 
ATOM     21  C   UNL A   1      32.815  23.948  23.027  1.00  0.00     0.138 C 
ATOM     22  N   UNL A   1      32.408  22.890  23.955  1.00  0.00    -0.368 N 
BRANCH  22  23
ATOM     23  C   UNL A   1      33.242  21.850  24.289  1.00  0.00     0.037 A 
ATOM     24  C   UNL A   1      34.534  22.098  24.767  1.00  0.00     0.026 A 
ATOM     25  C   UNL A   1      32.840  20.519  24.135  1.00  0.00     0.039 A 
ATOM     26  C   UNL A   1      35.396  21.053  25.101  1.00  0.00     0.003 A 
ATOM     27  C   UNL A   1      33.703  19.452  24.438  1.00  0.00     0.058 A 
ATOM     28  C   UNL A   1      34.983  19.734  24.935  1.00  0.00     0.013 A 
BRANCH  27  29
ATOM     29  C   UNL A   1      33.274  18.023  24.227  1.00  0.00     0.416 C 
ATOM     30  F   UNL A   1      33.331  17.644  22.920  1.00  0.00    -0.166 F 
ATOM     31  F   UNL A   1      34.066  17.143  24.903  1.00  0.00    -0.166 F 
ATOM     32  F   UNL A   1      32.001  17.765  24.638  1.00  0.00    -0.166 F 
ENDBRANCH  27  29
ENDBRANCH  22  23
ENDBRANCH  14  15
ENDBRANCH   4   7
ENDBRANCH   2   3
ENDBRANCH   1   2
BRANCH   1  33
ATOM     33  C   UNL A   1      35.139  28.844  26.620  1.00  0.00     0.023 C 
BRANCH  33  34
ATOM     34  C   UNL A   1      34.288  29.223  27.820  1.00  0.00     0.116 C 
BRANCH  34  35
ATOM     35  N   UNL A   1      33.959  30.642  27.863  1.00  0.00    -0.352 N 
ATOM     36  C   UNL A   1      34.631  31.646  28.518  1.00  0.00     0.251 C 
ATOM     37  H   UNL A   1      33.156  30.914  27.363  1.00  0.00     0.163 HD
ATOM     38  O   UNL A   1      34.180  32.782  28.554  1.00  0.00    -0.269 OA
BRANCH  36  39
ATOM     39  C   UNL A   1      35.885  31.304  29.211  1.00  0.00     0.039 A 
ATOM     40  C   UNL A   1      35.856  30.347  30.226  1.00  0.00     0.014 A 
ATOM     41  C   UNL A   1      37.092  31.869  28.792  1.00  0.00     0.014 A 
ATOM     42  C   UNL A   1      37.056  29.907  30.782  1.00  0.00     0.010 A 
ATOM     43  C   UNL A   1      38.287  31.370  29.287  1.00  0.00     0.010 A 
ATOM     44  C   UNL A   1      38.280  30.391  30.291  1.00  0.00    -0.014 A 
BRANCH  44  45
ATOM     45  C   UNL A   1      39.571  29.900  30.824  1.00  0.00     0.031 A 
ATOM     46  C   UNL A   1      40.215  30.609  31.980  1.00  0.00     0.074 A 
ATOM     47  C   UNL A   1      40.196  28.876  30.211  1.00  0.00     0.049 A 
ATOM     48  N   UNL A   1      41.372  30.382  32.545  1.00  0.00    -0.248 NA
ATOM     49  C   UNL A   1      39.479  31.747  32.553  1.00  0.00     0.031 C 
ATOM     50  C   UNL A   1      39.700  28.158  29.035  1.00  0.00     0.029 A 
ATOM     51  N   UNL A   1      41.397  28.273  30.486  1.00  0.00    -0.354 N 
ATOM     52  C   UNL A   1      41.514  31.364  33.517  1.00  0.00     0.074 A 
ATOM     53  C   UNL A   1      40.350  32.218  33.431  1.00  0.00     0.031 C 
ATOM     54  C   UNL A   1      40.581  27.201  28.700  1.00  0.00     0.029 A 
ATOM     55  C   UNL A   1      41.714  27.257  29.616  1.00  0.00     0.049 A 
ATOM     56  H   UNL A   1      41.977  28.543  31.234  1.00  0.00     0.167 HD
ATOM     57  C   UNL A   1      42.512  31.527  34.417  1.00  0.00     0.031 A 
ATOM     58  C   UNL A   1      42.800  26.462  29.563  1.00  0.00     0.031 A 
ATOM     59  C   UNL A   1      43.654  30.661  34.509  1.00  0.00     0.049 A 
ATOM     60  C   UNL A   1      43.874  26.628  30.600  1.00  0.00     0.074 A 
ATOM     61  C   UNL A   1      44.689  30.690  35.427  1.00  0.00     0.029 A 
ATOM     62  N   UNL A   1      43.913  29.605  33.646  1.00  0.00    -0.354 N 
ATOM     63  N   UNL A   1      43.953  27.510  31.569  1.00  0.00    -0.248 NA
ATOM     64  C   UNL A   1      44.997  25.682  30.549  1.00  0.00     0.031 C 
ATOM     65  C   UNL A   1      45.592  29.673  35.097  1.00  0.00     0.029 A 
ATOM     66  C   UNL A   1      45.097  28.982  34.001  1.00  0.00     0.049 A 
ATOM     67  H   UNL A   1      43.339  29.337  32.893  1.00  0.00     0.167 HD
ATOM     68  C   UNL A   1      45.125  27.215  32.255  1.00  0.00     0.074 A 
ATOM     69  C   UNL A   1      45.713  26.063  31.600  1.00  0.00     0.031 C 
ATOM     70  C   UNL A   1      45.666  27.840  33.330  1.00  0.00     0.031 A 
BRANCH  57  71
ATOM     71  C   UNL A   1      42.398  32.693  35.362  1.00  0.00    -0.014 A 
ATOM     72  C   UNL A   1      42.975  33.939  35.050  1.00  0.00     0.010 A 
ATOM     73  C   UNL A   1      41.720  32.541  36.584  1.00  0.00     0.010 A 
ATOM     74  C   UNL A   1      42.931  34.989  35.969  1.00  0.00     0.020 A 
ATOM     75  C   UNL A   1      41.648  33.599  37.495  1.00  0.00     0.020 A 
ATOM     76  C   UNL A   1      42.279  34.809  37.193  1.00  0.00     0.054 A 
BRANCH  76  77
ATOM     77  S   UNL A   1      42.250  36.181  38.376  1.00  0.00     0.124 S 
ATOM     78  O   UNL A   1      43.457  36.918  38.011  1.00  0.00    -0.237 OA
ATOM     79  O   UNL A   1      40.989  36.851  38.066  1.00  0.00    -0.237 OA
ATOM     80  O   UNL A   1      42.294  35.518  39.676  1.00  0.00    -0.744 OA
ENDBRANCH  76  77
ENDBRANCH  57  71
BRANCH  58  81
ATOM     81  C   UNL A   1      42.896  25.423  28.504  1.00  0.00    -0.014 A 
ATOM     82  C   UNL A   1      43.546  25.700  27.290  1.00  0.00     0.010 A 
ATOM     83  C   UNL A   1      42.386  24.131  28.729  1.00  0.00     0.010 A 
ATOM     84  C   UNL A   1      43.680  24.706  26.316  1.00  0.00     0.020 A 
ATOM     85  C   UNL A   1      42.538  23.128  27.768  1.00  0.00     0.020 A 
ATOM     86  C   UNL A   1      43.180  23.423  26.563  1.00  0.00     0.054 A 
BRANCH  86  87
ATOM     87  S   UNL A   1      43.441  22.127  25.320  1.00  0.00     0.124 S 
ATOM     88  O   UNL A   1      42.337  21.214  25.598  1.00  0.00    -0.237 OA
ATOM     89  O   UNL A   1      43.349  22.868  24.064  1.00  0.00    -0.237 OA
ATOM     90  O   UNL A   1      44.773  21.615  25.636  1.00  0.00    -0.744 OA
ENDBRANCH  86  87
ENDBRANCH  58  81
BRANCH  70  91
ATOM     91  C   UNL A   1      46.949  27.281  33.877  1.00  0.00    -0.014 A 
ATOM     92  C   UNL A   1      48.194  27.779  33.459  1.00  0.00     0.010 A 
ATOM     93  C   UNL A   1      46.904  26.284  34.869  1.00  0.00     0.010 A 
ATOM     94  C   UNL A   1      49.376  27.271  34.003  1.00  0.00     0.020 A 
ATOM     95  C   UNL A   1      48.082  25.790  35.433  1.00  0.00     0.020 A 
ATOM     96  C   UNL A   1      49.312  26.278  34.987  1.00  0.00     0.054 A 
BRANCH  96  97
ATOM     97  S   UNL A   1      50.857  25.667  35.715  1.00  0.00     0.124 S 
ATOM     98  O   UNL A   1      50.611  25.848  37.143  1.00  0.00    -0.237 OA
ATOM     99  O   UNL A   1      50.905  24.282  35.255  1.00  0.00    -0.237 OA
ATOM    100  O   UNL A   1      51.878  26.543  35.142  1.00  0.00    -0.744 OA
ENDBRANCH  96  97
ENDBRANCH  70  91
ENDBRANCH  44  45
ENDBRANCH  36  39
ENDBRANCH  34  35
ENDBRANCH  33  34
ENDBRANCH   1  33
TORSDOF 17
ENDMDL
