MODEL 1
REMARK VINA RESULT:     -12.0      0.000      0.000
REMARK SMILES C[NH+]1CCC2(CC1)OC[C@@H](C(=O)NCCCCNC(=O)c1ccc(-c3c4nc(c(-c5ccc(S(=O)(=O)[O-])cc5)c5ccc([nH]5)c(-c5ccc(S(=O)(=O)[O-])cc5)c5nc(c(-c6ccc(S(=O)(=O)[O-])cc6)c6ccc3[nH]6)C=C5)C=C4)cc1)N2C(=O)c1ccc(C(C)(C)C)cc1
REMARK SMILES IDX 15 1 14 2 13 3 11 4 12 5 10 7 1 8 2 9 3 10 7 11 4 13 6 14
REMARK SMILES IDX 5 15 8 16 81 17 9 18 82 19 83 20 84 21 85 22 93 23 86 24
REMARK SMILES IDX 92 25 87 26 88 27 89 28 90 29 91 30 16 31 17 32 18 33 19 34
REMARK SMILES IDX 20 36 21 37 22 38 80 39 23 40 79 41 24 42 25 43 26 44 73 45
REMARK SMILES IDX 27 46 78 47 72 48 74 49 28 50 77 51 71 52 70 53 29 55 59 56
REMARK SMILES IDX 40 57 58 58 41 59 44 60 57 61 75 62 42 63 43 64 56 66 76 67
REMARK SMILES IDX 45 68 30 69 31 70 39 71 32 72 38 73 33 74 34 75 35 76 36 77
REMARK SMILES IDX 37 78 60 79 61 80 69 81 62 82 68 83 63 84 64 85 65 86 66 87
REMARK SMILES IDX 67 88 46 89 47 90 55 91 48 92 54 93 49 94 50 95 51 96 52 97
REMARK SMILES IDX 53 98
REMARK H PARENT 13 6 2 12 18 35 74 54 44 65
REMARK Flexibility Score: inf
ROOT
ATOM      1  C   UNL A   1      35.890  21.460  25.544  1.00  0.00     0.023 C 
ENDROOT
BRANCH   1   2
ATOM      2  C   UNL A   1      35.266  20.413  24.634  1.00  0.00     0.116 C 
BRANCH   2   3
ATOM      3  N   UNL A   1      34.305  19.606  25.346  1.00  0.00    -0.354 N 
ATOM      4  C   UNL A   1      32.957  19.751  25.458  1.00  0.00     0.245 C 
ATOM      5  O   UNL A   1      32.350  18.829  26.018  1.00  0.00    -0.273 OA
ATOM      6  H   UNL A   1      34.683  18.833  25.824  1.00  0.00     0.163 HD
BRANCH   4   7
ATOM      7  C   UNL A   1      32.166  20.836  24.702  1.00  0.00     0.203 C 
ATOM      8  C   UNL A   1      31.598  26.042  21.262  1.00  0.00     0.332 C 
ATOM      9  N   UNL A   1      31.874  25.620  22.624  1.00  0.00    -0.337 N 
ATOM     10  C   UNL A   1      30.852  24.746  23.187  1.00  0.00     0.267 C 
ATOM     11  C   UNL A   1      33.247  25.173  22.825  1.00  0.00     0.267 C 
ATOM     12  H   UNL A   1      31.805  26.466  23.191  1.00  0.00     0.347 HD
ATOM     13  C   UNL A   1      31.053  23.265  22.930  1.00  0.00     0.120 C 
ATOM     14  C   UNL A   1      33.533  23.680  22.722  1.00  0.00     0.120 C 
ATOM     15  C   UNL A   1      32.459  22.749  23.290  1.00  0.00     0.155 C 
ATOM     16  O   UNL A   1      32.616  21.533  22.493  1.00  0.00    -0.352 OA
ATOM     17  N   UNL A   1      32.591  22.238  24.668  1.00  0.00    -0.295 N 
ATOM     18  C   UNL A   1      32.110  20.424  23.244  1.00  0.00     0.198 C 
BRANCH  17  19
ATOM     19  C   UNL A   1      32.656  22.867  25.911  1.00  0.00     0.256 C 
ATOM     20  O   UNL A   1      32.797  22.232  26.955  1.00  0.00    -0.269 OA
BRANCH  19  21
ATOM     21  C   UNL A   1      32.595  24.327  26.060  1.00  0.00     0.040 A 
ATOM     22  C   UNL A   1      33.745  25.111  26.000  1.00  0.00     0.014 A 
ATOM     23  C   UNL A   1      31.386  24.927  26.395  1.00  0.00     0.014 A 
ATOM     24  C   UNL A   1      33.650  26.505  26.070  1.00  0.00     0.005 A 
ATOM     25  C   UNL A   1      31.281  26.323  26.410  1.00  0.00     0.005 A 
ATOM     26  C   UNL A   1      32.399  27.139  26.157  1.00  0.00    -0.043 A 
BRANCH  26  27
ATOM     27  C   UNL A   1      32.266  28.655  25.933  1.00  0.00    -0.013 C 
ATOM     28  C   UNL A   1      31.778  29.318  27.229  1.00  0.00     0.016 C 
ATOM     29  C   UNL A   1      33.620  29.286  25.520  1.00  0.00     0.016 C 
ATOM     30  C   UNL A   1      31.279  28.993  24.791  1.00  0.00     0.016 C 
ENDBRANCH  26  27
ENDBRANCH  19  21
ENDBRANCH  17  19
ENDBRANCH   4   7
ENDBRANCH   2   3
ENDBRANCH   1   2
BRANCH   1  31
ATOM     31  C   UNL A   1      36.110  22.834  24.924  1.00  0.00     0.023 C 
BRANCH  31  32
ATOM     32  C   UNL A   1      37.345  23.572  25.407  1.00  0.00     0.116 C 
BRANCH  32  33
ATOM     33  N   UNL A   1      38.445  22.684  25.756  1.00  0.00    -0.352 N 
ATOM     34  C   UNL A   1      39.604  22.986  26.434  1.00  0.00     0.251 C 
ATOM     35  H   UNL A   1      38.347  21.747  25.469  1.00  0.00     0.163 HD
ATOM     36  O   UNL A   1      40.491  22.151  26.549  1.00  0.00    -0.269 OA
BRANCH  34  37
ATOM     37  C   UNL A   1      39.773  24.348  26.984  1.00  0.00     0.039 A 
ATOM     38  C   UNL A   1      39.350  24.610  28.288  1.00  0.00     0.014 A 
ATOM     39  C   UNL A   1      40.414  25.336  26.232  1.00  0.00     0.014 A 
ATOM     40  C   UNL A   1      39.643  25.847  28.868  1.00  0.00     0.010 A 
ATOM     41  C   UNL A   1      40.780  26.529  26.841  1.00  0.00     0.010 A 
ATOM     42  C   UNL A   1      40.396  26.799  28.164  1.00  0.00    -0.014 A 
BRANCH  42  43
ATOM     43  C   UNL A   1      40.786  28.093  28.777  1.00  0.00     0.031 A 
ATOM     44  C   UNL A   1      42.179  28.271  29.317  1.00  0.00     0.074 A 
ATOM     45  C   UNL A   1      39.874  29.075  28.915  1.00  0.00     0.049 A 
ATOM     46  N   UNL A   1      42.690  29.287  29.964  1.00  0.00    -0.248 NA
ATOM     47  C   UNL A   1      43.110  27.146  29.131  1.00  0.00     0.031 C 
ATOM     48  C   UNL A   1      38.482  29.014  28.464  1.00  0.00     0.029 A 
ATOM     49  N   UNL A   1      39.983  30.320  29.483  1.00  0.00    -0.354 N 
ATOM     50  C   UNL A   1      43.991  28.914  30.279  1.00  0.00     0.074 A 
ATOM     51  C   UNL A   1      44.171  27.560  29.805  1.00  0.00     0.031 C 
ATOM     52  C   UNL A   1      37.880  30.183  28.737  1.00  0.00     0.029 A 
ATOM     53  C   UNL A   1      38.825  31.059  29.422  1.00  0.00     0.049 A 
ATOM     54  H   UNL A   1      40.813  30.654  29.895  1.00  0.00     0.167 HD
ATOM     55  C   UNL A   1      44.960  29.640  30.886  1.00  0.00     0.031 A 
ATOM     56  C   UNL A   1      38.556  32.301  29.867  1.00  0.00     0.031 A 
ATOM     57  C   UNL A   1      44.783  30.991  31.347  1.00  0.00     0.049 A 
ATOM     58  C   UNL A   1      39.640  33.084  30.557  1.00  0.00     0.074 A 
ATOM     59  C   UNL A   1      45.711  31.828  31.938  1.00  0.00     0.029 A 
ATOM     60  N   UNL A   1      43.593  31.701  31.267  1.00  0.00    -0.354 N 
ATOM     61  N   UNL A   1      40.879  32.732  30.807  1.00  0.00    -0.248 NA
ATOM     62  C   UNL A   1      39.290  34.434  31.018  1.00  0.00     0.031 C 
ATOM     63  C   UNL A   1      45.071  33.033  32.252  1.00  0.00     0.029 A 
ATOM     64  C   UNL A   1      43.759  32.963  31.810  1.00  0.00     0.049 A 
ATOM     65  H   UNL A   1      42.756  31.358  30.880  1.00  0.00     0.167 HD
ATOM     66  C   UNL A   1      41.466  33.829  31.427  1.00  0.00     0.074 A 
ATOM     67  C   UNL A   1      40.448  34.858  31.508  1.00  0.00     0.031 C 
ATOM     68  C   UNL A   1      42.735  33.974  31.880  1.00  0.00     0.031 A 
BRANCH  55  69
ATOM     69  C   UNL A   1      46.294  28.969  31.085  1.00  0.00    -0.014 A 
ATOM     70  C   UNL A   1      46.603  28.319  32.295  1.00  0.00     0.010 A 
ATOM     71  C   UNL A   1      47.254  29.000  30.060  1.00  0.00     0.010 A 
ATOM     72  C   UNL A   1      47.871  27.769  32.500  1.00  0.00     0.020 A 
ATOM     73  C   UNL A   1      48.515  28.423  30.249  1.00  0.00     0.020 A 
ATOM     74  C   UNL A   1      48.823  27.836  31.478  1.00  0.00     0.054 A 
BRANCH  74  75
ATOM     75  S   UNL A   1      50.469  27.134  31.776  1.00  0.00     0.124 S 
ATOM     76  O   UNL A   1      50.216  26.247  32.909  1.00  0.00    -0.237 OA
ATOM     77  O   UNL A   1      50.768  26.466  30.512  1.00  0.00    -0.237 OA
ATOM     78  O   UNL A   1      51.295  28.301  32.071  1.00  0.00    -0.744 OA
ENDBRANCH  74  75
ENDBRANCH  55  69
BRANCH  56  79
ATOM     79  C   UNL A   1      37.213  32.897  29.633  1.00  0.00    -0.014 A 
ATOM     80  C   UNL A   1      36.299  33.015  30.695  1.00  0.00     0.010 A 
ATOM     81  C   UNL A   1      36.849  33.377  28.362  1.00  0.00     0.010 A 
ATOM     82  C   UNL A   1      35.044  33.592  30.491  1.00  0.00     0.020 A 
ATOM     83  C   UNL A   1      35.601  33.976  28.159  1.00  0.00     0.020 A 
ATOM     84  C   UNL A   1      34.704  34.073  29.224  1.00  0.00     0.054 A 
BRANCH  84  85
ATOM     85  S   UNL A   1      33.092  34.877  28.999  1.00  0.00     0.124 S 
ATOM     86  O   UNL A   1      33.477  36.195  28.503  1.00  0.00    -0.237 OA
ATOM     87  O   UNL A   1      32.437  34.002  28.029  1.00  0.00    -0.237 OA
ATOM     88  O   UNL A   1      32.509  34.856  30.338  1.00  0.00    -0.744 OA
ENDBRANCH  84  85
ENDBRANCH  56  79
BRANCH  68  89
ATOM     89  C   UNL A   1      43.111  35.306  32.473  1.00  0.00    -0.014 A 
ATOM     90  C   UNL A   1      43.804  36.270  31.720  1.00  0.00     0.010 A 
ATOM     91  C   UNL A   1      42.707  35.616  33.784  1.00  0.00     0.010 A 
ATOM     92  C   UNL A   1      44.108  37.514  32.279  1.00  0.00     0.020 A 
ATOM     93  C   UNL A   1      42.986  36.869  34.337  1.00  0.00     0.020 A 
ATOM     94  C   UNL A   1      43.696  37.806  33.584  1.00  0.00     0.054 A 
BRANCH  94  95
ATOM     95  S   UNL A   1      44.053  39.448  34.267  1.00  0.00     0.124 S 
ATOM     96  O   UNL A   1      45.302  39.792  33.594  1.00  0.00    -0.237 OA
ATOM     97  O   UNL A   1      42.885  40.226  33.861  1.00  0.00    -0.237 OA
ATOM     98  O   UNL A   1      44.164  39.208  35.704  1.00  0.00    -0.744 OA
ENDBRANCH  94  95
ENDBRANCH  68  89
ENDBRANCH  42  43
ENDBRANCH  34  37
ENDBRANCH  32  33
ENDBRANCH  31  32
ENDBRANCH   1  31
TORSDOF 17
ENDMDL
MODEL 2
REMARK VINA RESULT:     -11.9      2.457      3.516
REMARK SMILES C[NH+]1CCC2(CC1)OC[C@@H](C(=O)NCCCCNC(=O)c1ccc(-c3c4nc(c(-c5ccc(S(=O)(=O)[O-])cc5)c5ccc([nH]5)c(-c5ccc(S(=O)(=O)[O-])cc5)c5nc(c(-c6ccc(S(=O)(=O)[O-])cc6)c6ccc3[nH]6)C=C5)C=C4)cc1)N2C(=O)c1ccc(C(C)(C)C)cc1
REMARK SMILES IDX 15 1 14 2 13 3 11 4 12 5 10 7 1 8 2 9 3 10 7 11 4 13 6 14
REMARK SMILES IDX 5 15 8 16 81 17 9 18 82 19 83 20 84 21 85 22 93 23 86 24
REMARK SMILES IDX 92 25 87 26 88 27 89 28 90 29 91 30 16 31 17 32 18 33 19 34
REMARK SMILES IDX 20 36 21 37 22 38 80 39 23 40 79 41 24 42 25 43 26 44 73 45
REMARK SMILES IDX 27 46 78 47 72 48 74 49 28 50 77 51 71 52 70 53 29 55 59 56
REMARK SMILES IDX 40 57 58 58 41 59 44 60 57 61 75 62 42 63 43 64 56 66 76 67
REMARK SMILES IDX 45 68 30 69 31 70 39 71 32 72 38 73 33 74 34 75 35 76 36 77
REMARK SMILES IDX 37 78 60 79 61 80 69 81 62 82 68 83 63 84 64 85 65 86 66 87
REMARK SMILES IDX 67 88 46 89 47 90 55 91 48 92 54 93 49 94 50 95 51 96 52 97
REMARK SMILES IDX 53 98
REMARK H PARENT 13 6 2 12 18 35 74 54 44 65
REMARK Flexibility Score: inf
ROOT
ATOM      1  C   UNL A   1      35.305  24.433  24.846  1.00  0.00     0.023 C 
ENDROOT
BRANCH   1   2
ATOM      2  C   UNL A   1      33.961  24.222  24.167  1.00  0.00     0.116 C 
BRANCH   2   3
ATOM      3  N   UNL A   1      33.092  23.397  24.971  1.00  0.00    -0.354 N 
ATOM      4  C   UNL A   1      31.768  23.536  25.249  1.00  0.00     0.245 C 
ATOM      5  O   UNL A   1      31.231  22.601  25.857  1.00  0.00    -0.273 OA
ATOM      6  H   UNL A   1      33.525  22.614  25.383  1.00  0.00     0.163 HD
BRANCH   4   7
ATOM      7  C   UNL A   1      30.892  24.637  24.620  1.00  0.00     0.203 C 
ATOM      8  C   UNL A   1      29.920  30.077  21.667  1.00  0.00     0.332 C 
ATOM      9  N   UNL A   1      30.272  29.558  22.976  1.00  0.00    -0.337 N 
ATOM     10  C   UNL A   1      29.320  28.585  23.498  1.00  0.00     0.267 C 
ATOM     11  C   UNL A   1      31.673  29.170  23.088  1.00  0.00     0.267 C 
ATOM     12  H   UNL A   1      30.184  30.347  23.616  1.00  0.00     0.347 HD
ATOM     13  C   UNL A   1      29.586  27.144  23.106  1.00  0.00     0.120 C 
ATOM     14  C   UNL A   1      32.030  27.708  22.844  1.00  0.00     0.120 C 
ATOM     15  C   UNL A   1      31.030  26.676  23.368  1.00  0.00     0.155 C 
ATOM     16  O   UNL A   1      31.216  25.543  22.464  1.00  0.00    -0.352 OA
ATOM     17  N   UNL A   1      31.244  26.058  24.692  1.00  0.00    -0.295 N 
ATOM     18  C   UNL A   1      30.797  24.348  23.134  1.00  0.00     0.198 C 
BRANCH  17  19
ATOM     19  C   UNL A   1      31.328  26.582  25.981  1.00  0.00     0.256 C 
ATOM     20  O   UNL A   1      30.605  26.184  26.893  1.00  0.00    -0.269 OA
BRANCH  19  21
ATOM     21  C   UNL A   1      32.302  27.618  26.350  1.00  0.00     0.040 A 
ATOM     22  C   UNL A   1      31.894  28.858  26.836  1.00  0.00     0.014 A 
ATOM     23  C   UNL A   1      33.652  27.405  26.091  1.00  0.00     0.014 A 
ATOM     24  C   UNL A   1      32.844  29.797  27.251  1.00  0.00     0.005 A 
ATOM     25  C   UNL A   1      34.603  28.321  26.556  1.00  0.00     0.005 A 
ATOM     26  C   UNL A   1      34.215  29.495  27.228  1.00  0.00    -0.043 A 
BRANCH  26  27
ATOM     27  C   UNL A   1      35.233  30.391  27.954  1.00  0.00    -0.013 C 
ATOM     28  C   UNL A   1      34.693  31.827  28.011  1.00  0.00     0.016 C 
ATOM     29  C   UNL A   1      35.499  29.891  29.397  1.00  0.00     0.016 C 
ATOM     30  C   UNL A   1      36.611  30.398  27.251  1.00  0.00     0.016 C 
ENDBRANCH  26  27
ENDBRANCH  19  21
ENDBRANCH  17  19
ENDBRANCH   4   7
ENDBRANCH   2   3
ENDBRANCH   1   2
BRANCH   1  31
ATOM     31  C   UNL A   1      36.221  23.217  24.903  1.00  0.00     0.023 C 
BRANCH  31  32
ATOM     32  C   UNL A   1      36.967  23.028  26.212  1.00  0.00     0.116 C 
BRANCH  32  33
ATOM     33  N   UNL A   1      38.054  22.065  26.118  1.00  0.00    -0.352 N 
ATOM     34  C   UNL A   1      39.395  22.264  26.362  1.00  0.00     0.251 C 
ATOM     35  H   UNL A   1      37.799  21.154  25.846  1.00  0.00     0.163 HD
ATOM     36  O   UNL A   1      40.206  21.380  26.126  1.00  0.00    -0.269 OA
BRANCH  34  37
ATOM     37  C   UNL A   1      39.837  23.580  26.874  1.00  0.00     0.039 A 
ATOM     38  C   UNL A   1      40.536  23.638  28.080  1.00  0.00     0.014 A 
ATOM     39  C   UNL A   1      39.621  24.736  26.120  1.00  0.00     0.014 A 
ATOM     40  C   UNL A   1      41.089  24.852  28.493  1.00  0.00     0.010 A 
ATOM     41  C   UNL A   1      40.246  25.920  26.489  1.00  0.00     0.010 A 
ATOM     42  C   UNL A   1      40.984  25.992  27.681  1.00  0.00    -0.014 A 
BRANCH  42  43
ATOM     43  C   UNL A   1      41.621  27.278  28.056  1.00  0.00     0.031 A 
ATOM     44  C   UNL A   1      43.108  27.446  27.900  1.00  0.00     0.074 A 
ATOM     45  C   UNL A   1      40.882  28.263  28.604  1.00  0.00     0.049 A 
ATOM     46  N   UNL A   1      43.867  28.453  28.247  1.00  0.00    -0.248 NA
ATOM     47  C   UNL A   1      43.842  26.319  27.300  1.00  0.00     0.031 C 
ATOM     48  C   UNL A   1      39.438  28.211  28.840  1.00  0.00     0.029 A 
ATOM     49  N   UNL A   1      41.249  29.502  29.067  1.00  0.00    -0.354 N 
ATOM     50  C   UNL A   1      45.165  28.072  27.929  1.00  0.00     0.074 A 
ATOM     51  C   UNL A   1      45.097  26.722  27.416  1.00  0.00     0.031 C 
ATOM     52  C   UNL A   1      39.037  29.380  29.366  1.00  0.00     0.029 A 
ATOM     53  C   UNL A   1      40.198  30.245  29.548  1.00  0.00     0.049 A 
ATOM     54  H   UNL A   1      42.178  29.828  29.056  1.00  0.00     0.167 HD
ATOM     55  C   UNL A   1      46.310  28.789  28.030  1.00  0.00     0.031 A 
ATOM     56  C   UNL A   1      40.172  31.484  30.076  1.00  0.00     0.031 A 
ATOM     57  C   UNL A   1      46.375  30.135  28.531  1.00  0.00     0.049 A 
ATOM     58  C   UNL A   1      41.457  32.256  30.198  1.00  0.00     0.074 A 
ATOM     59  C   UNL A   1      47.477  30.963  28.637  1.00  0.00     0.029 A 
ATOM     60  N   UNL A   1      45.286  30.851  29.009  1.00  0.00    -0.354 N 
ATOM     61  N   UNL A   1      42.671  31.897  29.850  1.00  0.00    -0.248 NA
ATOM     62  C   UNL A   1      41.368  33.603  30.777  1.00  0.00     0.031 C 
ATOM     63  C   UNL A   1      47.062  32.167  29.217  1.00  0.00     0.029 A 
ATOM     64  C   UNL A   1      45.693  32.107  29.425  1.00  0.00     0.049 A 
ATOM     65  H   UNL A   1      44.362  30.515  29.046  1.00  0.00     0.167 HD
ATOM     66  C   UNL A   1      43.485  32.986  30.140  1.00  0.00     0.074 A 
ATOM     67  C   UNL A   1      42.626  34.017  30.685  1.00  0.00     0.031 C 
ATOM     68  C   UNL A   1      44.822  33.121  29.963  1.00  0.00     0.031 A 
BRANCH  55  69
ATOM     69  C   UNL A   1      47.582  28.111  27.592  1.00  0.00    -0.014 A 
ATOM     70  C   UNL A   1      48.407  27.450  28.521  1.00  0.00     0.010 A 
ATOM     71  C   UNL A   1      47.965  28.144  26.240  1.00  0.00     0.010 A 
ATOM     72  C   UNL A   1      49.623  26.893  28.119  1.00  0.00     0.020 A 
ATOM     73  C   UNL A   1      49.167  27.561  25.826  1.00  0.00     0.020 A 
ATOM     74  C   UNL A   1      50.000  26.964  26.775  1.00  0.00     0.054 A 
BRANCH  74  75
ATOM     75  S   UNL A   1      51.594  26.252  26.280  1.00  0.00     0.124 S 
ATOM     76  O   UNL A   1      51.373  24.828  26.514  1.00  0.00    -0.237 OA
ATOM     77  O   UNL A   1      51.703  26.648  24.878  1.00  0.00    -0.237 OA
ATOM     78  O   UNL A   1      52.552  26.890  27.180  1.00  0.00    -0.744 OA
ENDBRANCH  74  75
ENDBRANCH  55  69
BRANCH  56  79
ATOM     79  C   UNL A   1      38.876  32.088  30.487  1.00  0.00    -0.014 A 
ATOM     80  C   UNL A   1      38.189  32.946  29.611  1.00  0.00     0.010 A 
ATOM     81  C   UNL A   1      38.306  31.789  31.738  1.00  0.00     0.010 A 
ATOM     82  C   UNL A   1      36.961  33.502  29.979  1.00  0.00     0.020 A 
ATOM     83  C   UNL A   1      37.067  32.326  32.101  1.00  0.00     0.020 A 
ATOM     84  C   UNL A   1      36.405  33.185  31.221  1.00  0.00     0.054 A 
BRANCH  84  85
ATOM     85  S   UNL A   1      34.779  33.867  31.650  1.00  0.00     0.124 S 
ATOM     86  O   UNL A   1      35.122  34.853  32.669  1.00  0.00    -0.237 OA
ATOM     87  O   UNL A   1      34.319  34.409  30.373  1.00  0.00    -0.237 OA
ATOM     88  O   UNL A   1      34.035  32.704  32.128  1.00  0.00    -0.744 OA
ENDBRANCH  84  85
ENDBRANCH  56  79
BRANCH  68  89
ATOM     89  C   UNL A   1      45.438  34.446  30.327  1.00  0.00    -0.014 A 
ATOM     90  C   UNL A   1      45.504  35.499  29.399  1.00  0.00     0.010 A 
ATOM     91  C   UNL A   1      45.902  34.654  31.638  1.00  0.00     0.010 A 
ATOM     92  C   UNL A   1      46.045  36.733  29.771  1.00  0.00     0.020 A 
ATOM     93  C   UNL A   1      46.419  35.893  32.022  1.00  0.00     0.020 A 
ATOM     94  C   UNL A   1      46.498  36.922  31.081  1.00  0.00     0.054 A 
BRANCH  94  95
ATOM     95  S   UNL A   1      47.145  38.549  31.556  1.00  0.00     0.124 S 
ATOM     96  O   UNL A   1      47.200  39.241  30.271  1.00  0.00    -0.237 OA
ATOM     97  O   UNL A   1      46.132  39.038  32.490  1.00  0.00    -0.237 OA
ATOM     98  O   UNL A   1      48.441  38.245  32.157  1.00  0.00    -0.744 OA
ENDBRANCH  94  95
ENDBRANCH  68  89
ENDBRANCH  42  43
ENDBRANCH  34  37
ENDBRANCH  32  33
ENDBRANCH  31  32
ENDBRANCH   1  31
TORSDOF 17
ENDMDL
MODEL 3
REMARK VINA RESULT:     -11.9      3.521      4.483
REMARK SMILES C[NH+]1CCC2(CC1)OC[C@@H](C(=O)NCCCCNC(=O)c1ccc(-c3c4nc(c(-c5ccc(S(=O)(=O)[O-])cc5)c5ccc([nH]5)c(-c5ccc(S(=O)(=O)[O-])cc5)c5nc(c(-c6ccc(S(=O)(=O)[O-])cc6)c6ccc3[nH]6)C=C5)C=C4)cc1)N2C(=O)c1ccc(C(C)(C)C)cc1
REMARK SMILES IDX 15 1 14 2 13 3 11 4 12 5 10 7 1 8 2 9 3 10 7 11 4 13 6 14
REMARK SMILES IDX 5 15 8 16 81 17 9 18 82 19 83 20 84 21 85 22 93 23 86 24
REMARK SMILES IDX 92 25 87 26 88 27 89 28 90 29 91 30 16 31 17 32 18 33 19 34
REMARK SMILES IDX 20 36 21 37 22 38 80 39 23 40 79 41 24 42 25 43 26 44 73 45
REMARK SMILES IDX 27 46 78 47 72 48 74 49 28 50 77 51 71 52 70 53 29 55 59 56
REMARK SMILES IDX 40 57 58 58 41 59 44 60 57 61 75 62 42 63 43 64 56 66 76 67
REMARK SMILES IDX 45 68 30 69 31 70 39 71 32 72 38 73 33 74 34 75 35 76 36 77
REMARK SMILES IDX 37 78 60 79 61 80 69 81 62 82 68 83 63 84 64 85 65 86 66 87
REMARK SMILES IDX 67 88 46 89 47 90 55 91 48 92 54 93 49 94 50 95 51 96 52 97
REMARK SMILES IDX 53 98
REMARK H PARENT 13 6 2 12 18 35 74 54 44 65
REMARK Flexibility Score: inf
ROOT
ATOM      1  C   UNL A   1      40.378  21.580  26.471  1.00  0.00     0.023 C 
ENDROOT
BRANCH   1   2
ATOM      2  C   UNL A   1      38.905  21.951  26.393  1.00  0.00     0.116 C 
BRANCH   2   3
ATOM      3  N   UNL A   1      38.435  21.946  25.029  1.00  0.00    -0.354 N 
ATOM      4  C   UNL A   1      37.166  21.882  24.543  1.00  0.00     0.245 C 
ATOM      5  O   UNL A   1      37.036  22.038  23.322  1.00  0.00    -0.273 OA
ATOM      6  H   UNL A   1      39.142  21.996  24.345  1.00  0.00     0.163 HD
BRANCH   4   7
ATOM      7  C   UNL A   1      35.921  21.900  25.451  1.00  0.00     0.203 C 
ATOM      8  C   UNL A   1      29.804  22.573  26.628  1.00  0.00     0.332 C 
ATOM      9  N   UNL A   1      30.990  23.366  26.362  1.00  0.00    -0.337 N 
ATOM     10  C   UNL A   1      32.099  23.087  27.266  1.00  0.00     0.267 C 
ATOM     11  C   UNL A   1      31.346  23.421  24.949  1.00  0.00     0.267 C 
ATOM     12  H   UNL A   1      30.732  24.327  26.588  1.00  0.00     0.347 HD
ATOM     13  C   UNL A   1      33.027  21.970  26.828  1.00  0.00     0.120 C 
ATOM     14  C   UNL A   1      32.376  22.424  24.433  1.00  0.00     0.120 C 
ATOM     15  C   UNL A   1      33.534  22.105  25.380  1.00  0.00     0.155 C 
ATOM     16  O   UNL A   1      33.913  20.745  24.998  1.00  0.00    -0.352 OA
ATOM     17  N   UNL A   1      34.811  22.834  25.243  1.00  0.00    -0.295 N 
ATOM     18  C   UNL A   1      35.279  20.528  25.367  1.00  0.00     0.198 C 
BRANCH  17  19
ATOM     19  C   UNL A   1      35.147  24.183  25.339  1.00  0.00     0.256 C 
ATOM     20  O   UNL A   1      36.251  24.552  25.738  1.00  0.00    -0.269 OA
BRANCH  19  21
ATOM     21  C   UNL A   1      34.226  25.256  24.942  1.00  0.00     0.040 A 
ATOM     22  C   UNL A   1      34.032  25.588  23.603  1.00  0.00     0.014 A 
ATOM     23  C   UNL A   1      33.633  26.042  25.924  1.00  0.00     0.014 A 
ATOM     24  C   UNL A   1      33.093  26.562  23.249  1.00  0.00     0.005 A 
ATOM     25  C   UNL A   1      32.654  26.978  25.571  1.00  0.00     0.005 A 
ATOM     26  C   UNL A   1      32.302  27.190  24.225  1.00  0.00    -0.043 A 
BRANCH  26  27
ATOM     27  C   UNL A   1      31.076  28.029  23.827  1.00  0.00    -0.013 C 
ATOM     28  C   UNL A   1      31.102  28.277  22.312  1.00  0.00     0.016 C 
ATOM     29  C   UNL A   1      29.754  27.311  24.200  1.00  0.00     0.016 C 
ATOM     30  C   UNL A   1      31.036  29.390  24.560  1.00  0.00     0.016 C 
ENDBRANCH  26  27
ENDBRANCH  19  21
ENDBRANCH  17  19
ENDBRANCH   4   7
ENDBRANCH   2   3
ENDBRANCH   1   2
BRANCH   1  31
ATOM     31  C   UNL A   1      41.140  22.131  27.669  1.00  0.00     0.023 C 
BRANCH  31  32
ATOM     32  C   UNL A   1      42.219  23.147  27.340  1.00  0.00     0.116 C 
BRANCH  32  33
ATOM     33  N   UNL A   1      41.920  23.937  26.154  1.00  0.00    -0.352 N 
ATOM     34  C   UNL A   1      41.526  25.255  26.082  1.00  0.00     0.251 C 
ATOM     35  H   UNL A   1      42.010  23.469  25.292  1.00  0.00     0.163 HD
ATOM     36  O   UNL A   1      41.198  25.747  25.012  1.00  0.00    -0.269 OA
BRANCH  34  37
ATOM     37  C   UNL A   1      41.468  26.048  27.329  1.00  0.00     0.039 A 
ATOM     38  C   UNL A   1      42.449  27.013  27.565  1.00  0.00     0.014 A 
ATOM     39  C   UNL A   1      40.403  25.884  28.219  1.00  0.00     0.014 A 
ATOM     40  C   UNL A   1      42.318  27.870  28.660  1.00  0.00     0.010 A 
ATOM     41  C   UNL A   1      40.231  26.793  29.255  1.00  0.00     0.010 A 
ATOM     42  C   UNL A   1      41.187  27.794  29.488  1.00  0.00    -0.014 A 
BRANCH  42  43
ATOM     43  C   UNL A   1      40.982  28.735  30.616  1.00  0.00     0.031 A 
ATOM     44  C   UNL A   1      41.860  28.641  31.834  1.00  0.00     0.074 A 
ATOM     45  C   UNL A   1      39.966  29.620  30.580  1.00  0.00     0.049 A 
ATOM     46  N   UNL A   1      41.790  29.310  32.957  1.00  0.00    -0.248 NA
ATOM     47  C   UNL A   1      42.941  27.643  31.795  1.00  0.00     0.031 C 
ATOM     48  C   UNL A   1      39.023  29.788  29.472  1.00  0.00     0.029 A 
ATOM     49  N   UNL A   1      39.554  30.544  31.508  1.00  0.00    -0.354 N 
ATOM     50  C   UNL A   1      42.801  28.798  33.761  1.00  0.00     0.074 A 
ATOM     51  C   UNL A   1      43.430  27.726  33.021  1.00  0.00     0.031 C 
ATOM     52  C   UNL A   1      38.169  30.782  29.768  1.00  0.00     0.029 A 
ATOM     53  C   UNL A   1      38.473  31.290  31.102  1.00  0.00     0.049 A 
ATOM     54  H   UNL A   1      39.992  30.663  32.381  1.00  0.00     0.167 HD
ATOM     55  C   UNL A   1      43.190  29.198  34.995  1.00  0.00     0.031 A 
ATOM     56  C   UNL A   1      37.802  32.273  31.733  1.00  0.00     0.031 A 
ATOM     57  C   UNL A   1      42.571  30.271  35.725  1.00  0.00     0.049 A 
ATOM     58  C   UNL A   1      38.237  32.689  33.111  1.00  0.00     0.074 A 
ATOM     59  C   UNL A   1      42.913  30.782  36.963  1.00  0.00     0.029 A 
ATOM     60  N   UNL A   1      41.477  31.000  35.278  1.00  0.00    -0.354 N 
ATOM     61  N   UNL A   1      39.225  32.224  33.840  1.00  0.00    -0.248 NA
ATOM     62  C   UNL A   1      37.471  33.769  33.749  1.00  0.00     0.031 C 
ATOM     63  C   UNL A   1      42.001  31.794  37.284  1.00  0.00     0.029 A 
ATOM     64  C   UNL A   1      41.123  31.947  36.222  1.00  0.00     0.049 A 
ATOM     65  H   UNL A   1      41.021  30.863  34.416  1.00  0.00     0.167 HD
ATOM     66  C   UNL A   1      39.218  32.976  35.010  1.00  0.00     0.074 A 
ATOM     67  C   UNL A   1      38.133  33.929  34.889  1.00  0.00     0.031 C 
ATOM     68  C   UNL A   1      40.041  32.889  36.083  1.00  0.00     0.031 A 
BRANCH  55  69
ATOM     69  C   UNL A   1      44.339  28.455  35.624  1.00  0.00    -0.014 A 
ATOM     70  C   UNL A   1      44.115  27.327  36.435  1.00  0.00     0.010 A 
ATOM     71  C   UNL A   1      45.658  28.895  35.415  1.00  0.00     0.010 A 
ATOM     72  C   UNL A   1      45.180  26.693  37.078  1.00  0.00     0.020 A 
ATOM     73  C   UNL A   1      46.732  28.244  36.033  1.00  0.00     0.020 A 
ATOM     74  C   UNL A   1      46.481  27.164  36.882  1.00  0.00     0.054 A 
BRANCH  74  75
ATOM     75  S   UNL A   1      47.846  26.337  37.745  1.00  0.00     0.124 S 
ATOM     76  O   UNL A   1      48.769  27.445  37.977  1.00  0.00    -0.237 OA
ATOM     77  O   UNL A   1      47.195  25.803  38.939  1.00  0.00    -0.237 OA
ATOM     78  O   UNL A   1      48.304  25.334  36.787  1.00  0.00    -0.744 OA
ENDBRANCH  74  75
ENDBRANCH  55  69
BRANCH  56  79
ATOM     79  C   UNL A   1      36.676  32.961  31.047  1.00  0.00    -0.014 A 
ATOM     80  C   UNL A   1      35.382  32.915  31.595  1.00  0.00     0.010 A 
ATOM     81  C   UNL A   1      36.890  33.688  29.861  1.00  0.00     0.010 A 
ATOM     82  C   UNL A   1      34.321  33.575  30.970  1.00  0.00     0.020 A 
ATOM     83  C   UNL A   1      35.835  34.369  29.244  1.00  0.00     0.020 A 
ATOM     84  C   UNL A   1      34.556  34.301  29.800  1.00  0.00     0.054 A 
BRANCH  84  85
ATOM     85  S   UNL A   1      33.175  35.204  29.041  1.00  0.00     0.124 S 
ATOM     86  O   UNL A   1      32.326  35.485  30.194  1.00  0.00    -0.237 OA
ATOM     87  O   UNL A   1      33.843  36.361  28.449  1.00  0.00    -0.237 OA
ATOM     88  O   UNL A   1      32.631  34.249  28.078  1.00  0.00    -0.744 OA
ENDBRANCH  84  85
ENDBRANCH  56  79
BRANCH  68  89
ATOM     89  C   UNL A   1      39.828  33.874  37.201  1.00  0.00    -0.014 A 
ATOM     90  C   UNL A   1      40.409  35.153  37.167  1.00  0.00     0.010 A 
ATOM     91  C   UNL A   1      38.981  33.531  38.270  1.00  0.00     0.010 A 
ATOM     92  C   UNL A   1      40.165  36.065  38.198  1.00  0.00     0.020 A 
ATOM     93  C   UNL A   1      38.714  34.450  39.289  1.00  0.00     0.020 A 
ATOM     94  C   UNL A   1      39.318  35.708  39.251  1.00  0.00     0.054 A 
BRANCH  94  95
ATOM     95  S   UNL A   1      38.972  36.928  40.548  1.00  0.00     0.124 S 
ATOM     96  O   UNL A   1      38.319  37.995  39.794  1.00  0.00    -0.237 OA
ATOM     97  O   UNL A   1      38.109  36.187  41.466  1.00  0.00    -0.237 OA
ATOM     98  O   UNL A   1      40.294  37.257  41.076  1.00  0.00    -0.744 OA
ENDBRANCH  94  95
ENDBRANCH  68  89
ENDBRANCH  42  43
ENDBRANCH  34  37
ENDBRANCH  32  33
ENDBRANCH  31  32
ENDBRANCH   1  31
TORSDOF 17
ENDMDL
