MODEL 1
REMARK VINA RESULT:     -10.7      0.000      0.000
REMARK SMILES COc1ncccc1C(=O)N[C@@](C)(C(=O)NCCCCNC(=O)c1ccc(-c2c3nc(c(-c4ccc(S(=O)(=O)[O-])cc4)c4ccc([nH]4)c(-c4ccc(S(=O)(=O)[O-])cc4)c4nc(c(-c5ccc(S(=O)(=O)[O-])cc5)c5ccc2[nH]5)C=C4)C=C3)cc1)C(F)(F)F
REMARK SMILES IDX 18 1 17 2 16 3 14 4 15 5 12 7 13 8 11 9 9 10 10 11 8 13 3 14
REMARK SMILES IDX 4 15 5 16 7 17 6 18 2 19 1 20 84 21 85 22 86 23 87 24 19 25
REMARK SMILES IDX 20 26 21 27 22 28 23 30 24 31 25 32 83 33 26 34 82 35 27 36
REMARK SMILES IDX 28 37 29 38 76 39 30 40 81 41 75 42 77 43 31 44 80 45 74 46
REMARK SMILES IDX 73 47 32 49 62 50 43 51 61 52 44 53 47 54 60 55 78 56 45 57
REMARK SMILES IDX 46 58 59 60 79 61 48 62 33 63 34 64 42 65 35 66 41 67 36 68
REMARK SMILES IDX 37 69 38 70 39 71 40 72 63 73 64 74 72 75 65 76 71 77 66 78
REMARK SMILES IDX 67 79 68 80 69 81 70 82 49 83 50 84 58 85 51 86 57 87 52 88
REMARK SMILES IDX 53 89 54 90 55 91 56 92
REMARK H PARENT 16 6 11 12 21 29 77 48 47 59
REMARK Flexibility Score: inf
ROOT
ATOM      1  C   UNL A   1      31.633  26.742  26.636  1.00  0.00     0.023 C 
ENDROOT
BRANCH   1   2
ATOM      2  C   UNL A   1      31.467  26.969  25.135  1.00  0.00     0.116 C 
BRANCH   2   3
ATOM      3  N   UNL A   1      30.849  25.842  24.454  1.00  0.00    -0.354 N 
ATOM      4  C   UNL A   1      31.295  24.906  23.565  1.00  0.00     0.254 C 
ATOM      5  O   UNL A   1      30.492  23.998  23.334  1.00  0.00    -0.272 OA
ATOM      6  H   UNL A   1      29.898  25.729  24.685  1.00  0.00     0.163 HD
BRANCH   4   7
ATOM      7  C   UNL A   1      32.652  25.021  22.822  1.00  0.00     0.212 C 
ATOM      8  C   UNL A   1      33.037  23.710  22.114  1.00  0.00     0.056 C 
BRANCH   7   9
ATOM      9  N   UNL A   1      33.610  25.326  23.952  1.00  0.00    -0.330 N 
ATOM     10  C   UNL A   1      34.530  24.839  24.831  1.00  0.00     0.257 C 
ATOM     11  O   UNL A   1      34.737  25.636  25.752  1.00  0.00    -0.269 OA
ATOM     12  H   UNL A   1      33.536  26.292  24.129  1.00  0.00     0.165 HD
BRANCH  10  13
ATOM     13  C   UNL A   1      35.301  23.565  24.797  1.00  0.00     0.101 A 
ATOM     14  C   UNL A   1      35.224  22.655  25.865  1.00  0.00     0.226 A 
ATOM     15  N   UNL A   1      35.945  21.502  25.962  1.00  0.00    -0.221 NA
ATOM     16  C   UNL A   1      36.808  21.230  24.970  1.00  0.00     0.115 A 
ATOM     17  C   UNL A   1      36.236  23.240  23.821  1.00  0.00     0.021 A 
ATOM     18  C   UNL A   1      36.984  22.061  23.886  1.00  0.00     0.021 A 
BRANCH  14  19
ATOM     19  O   UNL A   1      34.502  22.920  26.998  1.00  0.00    -0.480 OA
ATOM     20  C   UNL A   1      33.790  21.759  27.401  1.00  0.00     0.280 C 
ENDBRANCH  14  19
ENDBRANCH  10  13
ENDBRANCH   7   9
BRANCH   7  21
ATOM     21  C   UNL A   1      32.400  26.049  21.704  1.00  0.00     0.420 C 
ATOM     22  F   UNL A   1      31.108  26.142  21.326  1.00  0.00    -0.168 F 
ATOM     23  F   UNL A   1      32.791  27.289  22.111  1.00  0.00    -0.168 F 
ATOM     24  F   UNL A   1      33.136  25.792  20.595  1.00  0.00    -0.168 F 
ENDBRANCH   7  21
ENDBRANCH   4   7
ENDBRANCH   2   3
ENDBRANCH   1   2
BRANCH   1  25
ATOM     25  C   UNL A   1      32.002  27.971  27.468  1.00  0.00     0.023 C 
BRANCH  25  26
ATOM     26  C   UNL A   1      33.368  28.583  27.181  1.00  0.00     0.116 C 
BRANCH  26  27
ATOM     27  N   UNL A   1      33.389  30.028  27.330  1.00  0.00    -0.352 N 
ATOM     28  C   UNL A   1      34.396  30.837  27.809  1.00  0.00     0.251 C 
ATOM     29  H   UNL A   1      32.568  30.494  27.052  1.00  0.00     0.163 HD
ATOM     30  O   UNL A   1      34.193  32.032  27.976  1.00  0.00    -0.269 OA
BRANCH  28  31
ATOM     31  C   UNL A   1      35.708  30.244  28.150  1.00  0.00     0.039 A 
ATOM     32  C   UNL A   1      36.708  30.213  27.175  1.00  0.00     0.014 A 
ATOM     33  C   UNL A   1      35.958  29.746  29.431  1.00  0.00     0.014 A 
ATOM     34  C   UNL A   1      37.982  29.746  27.507  1.00  0.00     0.010 A 
ATOM     35  C   UNL A   1      37.246  29.351  29.779  1.00  0.00     0.010 A 
ATOM     36  C   UNL A   1      38.272  29.346  28.821  1.00  0.00    -0.014 A 
BRANCH  36  37
ATOM     37  C   UNL A   1      39.638  28.918  29.216  1.00  0.00     0.031 A 
ATOM     38  C   UNL A   1      40.548  29.874  29.939  1.00  0.00     0.074 A 
ATOM     39  C   UNL A   1      40.087  27.696  28.864  1.00  0.00     0.049 A 
ATOM     40  N   UNL A   1      41.794  29.712  30.304  1.00  0.00    -0.248 NA
ATOM     41  C   UNL A   1      39.992  31.195  30.272  1.00  0.00     0.031 C 
ATOM     42  C   UNL A   1      39.317  26.689  28.129  1.00  0.00     0.029 A 
ATOM     43  N   UNL A   1      41.303  27.095  29.073  1.00  0.00    -0.354 N 
ATOM     44  C   UNL A   1      42.176  30.914  30.888  1.00  0.00     0.074 A 
ATOM     45  C   UNL A   1      41.046  31.812  30.783  1.00  0.00     0.031 C 
ATOM     46  C   UNL A   1      40.070  25.588  27.972  1.00  0.00     0.029 A 
ATOM     47  C   UNL A   1      41.387  25.823  28.556  1.00  0.00     0.049 A 
ATOM     48  H   UNL A   1      42.046  27.534  29.547  1.00  0.00     0.167 HD
ATOM     49  C   UNL A   1      43.353  31.237  31.477  1.00  0.00     0.031 A 
ATOM     50  C   UNL A   1      42.409  24.945  28.550  1.00  0.00     0.031 A 
ATOM     51  C   UNL A   1      44.471  30.338  31.590  1.00  0.00     0.049 A 
ATOM     52  C   UNL A   1      43.709  25.326  29.203  1.00  0.00     0.074 A 
ATOM     53  C   UNL A   1      45.687  30.551  32.214  1.00  0.00     0.029 A 
ATOM     54  N   UNL A   1      44.510  29.055  31.064  1.00  0.00    -0.354 N 
ATOM     55  N   UNL A   1      44.031  26.447  29.804  1.00  0.00    -0.248 NA
ATOM     56  C   UNL A   1      44.780  24.321  29.187  1.00  0.00     0.031 C 
ATOM     57  C   UNL A   1      46.480  29.414  32.024  1.00  0.00     0.029 A 
ATOM     58  C   UNL A   1      45.737  28.471  31.332  1.00  0.00     0.049 A 
ATOM     59  H   UNL A   1      43.774  28.623  30.573  1.00  0.00     0.167 HD
ATOM     60  C   UNL A   1      45.332  26.271  30.263  1.00  0.00     0.074 A 
ATOM     61  C   UNL A   1      45.732  24.932  29.880  1.00  0.00     0.031 C 
ATOM     62  C   UNL A   1      46.121  27.138  30.944  1.00  0.00     0.031 A 
BRANCH  49  63
ATOM     63  C   UNL A   1      43.486  32.630  32.036  1.00  0.00    -0.014 A 
ATOM     64  C   UNL A   1      43.062  32.933  33.343  1.00  0.00     0.010 A 
ATOM     65  C   UNL A   1      44.058  33.647  31.250  1.00  0.00     0.010 A 
ATOM     66  C   UNL A   1      43.154  34.238  33.832  1.00  0.00     0.020 A 
ATOM     67  C   UNL A   1      44.180  34.948  31.748  1.00  0.00     0.020 A 
ATOM     68  C   UNL A   1      43.707  35.240  33.028  1.00  0.00     0.054 A 
BRANCH  68  69
ATOM     69  S   UNL A   1      43.813  36.925  33.690  1.00  0.00     0.124 S 
ATOM     70  O   UNL A   1      45.015  36.846  34.517  1.00  0.00    -0.237 OA
ATOM     71  O   UNL A   1      43.934  37.737  32.483  1.00  0.00    -0.237 OA
ATOM     72  O   UNL A   1      42.562  37.088  34.425  1.00  0.00    -0.744 OA
ENDBRANCH  68  69
ENDBRANCH  49  63
BRANCH  50  73
ATOM     73  C   UNL A   1      42.231  23.606  27.924  1.00  0.00    -0.014 A 
ATOM     74  C   UNL A   1      42.886  23.291  26.720  1.00  0.00     0.010 A 
ATOM     75  C   UNL A   1      41.427  22.629  28.541  1.00  0.00     0.010 A 
ATOM     76  C   UNL A   1      42.731  22.030  26.138  1.00  0.00     0.020 A 
ATOM     77  C   UNL A   1      41.292  21.357  27.976  1.00  0.00     0.020 A 
ATOM     78  C   UNL A   1      41.939  21.069  26.772  1.00  0.00     0.054 A 
BRANCH  78  79
ATOM     79  S   UNL A   1      41.805  19.418  26.031  1.00  0.00     0.124 S 
ATOM     80  O   UNL A   1      40.372  19.317  25.771  1.00  0.00    -0.237 OA
ATOM     81  O   UNL A   1      42.657  19.534  24.850  1.00  0.00    -0.237 OA
ATOM     82  O   UNL A   1      42.318  18.533  27.075  1.00  0.00    -0.744 OA
ENDBRANCH  78  79
ENDBRANCH  50  73
BRANCH  62  83
ATOM     83  C   UNL A   1      47.488  26.657  31.353  1.00  0.00    -0.014 A 
ATOM     84  C   UNL A   1      47.708  26.058  32.606  1.00  0.00     0.010 A 
ATOM     85  C   UNL A   1      48.555  26.754  30.441  1.00  0.00     0.010 A 
ATOM     86  C   UNL A   1      48.978  25.590  32.949  1.00  0.00     0.020 A 
ATOM     87  C   UNL A   1      49.820  26.263  30.771  1.00  0.00     0.020 A 
ATOM     88  C   UNL A   1      50.027  25.694  32.029  1.00  0.00     0.054 A 
BRANCH  88  89
ATOM     89  S   UNL A   1      51.654  25.032  32.481  1.00  0.00     0.124 S 
ATOM     90  O   UNL A   1      52.532  25.711  31.531  1.00  0.00    -0.237 OA
ATOM     91  O   UNL A   1      51.795  25.447  33.874  1.00  0.00    -0.237 OA
ATOM     92  O   UNL A   1      51.511  23.592  32.277  1.00  0.00    -0.744 OA
ENDBRANCH  88  89
ENDBRANCH  62  83
ENDBRANCH  36  37
ENDBRANCH  28  31
ENDBRANCH  26  27
ENDBRANCH  25  26
ENDBRANCH   1  25
TORSDOF 18
ENDMDL
MODEL 2
REMARK VINA RESULT:     -10.3      3.752      8.409
REMARK SMILES COc1ncccc1C(=O)N[C@@](C)(C(=O)NCCCCNC(=O)c1ccc(-c2c3nc(c(-c4ccc(S(=O)(=O)[O-])cc4)c4ccc([nH]4)c(-c4ccc(S(=O)(=O)[O-])cc4)c4nc(c(-c5ccc(S(=O)(=O)[O-])cc5)c5ccc2[nH]5)C=C4)C=C3)cc1)C(F)(F)F
REMARK SMILES IDX 18 1 17 2 16 3 14 4 15 5 12 7 13 8 11 9 9 10 10 11 8 13 3 14
REMARK SMILES IDX 4 15 5 16 7 17 6 18 2 19 1 20 84 21 85 22 86 23 87 24 19 25
REMARK SMILES IDX 20 26 21 27 22 28 23 30 24 31 25 32 83 33 26 34 82 35 27 36
REMARK SMILES IDX 28 37 29 38 76 39 30 40 81 41 75 42 77 43 31 44 80 45 74 46
REMARK SMILES IDX 73 47 32 49 62 50 43 51 61 52 44 53 47 54 60 55 78 56 45 57
REMARK SMILES IDX 46 58 59 60 79 61 48 62 33 63 34 64 42 65 35 66 41 67 36 68
REMARK SMILES IDX 37 69 38 70 39 71 40 72 63 73 64 74 72 75 65 76 71 77 66 78
REMARK SMILES IDX 67 79 68 80 69 81 70 82 49 83 50 84 58 85 51 86 57 87 52 88
REMARK SMILES IDX 53 89 54 90 55 91 56 92
REMARK H PARENT 16 6 11 12 21 29 77 48 47 59
REMARK Flexibility Score: inf
ROOT
ATOM      1  C   UNL A   1      37.447  21.575  24.484  1.00  0.00     0.023 C 
ENDROOT
BRANCH   1   2
ATOM      2  C   UNL A   1      36.850  22.736  25.278  1.00  0.00     0.116 C 
BRANCH   2   3
ATOM      3  N   UNL A   1      35.770  22.325  26.161  1.00  0.00    -0.354 N 
ATOM      4  C   UNL A   1      34.410  22.442  26.120  1.00  0.00     0.254 C 
ATOM      5  O   UNL A   1      33.817  21.812  27.000  1.00  0.00    -0.272 OA
ATOM      6  H   UNL A   1      36.091  21.860  26.969  1.00  0.00     0.163 HD
BRANCH   4   7
ATOM      7  C   UNL A   1      33.667  23.367  25.121  1.00  0.00     0.212 C 
ATOM      8  C   UNL A   1      34.486  24.624  24.777  1.00  0.00     0.056 C 
BRANCH   7   9
ATOM      9  N   UNL A   1      32.417  23.731  25.890  1.00  0.00    -0.330 N 
ATOM     10  C   UNL A   1      31.444  24.658  26.114  1.00  0.00     0.257 C 
ATOM     11  O   UNL A   1      30.841  24.430  27.168  1.00  0.00    -0.269 OA
ATOM     12  H   UNL A   1      32.225  22.972  26.488  1.00  0.00     0.165 HD
BRANCH  10  13
ATOM     13  C   UNL A   1      31.013  25.810  25.275  1.00  0.00     0.101 A 
ATOM     14  C   UNL A   1      31.571  27.086  25.474  1.00  0.00     0.226 A 
ATOM     15  N   UNL A   1      31.191  28.215  24.812  1.00  0.00    -0.221 NA
ATOM     16  C   UNL A   1      30.197  28.100  23.918  1.00  0.00     0.115 A 
ATOM     17  C   UNL A   1      29.968  25.768  24.360  1.00  0.00     0.021 A 
ATOM     18  C   UNL A   1      29.562  26.906  23.657  1.00  0.00     0.021 A 
BRANCH  14  19
ATOM     19  O   UNL A   1      32.470  27.340  26.475  1.00  0.00    -0.480 OA
ATOM     20  C   UNL A   1      31.888  28.200  27.443  1.00  0.00     0.280 C 
ENDBRANCH  14  19
ENDBRANCH  10  13
ENDBRANCH   7   9
BRANCH   7  21
ATOM     21  C   UNL A   1      33.581  22.548  23.820  1.00  0.00     0.420 C 
ATOM     22  F   UNL A   1      34.575  22.803  22.945  1.00  0.00    -0.168 F 
ATOM     23  F   UNL A   1      33.624  21.215  24.102  1.00  0.00    -0.168 F 
ATOM     24  F   UNL A   1      32.404  22.734  23.173  1.00  0.00    -0.168 F 
ENDBRANCH   7  21
ENDBRANCH   4   7
ENDBRANCH   2   3
ENDBRANCH   1   2
BRANCH   1  25
ATOM     25  C   UNL A   1      38.020  20.420  25.306  1.00  0.00     0.023 C 
BRANCH  25  26
ATOM     26  C   UNL A   1      39.336  20.701  26.021  1.00  0.00     0.116 C 
BRANCH  26  27
ATOM     27  N   UNL A   1      40.256  19.576  25.986  1.00  0.00    -0.352 N 
ATOM     28  C   UNL A   1      41.630  19.576  26.076  1.00  0.00     0.251 C 
ATOM     29  H   UNL A   1      39.838  18.691  25.883  1.00  0.00     0.163 HD
ATOM     30  O   UNL A   1      42.254  18.537  25.907  1.00  0.00    -0.269 OA
BRANCH  28  31
ATOM     31  C   UNL A   1      42.344  20.845  26.343  1.00  0.00     0.039 A 
ATOM     32  C   UNL A   1      42.702  21.657  25.265  1.00  0.00     0.014 A 
ATOM     33  C   UNL A   1      42.635  21.241  27.652  1.00  0.00     0.014 A 
ATOM     34  C   UNL A   1      43.289  22.902  25.503  1.00  0.00     0.010 A 
ATOM     35  C   UNL A   1      43.151  22.511  27.889  1.00  0.00     0.010 A 
ATOM     36  C   UNL A   1      43.485  23.356  26.818  1.00  0.00    -0.014 A 
BRANCH  36  37
ATOM     37  C   UNL A   1      44.037  24.706  27.097  1.00  0.00     0.031 A 
ATOM     38  C   UNL A   1      43.131  25.804  27.587  1.00  0.00     0.074 A 
ATOM     39  C   UNL A   1      45.336  24.965  26.843  1.00  0.00     0.049 A 
ATOM     40  N   UNL A   1      43.409  27.061  27.819  1.00  0.00    -0.248 NA
ATOM     41  C   UNL A   1      41.724  25.445  27.823  1.00  0.00     0.031 C 
ATOM     42  C   UNL A   1      46.309  23.999  26.330  1.00  0.00     0.029 A 
ATOM     43  N   UNL A   1      46.059  26.124  26.976  1.00  0.00    -0.354 N 
ATOM     44  C   UNL A   1      42.210  27.647  28.206  1.00  0.00     0.074 A 
ATOM     45  C   UNL A   1      41.194  26.620  28.129  1.00  0.00     0.031 C 
ATOM     46  C   UNL A   1      47.506  24.598  26.217  1.00  0.00     0.029 A 
ATOM     47  C   UNL A   1      47.378  25.998  26.609  1.00  0.00     0.049 A 
ATOM     48  H   UNL A   1      45.669  26.967  27.303  1.00  0.00     0.167 HD
ATOM     49  C   UNL A   1      41.977  28.920  28.608  1.00  0.00     0.031 A 
ATOM     50  C   UNL A   1      48.373  26.906  26.587  1.00  0.00     0.031 A 
ATOM     51  C   UNL A   1      42.992  29.936  28.695  1.00  0.00     0.049 A 
ATOM     52  C   UNL A   1      48.091  28.315  27.031  1.00  0.00     0.074 A 
ATOM     53  C   UNL A   1      42.869  31.240  29.141  1.00  0.00     0.029 A 
ATOM     54  N   UNL A   1      44.318  29.763  28.325  1.00  0.00    -0.354 N 
ATOM     55  N   UNL A   1      46.963  28.835  27.451  1.00  0.00    -0.248 NA
ATOM     56  C   UNL A   1      49.219  29.257  27.009  1.00  0.00     0.031 C 
ATOM     57  C   UNL A   1      44.109  31.870  28.996  1.00  0.00     0.029 A 
ATOM     58  C   UNL A   1      45.019  30.943  28.514  1.00  0.00     0.049 A 
ATOM     59  H   UNL A   1      44.704  28.926  27.980  1.00  0.00     0.167 HD
ATOM     60  C   UNL A   1      47.251  30.158  27.771  1.00  0.00     0.074 A 
ATOM     61  C   UNL A   1      48.662  30.353  27.506  1.00  0.00     0.031 C 
ATOM     62  C   UNL A   1      46.424  31.122  28.245  1.00  0.00     0.031 A 
BRANCH  49  63
ATOM     63  C   UNL A   1      40.561  29.280  28.977  1.00  0.00    -0.014 A 
ATOM     64  C   UNL A   1      39.602  29.565  27.987  1.00  0.00     0.010 A 
ATOM     65  C   UNL A   1      40.179  29.318  30.330  1.00  0.00     0.010 A 
ATOM     66  C   UNL A   1      38.304  29.937  28.345  1.00  0.00     0.020 A 
ATOM     67  C   UNL A   1      38.872  29.659  30.691  1.00  0.00     0.020 A 
ATOM     68  C   UNL A   1      37.949  29.989  29.696  1.00  0.00     0.054 A 
BRANCH  68  69
ATOM     69  S   UNL A   1      36.257  30.475  30.132  1.00  0.00     0.124 S 
ATOM     70  O   UNL A   1      36.042  29.732  31.372  1.00  0.00    -0.237 OA
ATOM     71  O   UNL A   1      36.366  31.923  30.279  1.00  0.00    -0.237 OA
ATOM     72  O   UNL A   1      35.463  30.025  28.992  1.00  0.00    -0.744 OA
ENDBRANCH  68  69
ENDBRANCH  49  63
BRANCH  50  73
ATOM     73  C   UNL A   1      49.737  26.500  26.151  1.00  0.00    -0.014 A 
ATOM     74  C   UNL A   1      50.227  26.890  24.892  1.00  0.00     0.010 A 
ATOM     75  C   UNL A   1      50.564  25.743  27.002  1.00  0.00     0.010 A 
ATOM     76  C   UNL A   1      51.513  26.521  24.487  1.00  0.00     0.020 A 
ATOM     77  C   UNL A   1      51.861  25.396  26.611  1.00  0.00     0.020 A 
ATOM     78  C   UNL A   1      52.324  25.780  25.351  1.00  0.00     0.054 A 
BRANCH  78  79
ATOM     79  S   UNL A   1      54.012  25.368  24.829  1.00  0.00     0.124 S 
ATOM     80  O   UNL A   1      54.018  23.913  24.937  1.00  0.00    -0.237 OA
ATOM     81  O   UNL A   1      54.060  25.903  23.469  1.00  0.00    -0.237 OA
ATOM     82  O   UNL A   1      54.850  26.074  25.796  1.00  0.00    -0.744 OA
ENDBRANCH  78  79
ENDBRANCH  50  73
BRANCH  62  83
ATOM     83  C   UNL A   1      47.026  32.468  28.544  1.00  0.00    -0.014 A 
ATOM     84  C   UNL A   1      47.218  33.425  27.532  1.00  0.00     0.010 A 
ATOM     85  C   UNL A   1      47.348  32.802  29.873  1.00  0.00     0.010 A 
ATOM     86  C   UNL A   1      47.748  34.680  27.839  1.00  0.00     0.020 A 
ATOM     87  C   UNL A   1      47.852  34.065  30.188  1.00  0.00     0.020 A 
ATOM     88  C   UNL A   1      48.060  34.993  29.167  1.00  0.00     0.054 A 
BRANCH  88  89
ATOM     89  S   UNL A   1      48.699  36.648  29.547  1.00  0.00     0.124 S 
ATOM     90  O   UNL A   1      47.490  37.351  29.966  1.00  0.00    -0.237 OA
ATOM     91  O   UNL A   1      49.672  36.383  30.603  1.00  0.00    -0.237 OA
ATOM     92  O   UNL A   1      49.273  37.097  28.279  1.00  0.00    -0.744 OA
ENDBRANCH  88  89
ENDBRANCH  62  83
ENDBRANCH  36  37
ENDBRANCH  28  31
ENDBRANCH  26  27
ENDBRANCH  25  26
ENDBRANCH   1  25
TORSDOF 18
ENDMDL
MODEL 3
REMARK VINA RESULT:     -10.2      3.269      4.108
REMARK SMILES COc1ncccc1C(=O)N[C@@](C)(C(=O)NCCCCNC(=O)c1ccc(-c2c3nc(c(-c4ccc(S(=O)(=O)[O-])cc4)c4ccc([nH]4)c(-c4ccc(S(=O)(=O)[O-])cc4)c4nc(c(-c5ccc(S(=O)(=O)[O-])cc5)c5ccc2[nH]5)C=C4)C=C3)cc1)C(F)(F)F
REMARK SMILES IDX 18 1 17 2 16 3 14 4 15 5 12 7 13 8 11 9 9 10 10 11 8 13 3 14
REMARK SMILES IDX 4 15 5 16 7 17 6 18 2 19 1 20 84 21 85 22 86 23 87 24 19 25
REMARK SMILES IDX 20 26 21 27 22 28 23 30 24 31 25 32 83 33 26 34 82 35 27 36
REMARK SMILES IDX 28 37 29 38 76 39 30 40 81 41 75 42 77 43 31 44 80 45 74 46
REMARK SMILES IDX 73 47 32 49 62 50 43 51 61 52 44 53 47 54 60 55 78 56 45 57
REMARK SMILES IDX 46 58 59 60 79 61 48 62 33 63 34 64 42 65 35 66 41 67 36 68
REMARK SMILES IDX 37 69 38 70 39 71 40 72 63 73 64 74 72 75 65 76 71 77 66 78
REMARK SMILES IDX 67 79 68 80 69 81 70 82 49 83 50 84 58 85 51 86 57 87 52 88
REMARK SMILES IDX 53 89 54 90 55 91 56 92
REMARK H PARENT 16 6 11 12 21 29 77 48 47 59
REMARK Flexibility Score: inf
ROOT
ATOM      1  C   UNL A   1      34.227  29.001  27.528  1.00  0.00     0.023 C 
ENDROOT
BRANCH   1   2
ATOM      2  C   UNL A   1      32.818  28.481  27.254  1.00  0.00     0.116 C 
BRANCH   2   3
ATOM      3  N   UNL A   1      32.101  29.273  26.267  1.00  0.00    -0.354 N 
ATOM      4  C   UNL A   1      31.521  28.995  25.062  1.00  0.00     0.254 C 
ATOM      5  O   UNL A   1      30.858  29.921  24.588  1.00  0.00    -0.272 OA
ATOM      6  H   UNL A   1      32.015  30.220  26.524  1.00  0.00     0.163 HD
BRANCH   4   7
ATOM      7  C   UNL A   1      31.755  27.667  24.295  1.00  0.00     0.212 C 
ATOM      8  C   UNL A   1      30.803  27.516  23.095  1.00  0.00     0.056 C 
BRANCH   7   9
ATOM      9  N   UNL A   1      31.458  26.629  25.355  1.00  0.00    -0.330 N 
ATOM     10  C   UNL A   1      31.368  25.304  25.661  1.00  0.00     0.257 C 
ATOM     11  O   UNL A   1      30.744  25.129  26.713  1.00  0.00    -0.269 OA
ATOM     12  H   UNL A   1      31.229  27.124  26.175  1.00  0.00     0.165 HD
BRANCH  10  13
ATOM     13  C   UNL A   1      31.934  24.122  24.956  1.00  0.00     0.101 A 
ATOM     14  C   UNL A   1      33.094  23.490  25.437  1.00  0.00     0.226 A 
ATOM     15  N   UNL A   1      33.730  22.452  24.824  1.00  0.00    -0.221 NA
ATOM     16  C   UNL A   1      33.218  22.016  23.663  1.00  0.00     0.115 A 
ATOM     17  C   UNL A   1      31.475  23.643  23.734  1.00  0.00     0.021 A 
ATOM     18  C   UNL A   1      32.099  22.573  23.084  1.00  0.00     0.021 A 
BRANCH  14  19
ATOM     19  O   UNL A   1      33.786  23.964  26.520  1.00  0.00    -0.480 OA
ATOM     20  C   UNL A   1      34.400  22.888  27.212  1.00  0.00     0.280 C 
ENDBRANCH  14  19
ENDBRANCH  10  13
ENDBRANCH   7   9
BRANCH   7  21
ATOM     21  C   UNL A   1      33.168  27.802  23.700  1.00  0.00     0.420 C 
ATOM     22  F   UNL A   1      34.010  26.809  24.055  1.00  0.00    -0.168 F 
ATOM     23  F   UNL A   1      33.106  27.811  22.339  1.00  0.00    -0.168 F 
ATOM     24  F   UNL A   1      33.755  28.978  24.034  1.00  0.00    -0.168 F 
ENDBRANCH   7  21
ENDBRANCH   4   7
ENDBRANCH   2   3
ENDBRANCH   1   2
BRANCH   1  25
ATOM     25  C   UNL A   1      34.468  30.483  27.238  1.00  0.00     0.023 C 
BRANCH  25  26
ATOM     26  C   UNL A   1      35.545  31.160  28.080  1.00  0.00     0.116 C 
BRANCH  26  27
ATOM     27  N   UNL A   1      35.386  30.924  29.505  1.00  0.00    -0.352 N 
ATOM     28  C   UNL A   1      36.302  30.441  30.412  1.00  0.00     0.251 C 
ATOM     29  H   UNL A   1      34.499  31.139  29.873  1.00  0.00     0.163 HD
ATOM     30  O   UNL A   1      35.956  30.193  31.559  1.00  0.00    -0.269 OA
BRANCH  28  31
ATOM     31  C   UNL A   1      37.696  30.192  29.979  1.00  0.00     0.039 A 
ATOM     32  C   UNL A   1      38.710  30.188  30.940  1.00  0.00     0.014 A 
ATOM     33  C   UNL A   1      37.995  29.939  28.638  1.00  0.00     0.014 A 
ATOM     34  C   UNL A   1      40.015  29.860  30.566  1.00  0.00     0.010 A 
ATOM     35  C   UNL A   1      39.280  29.540  28.281  1.00  0.00     0.010 A 
ATOM     36  C   UNL A   1      40.304  29.497  29.241  1.00  0.00    -0.014 A 
BRANCH  36  37
ATOM     37  C   UNL A   1      41.668  29.072  28.834  1.00  0.00     0.031 A 
ATOM     38  C   UNL A   1      42.788  30.076  28.788  1.00  0.00     0.074 A 
ATOM     39  C   UNL A   1      41.885  27.800  28.440  1.00  0.00     0.049 A 
ATOM     40  N   UNL A   1      44.025  29.915  28.395  1.00  0.00    -0.248 NA
ATOM     41  C   UNL A   1      42.467  31.446  29.217  1.00  0.00     0.031 C 
ATOM     42  C   UNL A   1      40.875  26.740  28.402  1.00  0.00     0.029 A 
ATOM     43  N   UNL A   1      43.027  27.186  27.988  1.00  0.00    -0.354 N 
ATOM     44  C   UNL A   1      44.623  31.165  28.507  1.00  0.00     0.074 A 
ATOM     45  C   UNL A   1      43.600  32.083  28.958  1.00  0.00     0.031 C 
ATOM     46  C   UNL A   1      41.448  25.602  27.977  1.00  0.00     0.029 A 
ATOM     47  C   UNL A   1      42.852  25.859  27.673  1.00  0.00     0.049 A 
ATOM     48  H   UNL A   1      43.888  27.653  27.897  1.00  0.00     0.167 HD
ATOM     49  C   UNL A   1      45.912  31.515  28.276  1.00  0.00     0.031 A 
ATOM     50  C   UNL A   1      43.723  24.951  27.191  1.00  0.00     0.031 A 
ATOM     51  C   UNL A   1      46.929  30.597  27.838  1.00  0.00     0.049 A 
ATOM     52  C   UNL A   1      45.147  25.362  26.935  1.00  0.00     0.074 A 
ATOM     53  C   UNL A   1      48.275  30.841  27.626  1.00  0.00     0.029 A 
ATOM     54  N   UNL A   1      46.714  29.259  27.542  1.00  0.00    -0.354 N 
ATOM     55  N   UNL A   1      45.708  26.536  27.105  1.00  0.00    -0.248 NA
ATOM     56  C   UNL A   1      46.058  24.325  26.432  1.00  0.00     0.031 C 
ATOM     57  C   UNL A   1      48.863  29.662  27.157  1.00  0.00     0.029 A 
ATOM     58  C   UNL A   1      47.898  28.669  27.131  1.00  0.00     0.049 A 
ATOM     59  H   UNL A   1      45.848  28.797  27.615  1.00  0.00     0.167 HD
ATOM     60  C   UNL A   1      47.044  26.371  26.757  1.00  0.00     0.074 A 
ATOM     61  C   UNL A   1      47.209  24.982  26.379  1.00  0.00     0.031 C 
ATOM     62  C   UNL A   1      48.045  27.285  26.757  1.00  0.00     0.031 A 
BRANCH  49  63
ATOM     63  C   UNL A   1      46.283  32.960  28.486  1.00  0.00    -0.014 A 
ATOM     64  C   UNL A   1      46.819  33.402  29.710  1.00  0.00     0.010 A 
ATOM     65  C   UNL A   1      46.108  33.886  27.442  1.00  0.00     0.010 A 
ATOM     66  C   UNL A   1      47.121  34.752  29.904  1.00  0.00     0.020 A 
ATOM     67  C   UNL A   1      46.437  35.233  27.623  1.00  0.00     0.020 A 
ATOM     68  C   UNL A   1      46.921  35.661  28.861  1.00  0.00     0.054 A 
BRANCH  68  69
ATOM     69  S   UNL A   1      47.320  37.407  29.142  1.00  0.00     0.124 S 
ATOM     70  O   UNL A   1      48.058  37.745  27.927  1.00  0.00    -0.237 OA
ATOM     71  O   UNL A   1      46.002  38.023  29.266  1.00  0.00    -0.237 OA
ATOM     72  O   UNL A   1      48.114  37.389  30.367  1.00  0.00    -0.744 OA
ENDBRANCH  68  69
ENDBRANCH  49  63
BRANCH  50  73
ATOM     73  C   UNL A   1      43.274  23.553  26.944  1.00  0.00    -0.014 A 
ATOM     74  C   UNL A   1      43.098  23.084  25.631  1.00  0.00     0.010 A 
ATOM     75  C   UNL A   1      43.047  22.675  28.021  1.00  0.00     0.010 A 
ATOM     76  C   UNL A   1      42.690  21.768  25.397  1.00  0.00     0.020 A 
ATOM     77  C   UNL A   1      42.665  21.350  27.790  1.00  0.00     0.020 A 
ATOM     78  C   UNL A   1      42.481  20.907  26.478  1.00  0.00     0.054 A 
BRANCH  78  79
ATOM     79  S   UNL A   1      42.015  19.185  26.148  1.00  0.00     0.124 S 
ATOM     80  O   UNL A   1      40.585  19.303  25.880  1.00  0.00    -0.237 OA
ATOM     81  O   UNL A   1      42.849  18.849  24.996  1.00  0.00    -0.237 OA
ATOM     82  O   UNL A   1      42.367  18.492  27.385  1.00  0.00    -0.744 OA
ENDBRANCH  78  79
ENDBRANCH  50  73
BRANCH  62  83
ATOM     83  C   UNL A   1      49.420  26.810  26.368  1.00  0.00    -0.014 A 
ATOM     84  C   UNL A   1      50.219  26.074  27.260  1.00  0.00     0.010 A 
ATOM     85  C   UNL A   1      49.892  27.054  25.065  1.00  0.00     0.010 A 
ATOM     86  C   UNL A   1      51.477  25.614  26.865  1.00  0.00     0.020 A 
ATOM     87  C   UNL A   1      51.138  26.573  24.658  1.00  0.00     0.020 A 
ATOM     88  C   UNL A   1      51.929  25.866  25.565  1.00  0.00     0.054 A 
BRANCH  88  89
ATOM     89  S   UNL A   1      53.545  25.215  25.060  1.00  0.00     0.124 S 
ATOM     90  O   UNL A   1      53.577  25.549  23.639  1.00  0.00    -0.237 OA
ATOM     91  O   UNL A   1      54.472  25.966  25.903  1.00  0.00    -0.237 OA
ATOM     92  O   UNL A   1      53.454  23.788  25.363  1.00  0.00    -0.744 OA
ENDBRANCH  88  89
ENDBRANCH  62  83
ENDBRANCH  36  37
ENDBRANCH  28  31
ENDBRANCH  26  27
ENDBRANCH  25  26
ENDBRANCH   1  25
TORSDOF 18
ENDMDL
