MODEL 1
REMARK VINA RESULT:     -10.9      0.000      0.000
REMARK SMILES COc1ccc(C(=O)C[C@H](C)CC(=O)NCCCCNC(=O)c2ccc(-c3c4nc(c(-c5ccc(S(=O)(=O)[O-])cc5)c5ccc([nH]5)c(-c5ccc(S(=O)(=O)[O-])cc5)c5nc(c(-c6ccc(S(=O)(=O)[O-])cc6)c6ccc3[nH]6)C=C5)C=C4)cc2)c(OC)c1
REMARK SMILES IDX 16 1 15 2 13 3 14 4 12 6 10 7 11 8 9 9 7 10 8 11 6 12 3 13
REMARK SMILES IDX 4 14 86 15 5 16 83 17 2 18 1 19 84 20 85 21 17 22 18 23
REMARK SMILES IDX 19 24 20 25 21 26 22 28 23 29 24 30 82 31 25 32 81 33 26 34
REMARK SMILES IDX 27 35 28 36 75 37 29 38 80 39 74 40 76 41 30 42 79 43 73 44
REMARK SMILES IDX 72 45 31 47 61 48 42 49 60 50 43 51 46 52 59 53 77 54 44 55
REMARK SMILES IDX 45 56 58 58 78 59 47 60 32 61 33 62 41 63 34 64 40 65 35 66
REMARK SMILES IDX 36 67 37 68 38 69 39 70 62 71 63 72 71 73 64 74 70 75 65 76
REMARK SMILES IDX 66 77 67 78 68 79 69 80 48 81 49 82 57 83 50 84 56 85 51 86
REMARK SMILES IDX 52 87 53 88 54 89 55 90
REMARK H PARENT 15 5 20 27 76 46 46 57
REMARK Flexibility Score: inf
ROOT
ATOM      1  C   UNL A   1      37.243  22.630  26.024  1.00  0.00     0.116 C 
ENDROOT
BRANCH   1   2
ATOM      2  N   UNL A   1      36.650  23.262  24.858  1.00  0.00    -0.356 N 
ATOM      3  C   UNL A   1      35.491  22.945  24.207  1.00  0.00     0.220 C 
ATOM      4  O   UNL A   1      35.187  23.557  23.185  1.00  0.00    -0.275 OA
ATOM      5  H   UNL A   1      37.153  24.024  24.488  1.00  0.00     0.163 HD
BRANCH   3   6
ATOM      6  C   UNL A   1      34.604  21.851  24.769  1.00  0.00     0.103 C 
BRANCH   6   7
ATOM      7  C   UNL A   1      33.672  22.273  25.919  1.00  0.00     0.003 C 
ATOM      8  C   UNL A   1      34.034  21.669  27.280  1.00  0.00     0.008 C 
BRANCH   7   9
ATOM      9  C   UNL A   1      33.524  23.801  26.116  1.00  0.00     0.085 C 
BRANCH   9  10
ATOM     10  C   UNL A   1      32.122  24.362  26.273  1.00  0.00     0.166 C 
ATOM     11  O   UNL A   1      31.427  23.993  27.225  1.00  0.00    -0.294 OA
BRANCH  10  12
ATOM     12  C   UNL A   1      31.526  25.321  25.276  1.00  0.00     0.060 A 
ATOM     13  C   UNL A   1      30.698  26.994  23.184  1.00  0.00     0.122 A 
ATOM     14  C   UNL A   1      31.109  25.699  22.902  1.00  0.00     0.047 A 
ATOM     15  C   UNL A   1      30.624  27.440  24.504  1.00  0.00     0.093 A 
ATOM     16  C   UNL A   1      31.528  24.871  23.941  1.00  0.00     0.019 A 
ATOM     17  C   UNL A   1      31.035  26.613  25.563  1.00  0.00     0.133 A 
BRANCH  13  18
ATOM     18  O   UNL A   1      30.314  27.775  22.129  1.00  0.00    -0.497 OA
ATOM     19  C   UNL A   1      30.320  29.164  22.465  1.00  0.00     0.278 C 
ENDBRANCH  13  18
BRANCH  17  20
ATOM     20  O   UNL A   1      31.002  27.019  26.869  1.00  0.00    -0.496 OA
ATOM     21  C   UNL A   1      31.672  28.223  27.230  1.00  0.00     0.278 C 
ENDBRANCH  17  20
ENDBRANCH  10  12
ENDBRANCH   9  10
ENDBRANCH   7   9
ENDBRANCH   6   7
ENDBRANCH   3   6
ENDBRANCH   1   2
BRANCH   1  22
ATOM     22  C   UNL A   1      38.502  21.844  25.665  1.00  0.00     0.023 C 
BRANCH  22  23
ATOM     23  C   UNL A   1      39.640  21.991  26.666  1.00  0.00     0.023 C 
BRANCH  23  24
ATOM     24  C   UNL A   1      39.943  23.427  27.073  1.00  0.00     0.116 C 
BRANCH  24  25
ATOM     25  N   UNL A   1      40.577  24.204  26.014  1.00  0.00    -0.352 N 
ATOM     26  C   UNL A   1      41.034  25.500  26.059  1.00  0.00     0.251 C 
ATOM     27  H   UNL A   1      40.692  23.739  25.154  1.00  0.00     0.163 HD
ATOM     28  O   UNL A   1      41.446  26.048  25.041  1.00  0.00    -0.269 OA
BRANCH  26  29
ATOM     29  C   UNL A   1      40.985  26.230  27.341  1.00  0.00     0.039 A 
ATOM     30  C   UNL A   1      42.143  26.847  27.820  1.00  0.00     0.014 A 
ATOM     31  C   UNL A   1      39.772  26.377  28.018  1.00  0.00     0.014 A 
ATOM     32  C   UNL A   1      42.064  27.684  28.934  1.00  0.00     0.010 A 
ATOM     33  C   UNL A   1      39.679  27.278  29.069  1.00  0.00     0.010 A 
ATOM     34  C   UNL A   1      40.823  27.944  29.538  1.00  0.00    -0.014 A 
BRANCH  34  35
ATOM     35  C   UNL A   1      40.688  28.907  30.661  1.00  0.00     0.031 A 
ATOM     36  C   UNL A   1      41.563  28.764  31.877  1.00  0.00     0.074 A 
ATOM     37  C   UNL A   1      39.726  29.850  30.625  1.00  0.00     0.049 A 
ATOM     38  N   UNL A   1      41.531  29.434  32.999  1.00  0.00    -0.248 NA
ATOM     39  C   UNL A   1      42.584  27.704  31.839  1.00  0.00     0.031 C 
ATOM     40  C   UNL A   1      38.775  30.057  29.528  1.00  0.00     0.029 A 
ATOM     41  N   UNL A   1      39.378  30.806  31.547  1.00  0.00    -0.354 N 
ATOM     42  C   UNL A   1      42.501  28.859  33.810  1.00  0.00     0.074 A 
ATOM     43  C   UNL A   1      43.070  27.754  33.070  1.00  0.00     0.031 C 
ATOM     44  C   UNL A   1      37.976  31.095  29.828  1.00  0.00     0.029 A 
ATOM     45  C   UNL A   1      38.328  31.601  31.150  1.00  0.00     0.049 A 
ATOM     46  H   UNL A   1      39.839  30.914  32.410  1.00  0.00     0.167 HD
ATOM     47  C   UNL A   1      42.901  29.229  35.049  1.00  0.00     0.031 A 
ATOM     48  C   UNL A   1      37.716  32.622  31.781  1.00  0.00     0.031 A 
ATOM     49  C   UNL A   1      42.359  30.348  35.769  1.00  0.00     0.049 A 
ATOM     50  C   UNL A   1      38.197  33.035  33.144  1.00  0.00     0.074 A 
ATOM     51  C   UNL A   1      42.741  30.845  37.002  1.00  0.00     0.029 A 
ATOM     52  N   UNL A   1      41.323  31.151  35.315  1.00  0.00    -0.354 N 
ATOM     53  N   UNL A   1      39.158  32.513  33.871  1.00  0.00    -0.248 NA
ATOM     54  C   UNL A   1      37.521  34.181  33.768  1.00  0.00     0.031 C 
ATOM     55  C   UNL A   1      41.912  31.930  37.310  1.00  0.00     0.029 A 
ATOM     56  C   UNL A   1      41.045  32.134  36.248  1.00  0.00     0.049 A 
ATOM     57  H   UNL A   1      40.855  31.038  34.456  1.00  0.00     0.167 HD
ATOM     58  C   UNL A   1      39.217  33.284  35.027  1.00  0.00     0.074 A 
ATOM     59  C   UNL A   1      38.205  34.313  34.898  1.00  0.00     0.031 C 
ATOM     60  C   UNL A   1      40.036  33.151  36.099  1.00  0.00     0.031 A 
BRANCH  47  61
ATOM     61  C   UNL A   1      43.986  28.410  35.697  1.00  0.00    -0.014 A 
ATOM     62  C   UNL A   1      45.343  28.729  35.510  1.00  0.00     0.010 A 
ATOM     63  C   UNL A   1      43.644  27.318  36.514  1.00  0.00     0.010 A 
ATOM     64  C   UNL A   1      46.340  27.938  36.085  1.00  0.00     0.020 A 
ATOM     65  C   UNL A   1      44.640  26.541  37.115  1.00  0.00     0.020 A 
ATOM     66  C   UNL A   1      45.982  26.845  36.878  1.00  0.00     0.054 A 
BRANCH  66  67
ATOM     67  S   UNL A   1      47.297  25.838  37.617  1.00  0.00     0.124 S 
ATOM     68  O   UNL A   1      48.132  25.537  36.456  1.00  0.00    -0.237 OA
ATOM     69  O   UNL A   1      47.888  26.747  38.596  1.00  0.00    -0.237 OA
ATOM     70  O   UNL A   1      46.582  24.697  38.183  1.00  0.00    -0.744 OA
ENDBRANCH  66  67
ENDBRANCH  47  61
BRANCH  48  71
ATOM     71  C   UNL A   1      36.599  33.346  31.116  1.00  0.00    -0.014 A 
ATOM     72  C   UNL A   1      36.793  33.946  29.859  1.00  0.00     0.010 A 
ATOM     73  C   UNL A   1      35.333  33.424  31.725  1.00  0.00     0.010 A 
ATOM     74  C   UNL A   1      35.746  34.626  29.230  1.00  0.00     0.020 A 
ATOM     75  C   UNL A   1      34.278  34.084  31.088  1.00  0.00     0.020 A 
ATOM     76  C   UNL A   1      34.494  34.690  29.848  1.00  0.00     0.054 A 
BRANCH  76  77
ATOM     77  S   UNL A   1      33.134  35.528  28.988  1.00  0.00     0.124 S 
ATOM     78  O   UNL A   1      32.337  36.032  30.101  1.00  0.00    -0.237 OA
ATOM     79  O   UNL A   1      33.833  36.540  28.200  1.00  0.00    -0.237 OA
ATOM     80  O   UNL A   1      32.516  34.459  28.206  1.00  0.00    -0.744 OA
ENDBRANCH  76  77
ENDBRANCH  48  71
BRANCH  60  81
ATOM     81  C   UNL A   1      39.897  34.162  37.204  1.00  0.00    -0.014 A 
ATOM     82  C   UNL A   1      40.524  35.418  37.121  1.00  0.00     0.010 A 
ATOM     83  C   UNL A   1      39.079  33.871  38.310  1.00  0.00     0.010 A 
ATOM     84  C   UNL A   1      40.355  36.356  38.142  1.00  0.00     0.020 A 
ATOM     85  C   UNL A   1      38.889  34.816  39.320  1.00  0.00     0.020 A 
ATOM     86  C   UNL A   1      39.538  36.049  39.236  1.00  0.00     0.054 A 
BRANCH  86  87
ATOM     87  S   UNL A   1      39.293  37.302  40.524  1.00  0.00     0.124 S 
ATOM     88  O   UNL A   1      40.604  37.941  40.579  1.00  0.00    -0.237 OA
ATOM     89  O   UNL A   1      38.215  38.122  39.976  1.00  0.00    -0.237 OA
ATOM     90  O   UNL A   1      38.931  36.517  41.704  1.00  0.00    -0.744 OA
ENDBRANCH  86  87
ENDBRANCH  60  81
ENDBRANCH  34  35
ENDBRANCH  26  29
ENDBRANCH  24  25
ENDBRANCH  23  24
ENDBRANCH  22  23
ENDBRANCH   1  22
TORSDOF 20
ENDMDL
MODEL 2
REMARK VINA RESULT:     -10.7      4.802      6.094
REMARK SMILES COc1ccc(C(=O)C[C@H](C)CC(=O)NCCCCNC(=O)c2ccc(-c3c4nc(c(-c5ccc(S(=O)(=O)[O-])cc5)c5ccc([nH]5)c(-c5ccc(S(=O)(=O)[O-])cc5)c5nc(c(-c6ccc(S(=O)(=O)[O-])cc6)c6ccc3[nH]6)C=C5)C=C4)cc2)c(OC)c1
REMARK SMILES IDX 16 1 15 2 13 3 14 4 12 6 10 7 11 8 9 9 7 10 8 11 6 12 3 13
REMARK SMILES IDX 4 14 86 15 5 16 83 17 2 18 1 19 84 20 85 21 17 22 18 23
REMARK SMILES IDX 19 24 20 25 21 26 22 28 23 29 24 30 82 31 25 32 81 33 26 34
REMARK SMILES IDX 27 35 28 36 75 37 29 38 80 39 74 40 76 41 30 42 79 43 73 44
REMARK SMILES IDX 72 45 31 47 61 48 42 49 60 50 43 51 46 52 59 53 77 54 44 55
REMARK SMILES IDX 45 56 58 58 78 59 47 60 32 61 33 62 41 63 34 64 40 65 35 66
REMARK SMILES IDX 36 67 37 68 38 69 39 70 62 71 63 72 71 73 64 74 70 75 65 76
REMARK SMILES IDX 66 77 67 78 68 79 69 80 48 81 49 82 57 83 50 84 56 85 51 86
REMARK SMILES IDX 52 87 53 88 54 89 55 90
REMARK H PARENT 15 5 20 27 76 46 46 57
REMARK Flexibility Score: inf
ROOT
ATOM      1  C   UNL A   1      34.111  25.399  24.175  1.00  0.00     0.116 C 
ENDROOT
BRANCH   1   2
ATOM      2  N   UNL A   1      34.099  24.877  22.820  1.00  0.00    -0.356 N 
ATOM      3  C   UNL A   1      33.032  24.662  21.993  1.00  0.00     0.220 C 
ATOM      4  O   UNL A   1      33.216  24.142  20.894  1.00  0.00    -0.275 OA
ATOM      5  H   UNL A   1      34.981  24.648  22.446  1.00  0.00     0.163 HD
BRANCH   3   6
ATOM      6  C   UNL A   1      31.648  25.081  22.449  1.00  0.00     0.103 C 
BRANCH   6   7
ATOM      7  C   UNL A   1      30.896  24.060  23.322  1.00  0.00     0.003 C 
ATOM      8  C   UNL A   1      31.571  22.688  23.411  1.00  0.00     0.008 C 
BRANCH   7   9
ATOM      9  C   UNL A   1      30.601  24.526  24.767  1.00  0.00     0.085 C 
BRANCH   9  10
ATOM     10  C   UNL A   1      30.003  25.909  24.957  1.00  0.00     0.166 C 
ATOM     11  O   UNL A   1      28.789  26.069  24.800  1.00  0.00    -0.294 OA
BRANCH  10  12
ATOM     12  C   UNL A   1      30.851  27.110  25.284  1.00  0.00     0.060 A 
ATOM     13  C   UNL A   1      32.304  29.304  26.252  1.00  0.00     0.122 A 
ATOM     14  C   UNL A   1      32.239  28.142  27.006  1.00  0.00     0.047 A 
ATOM     15  C   UNL A   1      31.716  29.360  24.988  1.00  0.00     0.093 A 
ATOM     16  C   UNL A   1      31.510  27.055  26.528  1.00  0.00     0.019 A 
ATOM     17  C   UNL A   1      30.986  28.269  24.488  1.00  0.00     0.133 A 
BRANCH  13  18
ATOM     18  O   UNL A   1      33.015  30.351  26.772  1.00  0.00    -0.497 OA
ATOM     19  C   UNL A   1      34.229  29.914  27.389  1.00  0.00     0.278 C 
ENDBRANCH  13  18
BRANCH  17  20
ATOM     20  O   UNL A   1      30.373  28.291  23.266  1.00  0.00    -0.496 OA
ATOM     21  C   UNL A   1      30.723  29.317  22.342  1.00  0.00     0.278 C 
ENDBRANCH  17  20
ENDBRANCH  10  12
ENDBRANCH   9  10
ENDBRANCH   7   9
ENDBRANCH   6   7
ENDBRANCH   3   6
ENDBRANCH   1   2
BRANCH   1  22
ATOM     22  C   UNL A   1      34.307  24.292  25.208  1.00  0.00     0.023 C 
BRANCH  22  23
ATOM     23  C   UNL A   1      35.590  23.490  25.032  1.00  0.00     0.023 C 
BRANCH  23  24
ATOM     24  C   UNL A   1      36.357  23.231  26.321  1.00  0.00     0.116 C 
BRANCH  24  25
ATOM     25  N   UNL A   1      37.508  22.355  26.140  1.00  0.00    -0.352 N 
ATOM     26  C   UNL A   1      38.844  22.657  26.270  1.00  0.00     0.251 C 
ATOM     27  H   UNL A   1      37.303  21.424  25.891  1.00  0.00     0.163 HD
ATOM     28  O   UNL A   1      39.699  21.828  25.973  1.00  0.00    -0.269 OA
BRANCH  26  29
ATOM     29  C   UNL A   1      39.229  24.004  26.735  1.00  0.00     0.039 A 
ATOM     30  C   UNL A   1      39.120  24.314  28.092  1.00  0.00     0.014 A 
ATOM     31  C   UNL A   1      39.780  24.924  25.838  1.00  0.00     0.014 A 
ATOM     32  C   UNL A   1      39.647  25.518  28.564  1.00  0.00     0.010 A 
ATOM     33  C   UNL A   1      40.380  26.077  26.325  1.00  0.00     0.010 A 
ATOM     34  C   UNL A   1      40.323  26.386  27.693  1.00  0.00    -0.014 A 
BRANCH  34  35
ATOM     35  C   UNL A   1      40.982  27.625  28.180  1.00  0.00     0.031 A 
ATOM     36  C   UNL A   1      42.483  27.721  28.184  1.00  0.00     0.074 A 
ATOM     37  C   UNL A   1      40.238  28.623  28.698  1.00  0.00     0.049 A 
ATOM     38  N   UNL A   1      43.248  28.667  28.661  1.00  0.00    -0.248 NA
ATOM     39  C   UNL A   1      43.222  26.585  27.608  1.00  0.00     0.031 C 
ATOM     40  C   UNL A   1      38.776  28.629  28.804  1.00  0.00     0.029 A 
ATOM     41  N   UNL A   1      40.613  29.824  29.247  1.00  0.00    -0.354 N 
ATOM     42  C   UNL A   1      44.553  28.229  28.472  1.00  0.00     0.074 A 
ATOM     43  C   UNL A   1      44.476  26.911  27.883  1.00  0.00     0.031 C 
ATOM     44  C   UNL A   1      38.379  29.790  29.353  1.00  0.00     0.029 A 
ATOM     45  C   UNL A   1      39.555  30.592  29.673  1.00  0.00     0.049 A 
ATOM     46  H   UNL A   1      41.552  30.109  29.326  1.00  0.00     0.167 HD
ATOM     47  C   UNL A   1      45.713  28.873  28.742  1.00  0.00     0.031 A 
ATOM     48  C   UNL A   1      39.534  31.805  30.258  1.00  0.00     0.031 A 
ATOM     49  C   UNL A   1      45.788  30.198  29.295  1.00  0.00     0.049 A 
ATOM     50  C   UNL A   1      40.833  32.515  30.520  1.00  0.00     0.074 A 
ATOM     51  C   UNL A   1      46.912  30.963  29.545  1.00  0.00     0.029 A 
ATOM     52  N   UNL A   1      44.692  30.956  29.676  1.00  0.00    -0.354 N 
ATOM     53  N   UNL A   1      42.057  32.107  30.279  1.00  0.00    -0.248 NA
ATOM     54  C   UNL A   1      40.749  33.854  31.121  1.00  0.00     0.031 C 
ATOM     55  C   UNL A   1      46.498  32.175  30.110  1.00  0.00     0.029 A 
ATOM     56  C   UNL A   1      45.113  32.179  30.170  1.00  0.00     0.049 A 
ATOM     57  H   UNL A   1      43.753  30.668  29.607  1.00  0.00     0.167 HD
ATOM     58  C   UNL A   1      42.887  33.149  30.678  1.00  0.00     0.074 A 
ATOM     59  C   UNL A   1      42.027  34.209  31.163  1.00  0.00     0.031 C 
ATOM     60  C   UNL A   1      44.241  33.222  30.644  1.00  0.00     0.031 A 
BRANCH  47  61
ATOM     61  C   UNL A   1      46.994  28.146  28.432  1.00  0.00    -0.014 A 
ATOM     62  C   UNL A   1      47.638  28.310  27.192  1.00  0.00     0.010 A 
ATOM     63  C   UNL A   1      47.569  27.300  29.397  1.00  0.00     0.010 A 
ATOM     64  C   UNL A   1      48.805  27.599  26.902  1.00  0.00     0.020 A 
ATOM     65  C   UNL A   1      48.754  26.610  29.120  1.00  0.00     0.020 A 
ATOM     66  C   UNL A   1      49.351  26.748  27.866  1.00  0.00     0.054 A 
BRANCH  66  67
ATOM     67  S   UNL A   1      50.871  25.842  27.467  1.00  0.00     0.124 S 
ATOM     68  O   UNL A   1      51.230  26.417  26.172  1.00  0.00    -0.237 OA
ATOM     69  O   UNL A   1      51.756  26.191  28.574  1.00  0.00    -0.237 OA
ATOM     70  O   UNL A   1      50.442  24.447  27.431  1.00  0.00    -0.744 OA
ENDBRANCH  66  67
ENDBRANCH  47  61
BRANCH  48  71
ATOM     71  C   UNL A   1      38.234  32.441  30.607  1.00  0.00    -0.014 A 
ATOM     72  C   UNL A   1      37.698  32.294  31.899  1.00  0.00     0.010 A 
ATOM     73  C   UNL A   1      37.536  33.209  29.659  1.00  0.00     0.010 A 
ATOM     74  C   UNL A   1      36.479  32.890  32.232  1.00  0.00     0.020 A 
ATOM     75  C   UNL A   1      36.326  33.826  29.996  1.00  0.00     0.020 A 
ATOM     76  C   UNL A   1      35.800  33.654  31.278  1.00  0.00     0.054 A 
BRANCH  76  77
ATOM     77  S   UNL A   1      34.248  34.465  31.749  1.00  0.00     0.124 S 
ATOM     78  O   UNL A   1      33.576  34.604  30.461  1.00  0.00    -0.237 OA
ATOM     79  O   UNL A   1      33.653  33.503  32.673  1.00  0.00    -0.237 OA
ATOM     80  O   UNL A   1      34.690  35.715  32.364  1.00  0.00    -0.744 OA
ENDBRANCH  76  77
ENDBRANCH  48  71
BRANCH  60  81
ATOM     81  C   UNL A   1      44.875  34.501  31.113  1.00  0.00    -0.014 A 
ATOM     82  C   UNL A   1      45.091  35.572  30.227  1.00  0.00     0.010 A 
ATOM     83  C   UNL A   1      45.205  34.654  32.472  1.00  0.00     0.010 A 
ATOM     84  C   UNL A   1      45.651  36.765  30.690  1.00  0.00     0.020 A 
ATOM     85  C   UNL A   1      45.742  35.854  32.942  1.00  0.00     0.020 A 
ATOM     86  C   UNL A   1      45.973  36.898  32.045  1.00  0.00     0.054 A 
BRANCH  86  87
ATOM     87  S   UNL A   1      46.652  38.475  32.632  1.00  0.00     0.124 S 
ATOM     88  O   UNL A   1      45.638  39.426  32.188  1.00  0.00    -0.237 OA
ATOM     89  O   UNL A   1      46.735  38.273  34.077  1.00  0.00    -0.237 OA
ATOM     90  O   UNL A   1      47.941  38.571  31.948  1.00  0.00    -0.744 OA
ENDBRANCH  86  87
ENDBRANCH  60  81
ENDBRANCH  34  35
ENDBRANCH  26  29
ENDBRANCH  24  25
ENDBRANCH  23  24
ENDBRANCH  22  23
ENDBRANCH   1  22
TORSDOF 20
ENDMDL
MODEL 3
REMARK VINA RESULT:     -10.7      0.861      8.241
REMARK SMILES COc1ccc(C(=O)C[C@H](C)CC(=O)NCCCCNC(=O)c2ccc(-c3c4nc(c(-c5ccc(S(=O)(=O)[O-])cc5)c5ccc([nH]5)c(-c5ccc(S(=O)(=O)[O-])cc5)c5nc(c(-c6ccc(S(=O)(=O)[O-])cc6)c6ccc3[nH]6)C=C5)C=C4)cc2)c(OC)c1
REMARK SMILES IDX 16 1 15 2 13 3 14 4 12 6 10 7 11 8 9 9 7 10 8 11 6 12 3 13
REMARK SMILES IDX 4 14 86 15 5 16 83 17 2 18 1 19 84 20 85 21 17 22 18 23
REMARK SMILES IDX 19 24 20 25 21 26 22 28 23 29 24 30 82 31 25 32 81 33 26 34
REMARK SMILES IDX 27 35 28 36 75 37 29 38 80 39 74 40 76 41 30 42 79 43 73 44
REMARK SMILES IDX 72 45 31 47 61 48 42 49 60 50 43 51 46 52 59 53 77 54 44 55
REMARK SMILES IDX 45 56 58 58 78 59 47 60 32 61 33 62 41 63 34 64 40 65 35 66
REMARK SMILES IDX 36 67 37 68 38 69 39 70 62 71 63 72 71 73 64 74 70 75 65 76
REMARK SMILES IDX 66 77 67 78 68 79 69 80 48 81 49 82 57 83 50 84 56 85 51 86
REMARK SMILES IDX 52 87 53 88 54 89 55 90
REMARK H PARENT 15 5 20 27 76 46 46 57
REMARK Flexibility Score: inf
ROOT
ATOM      1  C   UNL A   1      37.044  21.460  24.622  1.00  0.00     0.116 C 
ENDROOT
BRANCH   1   2
ATOM      2  N   UNL A   1      36.555  22.518  23.757  1.00  0.00    -0.356 N 
ATOM      3  C   UNL A   1      35.269  22.934  23.553  1.00  0.00     0.220 C 
ATOM      4  O   UNL A   1      35.042  23.808  22.719  1.00  0.00    -0.275 OA
ATOM      5  H   UNL A   1      37.245  23.003  23.248  1.00  0.00     0.163 HD
BRANCH   3   6
ATOM      6  C   UNL A   1      34.153  22.312  24.371  1.00  0.00     0.103 C 
BRANCH   6   7
ATOM      7  C   UNL A   1      32.951  23.227  24.664  1.00  0.00     0.003 C 
ATOM      8  C   UNL A   1      31.655  22.479  24.993  1.00  0.00     0.008 C 
BRANCH   7   9
ATOM      9  C   UNL A   1      33.179  24.271  25.781  1.00  0.00     0.085 C 
BRANCH   9  10
ATOM     10  C   UNL A   1      31.969  25.026  26.303  1.00  0.00     0.166 C 
ATOM     11  O   UNL A   1      31.301  24.536  27.219  1.00  0.00    -0.294 OA
BRANCH  10  12
ATOM     12  C   UNL A   1      31.523  26.335  25.707  1.00  0.00     0.060 A 
ATOM     13  C   UNL A   1      30.681  28.586  24.261  1.00  0.00     0.122 A 
ATOM     14  C   UNL A   1      30.117  27.348  23.989  1.00  0.00     0.047 A 
ATOM     15  C   UNL A   1      31.606  28.727  25.297  1.00  0.00     0.093 A 
ATOM     16  C   UNL A   1      30.541  26.229  24.702  1.00  0.00     0.019 A 
ATOM     17  C   UNL A   1      32.037  27.610  26.031  1.00  0.00     0.133 A 
BRANCH  13  18
ATOM     18  O   UNL A   1      30.246  29.651  23.523  1.00  0.00    -0.497 OA
ATOM     19  C   UNL A   1      29.931  29.274  22.180  1.00  0.00     0.278 C 
ENDBRANCH  13  18
BRANCH  17  20
ATOM     20  O   UNL A   1      32.959  27.700  27.037  1.00  0.00    -0.496 OA
ATOM     21  C   UNL A   1      34.178  28.394  26.789  1.00  0.00     0.278 C 
ENDBRANCH  17  20
ENDBRANCH  10  12
ENDBRANCH   9  10
ENDBRANCH   7   9
ENDBRANCH   6   7
ENDBRANCH   3   6
ENDBRANCH   1   2
BRANCH   1  22
ATOM     22  C   UNL A   1      37.985  21.996  25.698  1.00  0.00     0.023 C 
BRANCH  22  23
ATOM     23  C   UNL A   1      37.642  23.396  26.190  1.00  0.00     0.023 C 
BRANCH  23  24
ATOM     24  C   UNL A   1      38.791  24.127  26.872  1.00  0.00     0.116 C 
BRANCH  24  25
ATOM     25  N   UNL A   1      39.764  24.673  25.933  1.00  0.00    -0.352 N 
ATOM     26  C   UNL A   1      40.627  25.729  26.111  1.00  0.00     0.251 C 
ATOM     27  H   UNL A   1      39.808  24.228  25.056  1.00  0.00     0.163 HD
ATOM     28  O   UNL A   1      41.311  26.136  25.176  1.00  0.00    -0.269 OA
BRANCH  26  29
ATOM     29  C   UNL A   1      40.689  26.386  27.432  1.00  0.00     0.039 A 
ATOM     30  C   UNL A   1      41.758  27.238  27.720  1.00  0.00     0.014 A 
ATOM     31  C   UNL A   1      39.643  26.225  28.344  1.00  0.00     0.014 A 
ATOM     32  C   UNL A   1      41.731  27.997  28.892  1.00  0.00     0.010 A 
ATOM     33  C   UNL A   1      39.577  27.046  29.461  1.00  0.00     0.010 A 
ATOM     34  C   UNL A   1      40.619  27.942  29.747  1.00  0.00    -0.014 A 
BRANCH  34  35
ATOM     35  C   UNL A   1      40.514  28.811  30.947  1.00  0.00     0.031 A 
ATOM     36  C   UNL A   1      39.488  29.911  30.986  1.00  0.00     0.074 A 
ATOM     37  C   UNL A   1      41.393  28.668  31.959  1.00  0.00     0.049 A 
ATOM     38  N   UNL A   1      39.304  30.836  31.891  1.00  0.00    -0.248 NA
ATOM     39  C   UNL A   1      38.571  30.003  29.838  1.00  0.00     0.031 C 
ATOM     40  C   UNL A   1      42.471  27.677  32.019  1.00  0.00     0.029 A 
ATOM     41  N   UNL A   1      41.526  29.371  33.132  1.00  0.00    -0.354 N 
ATOM     42  C   UNL A   1      38.276  31.637  31.408  1.00  0.00     0.074 A 
ATOM     43  C   UNL A   1      37.910  31.119  30.109  1.00  0.00     0.031 C 
ATOM     44  C   UNL A   1      43.132  27.815  33.180  1.00  0.00     0.029 A 
ATOM     45  C   UNL A   1      42.555  28.925  33.928  1.00  0.00     0.049 A 
ATOM     46  H   UNL A   1      40.939  30.121  33.379  1.00  0.00     0.167 HD
ATOM     47  C   UNL A   1      37.674  32.695  32.001  1.00  0.00     0.031 A 
ATOM     48  C   UNL A   1      42.986  29.364  35.127  1.00  0.00     0.031 A 
ATOM     49  C   UNL A   1      38.016  33.187  33.308  1.00  0.00     0.049 A 
ATOM     50  C   UNL A   1      42.282  30.522  35.780  1.00  0.00     0.074 A 
ATOM     51  C   UNL A   1      37.422  34.211  34.024  1.00  0.00     0.029 A 
ATOM     52  N   UNL A   1      39.038  32.684  34.097  1.00  0.00    -0.354 N 
ATOM     53  N   UNL A   1      41.272  31.230  35.332  1.00  0.00    -0.248 NA
ATOM     54  C   UNL A   1      42.768  30.931  37.106  1.00  0.00     0.031 C 
ATOM     55  C   UNL A   1      38.108  34.349  35.236  1.00  0.00     0.029 A 
ATOM     56  C   UNL A   1      39.100  33.382  35.291  1.00  0.00     0.049 A 
ATOM     57  H   UNL A   1      39.632  31.940  33.847  1.00  0.00     0.167 HD
ATOM     58  C   UNL A   1      40.986  32.153  36.332  1.00  0.00     0.074 A 
ATOM     59  C   UNL A   1      41.920  31.905  37.412  1.00  0.00     0.031 C 
ATOM     60  C   UNL A   1      40.034  33.118  36.354  1.00  0.00     0.031 A 
BRANCH  47  61
ATOM     61  C   UNL A   1      36.577  33.383  31.234  1.00  0.00    -0.014 A 
ATOM     62  C   UNL A   1      35.298  33.553  31.795  1.00  0.00     0.010 A 
ATOM     63  C   UNL A   1      36.831  33.878  29.942  1.00  0.00     0.010 A 
ATOM     64  C   UNL A   1      34.278  34.159  31.058  1.00  0.00     0.020 A 
ATOM     65  C   UNL A   1      35.819  34.511  29.213  1.00  0.00     0.020 A 
ATOM     66  C   UNL A   1      34.544  34.627  29.768  1.00  0.00     0.054 A 
BRANCH  66  67
ATOM     67  S   UNL A   1      33.203  35.415  28.835  1.00  0.00     0.124 S 
ATOM     68  O   UNL A   1      33.932  36.395  28.033  1.00  0.00    -0.237 OA
ATOM     69  O   UNL A   1      32.630  34.298  28.088  1.00  0.00    -0.237 OA
ATOM     70  O   UNL A   1      32.342  35.974  29.872  1.00  0.00    -0.744 OA
ENDBRANCH  66  67
ENDBRANCH  47  61
BRANCH  48  71
ATOM     71  C   UNL A   1      44.126  28.686  35.802  1.00  0.00    -0.014 A 
ATOM     72  C   UNL A   1      45.442  29.130  35.588  1.00  0.00     0.010 A 
ATOM     73  C   UNL A   1      43.900  27.606  36.675  1.00  0.00     0.010 A 
ATOM     74  C   UNL A   1      46.515  28.497  36.222  1.00  0.00     0.020 A 
ATOM     75  C   UNL A   1      44.969  26.984  37.327  1.00  0.00     0.020 A 
ATOM     76  C   UNL A   1      46.272  27.428  37.088  1.00  0.00     0.054 A 
BRANCH  76  77
ATOM     77  S   UNL A   1      47.674  26.657  37.944  1.00  0.00     0.124 S 
ATOM     78  O   UNL A   1      47.962  27.630  38.992  1.00  0.00    -0.237 OA
ATOM     79  O   UNL A   1      47.111  25.387  38.396  1.00  0.00    -0.237 OA
ATOM     80  O   UNL A   1      48.688  26.542  36.898  1.00  0.00    -0.744 OA
ENDBRANCH  76  77
ENDBRANCH  48  71
BRANCH  60  81
ATOM     81  C   UNL A   1      39.932  33.958  37.597  1.00  0.00    -0.014 A 
ATOM     82  C   UNL A   1      40.704  35.123  37.751  1.00  0.00     0.010 A 
ATOM     83  C   UNL A   1      39.006  33.608  38.595  1.00  0.00     0.010 A 
ATOM     84  C   UNL A   1      40.569  35.909  38.898  1.00  0.00     0.020 A 
ATOM     85  C   UNL A   1      38.852  34.404  39.732  1.00  0.00     0.020 A 
ATOM     86  C   UNL A   1      39.644  35.544  39.882  1.00  0.00     0.054 A 
BRANCH  86  87
ATOM     87  S   UNL A   1      39.451  36.607  41.339  1.00  0.00     0.124 S 
ATOM     88  O   UNL A   1      38.580  35.801  42.189  1.00  0.00    -0.237 OA
ATOM     89  O   UNL A   1      40.825  36.760  41.812  1.00  0.00    -0.237 OA
ATOM     90  O   UNL A   1      38.846  37.824  40.800  1.00  0.00    -0.744 OA
ENDBRANCH  86  87
ENDBRANCH  60  81
ENDBRANCH  34  35
ENDBRANCH  26  29
ENDBRANCH  24  25
ENDBRANCH  23  24
ENDBRANCH  22  23
ENDBRANCH   1  22
TORSDOF 20
ENDMDL
