MODEL 1
REMARK VINA RESULT:     -11.5      0.000      0.000
REMARK SMILES O=C(NCCCCNC(=O)c1cn(-c2cc(Cl)ncn2)cn1)c1ccc(-c2c3nc(c(-c4ccc(S(=O)(=O)[O-])cc4)c4ccc([nH]4)c(-c4ccc(S(=O)(=O)[O-])cc4)c4nc(c(-c5ccc(S(=O)(=O)[O-])cc5)c5ccc2[nH]5)C=C4)C=C3)cc1
REMARK SMILES IDX 4 1 3 2 1 3 2 4 23 6 24 7 82 8 25 9 81 10 26 11 27 12 28 13
REMARK SMILES IDX 75 14 29 15 80 16 74 17 76 18 30 19 79 20 73 21 72 22 31 24
REMARK SMILES IDX 61 25 42 26 60 27 43 28 46 29 59 30 77 31 44 32 45 33 58 35
REMARK SMILES IDX 78 36 47 37 32 38 33 39 41 40 34 41 40 42 35 43 36 44 37 45
REMARK SMILES IDX 38 46 39 47 62 48 63 49 71 50 64 51 70 52 65 53 66 54 67 55
REMARK SMILES IDX 68 56 69 57 48 58 49 59 57 60 50 61 56 62 51 63 52 64 53 65
REMARK SMILES IDX 54 66 55 67 5 68 6 69 7 70 8 71 9 72 10 74 11 75 12 76 22 77
REMARK SMILES IDX 13 78 21 79 14 80 15 81 20 82 16 83 19 84 17 85 18 86
REMARK H PARENT 3 5 76 23 46 34 8 73
REMARK Flexibility Score: inf
ROOT
ATOM      1  C   UNL A   1      34.743  33.977  29.181  1.00  0.00     0.116 C 
ENDROOT
BRANCH   1   2
ATOM      2  N   UNL A   1      34.272  32.828  28.437  1.00  0.00    -0.352 N 
ATOM      3  O   UNL A   1      33.885  30.794  27.710  1.00  0.00    -0.269 OA
ATOM      4  C   UNL A   1      34.713  31.550  28.231  1.00  0.00     0.251 C 
ATOM      5  H   UNL A   1      33.429  33.010  27.964  1.00  0.00     0.163 HD
BRANCH   4   6
ATOM      6  C   UNL A   1      36.082  31.022  28.509  1.00  0.00     0.039 A 
ATOM      7  C   UNL A   1      37.174  31.746  28.988  1.00  0.00     0.014 A 
ATOM      8  C   UNL A   1      36.276  29.659  28.199  1.00  0.00     0.014 A 
ATOM      9  C   UNL A   1      38.434  31.139  29.080  1.00  0.00     0.010 A 
ATOM     10  C   UNL A   1      37.528  29.054  28.283  1.00  0.00     0.010 A 
ATOM     11  C   UNL A   1      38.623  29.806  28.686  1.00  0.00    -0.014 A 
BRANCH  11  12
ATOM     12  C   UNL A   1      39.938  29.180  28.868  1.00  0.00     0.031 A 
ATOM     13  C   UNL A   1      40.331  28.997  30.296  1.00  0.00     0.074 A 
ATOM     14  C   UNL A   1      40.705  28.661  27.880  1.00  0.00     0.049 A 
ATOM     15  N   UNL A   1      41.295  29.576  30.934  1.00  0.00    -0.248 NA
ATOM     16  C   UNL A   1      39.471  28.161  31.151  1.00  0.00     0.031 C 
ATOM     17  C   UNL A   1      40.375  28.484  26.464  1.00  0.00     0.029 A 
ATOM     18  N   UNL A   1      41.947  28.094  27.966  1.00  0.00    -0.354 N 
ATOM     19  C   UNL A   1      41.290  29.042  32.220  1.00  0.00     0.074 A 
ATOM     20  C   UNL A   1      40.069  28.284  32.337  1.00  0.00     0.031 C 
ATOM     21  C   UNL A   1      41.285  27.662  25.884  1.00  0.00     0.029 A 
ATOM     22  C   UNL A   1      42.344  27.376  26.837  1.00  0.00     0.049 A 
ATOM     23  H   UNL A   1      42.517  28.185  28.763  1.00  0.00     0.167 HD
ATOM     24  C   UNL A   1      42.382  29.100  33.033  1.00  0.00     0.031 A 
ATOM     25  C   UNL A   1      43.450  26.592  26.704  1.00  0.00     0.031 A 
ATOM     26  C   UNL A   1      43.346  30.059  32.566  1.00  0.00     0.049 A 
ATOM     27  C   UNL A   1      44.415  27.022  27.743  1.00  0.00     0.074 A 
ATOM     28  C   UNL A   1      43.335  31.423  32.358  1.00  0.00     0.029 A 
ATOM     29  N   UNL A   1      44.418  29.577  31.854  1.00  0.00    -0.354 N 
ATOM     30  N   UNL A   1      44.986  28.191  27.750  1.00  0.00    -0.248 NA
ATOM     31  C   UNL A   1      44.390  26.324  29.018  1.00  0.00     0.031 C 
ATOM     32  C   UNL A   1      44.065  31.611  31.149  1.00  0.00     0.029 A 
ATOM     33  C   UNL A   1      44.548  30.366  30.741  1.00  0.00     0.049 A 
ATOM     34  H   UNL A   1      44.986  28.810  32.097  1.00  0.00     0.167 HD
ATOM     35  C   UNL A   1      44.996  28.568  29.084  1.00  0.00     0.074 A 
ATOM     36  C   UNL A   1      44.683  27.347  29.826  1.00  0.00     0.031 C 
ATOM     37  C   UNL A   1      44.991  29.883  29.450  1.00  0.00     0.031 A 
BRANCH  24  38
ATOM     38  C   UNL A   1      42.738  28.037  34.042  1.00  0.00    -0.014 A 
ATOM     39  C   UNL A   1      42.718  28.355  35.416  1.00  0.00     0.010 A 
ATOM     40  C   UNL A   1      43.358  26.824  33.675  1.00  0.00     0.010 A 
ATOM     41  C   UNL A   1      43.335  27.527  36.364  1.00  0.00     0.020 A 
ATOM     42  C   UNL A   1      43.941  25.974  34.617  1.00  0.00     0.020 A 
ATOM     43  C   UNL A   1      43.952  26.345  35.955  1.00  0.00     0.054 A 
BRANCH  43  44
ATOM     44  S   UNL A   1      44.821  25.329  37.175  1.00  0.00     0.124 S 
ATOM     45  O   UNL A   1      44.132  25.686  38.412  1.00  0.00    -0.237 OA
ATOM     46  O   UNL A   1      44.577  23.977  36.681  1.00  0.00    -0.237 OA
ATOM     47  O   UNL A   1      46.207  25.783  37.074  1.00  0.00    -0.744 OA
ENDBRANCH  43  44
ENDBRANCH  24  38
BRANCH  25  48
ATOM     48  C   UNL A   1      43.605  25.293  25.988  1.00  0.00    -0.014 A 
ATOM     49  C   UNL A   1      44.766  24.992  25.244  1.00  0.00     0.010 A 
ATOM     50  C   UNL A   1      42.743  24.223  26.301  1.00  0.00     0.010 A 
ATOM     51  C   UNL A   1      45.082  23.666  24.883  1.00  0.00     0.020 A 
ATOM     52  C   UNL A   1      43.051  22.901  25.945  1.00  0.00     0.020 A 
ATOM     53  C   UNL A   1      44.230  22.624  25.256  1.00  0.00     0.054 A 
BRANCH  53  54
ATOM     54  S   UNL A   1      44.725  20.897  24.951  1.00  0.00     0.124 S 
ATOM     55  O   UNL A   1      46.088  20.866  25.474  1.00  0.00    -0.237 OA
ATOM     56  O   UNL A   1      43.738  20.141  25.717  1.00  0.00    -0.237 OA
ATOM     57  O   UNL A   1      44.615  20.758  23.499  1.00  0.00    -0.744 OA
ENDBRANCH  53  54
ENDBRANCH  25  48
BRANCH  37  58
ATOM     58  C   UNL A   1      45.252  30.936  28.397  1.00  0.00    -0.014 A 
ATOM     59  C   UNL A   1      44.264  31.474  27.549  1.00  0.00     0.010 A 
ATOM     60  C   UNL A   1      46.528  31.527  28.396  1.00  0.00     0.010 A 
ATOM     61  C   UNL A   1      44.554  32.568  26.717  1.00  0.00     0.020 A 
ATOM     62  C   UNL A   1      46.817  32.625  27.586  1.00  0.00     0.020 A 
ATOM     63  C   UNL A   1      45.831  33.139  26.746  1.00  0.00     0.054 A 
BRANCH  63  64
ATOM     64  S   UNL A   1      46.191  34.595  25.722  1.00  0.00     0.124 S 
ATOM     65  O   UNL A   1      45.295  34.414  24.584  1.00  0.00    -0.237 OA
ATOM     66  O   UNL A   1      45.863  35.707  26.612  1.00  0.00    -0.237 OA
ATOM     67  O   UNL A   1      47.615  34.462  25.414  1.00  0.00    -0.744 OA
ENDBRANCH  63  64
ENDBRANCH  37  58
ENDBRANCH  11  12
ENDBRANCH   4   6
ENDBRANCH   1   2
BRANCH   1  68
ATOM     68  C   UNL A   1      34.757  35.282  28.386  1.00  0.00     0.023 C 
BRANCH  68  69
ATOM     69  C   UNL A   1      33.587  36.244  28.647  1.00  0.00     0.023 C 
BRANCH  69  70
ATOM     70  C   UNL A   1      32.724  35.958  29.878  1.00  0.00     0.116 C 
BRANCH  70  71
ATOM     71  N   UNL A   1      32.865  36.958  30.925  1.00  0.00    -0.351 N 
ATOM     72  C   UNL A   1      33.397  36.834  32.188  1.00  0.00     0.271 C 
ATOM     73  H   UNL A   1      32.529  37.855  30.697  1.00  0.00     0.163 HD
ATOM     74  O   UNL A   1      33.361  37.809  32.947  1.00  0.00    -0.267 OA
BRANCH  72  75
ATOM     75  C   UNL A   1      34.006  35.566  32.580  1.00  0.00     0.146 A 
ATOM     76  C   UNL A   1      35.355  35.302  32.751  1.00  0.00     0.128 A 
ATOM     77  N   UNL A   1      33.272  34.426  32.842  1.00  0.00    -0.231 NA
ATOM     78  N   UNL A   1      35.444  33.951  32.997  1.00  0.00    -0.290 N 
ATOM     79  C   UNL A   1      34.157  33.477  33.047  1.00  0.00     0.206 A 
BRANCH  78  80
ATOM     80  C   UNL A   1      36.613  33.160  33.118  1.00  0.00     0.142 A 
ATOM     81  C   UNL A   1      37.695  33.407  32.304  1.00  0.00     0.088 A 
ATOM     82  N   UNL A   1      36.598  32.170  34.038  1.00  0.00    -0.219 NA
ATOM     83  C   UNL A   1      38.763  32.568  32.503  1.00  0.00     0.134 A 
ATOM     84  C   UNL A   1      37.676  31.376  34.081  1.00  0.00     0.226 A 
ATOM     85  Cl  UNL A   1      40.234  32.811  31.651  1.00  0.00    -0.062 Cl
ATOM     86  N   UNL A   1      38.786  31.533  33.358  1.00  0.00    -0.224 NA
ENDBRANCH  78  80
ENDBRANCH  72  75
ENDBRANCH  70  71
ENDBRANCH  69  70
ENDBRANCH  68  69
ENDBRANCH   1  68
TORSDOF 15
ENDMDL
MODEL 2
REMARK VINA RESULT:     -11.5      3.325     12.402
REMARK SMILES O=C(NCCCCNC(=O)c1cn(-c2cc(Cl)ncn2)cn1)c1ccc(-c2c3nc(c(-c4ccc(S(=O)(=O)[O-])cc4)c4ccc([nH]4)c(-c4ccc(S(=O)(=O)[O-])cc4)c4nc(c(-c5ccc(S(=O)(=O)[O-])cc5)c5ccc2[nH]5)C=C4)C=C3)cc1
REMARK SMILES IDX 4 1 3 2 1 3 2 4 23 6 24 7 82 8 25 9 81 10 26 11 27 12 28 13
REMARK SMILES IDX 75 14 29 15 80 16 74 17 76 18 30 19 79 20 73 21 72 22 31 24
REMARK SMILES IDX 61 25 42 26 60 27 43 28 46 29 59 30 77 31 44 32 45 33 58 35
REMARK SMILES IDX 78 36 47 37 32 38 33 39 41 40 34 41 40 42 35 43 36 44 37 45
REMARK SMILES IDX 38 46 39 47 62 48 63 49 71 50 64 51 70 52 65 53 66 54 67 55
REMARK SMILES IDX 68 56 69 57 48 58 49 59 57 60 50 61 56 62 51 63 52 64 53 65
REMARK SMILES IDX 54 66 55 67 5 68 6 69 7 70 8 71 9 72 10 74 11 75 12 76 22 77
REMARK SMILES IDX 13 78 21 79 14 80 15 81 20 82 16 83 19 84 17 85 18 86
REMARK H PARENT 3 5 76 23 46 34 8 73
REMARK Flexibility Score: inf
ROOT
ATOM      1  C   UNL A   1      41.811  20.962  26.611  1.00  0.00     0.116 C 
ENDROOT
BRANCH   1   2
ATOM      2  N   UNL A   1      40.441  21.308  26.294  1.00  0.00    -0.352 N 
ATOM      3  O   UNL A   1      38.603  22.369  25.738  1.00  0.00    -0.269 OA
ATOM      4  C   UNL A   1      39.691  22.451  26.319  1.00  0.00     0.251 C 
ATOM      5  H   UNL A   1      39.923  20.530  25.985  1.00  0.00     0.163 HD
BRANCH   4   6
ATOM      6  C   UNL A   1      40.029  23.725  27.021  1.00  0.00     0.039 A 
ATOM      7  C   UNL A   1      41.187  23.995  27.750  1.00  0.00     0.014 A 
ATOM      8  C   UNL A   1      39.032  24.723  26.967  1.00  0.00     0.014 A 
ATOM      9  C   UNL A   1      41.307  25.197  28.461  1.00  0.00     0.010 A 
ATOM     10  C   UNL A   1      39.145  25.916  27.678  1.00  0.00     0.010 A 
ATOM     11  C   UNL A   1      40.268  26.140  28.463  1.00  0.00    -0.014 A 
BRANCH  11  12
ATOM     12  C   UNL A   1      40.458  27.420  29.155  1.00  0.00     0.031 A 
ATOM     13  C   UNL A   1      41.524  28.279  28.560  1.00  0.00     0.074 A 
ATOM     14  C   UNL A   1      39.676  27.899  30.150  1.00  0.00     0.049 A 
ATOM     15  N   UNL A   1      42.652  28.624  29.089  1.00  0.00    -0.248 NA
ATOM     16  C   UNL A   1      41.370  28.706  27.159  1.00  0.00     0.031 C 
ATOM     17  C   UNL A   1      38.425  27.348  30.676  1.00  0.00     0.029 A 
ATOM     18  N   UNL A   1      39.806  29.061  30.861  1.00  0.00    -0.354 N 
ATOM     19  C   UNL A   1      43.274  29.466  28.171  1.00  0.00     0.074 A 
ATOM     20  C   UNL A   1      42.509  29.372  26.953  1.00  0.00     0.031 C 
ATOM     21  C   UNL A   1      37.807  28.276  31.448  1.00  0.00     0.029 A 
ATOM     22  C   UNL A   1      38.682  29.427  31.601  1.00  0.00     0.049 A 
ATOM     23  H   UNL A   1      40.632  29.597  30.853  1.00  0.00     0.167 HD
ATOM     24  C   UNL A   1      44.262  30.331  28.535  1.00  0.00     0.031 A 
ATOM     25  C   UNL A   1      38.478  30.594  32.271  1.00  0.00     0.031 A 
ATOM     26  C   UNL A   1      44.808  30.008  29.825  1.00  0.00     0.049 A 
ATOM     27  C   UNL A   1      39.811  31.190  32.521  1.00  0.00     0.074 A 
ATOM     28  C   UNL A   1      45.466  28.916  30.355  1.00  0.00     0.029 A 
ATOM     29  N   UNL A   1      44.349  30.730  30.901  1.00  0.00    -0.354 N 
ATOM     30  N   UNL A   1      40.701  30.651  33.304  1.00  0.00    -0.248 NA
ATOM     31  C   UNL A   1      40.321  32.139  31.545  1.00  0.00     0.031 C 
ATOM     32  C   UNL A   1      44.931  28.773  31.667  1.00  0.00     0.029 A 
ATOM     33  C   UNL A   1      44.047  29.830  31.890  1.00  0.00     0.049 A 
ATOM     34  H   UNL A   1      44.255  31.709  30.952  1.00  0.00     0.167 HD
ATOM     35  C   UNL A   1      41.907  30.843  32.646  1.00  0.00     0.074 A 
ATOM     36  C   UNL A   1      41.619  31.829  31.605  1.00  0.00     0.031 C 
ATOM     37  C   UNL A   1      42.957  29.991  32.829  1.00  0.00     0.031 A 
BRANCH  24  38
ATOM     38  C   UNL A   1      44.483  31.677  27.890  1.00  0.00    -0.014 A 
ATOM     39  C   UNL A   1      45.623  31.876  27.084  1.00  0.00     0.010 A 
ATOM     40  C   UNL A   1      43.761  32.826  28.271  1.00  0.00     0.010 A 
ATOM     41  C   UNL A   1      46.047  33.164  26.726  1.00  0.00     0.020 A 
ATOM     42  C   UNL A   1      44.152  34.110  27.887  1.00  0.00     0.020 A 
ATOM     43  C   UNL A   1      45.312  34.274  27.141  1.00  0.00     0.054 A 
BRANCH  43  44
ATOM     44  S   UNL A   1      45.915  35.935  26.748  1.00  0.00     0.124 S 
ATOM     45  O   UNL A   1      46.486  35.743  25.418  1.00  0.00    -0.237 OA
ATOM     46  O   UNL A   1      44.692  36.729  26.805  1.00  0.00    -0.237 OA
ATOM     47  O   UNL A   1      46.880  36.209  27.812  1.00  0.00    -0.744 OA
ENDBRANCH  43  44
ENDBRANCH  24  38
BRANCH  25  48
ATOM     48  C   UNL A   1      37.229  31.397  32.410  1.00  0.00    -0.014 A 
ATOM     49  C   UNL A   1      37.004  32.230  33.528  1.00  0.00     0.010 A 
ATOM     50  C   UNL A   1      36.400  31.589  31.287  1.00  0.00     0.010 A 
ATOM     51  C   UNL A   1      36.033  33.251  33.499  1.00  0.00     0.020 A 
ATOM     52  C   UNL A   1      35.430  32.602  31.251  1.00  0.00     0.020 A 
ATOM     53  C   UNL A   1      35.265  33.444  32.348  1.00  0.00     0.054 A 
BRANCH  53  54
ATOM     54  S   UNL A   1      34.140  34.873  32.242  1.00  0.00     0.124 S 
ATOM     55  O   UNL A   1      32.927  34.364  32.876  1.00  0.00    -0.237 OA
ATOM     56  O   UNL A   1      34.857  35.902  32.990  1.00  0.00    -0.237 OA
ATOM     57  O   UNL A   1      34.031  35.120  30.805  1.00  0.00    -0.744 OA
ENDBRANCH  53  54
ENDBRANCH  25  48
BRANCH  37  58
ATOM     58  C   UNL A   1      42.901  28.992  33.962  1.00  0.00    -0.014 A 
ATOM     59  C   UNL A   1      43.334  29.257  35.277  1.00  0.00     0.010 A 
ATOM     60  C   UNL A   1      42.214  27.791  33.713  1.00  0.00     0.010 A 
ATOM     61  C   UNL A   1      43.091  28.335  36.309  1.00  0.00     0.020 A 
ATOM     62  C   UNL A   1      41.953  26.880  34.737  1.00  0.00     0.020 A 
ATOM     63  C   UNL A   1      42.397  27.153  36.030  1.00  0.00     0.054 A 
BRANCH  63  64
ATOM     64  S   UNL A   1      42.021  25.989  37.374  1.00  0.00     0.124 S 
ATOM     65  O   UNL A   1      43.025  26.328  38.377  1.00  0.00    -0.237 OA
ATOM     66  O   UNL A   1      40.643  26.328  37.721  1.00  0.00    -0.237 OA
ATOM     67  O   UNL A   1      42.188  24.675  36.753  1.00  0.00    -0.744 OA
ENDBRANCH  63  64
ENDBRANCH  37  58
ENDBRANCH  11  12
ENDBRANCH   4   6
ENDBRANCH   1   2
BRANCH   1  68
ATOM     68  C   UNL A   1      41.964  19.706  27.468  1.00  0.00     0.023 C 
BRANCH  68  69
ATOM     69  C   UNL A   1      42.665  18.514  26.798  1.00  0.00     0.023 C 
BRANCH  69  70
ATOM     70  C   UNL A   1      43.186  18.734  25.375  1.00  0.00     0.116 C 
BRANCH  70  71
ATOM     71  N   UNL A   1      44.607  18.458  25.233  1.00  0.00    -0.351 N 
ATOM     72  C   UNL A   1      45.640  19.316  24.931  1.00  0.00     0.271 C 
ATOM     73  H   UNL A   1      44.869  17.519  25.372  1.00  0.00     0.163 HD
ATOM     74  O   UNL A   1      46.778  18.853  24.797  1.00  0.00    -0.267 OA
BRANCH  72  75
ATOM     75  C   UNL A   1      45.361  20.743  24.801  1.00  0.00     0.146 A 
ATOM     76  C   UNL A   1      45.701  21.748  25.693  1.00  0.00     0.128 A 
ATOM     77  N   UNL A   1      44.696  21.287  23.720  1.00  0.00    -0.231 NA
ATOM     78  N   UNL A   1      45.122  22.896  25.203  1.00  0.00    -0.290 N 
ATOM     79  C   UNL A   1      44.535  22.559  24.009  1.00  0.00     0.206 A 
BRANCH  78  80
ATOM     80  C   UNL A   1      45.067  24.175  25.810  1.00  0.00     0.142 A 
ATOM     81  C   UNL A   1      44.874  24.280  27.169  1.00  0.00     0.088 A 
ATOM     82  N   UNL A   1      45.194  25.250  25.002  1.00  0.00    -0.219 NA
ATOM     83  C   UNL A   1      44.824  25.569  27.641  1.00  0.00     0.134 A 
ATOM     84  C   UNL A   1      45.053  26.452  25.577  1.00  0.00     0.226 A 
ATOM     85  Cl  UNL A   1      44.705  25.877  29.326  1.00  0.00    -0.062 Cl
ATOM     86  N   UNL A   1      44.885  26.674  26.881  1.00  0.00    -0.224 NA
ENDBRANCH  78  80
ENDBRANCH  72  75
ENDBRANCH  70  71
ENDBRANCH  69  70
ENDBRANCH  68  69
ENDBRANCH   1  68
TORSDOF 15
ENDMDL
MODEL 3
REMARK VINA RESULT:     -11.3      4.093      6.397
REMARK SMILES O=C(NCCCCNC(=O)c1cn(-c2cc(Cl)ncn2)cn1)c1ccc(-c2c3nc(c(-c4ccc(S(=O)(=O)[O-])cc4)c4ccc([nH]4)c(-c4ccc(S(=O)(=O)[O-])cc4)c4nc(c(-c5ccc(S(=O)(=O)[O-])cc5)c5ccc2[nH]5)C=C4)C=C3)cc1
REMARK SMILES IDX 4 1 3 2 1 3 2 4 23 6 24 7 82 8 25 9 81 10 26 11 27 12 28 13
REMARK SMILES IDX 75 14 29 15 80 16 74 17 76 18 30 19 79 20 73 21 72 22 31 24
REMARK SMILES IDX 61 25 42 26 60 27 43 28 46 29 59 30 77 31 44 32 45 33 58 35
REMARK SMILES IDX 78 36 47 37 32 38 33 39 41 40 34 41 40 42 35 43 36 44 37 45
REMARK SMILES IDX 38 46 39 47 62 48 63 49 71 50 64 51 70 52 65 53 66 54 67 55
REMARK SMILES IDX 68 56 69 57 48 58 49 59 57 60 50 61 56 62 51 63 52 64 53 65
REMARK SMILES IDX 54 66 55 67 5 68 6 69 7 70 8 71 9 72 10 74 11 75 12 76 22 77
REMARK SMILES IDX 13 78 21 79 14 80 15 81 20 82 16 83 19 84 17 85 18 86
REMARK H PARENT 3 5 76 23 46 34 8 73
REMARK Flexibility Score: inf
ROOT
ATOM      1  C   UNL A   1      33.075  30.297  26.624  1.00  0.00     0.116 C 
ENDROOT
BRANCH   1   2
ATOM      2  N   UNL A   1      33.380  31.301  27.621  1.00  0.00    -0.352 N 
ATOM      3  O   UNL A   1      34.385  32.777  28.897  1.00  0.00    -0.269 OA
ATOM      4  C   UNL A   1      34.504  31.708  28.285  1.00  0.00     0.251 C 
ATOM      5  H   UNL A   1      32.585  31.818  27.884  1.00  0.00     0.163 HD
BRANCH   4   6
ATOM      6  C   UNL A   1      35.796  30.968  28.390  1.00  0.00     0.039 A 
ATOM      7  C   UNL A   1      35.989  29.597  28.223  1.00  0.00     0.014 A 
ATOM      8  C   UNL A   1      36.913  31.756  28.745  1.00  0.00     0.014 A 
ATOM      9  C   UNL A   1      37.243  29.027  28.478  1.00  0.00     0.010 A 
ATOM     10  C   UNL A   1      38.159  31.192  29.005  1.00  0.00     0.010 A 
ATOM     11  C   UNL A   1      38.319  29.816  28.912  1.00  0.00    -0.014 A 
BRANCH  11  12
ATOM     12  C   UNL A   1      39.638  29.198  29.095  1.00  0.00     0.031 A 
ATOM     13  C   UNL A   1      40.060  29.079  30.522  1.00  0.00     0.074 A 
ATOM     14  C   UNL A   1      40.385  28.635  28.117  1.00  0.00     0.049 A 
ATOM     15  N   UNL A   1      41.036  29.686  31.113  1.00  0.00    -0.248 NA
ATOM     16  C   UNL A   1      39.218  28.283  31.430  1.00  0.00     0.031 C 
ATOM     17  C   UNL A   1      40.027  28.395  26.716  1.00  0.00     0.029 A 
ATOM     18  N   UNL A   1      41.629  28.072  28.202  1.00  0.00    -0.354 N 
ATOM     19  C   UNL A   1      41.057  29.210  32.422  1.00  0.00     0.074 A 
ATOM     20  C   UNL A   1      39.840  28.459  32.598  1.00  0.00     0.031 C 
ATOM     21  C   UNL A   1      40.925  27.547  26.156  1.00  0.00     0.029 A 
ATOM     22  C   UNL A   1      42.004  27.304  27.099  1.00  0.00     0.049 A 
ATOM     23  H   UNL A   1      42.215  28.199  28.983  1.00  0.00     0.167 HD
ATOM     24  C   UNL A   1      42.166  29.305  33.210  1.00  0.00     0.031 A 
ATOM     25  C   UNL A   1      43.107  26.515  26.979  1.00  0.00     0.031 A 
ATOM     26  C   UNL A   1      43.119  30.241  32.681  1.00  0.00     0.049 A 
ATOM     27  C   UNL A   1      44.092  26.990  27.978  1.00  0.00     0.074 A 
ATOM     28  C   UNL A   1      43.104  31.595  32.412  1.00  0.00     0.029 A 
ATOM     29  N   UNL A   1      44.177  29.727  31.970  1.00  0.00    -0.354 N 
ATOM     30  N   UNL A   1      44.663  28.159  27.921  1.00  0.00    -0.248 NA
ATOM     31  C   UNL A   1      44.094  26.351  29.283  1.00  0.00     0.031 C 
ATOM     32  C   UNL A   1      43.809  31.727  31.181  1.00  0.00     0.029 A 
ATOM     33  C   UNL A   1      44.284  30.466  30.819  1.00  0.00     0.049 A 
ATOM     34  H   UNL A   1      44.750  28.972  32.235  1.00  0.00     0.167 HD
ATOM     35  C   UNL A   1      44.700  28.595  29.237  1.00  0.00     0.074 A 
ATOM     36  C   UNL A   1      44.403  27.408  30.039  1.00  0.00     0.031 C 
ATOM     37  C   UNL A   1      44.701  29.925  29.543  1.00  0.00     0.031 A 
BRANCH  24  38
ATOM     38  C   UNL A   1      42.543  28.287  34.257  1.00  0.00    -0.014 A 
ATOM     39  C   UNL A   1      42.203  28.527  35.605  1.00  0.00     0.010 A 
ATOM     40  C   UNL A   1      43.457  27.244  34.004  1.00  0.00     0.010 A 
ATOM     41  C   UNL A   1      42.793  27.797  36.646  1.00  0.00     0.020 A 
ATOM     42  C   UNL A   1      44.020  26.484  35.032  1.00  0.00     0.020 A 
ATOM     43  C   UNL A   1      43.707  26.785  36.351  1.00  0.00     0.054 A 
BRANCH  43  44
ATOM     44  S   UNL A   1      44.527  25.907  37.705  1.00  0.00     0.124 S 
ATOM     45  O   UNL A   1      44.210  24.516  37.399  1.00  0.00    -0.237 OA
ATOM     46  O   UNL A   1      45.923  26.295  37.523  1.00  0.00    -0.237 OA
ATOM     47  O   UNL A   1      43.887  26.450  38.902  1.00  0.00    -0.744 OA
ENDBRANCH  43  44
ENDBRANCH  24  38
BRANCH  25  48
ATOM     48  C   UNL A   1      43.248  25.185  26.319  1.00  0.00    -0.014 A 
ATOM     49  C   UNL A   1      43.974  25.027  25.119  1.00  0.00     0.010 A 
ATOM     50  C   UNL A   1      42.937  24.016  27.043  1.00  0.00     0.010 A 
ATOM     51  C   UNL A   1      44.421  23.760  24.693  1.00  0.00     0.020 A 
ATOM     52  C   UNL A   1      43.378  22.751  26.625  1.00  0.00     0.020 A 
ATOM     53  C   UNL A   1      44.138  22.630  25.463  1.00  0.00     0.054 A 
BRANCH  53  54
ATOM     54  S   UNL A   1      44.868  21.022  25.013  1.00  0.00     0.124 S 
ATOM     55  O   UNL A   1      44.002  20.079  25.714  1.00  0.00    -0.237 OA
ATOM     56  O   UNL A   1      44.758  21.018  23.557  1.00  0.00    -0.237 OA
ATOM     57  O   UNL A   1      46.235  21.108  25.526  1.00  0.00    -0.744 OA
ENDBRANCH  53  54
ENDBRANCH  25  48
BRANCH  37  58
ATOM     58  C   UNL A   1      44.941  30.930  28.439  1.00  0.00    -0.014 A 
ATOM     59  C   UNL A   1      43.929  31.457  27.612  1.00  0.00     0.010 A 
ATOM     60  C   UNL A   1      46.228  31.489  28.361  1.00  0.00     0.010 A 
ATOM     61  C   UNL A   1      44.207  32.512  26.726  1.00  0.00     0.020 A 
ATOM     62  C   UNL A   1      46.506  32.548  27.496  1.00  0.00     0.020 A 
ATOM     63  C   UNL A   1      45.497  33.052  26.678  1.00  0.00     0.054 A 
BRANCH  63  64
ATOM     64  S   UNL A   1      45.845  34.459  25.583  1.00  0.00     0.124 S 
ATOM     65  O   UNL A   1      45.390  35.598  26.373  1.00  0.00    -0.237 OA
ATOM     66  O   UNL A   1      47.290  34.365  25.385  1.00  0.00    -0.237 OA
ATOM     67  O   UNL A   1      45.047  34.176  24.389  1.00  0.00    -0.744 OA
ENDBRANCH  63  64
ENDBRANCH  37  58
ENDBRANCH  11  12
ENDBRANCH   4   6
ENDBRANCH   1   2
BRANCH   1  68
ATOM     68  C   UNL A   1      32.242  29.125  27.141  1.00  0.00     0.023 C 
BRANCH  68  69
ATOM     69  C   UNL A   1      32.414  27.793  26.394  1.00  0.00     0.023 C 
BRANCH  69  70
ATOM     70  C   UNL A   1      31.148  26.959  26.177  1.00  0.00     0.116 C 
BRANCH  70  71
ATOM     71  N   UNL A   1      31.300  25.941  25.150  1.00  0.00    -0.351 N 
ATOM     72  C   UNL A   1      30.655  25.813  23.941  1.00  0.00     0.271 C 
ATOM     73  H   UNL A   1      31.960  25.238  25.349  1.00  0.00     0.163 HD
ATOM     74  O   UNL A   1      30.894  24.824  23.240  1.00  0.00    -0.267 OA
BRANCH  72  75
ATOM     75  C   UNL A   1      29.728  26.859  23.518  1.00  0.00     0.146 A 
ATOM     76  C   UNL A   1      30.034  28.021  22.827  1.00  0.00     0.128 A 
ATOM     77  N   UNL A   1      28.370  26.811  23.767  1.00  0.00    -0.231 NA
ATOM     78  N   UNL A   1      28.863  28.742  22.770  1.00  0.00    -0.290 N 
ATOM     79  C   UNL A   1      27.893  27.960  23.346  1.00  0.00     0.206 A 
BRANCH  78  80
ATOM     80  C   UNL A   1      28.670  30.057  22.278  1.00  0.00     0.142 A 
ATOM     81  C   UNL A   1      28.964  31.138  23.078  1.00  0.00     0.088 A 
ATOM     82  N   UNL A   1      28.181  30.183  21.025  1.00  0.00    -0.219 NA
ATOM     83  C   UNL A   1      28.723  32.359  22.499  1.00  0.00     0.134 A 
ATOM     84  C   UNL A   1      27.922  31.429  20.606  1.00  0.00     0.226 A 
ATOM     85  Cl  UNL A   1      29.143  33.809  23.316  1.00  0.00    -0.062 Cl
ATOM     86  N   UNL A   1      28.185  32.547  21.284  1.00  0.00    -0.224 NA
ENDBRANCH  78  80
ENDBRANCH  72  75
ENDBRANCH  70  71
ENDBRANCH  69  70
ENDBRANCH  68  69
ENDBRANCH   1  68
TORSDOF 15
ENDMDL
