MODEL 1
REMARK VINA RESULT:     -10.3      0.000      0.000
REMARK SMILES Cc1onc(-c2cccc(Br)c2)c1C(=O)NCCCCNC(=O)c1ccc(-c2c3nc(c(-c4ccc(S(=O)(=O)[O-])cc4)c4ccc([nH]4)c(-c4ccc(S(=O)(=O)[O-])cc4)c4nc(c(-c5ccc(S(=O)(=O)[O-])cc5)c5ccc2[nH]5)C=C4)C=C3)cc1
REMARK SMILES IDX 19 1 18 2 17 3 16 4 14 5 15 6 13 8 1 9 2 10 3 11 4 12 5 13
REMARK SMILES IDX 6 14 7 15 12 16 8 17 10 18 9 19 11 20 20 21 21 22 22 23
REMARK SMILES IDX 23 25 24 26 25 27 83 28 26 29 82 30 27 31 28 32 29 33 76 34
REMARK SMILES IDX 30 35 81 36 75 37 77 38 31 39 80 40 74 41 73 42 32 44 62 45
REMARK SMILES IDX 43 46 61 47 44 48 47 49 60 50 78 51 45 52 46 53 59 55 79 56
REMARK SMILES IDX 48 57 33 58 34 59 42 60 35 61 41 62 36 63 37 64 38 65 39 66
REMARK SMILES IDX 40 67 63 68 64 69 72 70 65 71 71 72 66 73 67 74 68 75 69 76
REMARK SMILES IDX 70 77 49 78 50 79 58 80 51 81 57 82 52 83 53 84 54 85 55 86
REMARK SMILES IDX 56 87
REMARK H PARENT 16 7 21 24 77 43 47 54
REMARK Flexibility Score: inf
ROOT
ATOM      1  C   UNL A   1      34.915  33.194  27.824  1.00  0.00     0.023 C 
ENDROOT
BRANCH   1   2
ATOM      2  C   UNL A   1      36.374  33.478  28.194  1.00  0.00     0.023 C 
BRANCH   2   3
ATOM      3  C   UNL A   1      36.841  32.840  29.503  1.00  0.00     0.116 C 
BRANCH   3   4
ATOM      4  N   UNL A   1      37.659  33.759  30.252  1.00  0.00    -0.352 N 
ATOM      5  C   UNL A   1      37.841  34.036  31.577  1.00  0.00     0.257 C 
ATOM      6  O   UNL A   1      38.666  34.935  31.765  1.00  0.00    -0.269 OA
ATOM      7  H   UNL A   1      38.221  34.320  29.671  1.00  0.00     0.163 HD
BRANCH   5   8
ATOM      8  C   UNL A   1      37.197  33.365  32.705  1.00  0.00     0.110 A 
ATOM      9  C   UNL A   1      38.545  31.226  33.623  1.00  0.00     0.092 C 
ATOM     10  C   UNL A   1      37.512  32.271  33.505  1.00  0.00     0.147 A 
ATOM     11  O   UNL A   1      36.557  32.117  34.463  1.00  0.00    -0.360 OA
ATOM     12  N   UNL A   1      35.570  33.043  34.312  1.00  0.00    -0.079 NA
ATOM     13  C   UNL A   1      35.911  33.775  33.245  1.00  0.00     0.126 A 
BRANCH  13  14
ATOM     14  C   UNL A   1      34.996  34.823  32.804  1.00  0.00     0.006 A 
ATOM     15  C   UNL A   1      34.689  35.902  33.645  1.00  0.00     0.010 A 
ATOM     16  C   UNL A   1      34.453  34.780  31.514  1.00  0.00     0.026 A 
ATOM     17  C   UNL A   1      33.819  36.907  33.217  1.00  0.00     0.002 A 
ATOM     18  C   UNL A   1      33.591  35.790  31.092  1.00  0.00     0.018 A 
ATOM     19  C   UNL A   1      33.266  36.849  31.938  1.00  0.00     0.016 A 
ATOM     20  Br  UNL A   1      32.854  35.725  29.351  1.00  0.00    -0.051 Br
ENDBRANCH  13  14
ENDBRANCH   5   8
ENDBRANCH   3   4
ENDBRANCH   2   3
ENDBRANCH   1   2
BRANCH   1  21
ATOM     21  C   UNL A   1      34.202  32.186  28.720  1.00  0.00     0.116 C 
BRANCH  21  22
ATOM     22  N   UNL A   1      33.709  31.019  28.003  1.00  0.00    -0.352 N 
ATOM     23  C   UNL A   1      34.400  29.883  27.656  1.00  0.00     0.251 C 
ATOM     24  H   UNL A   1      32.763  31.047  27.734  1.00  0.00     0.163 HD
ATOM     25  O   UNL A   1      33.863  29.018  26.970  1.00  0.00    -0.269 OA
BRANCH  23  26
ATOM     26  C   UNL A   1      35.807  29.741  28.079  1.00  0.00     0.039 A 
ATOM     27  C   UNL A   1      36.079  29.314  29.380  1.00  0.00     0.014 A 
ATOM     28  C   UNL A   1      36.848  29.974  27.176  1.00  0.00     0.014 A 
ATOM     29  C   UNL A   1      37.396  29.048  29.755  1.00  0.00     0.010 A 
ATOM     30  C   UNL A   1      38.152  29.647  27.532  1.00  0.00     0.010 A 
ATOM     31  C   UNL A   1      38.438  29.176  28.821  1.00  0.00    -0.014 A 
BRANCH  31  32
ATOM     32  C   UNL A   1      39.832  28.806  29.169  1.00  0.00     0.031 A 
ATOM     33  C   UNL A   1      40.735  29.812  29.828  1.00  0.00     0.074 A 
ATOM     34  C   UNL A   1      40.307  27.595  28.819  1.00  0.00     0.049 A 
ATOM     35  N   UNL A   1      42.001  29.702  30.138  1.00  0.00    -0.248 NA
ATOM     36  C   UNL A   1      40.145  31.121  30.156  1.00  0.00     0.031 C 
ATOM     37  C   UNL A   1      39.543  26.549  28.132  1.00  0.00     0.029 A 
ATOM     38  N   UNL A   1      41.550  27.039  28.986  1.00  0.00    -0.354 N 
ATOM     39  C   UNL A   1      42.364  30.931  30.677  1.00  0.00     0.074 A 
ATOM     40  C   UNL A   1      41.198  31.784  30.611  1.00  0.00     0.031 C 
ATOM     41  C   UNL A   1      40.328  25.474  27.957  1.00  0.00     0.029 A 
ATOM     42  C   UNL A   1      41.657  25.763  28.487  1.00  0.00     0.049 A 
ATOM     43  H   UNL A   1      42.296  27.511  29.423  1.00  0.00     0.167 HD
ATOM     44  C   UNL A   1      43.556  31.309  31.197  1.00  0.00     0.031 A 
ATOM     45  C   UNL A   1      42.707  24.920  28.455  1.00  0.00     0.031 A 
ATOM     46  C   UNL A   1      44.708  30.451  31.280  1.00  0.00     0.049 A 
ATOM     47  C   UNL A   1      44.015  25.356  29.053  1.00  0.00     0.074 A 
ATOM     48  C   UNL A   1      45.944  30.722  31.842  1.00  0.00     0.029 A 
ATOM     49  N   UNL A   1      44.765  29.154  30.791  1.00  0.00    -0.354 N 
ATOM     50  N   UNL A   1      44.322  26.501  29.614  1.00  0.00    -0.248 NA
ATOM     51  C   UNL A   1      45.115  24.382  29.028  1.00  0.00     0.031 C 
ATOM     52  C   UNL A   1      46.760  29.601  31.660  1.00  0.00     0.029 A 
ATOM     53  C   UNL A   1      46.018  28.616  31.027  1.00  0.00     0.049 A 
ATOM     54  H   UNL A   1      44.024  28.686  30.344  1.00  0.00     0.167 HD
ATOM     55  C   UNL A   1      45.642  26.375  30.033  1.00  0.00     0.074 A 
ATOM     56  C   UNL A   1      46.071  25.040  29.669  1.00  0.00     0.031 C 
ATOM     57  C   UNL A   1      46.426  27.283  30.664  1.00  0.00     0.031 A 
BRANCH  44  58
ATOM     58  C   UNL A   1      43.669  32.716  31.717  1.00  0.00    -0.014 A 
ATOM     59  C   UNL A   1      43.250  33.042  33.021  1.00  0.00     0.010 A 
ATOM     60  C   UNL A   1      44.225  33.720  30.905  1.00  0.00     0.010 A 
ATOM     61  C   UNL A   1      43.341  34.356  33.486  1.00  0.00     0.020 A 
ATOM     62  C   UNL A   1      44.343  35.031  31.377  1.00  0.00     0.020 A 
ATOM     63  C   UNL A   1      43.883  35.343  32.658  1.00  0.00     0.054 A 
BRANCH  63  64
ATOM     64  S   UNL A   1      44.002  37.039  33.290  1.00  0.00     0.124 S 
ATOM     65  O   UNL A   1      45.296  37.016  33.967  1.00  0.00    -0.237 OA
ATOM     66  O   UNL A   1      43.946  37.843  32.070  1.00  0.00    -0.237 OA
ATOM     67  O   UNL A   1      42.842  37.165  34.168  1.00  0.00    -0.744 OA
ENDBRANCH  63  64
ENDBRANCH  44  58
BRANCH  45  68
ATOM     68  C   UNL A   1      42.555  23.567  27.855  1.00  0.00    -0.014 A 
ATOM     69  C   UNL A   1      42.960  23.327  26.531  1.00  0.00     0.010 A 
ATOM     70  C   UNL A   1      42.021  22.507  28.611  1.00  0.00     0.010 A 
ATOM     71  C   UNL A   1      42.819  22.056  25.966  1.00  0.00     0.020 A 
ATOM     72  C   UNL A   1      41.901  21.230  28.057  1.00  0.00     0.020 A 
ATOM     73  C   UNL A   1      42.291  21.016  26.733  1.00  0.00     0.054 A 
BRANCH  73  74
ATOM     74  S   UNL A   1      42.168  19.359  26.000  1.00  0.00     0.124 S 
ATOM     75  O   UNL A   1      43.001  19.493  24.810  1.00  0.00    -0.237 OA
ATOM     76  O   UNL A   1      42.706  18.505  27.057  1.00  0.00    -0.237 OA
ATOM     77  O   UNL A   1      40.736  19.204  25.752  1.00  0.00    -0.744 OA
ENDBRANCH  73  74
ENDBRANCH  45  68
BRANCH  57  78
ATOM     78  C   UNL A   1      47.818  26.854  31.038  1.00  0.00    -0.014 A 
ATOM     79  C   UNL A   1      48.085  26.246  32.276  1.00  0.00     0.010 A 
ATOM     80  C   UNL A   1      48.862  27.006  30.107  1.00  0.00     0.010 A 
ATOM     81  C   UNL A   1      49.379  25.819  32.587  1.00  0.00     0.020 A 
ATOM     82  C   UNL A   1      50.151  26.559  30.404  1.00  0.00     0.020 A 
ATOM     83  C   UNL A   1      50.403  25.979  31.649  1.00  0.00     0.054 A 
BRANCH  83  84
ATOM     84  S   UNL A   1      52.063  25.369  32.053  1.00  0.00     0.124 S 
ATOM     85  O   UNL A   1      51.846  23.927  32.128  1.00  0.00    -0.237 OA
ATOM     86  O   UNL A   1      52.859  25.826  30.916  1.00  0.00    -0.237 OA
ATOM     87  O   UNL A   1      52.372  26.021  33.323  1.00  0.00    -0.744 OA
ENDBRANCH  83  84
ENDBRANCH  57  78
ENDBRANCH  31  32
ENDBRANCH  23  26
ENDBRANCH  21  22
ENDBRANCH   1  21
TORSDOF 15
ENDMDL
MODEL 2
REMARK VINA RESULT:     -10.1      4.029      6.523
REMARK SMILES Cc1onc(-c2cccc(Br)c2)c1C(=O)NCCCCNC(=O)c1ccc(-c2c3nc(c(-c4ccc(S(=O)(=O)[O-])cc4)c4ccc([nH]4)c(-c4ccc(S(=O)(=O)[O-])cc4)c4nc(c(-c5ccc(S(=O)(=O)[O-])cc5)c5ccc2[nH]5)C=C4)C=C3)cc1
REMARK SMILES IDX 19 1 18 2 17 3 16 4 14 5 15 6 13 8 1 9 2 10 3 11 4 12 5 13
REMARK SMILES IDX 6 14 7 15 12 16 8 17 10 18 9 19 11 20 20 21 21 22 22 23
REMARK SMILES IDX 23 25 24 26 25 27 83 28 26 29 82 30 27 31 28 32 29 33 76 34
REMARK SMILES IDX 30 35 81 36 75 37 77 38 31 39 80 40 74 41 73 42 32 44 62 45
REMARK SMILES IDX 43 46 61 47 44 48 47 49 60 50 78 51 45 52 46 53 59 55 79 56
REMARK SMILES IDX 48 57 33 58 34 59 42 60 35 61 41 62 36 63 37 64 38 65 39 66
REMARK SMILES IDX 40 67 63 68 64 69 72 70 65 71 71 72 66 73 67 74 68 75 69 76
REMARK SMILES IDX 70 77 49 78 50 79 58 80 51 81 57 82 52 83 53 84 54 85 55 86
REMARK SMILES IDX 56 87
REMARK H PARENT 16 7 21 24 77 43 47 54
REMARK Flexibility Score: inf
ROOT
ATOM      1  C   UNL A   1      34.309  29.748  26.943  1.00  0.00     0.023 C 
ENDROOT
BRANCH   1   2
ATOM      2  C   UNL A   1      33.407  28.564  27.302  1.00  0.00     0.023 C 
BRANCH   2   3
ATOM      3  C   UNL A   1      31.908  28.867  27.282  1.00  0.00     0.116 C 
BRANCH   3   4
ATOM      4  N   UNL A   1      31.148  27.660  27.079  1.00  0.00    -0.352 N 
ATOM      5  C   UNL A   1      30.989  26.776  26.051  1.00  0.00     0.257 C 
ATOM      6  O   UNL A   1      30.209  25.860  26.329  1.00  0.00    -0.269 OA
ATOM      7  H   UNL A   1      30.618  27.415  27.871  1.00  0.00     0.163 HD
BRANCH   5   8
ATOM      8  C   UNL A   1      31.657  26.820  24.751  1.00  0.00     0.110 A 
ATOM      9  C   UNL A   1      34.092  25.677  24.731  1.00  0.00     0.092 C 
ATOM     10  C   UNL A   1      32.872  26.357  24.257  1.00  0.00     0.147 A 
ATOM     11  O   UNL A   1      32.960  26.637  22.928  1.00  0.00    -0.360 OA
ATOM     12  N   UNL A   1      31.863  27.323  22.507  1.00  0.00    -0.079 NA
ATOM     13  C   UNL A   1      31.088  27.478  23.587  1.00  0.00     0.126 A 
BRANCH  13  14
ATOM     14  C   UNL A   1      29.850  28.239  23.447  1.00  0.00     0.006 A 
ATOM     15  C   UNL A   1      28.612  27.584  23.396  1.00  0.00     0.010 A 
ATOM     16  C   UNL A   1      29.891  29.638  23.410  1.00  0.00     0.026 A 
ATOM     17  C   UNL A   1      27.430  28.316  23.269  1.00  0.00     0.002 A 
ATOM     18  C   UNL A   1      28.706  30.362  23.290  1.00  0.00     0.018 A 
ATOM     19  C   UNL A   1      27.477  29.709  23.214  1.00  0.00     0.016 A 
ATOM     20  Br  UNL A   1      28.765  32.252  23.234  1.00  0.00    -0.051 Br
ENDBRANCH  13  14
ENDBRANCH   5   8
ENDBRANCH   3   4
ENDBRANCH   2   3
ENDBRANCH   1   2
BRANCH   1  21
ATOM     21  C   UNL A   1      35.608  29.840  27.738  1.00  0.00     0.116 C 
BRANCH  21  22
ATOM     22  N   UNL A   1      35.403  29.964  29.174  1.00  0.00    -0.352 N 
ATOM     23  C   UNL A   1      36.344  29.901  30.174  1.00  0.00     0.251 C 
ATOM     24  H   UNL A   1      34.474  30.111  29.465  1.00  0.00     0.163 HD
ATOM     25  O   UNL A   1      35.998  29.936  31.351  1.00  0.00    -0.269 OA
BRANCH  23  26
ATOM     26  C   UNL A   1      37.766  29.743  29.812  1.00  0.00     0.039 A 
ATOM     27  C   UNL A   1      38.692  29.477  30.823  1.00  0.00     0.014 A 
ATOM     28  C   UNL A   1      38.170  29.801  28.475  1.00  0.00     0.014 A 
ATOM     29  C   UNL A   1      40.015  29.193  30.484  1.00  0.00     0.010 A 
ATOM     30  C   UNL A   1      39.474  29.455  28.137  1.00  0.00     0.010 A 
ATOM     31  C   UNL A   1      40.407  29.143  29.136  1.00  0.00    -0.014 A 
BRANCH  31  32
ATOM     32  C   UNL A   1      41.784  28.749  28.749  1.00  0.00     0.031 A 
ATOM     33  C   UNL A   1      42.875  29.783  28.697  1.00  0.00     0.074 A 
ATOM     34  C   UNL A   1      42.033  27.481  28.369  1.00  0.00     0.049 A 
ATOM     35  N   UNL A   1      44.118  29.648  28.311  1.00  0.00    -0.248 NA
ATOM     36  C   UNL A   1      42.515  31.151  29.106  1.00  0.00     0.031 C 
ATOM     37  C   UNL A   1      41.046  26.397  28.331  1.00  0.00     0.029 A 
ATOM     38  N   UNL A   1      43.191  26.888  27.934  1.00  0.00    -0.354 N 
ATOM     39  C   UNL A   1      44.681  30.915  28.410  1.00  0.00     0.074 A 
ATOM     40  C   UNL A   1      43.635  31.812  28.849  1.00  0.00     0.031 C 
ATOM     41  C   UNL A   1      41.647  25.270  27.917  1.00  0.00     0.029 A 
ATOM     42  C   UNL A   1      43.049  25.555  27.629  1.00  0.00     0.049 A 
ATOM     43  H   UNL A   1      44.043  27.372  27.849  1.00  0.00     0.167 HD
ATOM     44  C   UNL A   1      45.960  31.294  28.174  1.00  0.00     0.031 A 
ATOM     45  C   UNL A   1      43.945  24.663  27.166  1.00  0.00     0.031 A 
ATOM     46  C   UNL A   1      47.003  30.396  27.756  1.00  0.00     0.049 A 
ATOM     47  C   UNL A   1      45.362  25.103  26.927  1.00  0.00     0.074 A 
ATOM     48  C   UNL A   1      48.343  30.673  27.546  1.00  0.00     0.029 A 
ATOM     49  N   UNL A   1      46.825  29.047  27.489  1.00  0.00    -0.354 N 
ATOM     50  N   UNL A   1      45.891  26.293  27.085  1.00  0.00    -0.248 NA
ATOM     51  C   UNL A   1      46.307  24.079  26.461  1.00  0.00     0.031 C 
ATOM     52  C   UNL A   1      48.968  29.498  27.117  1.00  0.00     0.029 A 
ATOM     53  C   UNL A   1      48.027  28.480  27.104  1.00  0.00     0.049 A 
ATOM     54  H   UNL A   1      45.970  28.565  27.563  1.00  0.00     0.167 HD
ATOM     55  C   UNL A   1      47.237  26.154  26.765  1.00  0.00     0.074 A 
ATOM     56  C   UNL A   1      47.442  24.763  26.414  1.00  0.00     0.031 C 
ATOM     57  C   UNL A   1      48.214  27.092  26.764  1.00  0.00     0.031 A 
BRANCH  44  58
ATOM     58  C   UNL A   1      46.296  32.748  28.364  1.00  0.00    -0.014 A 
ATOM     59  C   UNL A   1      46.137  33.672  27.314  1.00  0.00     0.010 A 
ATOM     60  C   UNL A   1      46.752  33.204  29.614  1.00  0.00     0.010 A 
ATOM     61  C   UNL A   1      46.472  35.016  27.496  1.00  0.00     0.020 A 
ATOM     62  C   UNL A   1      47.062  34.553  29.808  1.00  0.00     0.020 A 
ATOM     63  C   UNL A   1      46.937  35.447  28.741  1.00  0.00     0.054 A 
BRANCH  63  64
ATOM     64  S   UNL A   1      47.352  37.199  28.956  1.00  0.00     0.124 S 
ATOM     65  O   UNL A   1      46.340  37.632  29.916  1.00  0.00    -0.237 OA
ATOM     66  O   UNL A   1      48.720  37.146  29.469  1.00  0.00    -0.237 OA
ATOM     67  O   UNL A   1      47.216  37.755  27.613  1.00  0.00    -0.744 OA
ENDBRANCH  63  64
ENDBRANCH  44  58
BRANCH  45  68
ATOM     68  C   UNL A   1      43.532  23.255  26.923  1.00  0.00    -0.014 A 
ATOM     69  C   UNL A   1      43.195  22.417  28.000  1.00  0.00     0.010 A 
ATOM     70  C   UNL A   1      43.456  22.749  25.612  1.00  0.00     0.010 A 
ATOM     71  C   UNL A   1      42.806  21.093  27.774  1.00  0.00     0.020 A 
ATOM     72  C   UNL A   1      43.044  21.434  25.380  1.00  0.00     0.020 A 
ATOM     73  C   UNL A   1      42.732  20.611  26.465  1.00  0.00     0.054 A 
BRANCH  73  74
ATOM     74  S   UNL A   1      42.171  18.906  26.188  1.00  0.00     0.124 S 
ATOM     75  O   UNL A   1      40.800  19.109  25.735  1.00  0.00    -0.237 OA
ATOM     76  O   UNL A   1      43.109  18.425  25.175  1.00  0.00    -0.237 OA
ATOM     77  O   UNL A   1      42.314  18.284  27.503  1.00  0.00    -0.744 OA
ENDBRANCH  73  74
ENDBRANCH  45  68
BRANCH  57  78
ATOM     78  C   UNL A   1      49.605  26.644  26.409  1.00  0.00    -0.014 A 
ATOM     79  C   UNL A   1      50.442  26.042  27.363  1.00  0.00     0.010 A 
ATOM     80  C   UNL A   1      50.054  26.771  25.082  1.00  0.00     0.010 A 
ATOM     81  C   UNL A   1      51.716  25.596  27.001  1.00  0.00     0.020 A 
ATOM     82  C   UNL A   1      51.317  26.306  24.710  1.00  0.00     0.020 A 
ATOM     83  C   UNL A   1      52.146  25.731  25.677  1.00  0.00     0.054 A 
BRANCH  83  84
ATOM     84  S   UNL A   1      53.782  25.097  25.218  1.00  0.00     0.124 S 
ATOM     85  O   UNL A   1      53.941  25.622  23.865  1.00  0.00    -0.237 OA
ATOM     86  O   UNL A   1      54.653  25.693  26.229  1.00  0.00    -0.237 OA
ATOM     87  O   UNL A   1      53.630  23.648  25.312  1.00  0.00    -0.744 OA
ENDBRANCH  83  84
ENDBRANCH  57  78
ENDBRANCH  31  32
ENDBRANCH  23  26
ENDBRANCH  21  22
ENDBRANCH   1  21
TORSDOF 15
ENDMDL
MODEL 3
REMARK VINA RESULT:      -9.8      1.535      8.744
REMARK SMILES Cc1onc(-c2cccc(Br)c2)c1C(=O)NCCCCNC(=O)c1ccc(-c2c3nc(c(-c4ccc(S(=O)(=O)[O-])cc4)c4ccc([nH]4)c(-c4ccc(S(=O)(=O)[O-])cc4)c4nc(c(-c5ccc(S(=O)(=O)[O-])cc5)c5ccc2[nH]5)C=C4)C=C3)cc1
REMARK SMILES IDX 19 1 18 2 17 3 16 4 14 5 15 6 13 8 1 9 2 10 3 11 4 12 5 13
REMARK SMILES IDX 6 14 7 15 12 16 8 17 10 18 9 19 11 20 20 21 21 22 22 23
REMARK SMILES IDX 23 25 24 26 25 27 83 28 26 29 82 30 27 31 28 32 29 33 76 34
REMARK SMILES IDX 30 35 81 36 75 37 77 38 31 39 80 40 74 41 73 42 32 44 62 45
REMARK SMILES IDX 43 46 61 47 44 48 47 49 60 50 78 51 45 52 46 53 59 55 79 56
REMARK SMILES IDX 48 57 33 58 34 59 42 60 35 61 41 62 36 63 37 64 38 65 39 66
REMARK SMILES IDX 40 67 63 68 64 69 72 70 65 71 71 72 66 73 67 74 68 75 69 76
REMARK SMILES IDX 70 77 49 78 50 79 58 80 51 81 57 82 52 83 53 84 54 85 55 86
REMARK SMILES IDX 56 87
REMARK H PARENT 16 7 21 24 77 43 47 54
REMARK Flexibility Score: inf
ROOT
ATOM      1  C   UNL A   1      35.281  32.941  28.037  1.00  0.00     0.023 C 
ENDROOT
BRANCH   1   2
ATOM      2  C   UNL A   1      36.679  33.325  28.532  1.00  0.00     0.023 C 
BRANCH   2   3
ATOM      3  C   UNL A   1      37.041  32.788  29.917  1.00  0.00     0.116 C 
BRANCH   3   4
ATOM      4  N   UNL A   1      37.963  33.674  30.581  1.00  0.00    -0.352 N 
ATOM      5  C   UNL A   1      38.139  34.105  31.864  1.00  0.00     0.257 C 
ATOM      6  O   UNL A   1      39.084  34.892  31.975  1.00  0.00    -0.269 OA
ATOM      7  H   UNL A   1      38.623  34.059  29.961  1.00  0.00     0.163 HD
BRANCH   5   8
ATOM      8  C   UNL A   1      37.362  33.701  33.035  1.00  0.00     0.110 A 
ATOM      9  C   UNL A   1      35.139  35.162  33.432  1.00  0.00     0.092 C 
ATOM     10  C   UNL A   1      36.170  34.124  33.614  1.00  0.00     0.147 A 
ATOM     11  O   UNL A   1      35.883  33.341  34.690  1.00  0.00    -0.360 OA
ATOM     12  N   UNL A   1      36.870  32.426  34.896  1.00  0.00    -0.079 NA
ATOM     13  C   UNL A   1      37.783  32.647  33.943  1.00  0.00     0.126 A 
BRANCH  13  14
ATOM     14  C   UNL A   1      38.999  31.841  33.949  1.00  0.00     0.006 A 
ATOM     15  C   UNL A   1      40.182  32.339  34.515  1.00  0.00     0.010 A 
ATOM     16  C   UNL A   1      38.979  30.541  33.429  1.00  0.00     0.026 A 
ATOM     17  C   UNL A   1      41.342  31.562  34.526  1.00  0.00     0.002 A 
ATOM     18  C   UNL A   1      40.140  29.769  33.450  1.00  0.00     0.018 A 
ATOM     19  C   UNL A   1      41.321  30.274  33.990  1.00  0.00     0.016 A 
ATOM     20  Br  UNL A   1      40.111  28.016  32.740  1.00  0.00    -0.051 Br
ENDBRANCH  13  14
ENDBRANCH   5   8
ENDBRANCH   3   4
ENDBRANCH   2   3
ENDBRANCH   1   2
BRANCH   1  21
ATOM     21  C   UNL A   1      34.510  31.989  28.946  1.00  0.00     0.116 C 
BRANCH  21  22
ATOM     22  N   UNL A   1      34.052  30.784  28.271  1.00  0.00    -0.352 N 
ATOM     23  C   UNL A   1      34.795  29.691  27.889  1.00  0.00     0.251 C 
ATOM     24  H   UNL A   1      33.092  30.746  28.061  1.00  0.00     0.163 HD
ATOM     25  O   UNL A   1      34.275  28.785  27.245  1.00  0.00    -0.269 OA
BRANCH  23  26
ATOM     26  C   UNL A   1      36.232  29.648  28.224  1.00  0.00     0.039 A 
ATOM     27  C   UNL A   1      36.612  29.236  29.503  1.00  0.00     0.014 A 
ATOM     28  C   UNL A   1      37.196  29.958  27.262  1.00  0.00     0.014 A 
ATOM     29  C   UNL A   1      37.965  29.063  29.795  1.00  0.00     0.010 A 
ATOM     30  C   UNL A   1      38.539  29.723  27.535  1.00  0.00     0.010 A 
ATOM     31  C   UNL A   1      38.937  29.268  28.801  1.00  0.00    -0.014 A 
BRANCH  31  32
ATOM     32  C   UNL A   1      40.372  28.997  29.059  1.00  0.00     0.031 A 
ATOM     33  C   UNL A   1      40.961  27.659  28.706  1.00  0.00     0.074 A 
ATOM     34  C   UNL A   1      41.123  29.925  29.683  1.00  0.00     0.049 A 
ATOM     35  N   UNL A   1      42.170  27.210  28.923  1.00  0.00    -0.248 NA
ATOM     36  C   UNL A   1      40.067  26.692  28.047  1.00  0.00     0.031 C 
ATOM     37  C   UNL A   1      40.654  31.244  30.120  1.00  0.00     0.029 A 
ATOM     38  N   UNL A   1      42.440  29.900  30.067  1.00  0.00    -0.354 N 
ATOM     39  C   UNL A   1      42.176  25.903  28.448  1.00  0.00     0.074 A 
ATOM     40  C   UNL A   1      40.839  25.619  27.973  1.00  0.00     0.031 C 
ATOM     41  C   UNL A   1      41.672  31.906  30.691  1.00  0.00     0.029 A 
ATOM     42  C   UNL A   1      42.856  31.051  30.692  1.00  0.00     0.049 A 
ATOM     43  H   UNL A   1      43.031  29.129  29.909  1.00  0.00     0.167 HD
ATOM     44  C   UNL A   1      43.206  25.025  28.396  1.00  0.00     0.031 A 
ATOM     45  C   UNL A   1      44.054  31.382  31.212  1.00  0.00     0.031 A 
ATOM     46  C   UNL A   1      44.539  25.318  28.852  1.00  0.00     0.049 A 
ATOM     47  C   UNL A   1      45.186  30.398  31.128  1.00  0.00     0.074 A 
ATOM     48  C   UNL A   1      45.665  24.516  28.789  1.00  0.00     0.029 A 
ATOM     49  N   UNL A   1      44.926  26.508  29.449  1.00  0.00    -0.354 N 
ATOM     50  N   UNL A   1      45.188  29.188  30.619  1.00  0.00    -0.248 NA
ATOM     51  C   UNL A   1      46.482  30.826  31.673  1.00  0.00     0.031 C 
ATOM     52  C   UNL A   1      46.725  25.207  29.383  1.00  0.00     0.029 A 
ATOM     53  C   UNL A   1      46.270  26.457  29.773  1.00  0.00     0.049 A 
ATOM     54  H   UNL A   1      44.332  27.274  29.618  1.00  0.00     0.167 HD
ATOM     55  C   UNL A   1      46.491  28.722  30.759  1.00  0.00     0.074 A 
ATOM     56  C   UNL A   1      47.250  29.782  31.391  1.00  0.00     0.031 C 
ATOM     57  C   UNL A   1      47.011  27.525  30.395  1.00  0.00     0.031 A 
BRANCH  44  58
ATOM     58  C   UNL A   1      42.925  23.662  27.824  1.00  0.00    -0.014 A 
ATOM     59  C   UNL A   1      42.303  22.666  28.600  1.00  0.00     0.010 A 
ATOM     60  C   UNL A   1      43.261  23.380  26.489  1.00  0.00     0.010 A 
ATOM     61  C   UNL A   1      42.065  21.398  28.064  1.00  0.00     0.020 A 
ATOM     62  C   UNL A   1      43.000  22.121  25.941  1.00  0.00     0.020 A 
ATOM     63  C   UNL A   1      42.421  21.132  26.739  1.00  0.00     0.054 A 
BRANCH  63  64
ATOM     64  S   UNL A   1      42.089  19.482  26.063  1.00  0.00     0.124 S 
ATOM     65  O   UNL A   1      42.601  18.616  27.122  1.00  0.00    -0.237 OA
ATOM     66  O   UNL A   1      40.637  19.485  25.902  1.00  0.00    -0.237 OA
ATOM     67  O   UNL A   1      42.850  19.459  24.816  1.00  0.00    -0.744 OA
ENDBRANCH  63  64
ENDBRANCH  44  58
BRANCH  45  68
ATOM     68  C   UNL A   1      44.249  32.718  31.836  1.00  0.00    -0.014 A 
ATOM     69  C   UNL A   1      44.520  33.842  31.037  1.00  0.00     0.010 A 
ATOM     70  C   UNL A   1      44.147  32.877  33.230  1.00  0.00     0.010 A 
ATOM     71  C   UNL A   1      44.703  35.099  31.621  1.00  0.00     0.020 A 
ATOM     72  C   UNL A   1      44.305  34.136  33.815  1.00  0.00     0.020 A 
ATOM     73  C   UNL A   1      44.593  35.238  33.006  1.00  0.00     0.054 A 
BRANCH  73  74
ATOM     74  S   UNL A   1      44.779  36.888  33.740  1.00  0.00     0.124 S 
ATOM     75  O   UNL A   1      46.123  37.260  33.313  1.00  0.00    -0.237 OA
ATOM     76  O   UNL A   1      43.687  37.635  33.119  1.00  0.00    -0.237 OA
ATOM     77  O   UNL A   1      44.619  36.643  35.172  1.00  0.00    -0.744 OA
ENDBRANCH  73  74
ENDBRANCH  45  68
BRANCH  57  78
ATOM     78  C   UNL A   1      48.480  27.306  30.634  1.00  0.00    -0.014 A 
ATOM     79  C   UNL A   1      49.446  27.824  29.755  1.00  0.00     0.010 A 
ATOM     80  C   UNL A   1      48.898  26.626  31.793  1.00  0.00     0.010 A 
ATOM     81  C   UNL A   1      50.807  27.644  30.018  1.00  0.00     0.020 A 
ATOM     82  C   UNL A   1      50.257  26.464  32.071  1.00  0.00     0.020 A 
ATOM     83  C   UNL A   1      51.203  26.964  31.174  1.00  0.00     0.054 A 
BRANCH  83  84
ATOM     84  S   UNL A   1      52.974  26.788  31.522  1.00  0.00     0.124 S 
ATOM     85  O   UNL A   1      53.457  26.129  30.312  1.00  0.00    -0.237 OA
ATOM     86  O   UNL A   1      53.407  28.173  31.698  1.00  0.00    -0.237 OA
ATOM     87  O   UNL A   1      53.009  25.973  32.734  1.00  0.00    -0.744 OA
ENDBRANCH  83  84
ENDBRANCH  57  78
ENDBRANCH  31  32
ENDBRANCH  23  26
ENDBRANCH  21  22
ENDBRANCH   1  21
TORSDOF 15
ENDMDL
