MODEL 1
REMARK VINA RESULT:     -10.9      0.000      0.000
REMARK SMILES CC[C@H](C)[C@H](NC(=O)[C@H](C)Oc1ccc2c(C)c(C)c(=O)oc2c1C)C(=O)NCCCCNC(=O)c1ccc(-c2c3nc(c(-c4ccc(S(=O)(=O)[O-])cc4)c4ccc([nH]4)c(-c4ccc(S(=O)(=O)[O-])cc4)c4nc(c(-c5ccc(S(=O)(=O)[O-])cc5)c5ccc2[nH]5)C=C4)C=C3)cc1
REMARK SMILES IDX 30 1 29 2 28 3 26 4 27 5 5 7 3 8 4 9 2 10 1 11 6 12 7 13
REMARK SMILES IDX 8 15 9 16 10 17 11 18 12 19 13 20 24 21 14 22 23 23 25 24
REMARK SMILES IDX 15 25 22 26 16 27 20 28 17 29 18 30 21 31 19 32 31 33 32 34
REMARK SMILES IDX 33 35 34 36 35 38 36 39 37 40 95 41 38 42 94 43 39 44 40 45
REMARK SMILES IDX 41 46 88 47 42 48 93 49 87 50 89 51 43 52 92 53 86 54 85 55
REMARK SMILES IDX 44 57 74 58 55 59 73 60 56 61 59 62 72 63 90 64 57 65 58 66
REMARK SMILES IDX 71 68 91 69 60 70 45 71 46 72 54 73 47 74 53 75 48 76 49 77
REMARK SMILES IDX 50 78 51 79 52 80 75 81 76 82 84 83 77 84 83 85 78 86 79 87
REMARK SMILES IDX 80 88 81 89 82 90 61 91 62 92 70 93 63 94 69 95 64 96 65 97
REMARK SMILES IDX 66 98 67 99 68 100
REMARK H PARENT 28 6 6 14 33 37 89 56 59 67
REMARK Flexibility Score: inf
ROOT
ATOM      1  C   UNL A   1      39.198  23.149  26.526  1.00  0.00     0.023 C 
ENDROOT
BRANCH   1   2
ATOM      2  C   UNL A   1      37.992  23.869  25.930  1.00  0.00     0.116 C 
BRANCH   2   3
ATOM      3  N   UNL A   1      37.647  23.412  24.590  1.00  0.00    -0.354 N 
ATOM      4  C   UNL A   1      36.435  23.076  24.040  1.00  0.00     0.242 C 
ATOM      5  O   UNL A   1      36.379  22.952  22.812  1.00  0.00    -0.273 OA
ATOM      6  H   UNL A   1      38.412  23.331  23.976  1.00  0.00     0.163 HD
BRANCH   4   7
ATOM      7  C   UNL A   1      35.145  22.947  24.900  1.00  0.00     0.174 C 
BRANCH   7   8
ATOM      8  C   UNL A   1      35.178  21.614  25.730  1.00  0.00     0.018 C 
ATOM      9  C   UNL A   1      34.321  21.610  27.014  1.00  0.00     0.010 C 
BRANCH   8  10
ATOM     10  C   UNL A   1      34.732  20.394  24.915  1.00  0.00     0.002 C 
ATOM     11  C   UNL A   1      33.414  19.812  25.373  1.00  0.00     0.004 C 
ENDBRANCH   8  10
ENDBRANCH   7   8
BRANCH   7  12
ATOM     12  N   UNL A   1      33.983  22.979  23.983  1.00  0.00    -0.341 N 
ATOM     13  C   UNL A   1      32.665  23.251  23.954  1.00  0.00     0.261 C 
ATOM     14  H   UNL A   1      34.276  22.707  23.083  1.00  0.00     0.164 HD
ATOM     15  O   UNL A   1      32.172  23.030  22.830  1.00  0.00    -0.271 OA
BRANCH  13  16
ATOM     16  C   UNL A   1      31.728  23.867  25.045  1.00  0.00     0.258 C 
ATOM     17  C   UNL A   1      30.836  22.793  25.668  1.00  0.00     0.064 C 
BRANCH  16  18
ATOM     18  O   UNL A   1      31.218  25.194  25.111  1.00  0.00    -0.480 OA
BRANCH  18  19
ATOM     19  C   UNL A   1      32.043  26.255  25.295  1.00  0.00     0.127 A 
ATOM     20  C   UNL A   1      33.349  26.123  25.750  1.00  0.00     0.047 A 
ATOM     21  C   UNL A   1      31.556  27.525  24.956  1.00  0.00     0.035 A 
ATOM     22  C   UNL A   1      34.088  27.244  26.115  1.00  0.00     0.016 A 
ATOM     23  C   UNL A   1      32.272  28.634  25.433  1.00  0.00     0.145 A 
ATOM     24  C   UNL A   1      30.287  27.718  24.170  1.00  0.00     0.052 C 
ATOM     25  C   UNL A   1      33.502  28.509  26.074  1.00  0.00     0.021 A 
ATOM     26  O   UNL A   1      31.627  29.883  25.384  1.00  0.00    -0.422 OA
ATOM     27  C   UNL A   1      34.044  29.645  26.833  1.00  0.00    -0.030 A 
ATOM     28  C   UNL A   1      31.952  30.865  26.305  1.00  0.00     0.339 A 
ATOM     29  C   UNL A   1      35.391  29.473  27.487  1.00  0.00     0.045 C 
ATOM     30  C   UNL A   1      33.247  30.715  27.029  1.00  0.00     0.038 A 
ATOM     31  O   UNL A   1      31.217  31.831  26.478  1.00  0.00    -0.246 OA
ATOM     32  C   UNL A   1      33.563  31.788  28.033  1.00  0.00     0.052 C 
ENDBRANCH  18  19
ENDBRANCH  16  18
ENDBRANCH  13  16
ENDBRANCH   7  12
ENDBRANCH   4   7
ENDBRANCH   2   3
ENDBRANCH   1   2
BRANCH   1  33
ATOM     33  C   UNL A   1      39.343  21.684  26.117  1.00  0.00     0.023 C 
BRANCH  33  34
ATOM     34  C   UNL A   1      40.195  20.835  27.055  1.00  0.00     0.116 C 
BRANCH  34  35
ATOM     35  N   UNL A   1      41.066  19.919  26.332  1.00  0.00    -0.352 N 
ATOM     36  C   UNL A   1      42.290  20.179  25.758  1.00  0.00     0.251 C 
ATOM     37  H   UNL A   1      40.737  18.996  26.243  1.00  0.00     0.163 HD
ATOM     38  O   UNL A   1      42.831  19.364  25.032  1.00  0.00    -0.269 OA
BRANCH  36  39
ATOM     39  C   UNL A   1      42.921  21.482  26.038  1.00  0.00     0.039 A 
ATOM     40  C   UNL A   1      42.854  22.494  25.079  1.00  0.00     0.014 A 
ATOM     41  C   UNL A   1      43.518  21.703  27.283  1.00  0.00     0.014 A 
ATOM     42  C   UNL A   1      43.347  23.761  25.393  1.00  0.00     0.010 A 
ATOM     43  C   UNL A   1      43.958  22.979  27.611  1.00  0.00     0.010 A 
ATOM     44  C   UNL A   1      43.882  24.015  26.666  1.00  0.00    -0.014 A 
BRANCH  44  45
ATOM     45  C   UNL A   1      44.446  25.338  27.014  1.00  0.00     0.031 A 
ATOM     46  C   UNL A   1      43.556  26.353  27.676  1.00  0.00     0.074 A 
ATOM     47  C   UNL A   1      45.723  25.639  26.709  1.00  0.00     0.049 A 
ATOM     48  N   UNL A   1      43.810  27.600  27.972  1.00  0.00    -0.248 NA
ATOM     49  C   UNL A   1      42.198  25.910  28.038  1.00  0.00     0.031 C 
ATOM     50  C   UNL A   1      46.686  24.732  26.080  1.00  0.00     0.029 A 
ATOM     51  N   UNL A   1      46.432  26.800  26.893  1.00  0.00    -0.354 N 
ATOM     52  C   UNL A   1      42.646  28.090  28.550  1.00  0.00     0.074 A 
ATOM     53  C   UNL A   1      41.670  27.024  28.526  1.00  0.00     0.031 C 
ATOM     54  C   UNL A   1      47.868  25.361  25.960  1.00  0.00     0.029 A 
ATOM     55  C   UNL A   1      47.736  26.725  26.465  1.00  0.00     0.049 A 
ATOM     56  H   UNL A   1      46.042  27.610  27.295  1.00  0.00     0.167 HD
ATOM     57  C   UNL A   1      42.419  29.314  29.076  1.00  0.00     0.031 A 
ATOM     58  C   UNL A   1      48.710  27.656  26.477  1.00  0.00     0.031 A 
ATOM     59  C   UNL A   1      43.394  30.366  29.121  1.00  0.00     0.049 A 
ATOM     60  C   UNL A   1      48.409  29.028  27.018  1.00  0.00     0.074 A 
ATOM     61  C   UNL A   1      43.258  31.638  29.649  1.00  0.00     0.029 A 
ATOM     62  N   UNL A   1      44.688  30.264  28.639  1.00  0.00    -0.354 N 
ATOM     63  N   UNL A   1      47.295  29.479  27.543  1.00  0.00    -0.248 NA
ATOM     64  C   UNL A   1      49.497  30.016  26.963  1.00  0.00     0.031 C 
ATOM     65  C   UNL A   1      44.464  32.318  29.456  1.00  0.00     0.029 A 
ATOM     66  C   UNL A   1      45.360  31.455  28.847  1.00  0.00     0.049 A 
ATOM     67  H   UNL A   1      45.072  29.465  28.211  1.00  0.00     0.167 HD
ATOM     68  C   UNL A   1      47.556  30.797  27.902  1.00  0.00     0.074 A 
ATOM     69  C   UNL A   1      48.932  31.067  27.543  1.00  0.00     0.031 C 
ATOM     70  C   UNL A   1      46.730  31.702  28.480  1.00  0.00     0.031 A 
BRANCH  57  71
ATOM     71  C   UNL A   1      41.066  29.581  29.670  1.00  0.00    -0.014 A 
ATOM     72  C   UNL A   1      40.864  29.469  31.056  1.00  0.00     0.010 A 
ATOM     73  C   UNL A   1      40.020  30.043  28.852  1.00  0.00     0.010 A 
ATOM     74  C   UNL A   1      39.636  29.822  31.618  1.00  0.00     0.020 A 
ATOM     75  C   UNL A   1      38.795  30.413  29.413  1.00  0.00     0.020 A 
ATOM     76  C   UNL A   1      38.614  30.305  30.794  1.00  0.00     0.054 A 
BRANCH  76  77
ATOM     77  S   UNL A   1      37.059  30.827  31.568  1.00  0.00     0.124 S 
ATOM     78  O   UNL A   1      37.523  31.398  32.831  1.00  0.00    -0.237 OA
ATOM     79  O   UNL A   1      36.535  31.785  30.599  1.00  0.00    -0.237 OA
ATOM     80  O   UNL A   1      36.299  29.586  31.693  1.00  0.00    -0.744 OA
ENDBRANCH  76  77
ENDBRANCH  57  71
BRANCH  58  81
ATOM     81  C   UNL A   1      50.073  27.324  25.984  1.00  0.00    -0.014 A 
ATOM     82  C   UNL A   1      50.374  27.445  24.615  1.00  0.00     0.010 A 
ATOM     83  C   UNL A   1      51.070  26.875  26.867  1.00  0.00     0.010 A 
ATOM     84  C   UNL A   1      51.645  27.112  24.137  1.00  0.00     0.020 A 
ATOM     85  C   UNL A   1      52.349  26.560  26.396  1.00  0.00     0.020 A 
ATOM     86  C   UNL A   1      52.625  26.677  25.032  1.00  0.00     0.054 A 
BRANCH  86  87
ATOM     87  S   UNL A   1      54.272  26.276  24.384  1.00  0.00     0.124 S 
ATOM     88  O   UNL A   1      54.088  26.447  22.947  1.00  0.00    -0.237 OA
ATOM     89  O   UNL A   1      55.111  27.276  25.039  1.00  0.00    -0.237 OA
ATOM     90  O   UNL A   1      54.491  24.900  24.827  1.00  0.00    -0.744 OA
ENDBRANCH  86  87
ENDBRANCH  58  81
BRANCH  70  91
ATOM     91  C   UNL A   1      47.291  33.061  28.785  1.00  0.00    -0.014 A 
ATOM     92  C   UNL A   1      47.953  33.312  29.999  1.00  0.00     0.010 A 
ATOM     93  C   UNL A   1      47.223  34.075  27.812  1.00  0.00     0.010 A 
ATOM     94  C   UNL A   1      48.519  34.565  30.243  1.00  0.00     0.020 A 
ATOM     95  C   UNL A   1      47.809  35.321  28.044  1.00  0.00     0.020 A 
ATOM     96  C   UNL A   1      48.449  35.560  29.262  1.00  0.00     0.054 A 
BRANCH  96  97
ATOM     97  S   UNL A   1      49.224  37.163  29.599  1.00  0.00     0.124 S 
ATOM     98  O   UNL A   1      49.565  37.048  31.016  1.00  0.00    -0.237 OA
ATOM     99  O   UNL A   1      50.356  37.165  28.678  1.00  0.00    -0.237 OA
ATOM    100  O   UNL A   1      48.173  38.131  29.293  1.00  0.00    -0.744 OA
ENDBRANCH  96  97
ENDBRANCH  70  91
ENDBRANCH  44  45
ENDBRANCH  36  39
ENDBRANCH  34  35
ENDBRANCH  33  34
ENDBRANCH   1  33
TORSDOF 20
ENDMDL
MODEL 2
REMARK VINA RESULT:     -10.4      0.788      7.835
REMARK SMILES CC[C@H](C)[C@H](NC(=O)[C@H](C)Oc1ccc2c(C)c(C)c(=O)oc2c1C)C(=O)NCCCCNC(=O)c1ccc(-c2c3nc(c(-c4ccc(S(=O)(=O)[O-])cc4)c4ccc([nH]4)c(-c4ccc(S(=O)(=O)[O-])cc4)c4nc(c(-c5ccc(S(=O)(=O)[O-])cc5)c5ccc2[nH]5)C=C4)C=C3)cc1
REMARK SMILES IDX 30 1 29 2 28 3 26 4 27 5 5 7 3 8 4 9 2 10 1 11 6 12 7 13
REMARK SMILES IDX 8 15 9 16 10 17 11 18 12 19 13 20 24 21 14 22 23 23 25 24
REMARK SMILES IDX 15 25 22 26 16 27 20 28 17 29 18 30 21 31 19 32 31 33 32 34
REMARK SMILES IDX 33 35 34 36 35 38 36 39 37 40 95 41 38 42 94 43 39 44 40 45
REMARK SMILES IDX 41 46 88 47 42 48 93 49 87 50 89 51 43 52 92 53 86 54 85 55
REMARK SMILES IDX 44 57 74 58 55 59 73 60 56 61 59 62 72 63 90 64 57 65 58 66
REMARK SMILES IDX 71 68 91 69 60 70 45 71 46 72 54 73 47 74 53 75 48 76 49 77
REMARK SMILES IDX 50 78 51 79 52 80 75 81 76 82 84 83 77 84 83 85 78 86 79 87
REMARK SMILES IDX 80 88 81 89 82 90 61 91 62 92 70 93 63 94 69 95 64 96 65 97
REMARK SMILES IDX 66 98 67 99 68 100
REMARK H PARENT 28 6 6 14 33 37 89 56 59 67
REMARK Flexibility Score: inf
ROOT
ATOM      1  C   UNL A   1      39.185  22.889  26.727  1.00  0.00     0.023 C 
ENDROOT
BRANCH   1   2
ATOM      2  C   UNL A   1      38.082  23.671  26.020  1.00  0.00     0.116 C 
BRANCH   2   3
ATOM      3  N   UNL A   1      37.776  23.167  24.688  1.00  0.00    -0.354 N 
ATOM      4  C   UNL A   1      36.609  23.192  23.964  1.00  0.00     0.242 C 
ATOM      5  O   UNL A   1      36.677  22.913  22.762  1.00  0.00    -0.273 OA
ATOM      6  H   UNL A   1      38.533  22.737  24.229  1.00  0.00     0.163 HD
BRANCH   4   7
ATOM      7  C   UNL A   1      35.259  23.645  24.589  1.00  0.00     0.174 C 
BRANCH   7   8
ATOM      8  C   UNL A   1      34.625  22.471  25.418  1.00  0.00     0.018 C 
ATOM      9  C   UNL A   1      35.395  21.135  25.373  1.00  0.00     0.010 C 
BRANCH   8  10
ATOM     10  C   UNL A   1      34.456  22.816  26.903  1.00  0.00     0.002 C 
ATOM     11  C   UNL A   1      33.024  22.730  27.383  1.00  0.00     0.004 C 
ENDBRANCH   8  10
ENDBRANCH   7   8
BRANCH   7  12
ATOM     12  N   UNL A   1      34.367  24.066  23.485  1.00  0.00    -0.341 N 
ATOM     13  C   UNL A   1      33.065  24.203  23.171  1.00  0.00     0.261 C 
ATOM     14  H   UNL A   1      34.915  24.340  22.715  1.00  0.00     0.164 HD
ATOM     15  O   UNL A   1      32.912  24.575  21.991  1.00  0.00    -0.271 OA
BRANCH  13  16
ATOM     16  C   UNL A   1      31.783  24.063  24.056  1.00  0.00     0.258 C 
ATOM     17  C   UNL A   1      30.697  23.274  23.325  1.00  0.00     0.064 C 
BRANCH  16  18
ATOM     18  O   UNL A   1      31.314  24.955  25.061  1.00  0.00    -0.480 OA
BRANCH  18  19
ATOM     19  C   UNL A   1      31.850  26.192  25.209  1.00  0.00     0.127 A 
ATOM     20  C   UNL A   1      32.935  26.449  26.037  1.00  0.00     0.047 A 
ATOM     21  C   UNL A   1      31.304  27.233  24.445  1.00  0.00     0.035 A 
ATOM     22  C   UNL A   1      33.322  27.756  26.312  1.00  0.00     0.016 A 
ATOM     23  C   UNL A   1      31.634  28.545  24.820  1.00  0.00     0.145 A 
ATOM     24  C   UNL A   1      30.352  26.984  23.306  1.00  0.00     0.052 C 
ATOM     25  C   UNL A   1      32.587  28.824  25.797  1.00  0.00     0.021 A 
ATOM     26  O   UNL A   1      30.850  29.582  24.285  1.00  0.00    -0.422 OA
ATOM     27  C   UNL A   1      32.658  30.172  26.379  1.00  0.00    -0.030 A 
ATOM     28  C   UNL A   1      30.690  30.763  24.992  1.00  0.00     0.339 A 
ATOM     29  C   UNL A   1      33.723  30.435  27.412  1.00  0.00     0.045 C 
ATOM     30  C   UNL A   1      31.680  31.048  26.070  1.00  0.00     0.038 A 
ATOM     31  O   UNL A   1      29.794  31.549  24.706  1.00  0.00    -0.246 OA
ATOM     32  C   UNL A   1      31.470  32.329  26.829  1.00  0.00     0.052 C 
ENDBRANCH  18  19
ENDBRANCH  16  18
ENDBRANCH  13  16
ENDBRANCH   7  12
ENDBRANCH   4   7
ENDBRANCH   2   3
ENDBRANCH   1   2
BRANCH   1  33
ATOM     33  C   UNL A   1      39.614  21.601  26.027  1.00  0.00     0.023 C 
BRANCH  33  34
ATOM     34  C   UNL A   1      40.083  20.488  26.959  1.00  0.00     0.116 C 
BRANCH  34  35
ATOM     35  N   UNL A   1      41.054  19.608  26.324  1.00  0.00    -0.352 N 
ATOM     36  C   UNL A   1      42.293  19.930  25.818  1.00  0.00     0.251 C 
ATOM     37  H   UNL A   1      40.791  18.663  26.247  1.00  0.00     0.163 HD
ATOM     38  O   UNL A   1      42.930  19.131  25.156  1.00  0.00    -0.269 OA
BRANCH  36  39
ATOM     39  C   UNL A   1      42.822  21.279  26.091  1.00  0.00     0.039 A 
ATOM     40  C   UNL A   1      42.914  22.202  25.048  1.00  0.00     0.014 A 
ATOM     41  C   UNL A   1      43.160  21.633  27.401  1.00  0.00     0.014 A 
ATOM     42  C   UNL A   1      43.300  23.512  25.331  1.00  0.00     0.010 A 
ATOM     43  C   UNL A   1      43.492  22.951  27.687  1.00  0.00     0.010 A 
ATOM     44  C   UNL A   1      43.571  23.898  26.653  1.00  0.00    -0.014 A 
BRANCH  44  45
ATOM     45  C   UNL A   1      44.020  25.270  26.978  1.00  0.00     0.031 A 
ATOM     46  C   UNL A   1      45.438  25.661  26.666  1.00  0.00     0.074 A 
ATOM     47  C   UNL A   1      43.184  26.139  27.578  1.00  0.00     0.049 A 
ATOM     48  N   UNL A   1      46.069  26.767  26.957  1.00  0.00    -0.248 NA
ATOM     49  C   UNL A   1      46.256  24.671  25.942  1.00  0.00     0.031 C 
ATOM     50  C   UNL A   1      41.784  25.880  27.918  1.00  0.00     0.029 A 
ATOM     51  N   UNL A   1      43.396  27.426  28.006  1.00  0.00    -0.354 N 
ATOM     52  C   UNL A   1      47.355  26.604  26.458  1.00  0.00     0.074 A 
ATOM     53  C   UNL A   1      47.431  25.280  25.884  1.00  0.00     0.031 C 
ATOM     54  C   UNL A   1      41.254  26.983  28.473  1.00  0.00     0.029 A 
ATOM     55  C   UNL A   1      42.286  28.013  28.565  1.00  0.00     0.049 A 
ATOM     56  H   UNL A   1      44.263  27.885  27.920  1.00  0.00     0.167 HD
ATOM     57  C   UNL A   1      48.375  27.491  26.459  1.00  0.00     0.031 A 
ATOM     58  C   UNL A   1      42.124  29.242  29.093  1.00  0.00     0.031 A 
ATOM     59  C   UNL A   1      48.294  28.814  27.008  1.00  0.00     0.049 A 
ATOM     60  C   UNL A   1      43.296  30.186  29.131  1.00  0.00     0.074 A 
ATOM     61  C   UNL A   1      49.274  29.790  27.041  1.00  0.00     0.029 A 
ATOM     62  N   UNL A   1      47.166  29.354  27.602  1.00  0.00    -0.354 N 
ATOM     63  N   UNL A   1      44.511  30.007  28.671  1.00  0.00    -0.248 NA
ATOM     64  C   UNL A   1      43.073  31.496  29.761  1.00  0.00     0.031 C 
ATOM     65  C   UNL A   1      48.747  30.912  27.686  1.00  0.00     0.029 A 
ATOM     66  C   UNL A   1      47.428  30.648  28.015  1.00  0.00     0.049 A 
ATOM     67  H   UNL A   1      46.306  28.887  27.715  1.00  0.00     0.167 HD
ATOM     68  C   UNL A   1      45.191  31.190  28.936  1.00  0.00     0.074 A 
ATOM     69  C   UNL A   1      44.252  32.080  29.587  1.00  0.00     0.031 C 
ATOM     70  C   UNL A   1      46.478  31.513  28.663  1.00  0.00     0.031 A 
BRANCH  57  71
ATOM     71  C   UNL A   1      49.669  27.070  25.823  1.00  0.00    -0.014 A 
ATOM     72  C   UNL A   1      49.901  27.309  24.458  1.00  0.00     0.010 A 
ATOM     73  C   UNL A   1      50.695  26.526  26.616  1.00  0.00     0.010 A 
ATOM     74  C   UNL A   1      51.143  27.015  23.894  1.00  0.00     0.020 A 
ATOM     75  C   UNL A   1      51.945  26.247  26.059  1.00  0.00     0.020 A 
ATOM     76  C   UNL A   1      52.162  26.499  24.702  1.00  0.00     0.054 A 
BRANCH  76  77
ATOM     77  S   UNL A   1      53.787  26.202  23.953  1.00  0.00     0.124 S 
ATOM     78  O   UNL A   1      53.466  26.171  22.528  1.00  0.00    -0.237 OA
ATOM     79  O   UNL A   1      54.552  27.363  24.400  1.00  0.00    -0.237 OA
ATOM     80  O   UNL A   1      54.204  24.923  24.522  1.00  0.00    -0.744 OA
ENDBRANCH  76  77
ENDBRANCH  57  71
BRANCH  58  81
ATOM     81  C   UNL A   1      40.798  29.668  29.613  1.00  0.00    -0.014 A 
ATOM     82  C   UNL A   1      39.786  30.064  28.720  1.00  0.00     0.010 A 
ATOM     83  C   UNL A   1      40.539  29.691  30.995  1.00  0.00     0.010 A 
ATOM     84  C   UNL A   1      38.544  30.489  29.199  1.00  0.00     0.020 A 
ATOM     85  C   UNL A   1      39.291  30.097  31.477  1.00  0.00     0.020 A 
ATOM     86  C   UNL A   1      38.303  30.498  30.575  1.00  0.00     0.054 A 
BRANCH  86  87
ATOM     87  S   UNL A   1      36.672  31.031  31.165  1.00  0.00     0.124 S 
ATOM     88  O   UNL A   1      36.153  29.813  31.779  1.00  0.00    -0.237 OA
ATOM     89  O   UNL A   1      37.017  32.108  32.089  1.00  0.00    -0.237 OA
ATOM     90  O   UNL A   1      35.987  31.458  29.947  1.00  0.00    -0.744 OA
ENDBRANCH  86  87
ENDBRANCH  58  81
BRANCH  70  91
ATOM     91  C   UNL A   1      46.946  32.890  29.042  1.00  0.00    -0.014 A 
ATOM     92  C   UNL A   1      47.564  33.124  30.282  1.00  0.00     0.010 A 
ATOM     93  C   UNL A   1      46.836  33.941  28.115  1.00  0.00     0.010 A 
ATOM     94  C   UNL A   1      48.045  34.397  30.597  1.00  0.00     0.020 A 
ATOM     95  C   UNL A   1      47.337  35.209  28.417  1.00  0.00     0.020 A 
ATOM     96  C   UNL A   1      47.934  35.430  29.660  1.00  0.00     0.054 A 
BRANCH  96  97
ATOM     97  S   UNL A   1      48.599  37.061  30.088  1.00  0.00     0.124 S 
ATOM     98  O   UNL A   1      50.032  36.792  30.189  1.00  0.00    -0.237 OA
ATOM     99  O   UNL A   1      48.191  37.876  28.948  1.00  0.00    -0.237 OA
ATOM    100  O   UNL A   1      47.940  37.387  31.351  1.00  0.00    -0.744 OA
ENDBRANCH  96  97
ENDBRANCH  70  91
ENDBRANCH  44  45
ENDBRANCH  36  39
ENDBRANCH  34  35
ENDBRANCH  33  34
ENDBRANCH   1  33
TORSDOF 20
ENDMDL
MODEL 3
REMARK VINA RESULT:     -10.4      5.765      8.306
REMARK SMILES CC[C@H](C)[C@H](NC(=O)[C@H](C)Oc1ccc2c(C)c(C)c(=O)oc2c1C)C(=O)NCCCCNC(=O)c1ccc(-c2c3nc(c(-c4ccc(S(=O)(=O)[O-])cc4)c4ccc([nH]4)c(-c4ccc(S(=O)(=O)[O-])cc4)c4nc(c(-c5ccc(S(=O)(=O)[O-])cc5)c5ccc2[nH]5)C=C4)C=C3)cc1
REMARK SMILES IDX 30 1 29 2 28 3 26 4 27 5 5 7 3 8 4 9 2 10 1 11 6 12 7 13
REMARK SMILES IDX 8 15 9 16 10 17 11 18 12 19 13 20 24 21 14 22 23 23 25 24
REMARK SMILES IDX 15 25 22 26 16 27 20 28 17 29 18 30 21 31 19 32 31 33 32 34
REMARK SMILES IDX 33 35 34 36 35 38 36 39 37 40 95 41 38 42 94 43 39 44 40 45
REMARK SMILES IDX 41 46 88 47 42 48 93 49 87 50 89 51 43 52 92 53 86 54 85 55
REMARK SMILES IDX 44 57 74 58 55 59 73 60 56 61 59 62 72 63 90 64 57 65 58 66
REMARK SMILES IDX 71 68 91 69 60 70 45 71 46 72 54 73 47 74 53 75 48 76 49 77
REMARK SMILES IDX 50 78 51 79 52 80 75 81 76 82 84 83 77 84 83 85 78 86 79 87
REMARK SMILES IDX 80 88 81 89 82 90 61 91 62 92 70 93 63 94 69 95 64 96 65 97
REMARK SMILES IDX 66 98 67 99 68 100
REMARK H PARENT 28 6 6 14 33 37 89 56 59 67
REMARK Flexibility Score: inf
ROOT
ATOM      1  C   UNL A   1      38.939  24.057  27.201  1.00  0.00     0.023 C 
ENDROOT
BRANCH   1   2
ATOM      2  C   UNL A   1      37.613  23.926  26.459  1.00  0.00     0.116 C 
BRANCH   2   3
ATOM      3  N   UNL A   1      37.766  23.551  25.059  1.00  0.00    -0.354 N 
ATOM      4  C   UNL A   1      36.831  23.208  24.113  1.00  0.00     0.242 C 
ATOM      5  O   UNL A   1      37.199  23.169  22.934  1.00  0.00    -0.273 OA
ATOM      6  H   UNL A   1      38.696  23.543  24.737  1.00  0.00     0.163 HD
BRANCH   4   7
ATOM      7  C   UNL A   1      35.338  22.969  24.477  1.00  0.00     0.174 C 
BRANCH   7   8
ATOM      8  C   UNL A   1      35.081  21.441  24.734  1.00  0.00     0.018 C 
ATOM      9  C   UNL A   1      36.337  20.600  25.047  1.00  0.00     0.010 C 
BRANCH   8  10
ATOM     10  C   UNL A   1      34.100  21.188  25.886  1.00  0.00     0.002 C 
ATOM     11  C   UNL A   1      34.420  21.979  27.134  1.00  0.00     0.004 C 
ENDBRANCH   8  10
ENDBRANCH   7   8
BRANCH   7  12
ATOM     12  N   UNL A   1      34.512  23.471  23.355  1.00  0.00    -0.341 N 
ATOM     13  C   UNL A   1      33.321  23.291  22.755  1.00  0.00     0.261 C 
ATOM     14  H   UNL A   1      35.005  24.182  22.885  1.00  0.00     0.164 HD
ATOM     15  O   UNL A   1      33.195  24.018  21.750  1.00  0.00    -0.271 OA
BRANCH  13  16
ATOM     16  C   UNL A   1      32.093  22.414  23.170  1.00  0.00     0.258 C 
ATOM     17  C   UNL A   1      31.809  21.340  22.121  1.00  0.00     0.064 C 
BRANCH  16  18
ATOM     18  O   UNL A   1      30.978  22.795  23.968  1.00  0.00    -0.480 OA
BRANCH  18  19
ATOM     19  C   UNL A   1      30.681  24.101  24.183  1.00  0.00     0.127 A 
ATOM     20  C   UNL A   1      30.160  24.927  23.194  1.00  0.00     0.047 A 
ATOM     21  C   UNL A   1      30.864  24.606  25.478  1.00  0.00     0.035 A 
ATOM     22  C   UNL A   1      30.061  26.299  23.399  1.00  0.00     0.016 A 
ATOM     23  C   UNL A   1      30.863  26.002  25.627  1.00  0.00     0.145 A 
ATOM     24  C   UNL A   1      31.117  23.713  26.663  1.00  0.00     0.052 C 
ATOM     25  C   UNL A   1      30.532  26.863  24.584  1.00  0.00     0.021 A 
ATOM     26  O   UNL A   1      31.365  26.518  26.835  1.00  0.00    -0.422 OA
ATOM     27  C   UNL A   1      30.860  28.292  24.692  1.00  0.00    -0.030 A 
ATOM     28  C   UNL A   1      31.941  27.778  26.862  1.00  0.00     0.339 A 
ATOM     29  C   UNL A   1      30.458  29.192  23.551  1.00  0.00     0.045 C 
ATOM     30  C   UNL A   1      31.628  28.691  25.726  1.00  0.00     0.038 A 
ATOM     31  O   UNL A   1      32.642  28.127  27.805  1.00  0.00    -0.246 OA
ATOM     32  C   UNL A   1      32.281  30.044  25.776  1.00  0.00     0.052 C 
ENDBRANCH  18  19
ENDBRANCH  16  18
ENDBRANCH  13  16
ENDBRANCH   7  12
ENDBRANCH   4   7
ENDBRANCH   2   3
ENDBRANCH   1   2
BRANCH   1  33
ATOM     33  C   UNL A   1      40.089  23.235  26.621  1.00  0.00     0.023 C 
BRANCH  33  34
ATOM     34  C   UNL A   1      41.484  23.740  26.975  1.00  0.00     0.116 C 
BRANCH  34  35
ATOM     35  N   UNL A   1      42.080  24.516  25.897  1.00  0.00    -0.352 N 
ATOM     36  C   UNL A   1      42.224  25.882  25.808  1.00  0.00     0.251 C 
ATOM     37  H   UNL A   1      42.425  23.997  25.135  1.00  0.00     0.163 HD
ATOM     38  O   UNL A   1      42.583  26.411  24.771  1.00  0.00    -0.269 OA
BRANCH  36  39
ATOM     39  C   UNL A   1      41.916  26.689  27.003  1.00  0.00     0.039 A 
ATOM     40  C   UNL A   1      40.722  26.465  27.690  1.00  0.00     0.014 A 
ATOM     41  C   UNL A   1      42.854  27.617  27.466  1.00  0.00     0.014 A 
ATOM     42  C   UNL A   1      40.488  27.143  28.886  1.00  0.00     0.010 A 
ATOM     43  C   UNL A   1      42.642  28.250  28.684  1.00  0.00     0.010 A 
ATOM     44  C   UNL A   1      41.455  28.023  29.399  1.00  0.00    -0.014 A 
BRANCH  44  45
ATOM     45  C   UNL A   1      41.219  28.786  30.645  1.00  0.00     0.031 A 
ATOM     46  C   UNL A   1      40.120  29.811  30.669  1.00  0.00     0.074 A 
ATOM     47  C   UNL A   1      41.999  28.590  31.725  1.00  0.00     0.049 A 
ATOM     48  N   UNL A   1      39.807  30.660  31.611  1.00  0.00    -0.248 NA
ATOM     49  C   UNL A   1      39.271  29.903  29.467  1.00  0.00     0.031 C 
ATOM     50  C   UNL A   1      43.086  27.614  31.827  1.00  0.00     0.029 A 
ATOM     51  N   UNL A   1      41.992  29.207  32.951  1.00  0.00    -0.354 N 
ATOM     52  C   UNL A   1      38.731  31.387  31.117  1.00  0.00     0.074 A 
ATOM     53  C   UNL A   1      38.470  30.913  29.777  1.00  0.00     0.031 C 
ATOM     54  C   UNL A   1      43.619  27.677  33.059  1.00  0.00     0.029 A 
ATOM     55  C   UNL A   1      42.940  28.722  33.820  1.00  0.00     0.049 A 
ATOM     56  H   UNL A   1      41.364  29.928  33.187  1.00  0.00     0.167 HD
ATOM     57  C   UNL A   1      38.011  32.348  31.735  1.00  0.00     0.031 A 
ATOM     58  C   UNL A   1      43.229  29.086  35.085  1.00  0.00     0.031 A 
ATOM     59  C   UNL A   1      38.255  32.803  33.075  1.00  0.00     0.049 A 
ATOM     60  C   UNL A   1      42.445  30.200  35.726  1.00  0.00     0.074 A 
ATOM     61  C   UNL A   1      37.566  33.765  33.792  1.00  0.00     0.029 A 
ATOM     62  N   UNL A   1      39.251  32.318  33.904  1.00  0.00    -0.354 N 
ATOM     63  N   UNL A   1      41.444  30.889  35.235  1.00  0.00    -0.248 NA
ATOM     64  C   UNL A   1      42.835  30.585  37.091  1.00  0.00     0.031 C 
ATOM     65  C   UNL A   1      38.168  33.884  35.047  1.00  0.00     0.029 A 
ATOM     66  C   UNL A   1      39.203  32.967  35.124  1.00  0.00     0.049 A 
ATOM     67  H   UNL A   1      39.899  31.615  33.662  1.00  0.00     0.167 HD
ATOM     68  C   UNL A   1      41.068  31.774  36.240  1.00  0.00     0.074 A 
ATOM     69  C   UNL A   1      41.943  31.528  37.367  1.00  0.00     0.031 C 
ATOM     70  C   UNL A   1      40.085  32.706  36.231  1.00  0.00     0.031 A 
BRANCH  57  71
ATOM     71  C   UNL A   1      36.869  32.962  30.980  1.00  0.00    -0.014 A 
ATOM     72  C   UNL A   1      37.112  33.903  29.964  1.00  0.00     0.010 A 
ATOM     73  C   UNL A   1      35.554  32.523  31.216  1.00  0.00     0.010 A 
ATOM     74  C   UNL A   1      36.058  34.391  29.191  1.00  0.00     0.020 A 
ATOM     75  C   UNL A   1      34.499  32.996  30.433  1.00  0.00     0.020 A 
ATOM     76  C   UNL A   1      34.760  33.924  29.422  1.00  0.00     0.054 A 
BRANCH  76  77
ATOM     77  S   UNL A   1      33.426  34.522  28.347  1.00  0.00     0.124 S 
ATOM     78  O   UNL A   1      32.507  35.125  29.308  1.00  0.00    -0.237 OA
ATOM     79  O   UNL A   1      34.127  35.459  27.473  1.00  0.00    -0.237 OA
ATOM     80  O   UNL A   1      32.934  33.310  27.696  1.00  0.00    -0.744 OA
ENDBRANCH  76  77
ENDBRANCH  57  71
BRANCH  58  81
ATOM     81  C   UNL A   1      44.294  28.380  35.845  1.00  0.00    -0.014 A 
ATOM     82  C   UNL A   1      43.974  27.250  36.619  1.00  0.00     0.010 A 
ATOM     83  C   UNL A   1      45.625  28.833  35.812  1.00  0.00     0.010 A 
ATOM     84  C   UNL A   1      44.963  26.594  37.357  1.00  0.00     0.020 A 
ATOM     85  C   UNL A   1      46.620  28.167  36.533  1.00  0.00     0.020 A 
ATOM     86  C   UNL A   1      46.281  27.054  37.305  1.00  0.00     0.054 A 
BRANCH  86  87
ATOM     87  S   UNL A   1      47.546  26.166  38.254  1.00  0.00     0.124 S 
ATOM     88  O   UNL A   1      48.777  26.573  37.584  1.00  0.00    -0.237 OA
ATOM     89  O   UNL A   1      47.352  26.700  39.600  1.00  0.00    -0.237 OA
ATOM     90  O   UNL A   1      47.180  24.761  38.088  1.00  0.00    -0.744 OA
ENDBRANCH  86  87
ENDBRANCH  58  81
BRANCH  70  91
ATOM     91  C   UNL A   1      39.882  33.515  37.480  1.00  0.00    -0.014 A 
ATOM     92  C   UNL A   1      40.552  34.738  37.664  1.00  0.00     0.010 A 
ATOM     93  C   UNL A   1      38.952  33.085  38.443  1.00  0.00     0.010 A 
ATOM     94  C   UNL A   1      40.309  35.506  38.804  1.00  0.00     0.020 A 
ATOM     95  C   UNL A   1      38.689  33.863  39.573  1.00  0.00     0.020 A 
ATOM     96  C   UNL A   1      39.375  35.066  39.749  1.00  0.00     0.054 A 
BRANCH  96  97
ATOM     97  S   UNL A   1      39.060  36.105  41.201  1.00  0.00     0.124 S 
ATOM     98  O   UNL A   1      37.839  35.513  41.743  1.00  0.00    -0.237 OA
ATOM     99  O   UNL A   1      40.265  35.902  41.999  1.00  0.00    -0.237 OA
ATOM    100  O   UNL A   1      38.903  37.447  40.644  1.00  0.00    -0.744 OA
ENDBRANCH  96  97
ENDBRANCH  70  91
ENDBRANCH  44  45
ENDBRANCH  36  39
ENDBRANCH  34  35
ENDBRANCH  33  34
ENDBRANCH   1  33
TORSDOF 20
ENDMDL
