MODEL 1
REMARK VINA RESULT:     -11.1      0.000      0.000
REMARK SMILES COc1ccc(/C=C/c2cc(OC)cc(OC)c2/C=C/C(=O)NCCCCNC(=O)c2ccc(-c3c4nc(c(-c5ccc(S(=O)(=O)[O-])cc5)c5ccc([nH]5)c(-c5ccc(S(=O)(=O)[O-])cc5)c5nc(c(-c6ccc(S(=O)(=O)[O-])cc6)c6ccc3[nH]6)C=C5)C=C4)cc2)cc1
REMARK SMILES IDX 25 1 24 2 23 3 21 4 22 5 20 7 19 8 18 9 9 10 10 11 11 12
REMARK SMILES IDX 15 13 14 14 8 15 7 16 6 17 3 18 4 19 92 20 5 21 91 22 2 23
REMARK SMILES IDX 1 24 12 25 13 26 16 27 17 28 26 29 27 30 28 31 29 32 30 34
REMARK SMILES IDX 31 35 32 36 90 37 33 38 89 39 34 40 35 41 36 42 83 43 37 44
REMARK SMILES IDX 88 45 82 46 84 47 38 48 87 49 81 50 80 51 39 53 69 54 50 55
REMARK SMILES IDX 68 56 51 57 54 58 67 59 85 60 52 61 53 62 66 64 86 65 55 66
REMARK SMILES IDX 40 67 41 68 49 69 42 70 48 71 43 72 44 73 45 74 46 75 47 76
REMARK SMILES IDX 70 77 71 78 79 79 72 80 78 81 73 82 74 83 75 84 76 85 77 86
REMARK SMILES IDX 56 87 57 88 65 89 58 90 64 91 59 92 60 93 61 94 62 95 63 96
REMARK H PARENT 23 6 28 33 84 52 54 63
REMARK Flexibility Score: inf
ROOT
ATOM      1  C   UNL A   1      35.196  29.806  27.382  1.00  0.00     0.023 C 
ENDROOT
BRANCH   1   2
ATOM      2  C   UNL A   1      33.828  29.912  26.721  1.00  0.00     0.116 C 
BRANCH   2   3
ATOM      3  N   UNL A   1      32.781  29.399  27.577  1.00  0.00    -0.353 N 
ATOM      4  C   UNL A   1      32.135  28.208  27.474  1.00  0.00     0.244 C 
ATOM      5  O   UNL A   1      31.297  27.861  28.301  1.00  0.00    -0.270 OA
ATOM      6  H   UNL A   1      32.503  29.982  28.321  1.00  0.00     0.163 HD
BRANCH   4   7
ATOM      7  C   UNL A   1      32.495  27.299  26.368  1.00  0.00     0.072 C 
ATOM      8  C   UNL A   1      31.686  26.279  26.041  1.00  0.00     0.018 C 
BRANCH   8   9
ATOM      9  C   UNL A   1      32.069  25.242  25.071  1.00  0.00     0.024 A 
ATOM     10  C   UNL A   1      31.840  25.490  23.685  1.00  0.00    -0.011 A 
ATOM     11  C   UNL A   1      32.110  24.488  22.736  1.00  0.00     0.055 A 
ATOM     12  C   UNL A   1      32.591  23.243  23.126  1.00  0.00     0.123 A 
ATOM     13  C   UNL A   1      32.583  23.983  25.456  1.00  0.00     0.130 A 
ATOM     14  C   UNL A   1      32.848  23.014  24.472  1.00  0.00     0.093 A 
BRANCH  10  15
ATOM     15  C   UNL A   1      31.252  26.733  23.132  1.00  0.00     0.009 C 
ATOM     16  C   UNL A   1      30.015  27.166  23.430  1.00  0.00     0.009 C 
BRANCH  16  17
ATOM     17  C   UNL A   1      29.375  28.406  22.934  1.00  0.00    -0.025 A 
ATOM     18  C   UNL A   1      28.047  30.783  22.139  1.00  0.00     0.118 A 
ATOM     19  C   UNL A   1      29.416  30.620  21.924  1.00  0.00     0.047 A 
ATOM     20  C   UNL A   1      27.329  29.740  22.716  1.00  0.00     0.047 A 
ATOM     21  C   UNL A   1      30.075  29.448  22.317  1.00  0.00     0.012 A 
ATOM     22  C   UNL A   1      27.990  28.565  23.111  1.00  0.00     0.012 A 
BRANCH  18  23
ATOM     23  O   UNL A   1      27.549  31.997  21.764  1.00  0.00    -0.497 OA
ATOM     24  C   UNL A   1      27.906  32.489  20.479  1.00  0.00     0.278 C 
ENDBRANCH  18  23
ENDBRANCH  16  17
ENDBRANCH  10  15
BRANCH  12  25
ATOM     25  O   UNL A   1      32.763  22.330  22.121  1.00  0.00    -0.497 OA
ATOM     26  C   UNL A   1      31.965  21.151  22.208  1.00  0.00     0.278 C 
ENDBRANCH  12  25
BRANCH  13  27
ATOM     27  O   UNL A   1      32.856  23.457  26.690  1.00  0.00    -0.496 OA
ATOM     28  C   UNL A   1      34.126  22.954  27.055  1.00  0.00     0.278 C 
ENDBRANCH  13  27
ENDBRANCH   8   9
ENDBRANCH   4   7
ENDBRANCH   2   3
ENDBRANCH   1   2
BRANCH   1  29
ATOM     29  C   UNL A   1      35.772  31.159  27.798  1.00  0.00     0.023 C 
BRANCH  29  30
ATOM     30  C   UNL A   1      37.047  31.065  28.629  1.00  0.00     0.116 C 
BRANCH  30  31
ATOM     31  N   UNL A   1      36.823  30.450  29.928  1.00  0.00    -0.352 N 
ATOM     32  C   UNL A   1      37.460  29.361  30.462  1.00  0.00     0.251 C 
ATOM     33  H   UNL A   1      36.130  30.866  30.491  1.00  0.00     0.163 HD
ATOM     34  O   UNL A   1      36.959  28.742  31.399  1.00  0.00    -0.269 OA
BRANCH  32  35
ATOM     35  C   UNL A   1      38.728  28.893  29.873  1.00  0.00     0.039 A 
ATOM     36  C   UNL A   1      38.976  29.199  28.535  1.00  0.00     0.014 A 
ATOM     37  C   UNL A   1      39.688  28.225  30.640  1.00  0.00     0.014 A 
ATOM     38  C   UNL A   1      40.236  28.954  28.003  1.00  0.00     0.010 A 
ATOM     39  C   UNL A   1      40.973  28.070  30.139  1.00  0.00     0.010 A 
ATOM     40  C   UNL A   1      41.262  28.463  28.827  1.00  0.00    -0.014 A 
BRANCH  40  41
ATOM     41  C   UNL A   1      42.658  28.446  28.339  1.00  0.00     0.031 A 
ATOM     42  C   UNL A   1      43.534  29.649  28.498  1.00  0.00     0.074 A 
ATOM     43  C   UNL A   1      43.101  27.338  27.710  1.00  0.00     0.049 A 
ATOM     44  N   UNL A   1      44.785  29.800  28.155  1.00  0.00    -0.248 NA
ATOM     45  C   UNL A   1      42.924  30.846  29.100  1.00  0.00     0.031 C 
ATOM     46  C   UNL A   1      42.300  26.135  27.450  1.00  0.00     0.029 A 
ATOM     47  N   UNL A   1      44.329  27.034  27.185  1.00  0.00    -0.354 N 
ATOM     48  C   UNL A   1      45.112  31.105  28.494  1.00  0.00     0.074 A 
ATOM     49  C   UNL A   1      43.913  31.723  29.015  1.00  0.00     0.031 C 
ATOM     50  C   UNL A   1      43.073  25.209  26.864  1.00  0.00     0.029 A 
ATOM     51  C   UNL A   1      44.406  25.764  26.663  1.00  0.00     0.049 A 
ATOM     52  H   UNL A   1      45.085  27.665  27.182  1.00  0.00     0.167 HD
ATOM     53  C   UNL A   1      46.313  31.723  28.399  1.00  0.00     0.031 A 
ATOM     54  C   UNL A   1      45.438  25.118  26.088  1.00  0.00     0.031 A 
ATOM     55  C   UNL A   1      47.492  31.091  27.868  1.00  0.00     0.049 A 
ATOM     56  C   UNL A   1      46.757  25.830  25.985  1.00  0.00     0.074 A 
ATOM     57  C   UNL A   1      48.771  31.606  27.763  1.00  0.00     0.029 A 
ATOM     58  N   UNL A   1      47.531  29.806  27.344  1.00  0.00    -0.354 N 
ATOM     59  N   UNL A   1      47.072  27.040  26.385  1.00  0.00    -0.248 NA
ATOM     60  C   UNL A   1      47.864  25.089  25.368  1.00  0.00     0.031 C 
ATOM     61  C   UNL A   1      49.569  30.656  27.120  1.00  0.00     0.029 A 
ATOM     62  C   UNL A   1      48.807  29.521  26.888  1.00  0.00     0.049 A 
ATOM     63  H   UNL A   1      46.766  29.189  27.302  1.00  0.00     0.167 HD
ATOM     64  C   UNL A   1      48.420  27.197  26.090  1.00  0.00     0.074 A 
ATOM     65  C   UNL A   1      48.864  25.951  25.496  1.00  0.00     0.031 C 
ATOM     66  C   UNL A   1      49.220  28.273  26.295  1.00  0.00     0.031 A 
BRANCH  53  67
ATOM     67  C   UNL A   1      46.397  33.152  28.867  1.00  0.00    -0.014 A 
ATOM     68  C   UNL A   1      46.725  33.465  30.199  1.00  0.00     0.010 A 
ATOM     69  C   UNL A   1      46.161  34.200  27.958  1.00  0.00     0.010 A 
ATOM     70  C   UNL A   1      46.767  34.795  30.624  1.00  0.00     0.020 A 
ATOM     71  C   UNL A   1      46.234  35.532  28.372  1.00  0.00     0.020 A 
ATOM     72  C   UNL A   1      46.519  35.820  29.709  1.00  0.00     0.054 A 
BRANCH  72  73
ATOM     73  S   UNL A   1      46.591  37.538  30.288  1.00  0.00     0.124 S 
ATOM     74  O   UNL A   1      45.879  37.455  31.562  1.00  0.00    -0.237 OA
ATOM     75  O   UNL A   1      48.027  37.781  30.387  1.00  0.00    -0.237 OA
ATOM     76  O   UNL A   1      45.904  38.288  29.239  1.00  0.00    -0.744 OA
ENDBRANCH  72  73
ENDBRANCH  53  67
BRANCH  54  77
ATOM     77  C   UNL A   1      45.261  23.726  25.591  1.00  0.00    -0.014 A 
ATOM     78  C   UNL A   1      45.609  22.625  26.395  1.00  0.00     0.010 A 
ATOM     79  C   UNL A   1      44.714  23.491  24.315  1.00  0.00     0.010 A 
ATOM     80  C   UNL A   1      45.431  21.320  25.927  1.00  0.00     0.020 A 
ATOM     81  C   UNL A   1      44.505  22.187  23.856  1.00  0.00     0.020 A 
ATOM     82  C   UNL A   1      44.876  21.109  24.661  1.00  0.00     0.054 A 
BRANCH  82  83
ATOM     83  S   UNL A   1      44.608  19.407  24.095  1.00  0.00     0.124 S 
ATOM     84  O   UNL A   1      43.320  19.084  24.700  1.00  0.00    -0.237 OA
ATOM     85  O   UNL A   1      44.605  19.556  22.641  1.00  0.00    -0.237 OA
ATOM     86  O   UNL A   1      45.755  18.681  24.636  1.00  0.00    -0.744 OA
ENDBRANCH  82  83
ENDBRANCH  54  77
BRANCH  66  87
ATOM     87  C   UNL A   1      50.667  28.138  25.900  1.00  0.00    -0.014 A 
ATOM     88  C   UNL A   1      51.084  28.339  24.572  1.00  0.00     0.010 A 
ATOM     89  C   UNL A   1      51.628  27.865  26.890  1.00  0.00     0.010 A 
ATOM     90  C   UNL A   1      52.437  28.237  24.238  1.00  0.00     0.020 A 
ATOM     91  C   UNL A   1      52.983  27.797  26.565  1.00  0.00     0.020 A 
ATOM     92  C   UNL A   1      53.378  27.970  25.236  1.00  0.00     0.054 A 
BRANCH  92  93
ATOM     93  S   UNL A   1      55.131  27.896  24.783  1.00  0.00     0.124 S 
ATOM     94  O   UNL A   1      55.488  29.311  24.717  1.00  0.00    -0.237 OA
ATOM     95  O   UNL A   1      55.717  27.150  25.894  1.00  0.00    -0.237 OA
ATOM     96  O   UNL A   1      55.129  27.194  23.502  1.00  0.00    -0.744 OA
ENDBRANCH  92  93
ENDBRANCH  66  87
ENDBRANCH  40  41
ENDBRANCH  32  35
ENDBRANCH  30  31
ENDBRANCH  29  30
ENDBRANCH   1  29
TORSDOF 20
ENDMDL
MODEL 2
REMARK VINA RESULT:     -10.0      1.543      8.005
REMARK SMILES COc1ccc(/C=C/c2cc(OC)cc(OC)c2/C=C/C(=O)NCCCCNC(=O)c2ccc(-c3c4nc(c(-c5ccc(S(=O)(=O)[O-])cc5)c5ccc([nH]5)c(-c5ccc(S(=O)(=O)[O-])cc5)c5nc(c(-c6ccc(S(=O)(=O)[O-])cc6)c6ccc3[nH]6)C=C5)C=C4)cc2)cc1
REMARK SMILES IDX 25 1 24 2 23 3 21 4 22 5 20 7 19 8 18 9 9 10 10 11 11 12
REMARK SMILES IDX 15 13 14 14 8 15 7 16 6 17 3 18 4 19 92 20 5 21 91 22 2 23
REMARK SMILES IDX 1 24 12 25 13 26 16 27 17 28 26 29 27 30 28 31 29 32 30 34
REMARK SMILES IDX 31 35 32 36 90 37 33 38 89 39 34 40 35 41 36 42 83 43 37 44
REMARK SMILES IDX 88 45 82 46 84 47 38 48 87 49 81 50 80 51 39 53 69 54 50 55
REMARK SMILES IDX 68 56 51 57 54 58 67 59 85 60 52 61 53 62 66 64 86 65 55 66
REMARK SMILES IDX 40 67 41 68 49 69 42 70 48 71 43 72 44 73 45 74 46 75 47 76
REMARK SMILES IDX 70 77 71 78 79 79 72 80 78 81 73 82 74 83 75 84 76 85 77 86
REMARK SMILES IDX 56 87 57 88 65 89 58 90 64 91 59 92 60 93 61 94 62 95 63 96
REMARK H PARENT 23 6 28 33 84 52 54 63
REMARK Flexibility Score: inf
ROOT
ATOM      1  C   UNL A   1      34.800  30.255  27.079  1.00  0.00     0.023 C 
ENDROOT
BRANCH   1   2
ATOM      2  C   UNL A   1      33.326  30.430  26.736  1.00  0.00     0.116 C 
BRANCH   2   3
ATOM      3  N   UNL A   1      32.478  29.655  27.615  1.00  0.00    -0.353 N 
ATOM      4  C   UNL A   1      32.018  28.391  27.423  1.00  0.00     0.244 C 
ATOM      5  O   UNL A   1      31.346  27.818  28.274  1.00  0.00    -0.270 OA
ATOM      6  H   UNL A   1      32.201  30.097  28.451  1.00  0.00     0.163 HD
BRANCH   4   7
ATOM      7  C   UNL A   1      32.384  27.685  26.179  1.00  0.00     0.072 C 
ATOM      8  C   UNL A   1      32.049  26.396  26.009  1.00  0.00     0.018 C 
BRANCH   8   9
ATOM      9  C   UNL A   1      32.532  25.593  24.876  1.00  0.00     0.024 A 
ATOM     10  C   UNL A   1      31.978  25.837  23.585  1.00  0.00    -0.011 A 
ATOM     11  C   UNL A   1      32.349  25.028  22.495  1.00  0.00     0.055 A 
ATOM     12  C   UNL A   1      33.247  23.979  22.655  1.00  0.00     0.123 A 
ATOM     13  C   UNL A   1      33.465  24.541  25.024  1.00  0.00     0.130 A 
ATOM     14  C   UNL A   1      33.814  23.765  23.905  1.00  0.00     0.093 A 
BRANCH  10  15
ATOM     15  C   UNL A   1      30.949  26.860  23.283  1.00  0.00     0.009 C 
ATOM     16  C   UNL A   1      31.237  28.144  23.009  1.00  0.00     0.009 C 
BRANCH  16  17
ATOM     17  C   UNL A   1      30.265  29.211  22.676  1.00  0.00    -0.025 A 
ATOM     18  C   UNL A   1      28.399  31.297  22.220  1.00  0.00     0.118 A 
ATOM     19  C   UNL A   1      29.461  31.081  21.341  1.00  0.00     0.047 A 
ATOM     20  C   UNL A   1      28.244  30.446  23.308  1.00  0.00     0.047 A 
ATOM     21  C   UNL A   1      30.386  30.051  21.565  1.00  0.00     0.012 A 
ATOM     22  C   UNL A   1      29.171  29.415  23.533  1.00  0.00     0.012 A 
BRANCH  18  23
ATOM     23  O   UNL A   1      27.614  32.371  21.915  1.00  0.00    -0.497 OA
ATOM     24  C   UNL A   1      27.547  32.774  20.552  1.00  0.00     0.278 C 
ENDBRANCH  18  23
ENDBRANCH  16  17
ENDBRANCH  10  15
BRANCH  12  25
ATOM     25  O   UNL A   1      33.489  23.228  21.537  1.00  0.00    -0.497 OA
ATOM     26  C   UNL A   1      32.901  23.703  20.328  1.00  0.00     0.278 C 
ENDBRANCH  12  25
BRANCH  13  27
ATOM     27  O   UNL A   1      34.114  24.057  26.128  1.00  0.00    -0.496 OA
ATOM     28  C   UNL A   1      35.503  23.792  26.157  1.00  0.00     0.278 C 
ENDBRANCH  13  27
ENDBRANCH   8   9
ENDBRANCH   4   7
ENDBRANCH   2   3
ENDBRANCH   1   2
BRANCH   1  29
ATOM     29  C   UNL A   1      35.147  30.705  28.497  1.00  0.00     0.023 C 
BRANCH  29  30
ATOM     30  C   UNL A   1      36.156  29.809  29.206  1.00  0.00     0.116 C 
BRANCH  30  31
ATOM     31  N   UNL A   1      36.055  29.890  30.655  1.00  0.00    -0.352 N 
ATOM     32  C   UNL A   1      37.058  29.745  31.577  1.00  0.00     0.251 C 
ATOM     33  H   UNL A   1      35.157  30.070  31.017  1.00  0.00     0.163 HD
ATOM     34  O   UNL A   1      36.795  29.498  32.752  1.00  0.00    -0.269 OA
BRANCH  32  35
ATOM     35  C   UNL A   1      38.466  29.830  31.145  1.00  0.00     0.039 A 
ATOM     36  C   UNL A   1      39.426  29.188  31.927  1.00  0.00     0.014 A 
ATOM     37  C   UNL A   1      38.828  30.472  29.957  1.00  0.00     0.014 A 
ATOM     38  C   UNL A   1      40.726  29.075  31.450  1.00  0.00     0.010 A 
ATOM     39  C   UNL A   1      40.099  30.276  29.437  1.00  0.00     0.010 A 
ATOM     40  C   UNL A   1      41.047  29.548  30.168  1.00  0.00    -0.014 A 
BRANCH  40  41
ATOM     41  C   UNL A   1      42.348  29.203  29.556  1.00  0.00     0.031 A 
ATOM     42  C   UNL A   1      42.572  27.848  28.959  1.00  0.00     0.074 A 
ATOM     43  C   UNL A   1      43.335  30.121  29.591  1.00  0.00     0.049 A 
ATOM     44  N   UNL A   1      43.636  27.386  28.359  1.00  0.00    -0.248 NA
ATOM     45  C   UNL A   1      41.469  26.880  29.065  1.00  0.00     0.031 C 
ATOM     46  C   UNL A   1      43.233  31.450  30.209  1.00  0.00     0.029 A 
ATOM     47  N   UNL A   1      44.610  30.089  29.093  1.00  0.00    -0.354 N 
ATOM     48  C   UNL A   1      43.335  26.074  28.021  1.00  0.00     0.074 A 
ATOM     49  C   UNL A   1      42.012  25.795  28.533  1.00  0.00     0.031 C 
ATOM     50  C   UNL A   1      44.376  32.121  30.005  1.00  0.00     0.029 A 
ATOM     51  C   UNL A   1      45.308  31.258  29.288  1.00  0.00     0.049 A 
ATOM     52  H   UNL A   1      44.992  29.304  28.638  1.00  0.00     0.167 HD
ATOM     53  C   UNL A   1      44.089  25.191  27.324  1.00  0.00     0.031 A 
ATOM     54  C   UNL A   1      46.559  31.599  28.926  1.00  0.00     0.031 A 
ATOM     55  C   UNL A   1      45.408  25.487  26.831  1.00  0.00     0.049 A 
ATOM     56  C   UNL A   1      47.379  30.597  28.163  1.00  0.00     0.074 A 
ATOM     57  C   UNL A   1      46.245  24.685  26.077  1.00  0.00     0.029 A 
ATOM     58  N   UNL A   1      46.084  26.679  27.052  1.00  0.00    -0.354 N 
ATOM     59  N   UNL A   1      47.048  29.385  27.781  1.00  0.00    -0.248 NA
ATOM     60  C   UNL A   1      48.732  31.009  27.771  1.00  0.00     0.031 C 
ATOM     61  C   UNL A   1      47.451  25.368  25.896  1.00  0.00     0.029 A 
ATOM     62  C   UNL A   1      47.340  26.624  26.473  1.00  0.00     0.049 A 
ATOM     63  H   UNL A   1      45.724  27.450  27.547  1.00  0.00     0.167 HD
ATOM     64  C   UNL A   1      48.145  28.898  27.080  1.00  0.00     0.074 A 
ATOM     65  C   UNL A   1      49.138  29.954  27.077  1.00  0.00     0.031 C 
ATOM     66  C   UNL A   1      48.314  27.689  26.490  1.00  0.00     0.031 A 
BRANCH  53  67
ATOM     67  C   UNL A   1      43.504  23.826  27.074  1.00  0.00    -0.014 A 
ATOM     68  C   UNL A   1      43.037  23.455  25.799  1.00  0.00     0.010 A 
ATOM     69  C   UNL A   1      43.435  22.892  28.123  1.00  0.00     0.010 A 
ATOM     70  C   UNL A   1      42.468  22.197  25.591  1.00  0.00     0.020 A 
ATOM     71  C   UNL A   1      42.896  21.620  27.911  1.00  0.00     0.020 A 
ATOM     72  C   UNL A   1      42.399  21.288  26.649  1.00  0.00     0.054 A 
BRANCH  72  73
ATOM     73  S   UNL A   1      41.664  19.657  26.346  1.00  0.00     0.124 S 
ATOM     74  O   UNL A   1      41.974  18.953  27.588  1.00  0.00    -0.237 OA
ATOM     75  O   UNL A   1      40.254  19.976  26.140  1.00  0.00    -0.237 OA
ATOM     76  O   UNL A   1      42.371  19.172  25.163  1.00  0.00    -0.744 OA
ENDBRANCH  72  73
ENDBRANCH  53  67
BRANCH  54  77
ATOM     77  C   UNL A   1      47.092  32.947  29.266  1.00  0.00    -0.014 A 
ATOM     78  C   UNL A   1      47.790  33.162  30.468  1.00  0.00     0.010 A 
ATOM     79  C   UNL A   1      46.930  34.021  28.371  1.00  0.00     0.010 A 
ATOM     80  C   UNL A   1      48.297  34.428  30.777  1.00  0.00     0.020 A 
ATOM     81  C   UNL A   1      47.463  35.281  28.662  1.00  0.00     0.020 A 
ATOM     82  C   UNL A   1      48.134  35.478  29.869  1.00  0.00     0.054 A 
BRANCH  82  83
ATOM     83  S   UNL A   1      48.845  37.099  30.269  1.00  0.00     0.124 S 
ATOM     84  O   UNL A   1      47.922  37.594  31.286  1.00  0.00    -0.237 OA
ATOM     85  O   UNL A   1      50.181  36.748  30.744  1.00  0.00    -0.237 OA
ATOM     86  O   UNL A   1      48.813  37.812  28.994  1.00  0.00    -0.744 OA
ENDBRANCH  82  83
ENDBRANCH  54  77
BRANCH  66  87
ATOM     87  C   UNL A   1      49.611  27.454  25.764  1.00  0.00    -0.014 A 
ATOM     88  C   UNL A   1      50.721  26.886  26.416  1.00  0.00     0.010 A 
ATOM     89  C   UNL A   1      49.697  27.751  24.392  1.00  0.00     0.010 A 
ATOM     90  C   UNL A   1      51.904  26.650  25.712  1.00  0.00     0.020 A 
ATOM     91  C   UNL A   1      50.867  27.485  23.679  1.00  0.00     0.020 A 
ATOM     92  C   UNL A   1      51.969  26.948  24.348  1.00  0.00     0.054 A 
BRANCH  92  93
ATOM     93  S   UNL A   1      53.499  26.584  23.448  1.00  0.00     0.124 S 
ATOM     94  O   UNL A   1      54.138  25.602  24.320  1.00  0.00    -0.237 OA
ATOM     95  O   UNL A   1      53.006  26.067  22.175  1.00  0.00    -0.237 OA
ATOM     96  O   UNL A   1      54.173  27.878  23.370  1.00  0.00    -0.744 OA
ENDBRANCH  92  93
ENDBRANCH  66  87
ENDBRANCH  40  41
ENDBRANCH  32  35
ENDBRANCH  30  31
ENDBRANCH  29  30
ENDBRANCH   1  29
TORSDOF 20
ENDMDL
MODEL 3
REMARK VINA RESULT:     -10.0      5.032     12.059
REMARK SMILES COc1ccc(/C=C/c2cc(OC)cc(OC)c2/C=C/C(=O)NCCCCNC(=O)c2ccc(-c3c4nc(c(-c5ccc(S(=O)(=O)[O-])cc5)c5ccc([nH]5)c(-c5ccc(S(=O)(=O)[O-])cc5)c5nc(c(-c6ccc(S(=O)(=O)[O-])cc6)c6ccc3[nH]6)C=C5)C=C4)cc2)cc1
REMARK SMILES IDX 25 1 24 2 23 3 21 4 22 5 20 7 19 8 18 9 9 10 10 11 11 12
REMARK SMILES IDX 15 13 14 14 8 15 7 16 6 17 3 18 4 19 92 20 5 21 91 22 2 23
REMARK SMILES IDX 1 24 12 25 13 26 16 27 17 28 26 29 27 30 28 31 29 32 30 34
REMARK SMILES IDX 31 35 32 36 90 37 33 38 89 39 34 40 35 41 36 42 83 43 37 44
REMARK SMILES IDX 88 45 82 46 84 47 38 48 87 49 81 50 80 51 39 53 69 54 50 55
REMARK SMILES IDX 68 56 51 57 54 58 67 59 85 60 52 61 53 62 66 64 86 65 55 66
REMARK SMILES IDX 40 67 41 68 49 69 42 70 48 71 43 72 44 73 45 74 46 75 47 76
REMARK SMILES IDX 70 77 71 78 79 79 72 80 78 81 73 82 74 83 75 84 76 85 77 86
REMARK SMILES IDX 56 87 57 88 65 89 58 90 64 91 59 92 60 93 61 94 62 95 63 96
REMARK H PARENT 23 6 28 33 84 52 54 63
REMARK Flexibility Score: inf
ROOT
ATOM      1  C   UNL A   1      46.052  21.882  25.125  1.00  0.00     0.023 C 
ENDROOT
BRANCH   1   2
ATOM      2  C   UNL A   1      44.744  21.792  24.349  1.00  0.00     0.116 C 
BRANCH   2   3
ATOM      3  N   UNL A   1      43.923  20.697  24.815  1.00  0.00    -0.353 N 
ATOM      4  C   UNL A   1      42.971  20.727  25.784  1.00  0.00     0.244 C 
ATOM      5  O   UNL A   1      42.299  19.737  26.053  1.00  0.00    -0.270 OA
ATOM      6  H   UNL A   1      44.071  19.827  24.378  1.00  0.00     0.163 HD
BRANCH   4   7
ATOM      7  C   UNL A   1      42.716  22.000  26.489  1.00  0.00     0.072 C 
ATOM      8  C   UNL A   1      41.459  22.435  26.666  1.00  0.00     0.018 C 
BRANCH   8   9
ATOM      9  C   UNL A   1      41.149  23.769  27.202  1.00  0.00     0.024 A 
ATOM     10  C   UNL A   1      39.823  24.271  27.052  1.00  0.00    -0.011 A 
ATOM     11  C   UNL A   1      39.513  25.577  27.471  1.00  0.00     0.055 A 
ATOM     12  C   UNL A   1      40.485  26.401  28.026  1.00  0.00     0.123 A 
ATOM     13  C   UNL A   1      42.126  24.604  27.792  1.00  0.00     0.130 A 
ATOM     14  C   UNL A   1      41.767  25.899  28.206  1.00  0.00     0.093 A 
BRANCH  10  15
ATOM     15  C   UNL A   1      38.709  23.541  26.402  1.00  0.00     0.009 C 
ATOM     16  C   UNL A   1      37.455  24.018  26.324  1.00  0.00     0.009 C 
BRANCH  16  17
ATOM     17  C   UNL A   1      36.302  23.355  25.671  1.00  0.00    -0.025 A 
ATOM     18  C   UNL A   1      34.208  22.038  24.283  1.00  0.00     0.118 A 
ATOM     19  C   UNL A   1      34.323  21.938  25.670  1.00  0.00     0.047 A 
ATOM     20  C   UNL A   1      35.117  22.830  23.590  1.00  0.00     0.047 A 
ATOM     21  C   UNL A   1      35.358  22.586  26.359  1.00  0.00     0.012 A 
ATOM     22  C   UNL A   1      36.154  23.479  24.279  1.00  0.00     0.012 A 
BRANCH  18  23
ATOM     23  O   UNL A   1      33.194  21.305  23.739  1.00  0.00    -0.497 OA
ATOM     24  C   UNL A   1      32.196  20.802  24.620  1.00  0.00     0.278 C 
ENDBRANCH  18  23
ENDBRANCH  16  17
ENDBRANCH  10  15
BRANCH  12  25
ATOM     25  O   UNL A   1      40.079  27.669  28.345  1.00  0.00    -0.497 OA
ATOM     26  C   UNL A   1      40.078  28.609  27.273  1.00  0.00     0.278 C 
ENDBRANCH  12  25
BRANCH  13  27
ATOM     27  O   UNL A   1      43.462  24.412  28.021  1.00  0.00    -0.496 OA
ATOM     28  C   UNL A   1      44.115  24.832  29.202  1.00  0.00     0.278 C 
ENDBRANCH  13  27
ENDBRANCH   8   9
ENDBRANCH   4   7
ENDBRANCH   2   3
ENDBRANCH   1   2
BRANCH   1  29
ATOM     29  C   UNL A   1      46.150  23.130  26.002  1.00  0.00     0.023 C 
BRANCH  29  30
ATOM     30  C   UNL A   1      46.299  24.431  25.221  1.00  0.00     0.116 C 
BRANCH  30  31
ATOM     31  N   UNL A   1      47.689  24.828  25.058  1.00  0.00    -0.352 N 
ATOM     32  C   UNL A   1      48.224  26.084  25.182  1.00  0.00     0.251 C 
ATOM     33  H   UNL A   1      48.322  24.109  24.830  1.00  0.00     0.163 HD
ATOM     34  O   UNL A   1      49.322  26.346  24.695  1.00  0.00    -0.269 OA
BRANCH  32  35
ATOM     35  C   UNL A   1      47.452  27.144  25.856  1.00  0.00     0.039 A 
ATOM     36  C   UNL A   1      47.685  27.355  27.215  1.00  0.00     0.014 A 
ATOM     37  C   UNL A   1      46.565  27.963  25.151  1.00  0.00     0.014 A 
ATOM     38  C   UNL A   1      47.130  28.467  27.836  1.00  0.00     0.010 A 
ATOM     39  C   UNL A   1      46.091  29.125  25.744  1.00  0.00     0.010 A 
ATOM     40  C   UNL A   1      46.398  29.399  27.083  1.00  0.00    -0.014 A 
BRANCH  40  41
ATOM     41  C   UNL A   1      46.029  30.703  27.675  1.00  0.00     0.031 A 
ATOM     42  C   UNL A   1      44.748  30.858  28.434  1.00  0.00     0.074 A 
ATOM     43  C   UNL A   1      46.853  31.751  27.476  1.00  0.00     0.049 A 
ATOM     44  N   UNL A   1      44.281  31.916  29.041  1.00  0.00    -0.248 NA
ATOM     45  C   UNL A   1      43.866  29.683  28.504  1.00  0.00     0.031 C 
ATOM     46  C   UNL A   1      48.097  31.714  26.695  1.00  0.00     0.029 A 
ATOM     47  N   UNL A   1      46.782  33.046  27.916  1.00  0.00    -0.354 N 
ATOM     48  C   UNL A   1      43.051  31.538  29.560  1.00  0.00     0.074 A 
ATOM     49  C   UNL A   1      42.817  30.172  29.149  1.00  0.00     0.031 C 
ATOM     50  C   UNL A   1      48.694  32.913  26.757  1.00  0.00     0.029 A 
ATOM     51  C   UNL A   1      47.858  33.816  27.538  1.00  0.00     0.049 A 
ATOM     52  H   UNL A   1      46.033  33.393  28.452  1.00  0.00     0.167 HD
ATOM     53  C   UNL A   1      42.206  32.262  30.332  1.00  0.00     0.031 A 
ATOM     54  C   UNL A   1      48.139  35.107  27.796  1.00  0.00     0.031 A 
ATOM     55  C   UNL A   1      42.456  33.625  30.722  1.00  0.00     0.049 A 
ATOM     56  C   UNL A   1      47.180  35.892  28.646  1.00  0.00     0.074 A 
ATOM     57  C   UNL A   1      41.691  34.440  31.536  1.00  0.00     0.029 A 
ATOM     58  N   UNL A   1      43.552  34.374  30.317  1.00  0.00    -0.354 N 
ATOM     59  N   UNL A   1      46.057  35.494  29.198  1.00  0.00    -0.248 NA
ATOM     60  C   UNL A   1      47.528  37.291  28.920  1.00  0.00     0.031 C 
ATOM     61  C   UNL A   1      42.292  35.702  31.572  1.00  0.00     0.029 A 
ATOM     62  C   UNL A   1      43.470  35.652  30.841  1.00  0.00     0.049 A 
ATOM     63  H   UNL A   1      44.280  34.045  29.742  1.00  0.00     0.167 HD
ATOM     64  C   UNL A   1      45.576  36.588  29.906  1.00  0.00     0.074 A 
ATOM     65  C   UNL A   1      46.540  37.656  29.727  1.00  0.00     0.031 C 
ATOM     66  C   UNL A   1      44.442  36.699  30.641  1.00  0.00     0.031 A 
BRANCH  53  67
ATOM     67  C   UNL A   1      40.935  31.593  30.785  1.00  0.00    -0.014 A 
ATOM     68  C   UNL A   1      39.774  31.620  29.990  1.00  0.00     0.010 A 
ATOM     69  C   UNL A   1      40.904  30.912  32.015  1.00  0.00     0.010 A 
ATOM     70  C   UNL A   1      38.594  31.022  30.439  1.00  0.00     0.020 A 
ATOM     71  C   UNL A   1      39.735  30.284  32.453  1.00  0.00     0.020 A 
ATOM     72  C   UNL A   1      38.581  30.361  31.669  1.00  0.00     0.054 A 
BRANCH  72  73
ATOM     73  S   UNL A   1      37.037  29.585  32.221  1.00  0.00     0.124 S 
ATOM     74  O   UNL A   1      36.360  30.700  32.879  1.00  0.00    -0.237 OA
ATOM     75  O   UNL A   1      36.438  29.139  30.966  1.00  0.00    -0.237 OA
ATOM     76  O   UNL A   1      37.483  28.515  33.110  1.00  0.00    -0.744 OA
ENDBRANCH  72  73
ENDBRANCH  53  67
BRANCH  54  77
ATOM     77  C   UNL A   1      49.386  35.719  27.260  1.00  0.00    -0.014 A 
ATOM     78  C   UNL A   1      50.577  35.698  28.008  1.00  0.00     0.010 A 
ATOM     79  C   UNL A   1      49.397  36.304  25.979  1.00  0.00     0.010 A 
ATOM     80  C   UNL A   1      51.748  36.265  27.494  1.00  0.00     0.020 A 
ATOM     81  C   UNL A   1      50.573  36.843  25.449  1.00  0.00     0.020 A 
ATOM     82  C   UNL A   1      51.739  36.831  26.216  1.00  0.00     0.054 A 
BRANCH  82  83
ATOM     83  S   UNL A   1      53.282  37.515  25.550  1.00  0.00     0.124 S 
ATOM     84  O   UNL A   1      53.174  37.185  24.133  1.00  0.00    -0.237 OA
ATOM     85  O   UNL A   1      53.165  38.933  25.881  1.00  0.00    -0.237 OA
ATOM     86  O   UNL A   1      54.320  36.796  26.284  1.00  0.00    -0.744 OA
ENDBRANCH  82  83
ENDBRANCH  54  77
BRANCH  66  87
ATOM     87  C   UNL A   1      44.197  38.014  31.332  1.00  0.00    -0.014 A 
ATOM     88  C   UNL A   1      43.744  39.140  30.622  1.00  0.00     0.010 A 
ATOM     89  C   UNL A   1      44.367  38.102  32.726  1.00  0.00     0.010 A 
ATOM     90  C   UNL A   1      43.495  40.340  31.292  1.00  0.00     0.020 A 
ATOM     91  C   UNL A   1      44.087  39.290  33.402  1.00  0.00     0.020 A 
ATOM     92  C   UNL A   1      43.665  40.407  32.678  1.00  0.00     0.054 A 
BRANCH  92  93
ATOM     93  S   UNL A   1      43.286  41.962  33.529  1.00  0.00     0.124 S 
ATOM     94  O   UNL A   1      43.660  42.956  32.526  1.00  0.00    -0.237 OA
ATOM     95  O   UNL A   1      41.854  41.841  33.791  1.00  0.00    -0.237 OA
ATOM     96  O   UNL A   1      44.137  41.925  34.716  1.00  0.00    -0.744 OA
ENDBRANCH  92  93
ENDBRANCH  66  87
ENDBRANCH  40  41
ENDBRANCH  32  35
ENDBRANCH  30  31
ENDBRANCH  29  30
ENDBRANCH   1  29
TORSDOF 20
ENDMDL
