MODEL 1
REMARK VINA RESULT:      -9.7      0.000      0.000
REMARK SMILES Cc1ccc(N2C(=O)/C(=C\c3ccccc3O[C@H](C)C(=O)NCCCCNC(=O)c3ccc(-c4c5nc(c(-c6ccc(S(=O)(=O)[O-])cc6)c6ccc([nH]6)c(-c6ccc(S(=O)(=O)[O-])cc6)c6nc(c(-c7ccc(S(=O)(=O)[O-])cc7)c7ccc4[nH]7)C=C6)C=C5)cc3)SC2=S)c(C)c1
REMARK SMILES IDX 24 1 23 2 22 3 20 4 21 5 18 7 19 8 17 9 16 10 11 11 12 12
REMARK SMILES IDX 13 13 15 14 14 15 10 16 6 17 7 18 91 19 8 20 9 21 90 22
REMARK SMILES IDX 92 23 5 24 1 25 2 26 3 27 95 28 4 29 93 30 94 31 25 32 26 33
REMARK SMILES IDX 27 34 28 35 29 37 30 38 31 39 89 40 32 41 88 42 33 43 34 44
REMARK SMILES IDX 35 45 82 46 36 47 87 48 81 49 83 50 37 51 86 52 80 53 79 54
REMARK SMILES IDX 38 56 68 57 49 58 67 59 50 60 53 61 66 62 84 63 51 64 52 65
REMARK SMILES IDX 65 67 85 68 54 69 39 70 40 71 48 72 41 73 47 74 42 75 43 76
REMARK SMILES IDX 44 77 45 78 46 79 69 80 70 81 78 82 71 83 77 84 72 85 73 86
REMARK SMILES IDX 74 87 75 88 76 89 55 90 56 91 64 92 57 93 63 94 58 95 59 96
REMARK SMILES IDX 60 97 61 98 62 99
REMARK H PARENT 22 6 27 36 83 55 53 66
REMARK Flexibility Score: inf
ROOT
ATOM      1  C   UNL A   1      34.546  34.126  30.126  1.00  0.00     0.023 C 
ENDROOT
BRANCH   1   2
ATOM      2  C   UNL A   1      34.366  34.412  31.613  1.00  0.00     0.116 C 
BRANCH   2   3
ATOM      3  N   UNL A   1      35.548  35.007  32.219  1.00  0.00    -0.353 N 
ATOM      4  C   UNL A   1      36.771  34.435  32.471  1.00  0.00     0.260 C 
ATOM      5  O   UNL A   1      37.667  35.151  32.927  1.00  0.00    -0.271 OA
ATOM      6  H   UNL A   1      35.458  35.951  32.485  1.00  0.00     0.163 HD
BRANCH   4   7
ATOM      7  C   UNL A   1      36.989  32.932  32.224  1.00  0.00     0.258 C 
ATOM      8  C   UNL A   1      37.725  32.774  30.897  1.00  0.00     0.064 C 
BRANCH   7   9
ATOM      9  O   UNL A   1      37.643  32.508  33.414  1.00  0.00    -0.480 OA
BRANCH   9  10
ATOM     10  C   UNL A   1      38.582  31.532  33.519  1.00  0.00     0.127 A 
ATOM     11  C   UNL A   1      39.851  31.986  33.945  1.00  0.00     0.018 A 
ATOM     12  C   UNL A   1      40.939  31.105  33.962  1.00  0.00     0.012 A 
ATOM     13  C   UNL A   1      40.758  29.769  33.609  1.00  0.00     0.001 A 
ATOM     14  C   UNL A   1      38.401  30.186  33.229  1.00  0.00     0.047 A 
ATOM     15  C   UNL A   1      39.490  29.309  33.263  1.00  0.00     0.004 A 
BRANCH  11  16
ATOM     16  C   UNL A   1      40.065  33.372  34.400  1.00  0.00     0.033 C 
ATOM     17  N   UNL A   1      39.151  33.829  37.921  1.00  0.00    -0.261 N 
ATOM     18  C   UNL A   1      39.361  33.005  36.819  1.00  0.00     0.270 C 
ATOM     19  C   UNL A   1      39.456  35.171  37.759  1.00  0.00     0.152 C 
ATOM     20  O   UNL A   1      39.204  31.790  36.786  1.00  0.00    -0.268 OA
ATOM     21  C   UNL A   1      39.827  33.810  35.648  1.00  0.00     0.081 C 
ATOM     22  S   UNL A   1      40.009  35.461  36.108  1.00  0.00    -0.054 SA
ATOM     23  S   UNL A   1      39.463  36.404  38.892  1.00  0.00    -0.051 S 
BRANCH  17  24
ATOM     24  C   UNL A   1      38.609  33.264  39.115  1.00  0.00     0.054 A 
ATOM     25  C   UNL A   1      36.873  31.195  42.494  1.00  0.00     0.044 C 
ATOM     26  C   UNL A   1      37.457  31.932  41.327  1.00  0.00    -0.051 A 
ATOM     27  C   UNL A   1      36.653  32.388  40.283  1.00  0.00     0.005 A 
ATOM     28  C   UNL A   1      38.836  32.159  41.269  1.00  0.00     0.009 A 
ATOM     29  C   UNL A   1      37.222  33.043  39.188  1.00  0.00     0.027 A 
ATOM     30  C   UNL A   1      39.425  32.836  40.183  1.00  0.00    -0.027 A 
ATOM     31  C   UNL A   1      40.914  33.057  40.244  1.00  0.00     0.046 C 
ENDBRANCH  17  24
ENDBRANCH  11  16
ENDBRANCH   9  10
ENDBRANCH   7   9
ENDBRANCH   4   7
ENDBRANCH   2   3
ENDBRANCH   1   2
BRANCH   1  32
ATOM     32  C   UNL A   1      34.404  32.657  29.741  1.00  0.00     0.023 C 
BRANCH  32  33
ATOM     33  C   UNL A   1      34.458  32.374  28.244  1.00  0.00     0.116 C 
BRANCH  33  34
ATOM     34  N   UNL A   1      33.915  31.070  27.888  1.00  0.00    -0.352 N 
ATOM     35  C   UNL A   1      34.564  29.861  27.799  1.00  0.00     0.251 C 
ATOM     36  H   UNL A   1      32.951  31.051  27.684  1.00  0.00     0.163 HD
ATOM     37  O   UNL A   1      33.982  28.877  27.358  1.00  0.00    -0.269 OA
BRANCH  35  38
ATOM     38  C   UNL A   1      35.983  29.773  28.205  1.00  0.00     0.039 A 
ATOM     39  C   UNL A   1      36.291  29.385  29.510  1.00  0.00     0.014 A 
ATOM     40  C   UNL A   1      37.001  30.019  27.279  1.00  0.00     0.014 A 
ATOM     41  C   UNL A   1      37.623  29.158  29.863  1.00  0.00     0.010 A 
ATOM     42  C   UNL A   1      38.318  29.716  27.610  1.00  0.00     0.010 A 
ATOM     43  C   UNL A   1      38.642  29.273  28.902  1.00  0.00    -0.014 A 
BRANCH  43  44
ATOM     44  C   UNL A   1      40.049  28.915  29.214  1.00  0.00     0.031 A 
ATOM     45  C   UNL A   1      40.973  29.938  29.814  1.00  0.00     0.074 A 
ATOM     46  C   UNL A   1      40.515  27.694  28.880  1.00  0.00     0.049 A 
ATOM     47  N   UNL A   1      42.253  29.845  30.067  1.00  0.00    -0.248 NA
ATOM     48  C   UNL A   1      40.387  31.246  30.154  1.00  0.00     0.031 C 
ATOM     49  C   UNL A   1      39.728  26.624  28.263  1.00  0.00     0.029 A 
ATOM     50  N   UNL A   1      41.770  27.150  29.001  1.00  0.00    -0.354 N 
ATOM     51  C   UNL A   1      42.629  31.081  30.580  1.00  0.00     0.074 A 
ATOM     52  C   UNL A   1      41.453  31.923  30.556  1.00  0.00     0.031 C 
ATOM     53  C   UNL A   1      40.510  25.548  28.082  1.00  0.00     0.029 A 
ATOM     54  C   UNL A   1      41.866  25.865  28.520  1.00  0.00     0.049 A 
ATOM     55  H   UNL A   1      42.531  27.635  29.397  1.00  0.00     0.167 HD
ATOM     56  C   UNL A   1      43.838  31.473  31.046  1.00  0.00     0.031 A 
ATOM     57  C   UNL A   1      42.928  25.041  28.422  1.00  0.00     0.031 A 
ATOM     58  C   UNL A   1      45.005  30.630  31.069  1.00  0.00     0.049 A 
ATOM     59  C   UNL A   1      44.271  25.516  28.905  1.00  0.00     0.074 A 
ATOM     60  C   UNL A   1      46.263  30.918  31.567  1.00  0.00     0.029 A 
ATOM     61  N   UNL A   1      45.060  29.339  30.565  1.00  0.00    -0.354 N 
ATOM     62  N   UNL A   1      44.591  26.666  29.451  1.00  0.00    -0.248 NA
ATOM     63  C   UNL A   1      45.396  24.582  28.763  1.00  0.00     0.031 C 
ATOM     64  C   UNL A   1      47.096  29.826  31.307  1.00  0.00     0.029 A 
ATOM     65  C   UNL A   1      46.342  28.831  30.709  1.00  0.00     0.049 A 
ATOM     66  H   UNL A   1      44.303  28.855  30.165  1.00  0.00     0.167 HD
ATOM     67  C   UNL A   1      45.949  26.583  29.737  1.00  0.00     0.074 A 
ATOM     68  C   UNL A   1      46.385  25.265  29.325  1.00  0.00     0.031 C 
ATOM     69  C   UNL A   1      46.763  27.517  30.290  1.00  0.00     0.031 A 
BRANCH  56  70
ATOM     70  C   UNL A   1      43.965  32.883  31.561  1.00  0.00    -0.014 A 
ATOM     71  C   UNL A   1      43.730  33.187  32.914  1.00  0.00     0.010 A 
ATOM     72  C   UNL A   1      44.369  33.912  30.690  1.00  0.00     0.010 A 
ATOM     73  C   UNL A   1      43.860  34.498  33.378  1.00  0.00     0.020 A 
ATOM     74  C   UNL A   1      44.530  35.219  31.158  1.00  0.00     0.020 A 
ATOM     75  C   UNL A   1      44.259  35.506  32.496  1.00  0.00     0.054 A 
BRANCH  75  76
ATOM     76  S   UNL A   1      44.446  37.193  33.136  1.00  0.00     0.124 S 
ATOM     77  O   UNL A   1      43.151  37.420  33.773  1.00  0.00    -0.237 OA
ATOM     78  O   UNL A   1      45.580  37.065  34.049  1.00  0.00    -0.237 OA
ATOM     79  O   UNL A   1      44.699  37.993  31.940  1.00  0.00    -0.744 OA
ENDBRANCH  75  76
ENDBRANCH  56  70
BRANCH  57  80
ATOM     80  C   UNL A   1      42.765  23.681  27.836  1.00  0.00    -0.014 A 
ATOM     81  C   UNL A   1      42.467  22.579  28.658  1.00  0.00     0.010 A 
ATOM     82  C   UNL A   1      42.905  23.480  26.450  1.00  0.00     0.010 A 
ATOM     83  C   UNL A   1      42.332  21.301  28.108  1.00  0.00     0.020 A 
ATOM     84  C   UNL A   1      42.738  22.209  25.893  1.00  0.00     0.020 A 
ATOM     85  C   UNL A   1      42.465  21.125  26.727  1.00  0.00     0.054 A 
BRANCH  85  86
ATOM     86  S   UNL A   1      42.238  19.464  26.032  1.00  0.00     0.124 S 
ATOM     87  O   UNL A   1      42.593  18.610  27.162  1.00  0.00    -0.237 OA
ATOM     88  O   UNL A   1      40.824  19.469  25.662  1.00  0.00    -0.237 OA
ATOM     89  O   UNL A   1      43.167  19.434  24.906  1.00  0.00    -0.744 OA
ENDBRANCH  85  86
ENDBRANCH  57  80
BRANCH  69  90
ATOM     90  C   UNL A   1      48.205  27.142  30.503  1.00  0.00    -0.014 A 
ATOM     91  C   UNL A   1      49.176  27.392  29.517  1.00  0.00     0.010 A 
ATOM     92  C   UNL A   1      48.607  26.594  31.736  1.00  0.00     0.010 A 
ATOM     93  C   UNL A   1      50.517  27.074  29.749  1.00  0.00     0.020 A 
ATOM     94  C   UNL A   1      49.951  26.306  31.984  1.00  0.00     0.020 A 
ATOM     95  C   UNL A   1      50.896  26.538  30.984  1.00  0.00     0.054 A 
BRANCH  95  96
ATOM     96  S   UNL A   1      52.652  26.190  31.279  1.00  0.00     0.124 S 
ATOM     97  O   UNL A   1      53.043  27.304  32.138  1.00  0.00    -0.237 OA
ATOM     98  O   UNL A   1      52.615  24.881  31.924  1.00  0.00    -0.237 OA
ATOM     99  O   UNL A   1      53.237  26.201  29.939  1.00  0.00    -0.744 OA
ENDBRANCH  95  96
ENDBRANCH  69  90
ENDBRANCH  43  44
ENDBRANCH  35  38
ENDBRANCH  33  34
ENDBRANCH  32  33
ENDBRANCH   1  32
TORSDOF 18
ENDMDL
MODEL 2
REMARK VINA RESULT:      -9.4      0.310      7.799
REMARK SMILES Cc1ccc(N2C(=O)/C(=C\c3ccccc3O[C@H](C)C(=O)NCCCCNC(=O)c3ccc(-c4c5nc(c(-c6ccc(S(=O)(=O)[O-])cc6)c6ccc([nH]6)c(-c6ccc(S(=O)(=O)[O-])cc6)c6nc(c(-c7ccc(S(=O)(=O)[O-])cc7)c7ccc4[nH]7)C=C6)C=C5)cc3)SC2=S)c(C)c1
REMARK SMILES IDX 24 1 23 2 22 3 20 4 21 5 18 7 19 8 17 9 16 10 11 11 12 12
REMARK SMILES IDX 13 13 15 14 14 15 10 16 6 17 7 18 91 19 8 20 9 21 90 22
REMARK SMILES IDX 92 23 5 24 1 25 2 26 3 27 95 28 4 29 93 30 94 31 25 32 26 33
REMARK SMILES IDX 27 34 28 35 29 37 30 38 31 39 89 40 32 41 88 42 33 43 34 44
REMARK SMILES IDX 35 45 82 46 36 47 87 48 81 49 83 50 37 51 86 52 80 53 79 54
REMARK SMILES IDX 38 56 68 57 49 58 67 59 50 60 53 61 66 62 84 63 51 64 52 65
REMARK SMILES IDX 65 67 85 68 54 69 39 70 40 71 48 72 41 73 47 74 42 75 43 76
REMARK SMILES IDX 44 77 45 78 46 79 69 80 70 81 78 82 71 83 77 84 72 85 73 86
REMARK SMILES IDX 74 87 75 88 76 89 55 90 56 91 64 92 57 93 63 94 58 95 59 96
REMARK SMILES IDX 60 97 61 98 62 99
REMARK H PARENT 22 6 27 36 83 55 53 66
REMARK Flexibility Score: inf
ROOT
ATOM      1  C   UNL A   1      34.424  34.039  30.235  1.00  0.00     0.023 C 
ENDROOT
BRANCH   1   2
ATOM      2  C   UNL A   1      34.316  34.321  31.730  1.00  0.00     0.116 C 
BRANCH   2   3
ATOM      3  N   UNL A   1      35.508  34.953  32.271  1.00  0.00    -0.353 N 
ATOM      4  C   UNL A   1      36.759  34.418  32.467  1.00  0.00     0.260 C 
ATOM      5  O   UNL A   1      37.656  35.164  32.871  1.00  0.00    -0.271 OA
ATOM      6  H   UNL A   1      35.406  35.897  32.534  1.00  0.00     0.163 HD
BRANCH   4   7
ATOM      7  C   UNL A   1      37.007  32.920  32.221  1.00  0.00     0.258 C 
ATOM      8  C   UNL A   1      37.754  32.776  30.898  1.00  0.00     0.064 C 
BRANCH   7   9
ATOM      9  O   UNL A   1      37.661  32.508  33.415  1.00  0.00    -0.480 OA
BRANCH   9  10
ATOM     10  C   UNL A   1      38.602  31.536  33.529  1.00  0.00     0.127 A 
ATOM     11  C   UNL A   1      39.868  31.997  33.961  1.00  0.00     0.018 A 
ATOM     12  C   UNL A   1      40.959  31.120  33.988  1.00  0.00     0.012 A 
ATOM     13  C   UNL A   1      40.785  29.783  33.639  1.00  0.00     0.001 A 
ATOM     14  C   UNL A   1      38.429  30.188  33.243  1.00  0.00     0.047 A 
ATOM     15  C   UNL A   1      39.521  29.316  33.287  1.00  0.00     0.004 A 
BRANCH  11  16
ATOM     16  C   UNL A   1      40.073  33.385  34.413  1.00  0.00     0.033 C 
ATOM     17  N   UNL A   1      39.203  33.836  37.946  1.00  0.00    -0.261 N 
ATOM     18  C   UNL A   1      39.407  33.013  36.841  1.00  0.00     0.270 C 
ATOM     19  C   UNL A   1      39.492  35.181  37.779  1.00  0.00     0.152 C 
ATOM     20  O   UNL A   1      39.262  31.796  36.812  1.00  0.00    -0.268 OA
ATOM     21  C   UNL A   1      39.847  33.822  35.664  1.00  0.00     0.081 C 
ATOM     22  S   UNL A   1      40.019  35.474  36.120  1.00  0.00    -0.054 SA
ATOM     23  S   UNL A   1      39.502  36.415  38.910  1.00  0.00    -0.051 S 
BRANCH  17  24
ATOM     24  C   UNL A   1      38.684  33.265  39.147  1.00  0.00     0.054 A 
ATOM     25  C   UNL A   1      37.018  31.180  42.552  1.00  0.00     0.044 C 
ATOM     26  C   UNL A   1      37.578  31.923  41.376  1.00  0.00    -0.051 A 
ATOM     27  C   UNL A   1      36.754  32.366  40.342  1.00  0.00     0.005 A 
ATOM     28  C   UNL A   1      38.952  32.169  41.301  1.00  0.00     0.009 A 
ATOM     29  C   UNL A   1      37.301  33.026  39.238  1.00  0.00     0.027 A 
ATOM     30  C   UNL A   1      39.519  32.851  40.206  1.00  0.00    -0.027 A 
ATOM     31  C   UNL A   1      41.005  33.092  40.248  1.00  0.00     0.046 C 
ENDBRANCH  17  24
ENDBRANCH  11  16
ENDBRANCH   9  10
ENDBRANCH   7   9
ENDBRANCH   4   7
ENDBRANCH   2   3
ENDBRANCH   1   2
BRANCH   1  32
ATOM     32  C   UNL A   1      34.435  32.558  29.868  1.00  0.00     0.023 C 
BRANCH  32  33
ATOM     33  C   UNL A   1      34.406  32.264  28.373  1.00  0.00     0.116 C 
BRANCH  33  34
ATOM     34  N   UNL A   1      33.914  30.928  28.061  1.00  0.00    -0.352 N 
ATOM     35  C   UNL A   1      34.620  29.753  27.952  1.00  0.00     0.251 C 
ATOM     36  H   UNL A   1      32.944  30.857  27.908  1.00  0.00     0.163 HD
ATOM     37  O   UNL A   1      34.068  28.734  27.555  1.00  0.00    -0.269 OA
BRANCH  35  38
ATOM     38  C   UNL A   1      36.061  29.745  28.284  1.00  0.00     0.039 A 
ATOM     39  C   UNL A   1      36.459  29.349  29.562  1.00  0.00     0.014 A 
ATOM     40  C   UNL A   1      37.013  30.072  27.315  1.00  0.00     0.014 A 
ATOM     41  C   UNL A   1      37.819  29.197  29.842  1.00  0.00     0.010 A 
ATOM     42  C   UNL A   1      38.361  29.844  27.571  1.00  0.00     0.010 A 
ATOM     43  C   UNL A   1      38.778  29.396  28.834  1.00  0.00    -0.014 A 
BRANCH  43  44
ATOM     44  C   UNL A   1      40.218  29.118  29.067  1.00  0.00     0.031 A 
ATOM     45  C   UNL A   1      40.793  27.773  28.720  1.00  0.00     0.074 A 
ATOM     46  C   UNL A   1      40.988  30.051  29.665  1.00  0.00     0.049 A 
ATOM     47  N   UNL A   1      41.998  27.311  28.936  1.00  0.00    -0.248 NA
ATOM     48  C   UNL A   1      39.889  26.812  28.065  1.00  0.00     0.031 C 
ATOM     49  C   UNL A   1      40.541  31.383  30.080  1.00  0.00     0.029 A 
ATOM     50  N   UNL A   1      42.307  30.015  30.042  1.00  0.00    -0.354 N 
ATOM     51  C   UNL A   1      41.994  26.006  28.460  1.00  0.00     0.074 A 
ATOM     52  C   UNL A   1      40.654  25.732  27.988  1.00  0.00     0.031 C 
ATOM     53  C   UNL A   1      41.572  32.042  30.631  1.00  0.00     0.029 A 
ATOM     54  C   UNL A   1      42.739  31.167  30.658  1.00  0.00     0.049 A 
ATOM     55  H   UNL A   1      42.891  29.237  29.886  1.00  0.00     0.167 HD
ATOM     56  C   UNL A   1      43.017  25.121  28.403  1.00  0.00     0.031 A 
ATOM     57  C   UNL A   1      43.933  31.478  31.202  1.00  0.00     0.031 A 
ATOM     58  C   UNL A   1      44.349  25.398  28.872  1.00  0.00     0.049 A 
ATOM     59  C   UNL A   1      45.041  30.461  31.166  1.00  0.00     0.074 A 
ATOM     60  C   UNL A   1      45.468  24.586  28.812  1.00  0.00     0.029 A 
ATOM     61  N   UNL A   1      44.742  26.574  29.495  1.00  0.00    -0.354 N 
ATOM     62  N   UNL A   1      45.037  29.256  30.649  1.00  0.00    -0.248 NA
ATOM     63  C   UNL A   1      46.317  30.849  31.784  1.00  0.00     0.031 C 
ATOM     64  C   UNL A   1      46.520  25.244  29.456  1.00  0.00     0.029 A 
ATOM     65  C   UNL A   1      46.077  26.494  29.856  1.00  0.00     0.049 A 
ATOM     66  H   UNL A   1      44.159  27.350  29.656  1.00  0.00     0.167 HD
ATOM     67  C   UNL A   1      46.315  28.749  30.859  1.00  0.00     0.074 A 
ATOM     68  C   UNL A   1      47.070  29.786  31.531  1.00  0.00     0.031 C 
ATOM     69  C   UNL A   1      46.817  27.534  30.529  1.00  0.00     0.031 A 
BRANCH  56  70
ATOM     70  C   UNL A   1      42.734  23.761  27.820  1.00  0.00    -0.014 A 
ATOM     71  C   UNL A   1      42.868  23.518  26.441  1.00  0.00     0.010 A 
ATOM     72  C   UNL A   1      42.372  22.698  28.669  1.00  0.00     0.010 A 
ATOM     73  C   UNL A   1      42.610  22.249  25.917  1.00  0.00     0.020 A 
ATOM     74  C   UNL A   1      42.143  21.420  28.152  1.00  0.00     0.020 A 
ATOM     75  C   UNL A   1      42.249  21.207  26.777  1.00  0.00     0.054 A 
BRANCH  75  76
ATOM     76  S   UNL A   1      41.948  19.565  26.069  1.00  0.00     0.124 S 
ATOM     77  O   UNL A   1      42.316  18.686  27.177  1.00  0.00    -0.237 OA
ATOM     78  O   UNL A   1      40.523  19.610  25.751  1.00  0.00    -0.237 OA
ATOM     79  O   UNL A   1      42.841  19.515  24.914  1.00  0.00    -0.744 OA
ENDBRANCH  75  76
ENDBRANCH  56  70
BRANCH  57  80
ATOM     80  C   UNL A   1      44.140  32.812  31.833  1.00  0.00    -0.014 A 
ATOM     81  C   UNL A   1      43.734  33.046  33.159  1.00  0.00     0.010 A 
ATOM     82  C   UNL A   1      44.748  33.855  31.112  1.00  0.00     0.010 A 
ATOM     83  C   UNL A   1      43.914  34.303  33.744  1.00  0.00     0.020 A 
ATOM     84  C   UNL A   1      44.959  35.104  31.703  1.00  0.00     0.020 A 
ATOM     85  C   UNL A   1      44.529  35.323  33.013  1.00  0.00     0.054 A 
BRANCH  85  86
ATOM     86  S   UNL A   1      44.794  36.932  33.810  1.00  0.00     0.124 S 
ATOM     87  O   UNL A   1      45.347  37.726  32.717  1.00  0.00    -0.237 OA
ATOM     88  O   UNL A   1      43.445  37.295  34.238  1.00  0.00    -0.237 OA
ATOM     89  O   UNL A   1      45.722  36.627  34.896  1.00  0.00    -0.744 OA
ENDBRANCH  85  86
ENDBRANCH  57  80
BRANCH  69  90
ATOM     90  C   UNL A   1      48.258  27.261  30.867  1.00  0.00    -0.014 A 
ATOM     91  C   UNL A   1      48.616  26.617  32.065  1.00  0.00     0.010 A 
ATOM     92  C   UNL A   1      49.265  27.595  29.942  1.00  0.00     0.010 A 
ATOM     93  C   UNL A   1      49.956  26.336  32.342  1.00  0.00     0.020 A 
ATOM     94  C   UNL A   1      50.603  27.287  30.202  1.00  0.00     0.020 A 
ATOM     95  C   UNL A   1      50.941  26.669  31.406  1.00  0.00     0.054 A 
BRANCH  95  96
ATOM     96  S   UNL A   1      52.665  26.239  31.768  1.00  0.00     0.124 S 
ATOM     97  O   UNL A   1      52.986  27.157  32.858  1.00  0.00    -0.237 OA
ATOM     98  O   UNL A   1      52.573  24.830  32.139  1.00  0.00    -0.237 OA
ATOM     99  O   UNL A   1      53.360  26.501  30.508  1.00  0.00    -0.744 OA
ENDBRANCH  95  96
ENDBRANCH  69  90
ENDBRANCH  43  44
ENDBRANCH  35  38
ENDBRANCH  33  34
ENDBRANCH  32  33
ENDBRANCH   1  32
TORSDOF 18
ENDMDL
MODEL 3
REMARK VINA RESULT:      -8.1      6.277     14.443
REMARK SMILES Cc1ccc(N2C(=O)/C(=C\c3ccccc3O[C@H](C)C(=O)NCCCCNC(=O)c3ccc(-c4c5nc(c(-c6ccc(S(=O)(=O)[O-])cc6)c6ccc([nH]6)c(-c6ccc(S(=O)(=O)[O-])cc6)c6nc(c(-c7ccc(S(=O)(=O)[O-])cc7)c7ccc4[nH]7)C=C6)C=C5)cc3)SC2=S)c(C)c1
REMARK SMILES IDX 24 1 23 2 22 3 20 4 21 5 18 7 19 8 17 9 16 10 11 11 12 12
REMARK SMILES IDX 13 13 15 14 14 15 10 16 6 17 7 18 91 19 8 20 9 21 90 22
REMARK SMILES IDX 92 23 5 24 1 25 2 26 3 27 95 28 4 29 93 30 94 31 25 32 26 33
REMARK SMILES IDX 27 34 28 35 29 37 30 38 31 39 89 40 32 41 88 42 33 43 34 44
REMARK SMILES IDX 35 45 82 46 36 47 87 48 81 49 83 50 37 51 86 52 80 53 79 54
REMARK SMILES IDX 38 56 68 57 49 58 67 59 50 60 53 61 66 62 84 63 51 64 52 65
REMARK SMILES IDX 65 67 85 68 54 69 39 70 40 71 48 72 41 73 47 74 42 75 43 76
REMARK SMILES IDX 44 77 45 78 46 79 69 80 70 81 78 82 71 83 77 84 72 85 73 86
REMARK SMILES IDX 74 87 75 88 76 89 55 90 56 91 64 92 57 93 63 94 58 95 59 96
REMARK SMILES IDX 60 97 61 98 62 99
REMARK H PARENT 22 6 27 36 83 55 53 66
REMARK Flexibility Score: inf
ROOT
ATOM      1  C   UNL A   1      52.713  22.252  33.070  1.00  0.00     0.023 C 
ENDROOT
BRANCH   1   2
ATOM      2  C   UNL A   1      51.346  21.577  33.125  1.00  0.00     0.116 C 
BRANCH   2   3
ATOM      3  N   UNL A   1      51.146  20.811  34.346  1.00  0.00    -0.353 N 
ATOM      4  C   UNL A   1      49.984  20.287  34.859  1.00  0.00     0.260 C 
ATOM      5  O   UNL A   1      50.056  19.598  35.880  1.00  0.00    -0.271 OA
ATOM      6  H   UNL A   1      51.958  20.645  34.879  1.00  0.00     0.163 HD
BRANCH   4   7
ATOM      7  C   UNL A   1      48.635  20.594  34.187  1.00  0.00     0.258 C 
ATOM      8  C   UNL A   1      48.352  19.493  33.169  1.00  0.00     0.064 C 
BRANCH   7   9
ATOM      9  O   UNL A   1      47.754  20.731  35.296  1.00  0.00    -0.480 OA
BRANCH   9  10
ATOM     10  C   UNL A   1      46.798  21.681  35.460  1.00  0.00     0.127 A 
ATOM     11  C   UNL A   1      46.805  22.305  36.728  1.00  0.00     0.018 A 
ATOM     12  C   UNL A   1      45.787  23.202  37.072  1.00  0.00     0.012 A 
ATOM     13  C   UNL A   1      44.797  23.518  36.145  1.00  0.00     0.001 A 
ATOM     14  C   UNL A   1      45.840  22.050  34.523  1.00  0.00     0.047 A 
ATOM     15  C   UNL A   1      44.836  22.959  34.869  1.00  0.00     0.004 A 
BRANCH  11  16
ATOM     16  C   UNL A   1      47.880  22.055  37.707  1.00  0.00     0.033 C 
ATOM     17  N   UNL A   1      46.998  19.409  40.086  1.00  0.00    -0.261 N 
ATOM     18  C   UNL A   1      46.726  20.149  38.939  1.00  0.00     0.270 C 
ATOM     19  C   UNL A   1      48.208  19.658  40.713  1.00  0.00     0.152 C 
ATOM     20  O   UNL A   1      45.740  20.031  38.220  1.00  0.00    -0.268 OA
ATOM     21  C   UNL A   1      47.826  21.129  38.679  1.00  0.00     0.081 C 
ATOM     22  S   UNL A   1      49.072  20.935  39.853  1.00  0.00    -0.054 SA
ATOM     23  S   UNL A   1      48.917  18.870  42.009  1.00  0.00    -0.051 S 
BRANCH  17  24
ATOM     24  C   UNL A   1      46.019  18.484  40.560  1.00  0.00     0.054 A 
ATOM     25  C   UNL A   1      43.382  15.468  42.192  1.00  0.00     0.044 C 
ATOM     26  C   UNL A   1      44.287  16.507  41.602  1.00  0.00    -0.051 A 
ATOM     27  C   UNL A   1      45.179  16.192  40.578  1.00  0.00     0.005 A 
ATOM     28  C   UNL A   1      44.251  17.817  42.090  1.00  0.00     0.009 A 
ATOM     29  C   UNL A   1      46.039  17.168  40.066  1.00  0.00     0.027 A 
ATOM     30  C   UNL A   1      45.095  18.819  41.572  1.00  0.00    -0.027 A 
ATOM     31  C   UNL A   1      44.944  20.203  42.149  1.00  0.00     0.046 C 
ENDBRANCH  17  24
ENDBRANCH  11  16
ENDBRANCH   9  10
ENDBRANCH   7   9
ENDBRANCH   4   7
ENDBRANCH   2   3
ENDBRANCH   1   2
BRANCH   1  32
ATOM     32  C   UNL A   1      52.912  23.365  34.093  1.00  0.00     0.023 C 
BRANCH  32  33
ATOM     33  C   UNL A   1      51.711  24.283  34.290  1.00  0.00     0.116 C 
BRANCH  33  34
ATOM     34  N   UNL A   1      51.775  25.053  35.525  1.00  0.00    -0.352 N 
ATOM     35  C   UNL A   1      50.893  25.996  36.000  1.00  0.00     0.251 C 
ATOM     36  H   UNL A   1      52.555  24.874  36.099  1.00  0.00     0.163 HD
ATOM     37  O   UNL A   1      51.164  26.648  37.001  1.00  0.00    -0.269 OA
BRANCH  35  38
ATOM     38  C   UNL A   1      49.634  26.241  35.264  1.00  0.00     0.039 A 
ATOM     39  C   UNL A   1      48.498  25.505  35.604  1.00  0.00     0.014 A 
ATOM     40  C   UNL A   1      49.569  27.234  34.284  1.00  0.00     0.014 A 
ATOM     41  C   UNL A   1      47.271  25.826  35.020  1.00  0.00     0.010 A 
ATOM     42  C   UNL A   1      48.333  27.605  33.763  1.00  0.00     0.010 A 
ATOM     43  C   UNL A   1      47.170  26.911  34.132  1.00  0.00    -0.014 A 
BRANCH  43  44
ATOM     44  C   UNL A   1      45.858  27.356  33.595  1.00  0.00     0.031 A 
ATOM     45  C   UNL A   1      45.312  26.744  32.335  1.00  0.00     0.074 A 
ATOM     46  C   UNL A   1      45.201  28.368  34.198  1.00  0.00     0.049 A 
ATOM     47  N   UNL A   1      44.238  27.065  31.662  1.00  0.00    -0.248 NA
ATOM     48  C   UNL A   1      46.087  25.641  31.741  1.00  0.00     0.031 C 
ATOM     49  C   UNL A   1      45.642  29.067  35.407  1.00  0.00     0.029 A 
ATOM     50  N   UNL A   1      44.025  28.995  33.866  1.00  0.00    -0.354 N 
ATOM     51  C   UNL A   1      44.214  26.218  30.560  1.00  0.00     0.074 A 
ATOM     52  C   UNL A   1      45.407  25.403  30.629  1.00  0.00     0.031 C 
ATOM     53  C   UNL A   1      44.739  30.007  35.727  1.00  0.00     0.029 A 
ATOM     54  C   UNL A   1      43.682  30.017  34.720  1.00  0.00     0.049 A 
ATOM     55  H   UNL A   1      43.478  28.737  33.089  1.00  0.00     0.167 HD
ATOM     56  C   UNL A   1      43.275  26.115  29.590  1.00  0.00     0.031 A 
ATOM     57  C   UNL A   1      42.646  30.879  34.689  1.00  0.00     0.031 A 
ATOM     58  C   UNL A   1      42.089  26.928  29.527  1.00  0.00     0.049 A 
ATOM     59  C   UNL A   1      41.641  30.773  33.575  1.00  0.00     0.074 A 
ATOM     60  C   UNL A   1      41.052  26.866  28.613  1.00  0.00     0.029 A 
ATOM     61  N   UNL A   1      41.784  27.955  30.408  1.00  0.00    -0.354 N 
ATOM     62  N   UNL A   1      41.599  29.919  32.580  1.00  0.00    -0.248 NA
ATOM     63  C   UNL A   1      40.538  31.745  33.583  1.00  0.00     0.031 C 
ATOM     64  C   UNL A   1      40.153  27.897  28.901  1.00  0.00     0.029 A 
ATOM     65  C   UNL A   1      40.592  28.557  30.036  1.00  0.00     0.049 A 
ATOM     66  H   UNL A   1      42.331  28.217  31.182  1.00  0.00     0.167 HD
ATOM     67  C   UNL A   1      40.456  30.237  31.855  1.00  0.00     0.074 A 
ATOM     68  C   UNL A   1      39.823  31.346  32.538  1.00  0.00     0.031 C 
ATOM     69  C   UNL A   1      39.975  29.664  30.724  1.00  0.00     0.031 A 
BRANCH  56  70
ATOM     70  C   UNL A   1      43.499  25.092  28.507  1.00  0.00    -0.014 A 
ATOM     71  C   UNL A   1      42.885  23.827  28.564  1.00  0.00     0.010 A 
ATOM     72  C   UNL A   1      44.296  25.415  27.393  1.00  0.00     0.010 A 
ATOM     73  C   UNL A   1      43.095  22.891  27.548  1.00  0.00     0.020 A 
ATOM     74  C   UNL A   1      44.483  24.493  26.359  1.00  0.00     0.020 A 
ATOM     75  C   UNL A   1      43.894  23.231  26.451  1.00  0.00     0.054 A 
BRANCH  75  76
ATOM     76  S   UNL A   1      44.124  22.005  25.135  1.00  0.00     0.124 S 
ATOM     77  O   UNL A   1      43.401  22.618  24.022  1.00  0.00    -0.237 OA
ATOM     78  O   UNL A   1      45.577  21.960  24.991  1.00  0.00    -0.237 OA
ATOM     79  O   UNL A   1      43.516  20.793  25.678  1.00  0.00    -0.744 OA
ENDBRANCH  75  76
ENDBRANCH  56  70
BRANCH  57  80
ATOM     80  C   UNL A   1      42.511  31.922  35.744  1.00  0.00    -0.014 A 
ATOM     81  C   UNL A   1      41.714  31.691  36.880  1.00  0.00     0.010 A 
ATOM     82  C   UNL A   1      43.180  33.153  35.619  1.00  0.00     0.010 A 
ATOM     83  C   UNL A   1      41.574  32.678  37.860  1.00  0.00     0.020 A 
ATOM     84  C   UNL A   1      43.069  34.130  36.613  1.00  0.00     0.020 A 
ATOM     85  C   UNL A   1      42.256  33.890  37.722  1.00  0.00     0.054 A 
BRANCH  85  86
ATOM     86  S   UNL A   1      42.096  35.137  39.031  1.00  0.00     0.124 S 
ATOM     87  O   UNL A   1      42.869  36.250  38.488  1.00  0.00    -0.237 OA
ATOM     88  O   UNL A   1      40.651  35.341  39.094  1.00  0.00    -0.237 OA
ATOM     89  O   UNL A   1      42.676  34.481  40.200  1.00  0.00    -0.744 OA
ENDBRANCH  85  86
ENDBRANCH  57  80
BRANCH  69  90
ATOM     90  C   UNL A   1      38.689  30.209  30.162  1.00  0.00    -0.014 A 
ATOM     91  C   UNL A   1      37.443  29.698  30.567  1.00  0.00     0.010 A 
ATOM     92  C   UNL A   1      38.726  31.293  29.264  1.00  0.00     0.010 A 
ATOM     93  C   UNL A   1      36.259  30.244  30.064  1.00  0.00     0.020 A 
ATOM     94  C   UNL A   1      37.544  31.862  28.784  1.00  0.00     0.020 A 
ATOM     95  C   UNL A   1      36.317  31.326  29.179  1.00  0.00     0.054 A 
BRANCH  95  96
ATOM     96  S   UNL A   1      34.763  32.051  28.589  1.00  0.00     0.124 S 
ATOM     97  O   UNL A   1      35.237  33.083  27.672  1.00  0.00    -0.237 OA
ATOM     98  O   UNL A   1      34.096  30.912  27.964  1.00  0.00    -0.237 OA
ATOM     99  O   UNL A   1      34.126  32.546  29.809  1.00  0.00    -0.744 OA
ENDBRANCH  95  96
ENDBRANCH  69  90
ENDBRANCH  43  44
ENDBRANCH  35  38
ENDBRANCH  33  34
ENDBRANCH  32  33
ENDBRANCH   1  32
TORSDOF 18
ENDMDL
