MODEL 1
REMARK VINA RESULT:      -9.1      0.000      0.000
REMARK SMILES O=C(CSc1ccc2ccccc2n1)NCc1ccc(C(=O)NCCCCNC(=O)c2ccc(-c3c4nc(c(-c5ccc(S(=O)(=O)[O-])cc5)c5ccc([nH]5)c(-c5ccc(S(=O)(=O)[O-])cc5)c5nc(c(-c6ccc(S(=O)(=O)[O-])cc6)c6ccc3[nH]6)C=C5)C=C4)cc2)cc1
REMARK SMILES IDX 24 1 23 2 21 3 22 4 20 6 17 7 18 8 92 9 19 10 91 11 16 12
REMARK SMILES IDX 15 13 1 14 2 15 3 17 4 18 5 19 6 20 14 21 7 22 13 23 8 24
REMARK SMILES IDX 12 25 9 26 11 27 10 28 25 29 26 30 27 31 28 32 29 33 30 35
REMARK SMILES IDX 31 36 32 37 90 38 33 39 89 40 34 41 35 42 36 43 83 44 37 45
REMARK SMILES IDX 88 46 82 47 84 48 38 49 87 50 81 51 80 52 39 54 69 55 50 56
REMARK SMILES IDX 68 57 51 58 54 59 67 60 85 61 52 62 53 63 66 65 86 66 55 67
REMARK SMILES IDX 40 68 41 69 49 70 42 71 48 72 43 73 44 74 45 75 46 76 47 77
REMARK SMILES IDX 70 78 71 79 79 80 72 81 78 82 73 83 74 84 75 85 76 86 77 87
REMARK SMILES IDX 56 88 57 89 65 90 58 91 64 92 59 93 60 94 61 95 62 96 63 97
REMARK H PARENT 23 5 15 16 28 34 84 53 54 64
REMARK Flexibility Score: inf
ROOT
ATOM      1  C   UNL A   1      37.310  33.983  31.171  1.00  0.00     0.116 C 
ENDROOT
BRANCH   1   2
ATOM      2  N   UNL A   1      36.363  33.573  32.189  1.00  0.00    -0.352 N 
ATOM      3  C   UNL A   1      36.448  32.661  33.210  1.00  0.00     0.251 C 
ATOM      4  O   UNL A   1      35.475  32.553  33.958  1.00  0.00    -0.269 OA
ATOM      5  H   UNL A   1      35.496  34.036  32.137  1.00  0.00     0.163 HD
BRANCH   3   6
ATOM      6  C   UNL A   1      37.662  31.838  33.486  1.00  0.00     0.039 A 
ATOM      7  C   UNL A   1      40.048  30.435  34.104  1.00  0.00    -0.029 A 
ATOM      8  C   UNL A   1      39.859  31.749  34.547  1.00  0.00     0.006 A 
ATOM      9  C   UNL A   1      39.008  29.817  33.396  1.00  0.00     0.006 A 
ATOM     10  C   UNL A   1      38.685  32.444  34.229  1.00  0.00     0.014 A 
ATOM     11  C   UNL A   1      37.822  30.504  33.112  1.00  0.00     0.014 A 
BRANCH   7  12
ATOM     12  C   UNL A   1      41.271  29.620  34.442  1.00  0.00     0.151 C 
BRANCH  12  13
ATOM     13  N   UNL A   1      40.978  28.294  34.931  1.00  0.00    -0.351 N 
ATOM     14  O   UNL A   1      42.608  27.243  33.708  1.00  0.00    -0.274 OA
ATOM     15  C   UNL A   1      41.725  27.194  34.562  1.00  0.00     0.230 C 
ATOM     16  H   UNL A   1      40.220  28.169  35.547  1.00  0.00     0.163 HD
BRANCH  15  17
ATOM     17  C   UNL A   1      41.318  25.891  35.228  1.00  0.00     0.176 C 
BRANCH  17  18
ATOM     18  S   UNL A   1      42.378  25.513  36.664  1.00  0.00    -0.096 SA
BRANCH  18  19
ATOM     19  C   UNL A   1      43.488  24.338  35.909  1.00  0.00     0.097 A 
ATOM     20  C   UNL A   1      43.046  23.597  34.825  1.00  0.00     0.036 A 
ATOM     21  N   UNL A   1      44.741  24.251  36.401  1.00  0.00    -0.241 NA
ATOM     22  C   UNL A   1      43.930  22.711  34.222  1.00  0.00     0.013 A 
ATOM     23  C   UNL A   1      45.600  23.396  35.815  1.00  0.00     0.072 A 
ATOM     24  C   UNL A   1      45.236  22.599  34.709  1.00  0.00     0.000 A 
ATOM     25  C   UNL A   1      46.900  23.284  36.296  1.00  0.00     0.029 A 
ATOM     26  C   UNL A   1      46.170  21.728  34.117  1.00  0.00     0.010 A 
ATOM     27  C   UNL A   1      47.833  22.423  35.708  1.00  0.00     0.002 A 
ATOM     28  C   UNL A   1      47.467  21.645  34.616  1.00  0.00     0.001 A 
ENDBRANCH  18  19
ENDBRANCH  17  18
ENDBRANCH  15  17
ENDBRANCH  12  13
ENDBRANCH   7  12
ENDBRANCH   3   6
ENDBRANCH   1   2
BRANCH   1  29
ATOM     29  C   UNL A   1      37.042  33.248  29.856  1.00  0.00     0.023 C 
BRANCH  29  30
ATOM     30  C   UNL A   1      35.570  33.229  29.432  1.00  0.00     0.023 C 
BRANCH  30  31
ATOM     31  C   UNL A   1      35.329  32.979  27.947  1.00  0.00     0.116 C 
BRANCH  31  32
ATOM     32  N   UNL A   1      34.374  31.913  27.695  1.00  0.00    -0.352 N 
ATOM     33  C   UNL A   1      34.580  30.553  27.701  1.00  0.00     0.251 C 
ATOM     34  H   UNL A   1      33.455  32.204  27.495  1.00  0.00     0.163 HD
ATOM     35  O   UNL A   1      33.683  29.799  27.354  1.00  0.00    -0.269 OA
BRANCH  33  36
ATOM     36  C   UNL A   1      35.903  30.019  28.087  1.00  0.00     0.039 A 
ATOM     37  C   UNL A   1      36.930  30.029  27.142  1.00  0.00     0.014 A 
ATOM     38  C   UNL A   1      36.135  29.521  29.373  1.00  0.00     0.014 A 
ATOM     39  C   UNL A   1      38.205  29.590  27.502  1.00  0.00     0.010 A 
ATOM     40  C   UNL A   1      37.423  29.153  29.751  1.00  0.00     0.010 A 
ATOM     41  C   UNL A   1      38.469  29.176  28.819  1.00  0.00    -0.014 A 
BRANCH  41  42
ATOM     42  C   UNL A   1      39.839  28.770  29.225  1.00  0.00     0.031 A 
ATOM     43  C   UNL A   1      40.713  29.716  30.003  1.00  0.00     0.074 A 
ATOM     44  C   UNL A   1      40.307  27.561  28.858  1.00  0.00     0.049 A 
ATOM     45  N   UNL A   1      41.927  29.531  30.454  1.00  0.00    -0.248 NA
ATOM     46  C   UNL A   1      40.164  31.051  30.292  1.00  0.00     0.031 C 
ATOM     47  C   UNL A   1      39.576  26.578  28.054  1.00  0.00     0.029 A 
ATOM     48  N   UNL A   1      41.509  26.951  29.116  1.00  0.00    -0.354 N 
ATOM     49  C   UNL A   1      42.289  30.723  31.069  1.00  0.00     0.074 A 
ATOM     50  C   UNL A   1      41.190  31.644  30.884  1.00  0.00     0.031 C 
ATOM     51  C   UNL A   1      40.329  25.474  27.917  1.00  0.00     0.029 A 
ATOM     52  C   UNL A   1      41.606  25.682  28.593  1.00  0.00     0.049 A 
ATOM     53  H   UNL A   1      42.232  27.380  29.625  1.00  0.00     0.167 HD
ATOM     54  C   UNL A   1      43.425  31.020  31.746  1.00  0.00     0.031 A 
ATOM     55  C   UNL A   1      42.607  24.783  28.659  1.00  0.00     0.031 A 
ATOM     56  C   UNL A   1      44.513  30.097  31.937  1.00  0.00     0.049 A 
ATOM     57  C   UNL A   1      43.852  25.130  29.428  1.00  0.00     0.074 A 
ATOM     58  C   UNL A   1      45.681  30.281  32.655  1.00  0.00     0.029 A 
ATOM     59  N   UNL A   1      44.568  28.817  31.404  1.00  0.00    -0.354 N 
ATOM     60  N   UNL A   1      44.143  26.237  30.067  1.00  0.00    -0.248 NA
ATOM     61  C   UNL A   1      44.893  24.096  29.500  1.00  0.00     0.031 C 
ATOM     62  C   UNL A   1      46.465  29.129  32.517  1.00  0.00     0.029 A 
ATOM     63  C   UNL A   1      45.758  28.207  31.762  1.00  0.00     0.049 A 
ATOM     64  H   UNL A   1      43.864  28.405  30.854  1.00  0.00     0.167 HD
ATOM     65  C   UNL A   1      45.391  26.024  30.642  1.00  0.00     0.074 A 
ATOM     66  C   UNL A   1      45.789  24.676  30.288  1.00  0.00     0.031 C 
ATOM     67  C   UNL A   1      46.142  26.867  31.395  1.00  0.00     0.031 A 
BRANCH  54  68
ATOM     68  C   UNL A   1      43.544  32.403  32.333  1.00  0.00    -0.014 A 
ATOM     69  C   UNL A   1      44.110  33.458  31.593  1.00  0.00     0.010 A 
ATOM     70  C   UNL A   1      43.056  32.661  33.626  1.00  0.00     0.010 A 
ATOM     71  C   UNL A   1      44.226  34.733  32.152  1.00  0.00     0.020 A 
ATOM     72  C   UNL A   1      43.143  33.941  34.179  1.00  0.00     0.020 A 
ATOM     73  C   UNL A   1      43.745  34.966  33.444  1.00  0.00     0.054 A 
BRANCH  73  74
ATOM     74  S   UNL A   1      43.891  36.636  34.138  1.00  0.00     0.124 S 
ATOM     75  O   UNL A   1      42.873  36.615  35.187  1.00  0.00    -0.237 OA
ATOM     76  O   UNL A   1      45.274  36.669  34.607  1.00  0.00    -0.237 OA
ATOM     77  O   UNL A   1      43.598  37.509  33.005  1.00  0.00    -0.744 OA
ENDBRANCH  73  74
ENDBRANCH  54  68
BRANCH  55  78
ATOM     78  C   UNL A   1      42.456  23.455  28.003  1.00  0.00    -0.014 A 
ATOM     79  C   UNL A   1      41.800  22.403  28.665  1.00  0.00     0.010 A 
ATOM     80  C   UNL A   1      42.956  23.242  26.705  1.00  0.00     0.010 A 
ATOM     81  C   UNL A   1      41.665  21.154  28.051  1.00  0.00     0.020 A 
ATOM     82  C   UNL A   1      42.796  22.003  26.076  1.00  0.00     0.020 A 
ATOM     83  C   UNL A   1      42.162  20.963  26.758  1.00  0.00     0.054 A 
BRANCH  83  84
ATOM     84  S   UNL A   1      41.928  19.351  25.959  1.00  0.00     0.124 S 
ATOM     85  O   UNL A   1      42.385  18.430  26.995  1.00  0.00    -0.237 OA
ATOM     86  O   UNL A   1      40.493  19.338  25.688  1.00  0.00    -0.237 OA
ATOM     87  O   UNL A   1      42.777  19.431  24.773  1.00  0.00    -0.744 OA
ENDBRANCH  83  84
ENDBRANCH  55  78
BRANCH  67  88
ATOM     88  C   UNL A   1      47.454  26.344  31.914  1.00  0.00    -0.014 A 
ATOM     89  C   UNL A   1      47.523  25.579  33.091  1.00  0.00     0.010 A 
ATOM     90  C   UNL A   1      48.634  26.596  31.191  1.00  0.00     0.010 A 
ATOM     91  C   UNL A   1      48.754  25.113  33.560  1.00  0.00     0.020 A 
ATOM     92  C   UNL A   1      49.863  26.106  31.639  1.00  0.00     0.020 A 
ATOM     93  C   UNL A   1      49.918  25.383  32.833  1.00  0.00     0.054 A 
BRANCH  93  94
ATOM     94  S   UNL A   1      51.500  24.748  33.448  1.00  0.00     0.124 S 
ATOM     95  O   UNL A   1      51.110  23.464  34.020  1.00  0.00    -0.237 OA
ATOM     96  O   UNL A   1      52.312  24.677  32.235  1.00  0.00    -0.237 OA
ATOM     97  O   UNL A   1      51.926  25.758  34.416  1.00  0.00    -0.744 OA
ENDBRANCH  93  94
ENDBRANCH  67  88
ENDBRANCH  41  42
ENDBRANCH  33  36
ENDBRANCH  31  32
ENDBRANCH  30  31
ENDBRANCH  29  30
ENDBRANCH   1  29
TORSDOF 19
ENDMDL
MODEL 2
REMARK VINA RESULT:      -8.7      5.005     12.211
REMARK SMILES O=C(CSc1ccc2ccccc2n1)NCc1ccc(C(=O)NCCCCNC(=O)c2ccc(-c3c4nc(c(-c5ccc(S(=O)(=O)[O-])cc5)c5ccc([nH]5)c(-c5ccc(S(=O)(=O)[O-])cc5)c5nc(c(-c6ccc(S(=O)(=O)[O-])cc6)c6ccc3[nH]6)C=C5)C=C4)cc2)cc1
REMARK SMILES IDX 24 1 23 2 21 3 22 4 20 6 17 7 18 8 92 9 19 10 91 11 16 12
REMARK SMILES IDX 15 13 1 14 2 15 3 17 4 18 5 19 6 20 14 21 7 22 13 23 8 24
REMARK SMILES IDX 12 25 9 26 11 27 10 28 25 29 26 30 27 31 28 32 29 33 30 35
REMARK SMILES IDX 31 36 32 37 90 38 33 39 89 40 34 41 35 42 36 43 83 44 37 45
REMARK SMILES IDX 88 46 82 47 84 48 38 49 87 50 81 51 80 52 39 54 69 55 50 56
REMARK SMILES IDX 68 57 51 58 54 59 67 60 85 61 52 62 53 63 66 65 86 66 55 67
REMARK SMILES IDX 40 68 41 69 49 70 42 71 48 72 43 73 44 74 45 75 46 76 47 77
REMARK SMILES IDX 70 78 71 79 79 80 72 81 78 82 73 83 74 84 75 85 76 86 77 87
REMARK SMILES IDX 56 88 57 89 65 90 58 91 64 92 59 93 60 94 61 95 62 96 63 97
REMARK H PARENT 23 5 15 16 28 34 84 53 54 64
REMARK Flexibility Score: inf
ROOT
ATOM      1  C   UNL A   1      36.900  23.406  24.789  1.00  0.00     0.116 C 
ENDROOT
BRANCH   1   2
ATOM      2  N   UNL A   1      36.447  22.034  24.898  1.00  0.00    -0.352 N 
ATOM      3  C   UNL A   1      35.219  21.453  24.702  1.00  0.00     0.251 C 
ATOM      4  O   UNL A   1      35.143  20.230  24.831  1.00  0.00    -0.269 OA
ATOM      5  H   UNL A   1      37.151  21.400  25.162  1.00  0.00     0.163 HD
BRANCH   3   6
ATOM      6  C   UNL A   1      33.999  22.211  24.298  1.00  0.00     0.039 A 
ATOM      7  C   UNL A   1      31.602  23.609  23.711  1.00  0.00    -0.029 A 
ATOM      8  C   UNL A   1      31.795  23.022  24.966  1.00  0.00     0.006 A 
ATOM      9  C   UNL A   1      32.642  23.532  22.775  1.00  0.00     0.006 A 
ATOM     10  C   UNL A   1      32.975  22.322  25.250  1.00  0.00     0.014 A 
ATOM     11  C   UNL A   1      33.834  22.862  23.076  1.00  0.00     0.014 A 
BRANCH   7  12
ATOM     12  C   UNL A   1      30.372  24.407  23.356  1.00  0.00     0.151 C 
BRANCH  12  13
ATOM     13  N   UNL A   1      30.575  25.836  23.368  1.00  0.00    -0.351 N 
ATOM     14  O   UNL A   1      28.409  26.361  23.906  1.00  0.00    -0.274 OA
ATOM     15  C   UNL A   1      29.568  26.716  23.708  1.00  0.00     0.230 C 
ATOM     16  H   UNL A   1      31.459  26.195  23.126  1.00  0.00     0.163 HD
BRANCH  15  17
ATOM     17  C   UNL A   1      29.980  28.179  23.737  1.00  0.00     0.176 C 
BRANCH  17  18
ATOM     18  S   UNL A   1      31.592  28.437  22.923  1.00  0.00    -0.096 SA
BRANCH  18  19
ATOM     19  C   UNL A   1      32.623  28.625  24.366  1.00  0.00     0.097 A 
ATOM     20  C   UNL A   1      33.513  27.614  24.692  1.00  0.00     0.036 A 
ATOM     21  N   UNL A   1      32.526  29.776  25.062  1.00  0.00    -0.241 NA
ATOM     22  C   UNL A   1      34.338  27.787  25.797  1.00  0.00     0.013 A 
ATOM     23  C   UNL A   1      33.328  29.946  26.131  1.00  0.00     0.072 A 
ATOM     24  C   UNL A   1      34.261  28.970  26.539  1.00  0.00     0.000 A 
ATOM     25  C   UNL A   1      33.255  31.123  26.869  1.00  0.00     0.029 A 
ATOM     26  C   UNL A   1      35.090  29.194  27.653  1.00  0.00     0.010 A 
ATOM     27  C   UNL A   1      34.080  31.352  27.975  1.00  0.00     0.002 A 
ATOM     28  C   UNL A   1      35.000  30.386  28.367  1.00  0.00     0.001 A 
ENDBRANCH  18  19
ENDBRANCH  17  18
ENDBRANCH  15  17
ENDBRANCH  12  13
ENDBRANCH   7  12
ENDBRANCH   3   6
ENDBRANCH   1   2
BRANCH   1  29
ATOM     29  C   UNL A   1      37.557  23.863  26.093  1.00  0.00     0.023 C 
BRANCH  29  30
ATOM     30  C   UNL A   1      38.735  22.995  26.544  1.00  0.00     0.023 C 
BRANCH  30  31
ATOM     31  C   UNL A   1      39.957  23.767  27.032  1.00  0.00     0.116 C 
BRANCH  31  32
ATOM     32  N   UNL A   1      40.613  24.522  25.977  1.00  0.00    -0.352 N 
ATOM     33  C   UNL A   1      41.075  25.817  26.005  1.00  0.00     0.251 C 
ATOM     34  H   UNL A   1      40.747  24.040  25.129  1.00  0.00     0.163 HD
ATOM     35  O   UNL A   1      41.503  26.334  24.984  1.00  0.00    -0.269 OA
BRANCH  33  36
ATOM     36  C   UNL A   1      41.007  26.587  27.266  1.00  0.00     0.039 A 
ATOM     37  C   UNL A   1      41.925  27.620  27.467  1.00  0.00     0.014 A 
ATOM     38  C   UNL A   1      40.042  26.303  28.237  1.00  0.00     0.014 A 
ATOM     39  C   UNL A   1      41.841  28.403  28.620  1.00  0.00     0.010 A 
ATOM     40  C   UNL A   1      39.914  27.131  29.349  1.00  0.00     0.010 A 
ATOM     41  C   UNL A   1      40.815  28.184  29.556  1.00  0.00    -0.014 A 
BRANCH  41  42
ATOM     42  C   UNL A   1      40.682  29.055  30.751  1.00  0.00     0.031 A 
ATOM     43  C   UNL A   1      39.619  30.119  30.800  1.00  0.00     0.074 A 
ATOM     44  C   UNL A   1      41.544  28.910  31.776  1.00  0.00     0.049 A 
ATOM     45  N   UNL A   1      39.344  30.963  31.762  1.00  0.00    -0.248 NA
ATOM     46  C   UNL A   1      38.771  30.274  29.607  1.00  0.00     0.031 C 
ATOM     47  C   UNL A   1      42.653  27.953  31.822  1.00  0.00     0.029 A 
ATOM     48  N   UNL A   1      41.623  29.566  32.979  1.00  0.00    -0.354 N 
ATOM     49  C   UNL A   1      38.303  31.752  31.289  1.00  0.00     0.074 A 
ATOM     50  C   UNL A   1      38.033  31.325  29.934  1.00  0.00     0.031 C 
ATOM     51  C   UNL A   1      43.275  28.057  33.007  1.00  0.00     0.029 A 
ATOM     52  C   UNL A   1      42.634  29.108  33.791  1.00  0.00     0.049 A 
ATOM     53  H   UNL A   1      41.014  30.295  33.236  1.00  0.00     0.167 HD
ATOM     54  C   UNL A   1      37.617  32.728  31.930  1.00  0.00     0.031 A 
ATOM     55  C   UNL A   1      42.999  29.486  35.032  1.00  0.00     0.031 A 
ATOM     56  C   UNL A   1      37.883  33.143  33.282  1.00  0.00     0.049 A 
ATOM     57  C   UNL A   1      42.214  30.563  35.729  1.00  0.00     0.074 A 
ATOM     58  C   UNL A   1      37.208  34.083  34.042  1.00  0.00     0.029 A 
ATOM     59  N   UNL A   1      38.906  32.647  34.076  1.00  0.00    -0.354 N 
ATOM     60  N   UNL A   1      41.182  31.244  35.291  1.00  0.00    -0.248 NA
ATOM     61  C   UNL A   1      42.631  30.906  37.095  1.00  0.00     0.031 C 
ATOM     62  C   UNL A   1      37.854  34.189  35.279  1.00  0.00     0.029 A 
ATOM     63  C   UNL A   1      38.893  33.274  35.311  1.00  0.00     0.049 A 
ATOM     64  H   UNL A   1      39.545  31.951  33.802  1.00  0.00     0.167 HD
ATOM     65  C   UNL A   1      40.809  32.079  36.338  1.00  0.00     0.074 A 
ATOM     66  C   UNL A   1      41.715  31.802  37.435  1.00  0.00     0.031 C 
ATOM     67  C   UNL A   1      39.806  32.992  36.389  1.00  0.00     0.031 A 
BRANCH  54  68
ATOM     68  C   UNL A   1      36.509  33.414  31.172  1.00  0.00    -0.014 A 
ATOM     69  C   UNL A   1      35.264  33.663  31.776  1.00  0.00     0.010 A 
ATOM     70  C   UNL A   1      36.725  33.843  29.850  1.00  0.00     0.010 A 
ATOM     71  C   UNL A   1      34.240  34.289  31.059  1.00  0.00     0.020 A 
ATOM     72  C   UNL A   1      35.715  34.495  29.139  1.00  0.00     0.020 A 
ATOM     73  C   UNL A   1      34.471  34.698  29.742  1.00  0.00     0.054 A 
BRANCH  73  74
ATOM     74  S   UNL A   1      33.132  35.525  28.841  1.00  0.00     0.124 S 
ATOM     75  O   UNL A   1      32.290  36.009  29.933  1.00  0.00    -0.237 OA
ATOM     76  O   UNL A   1      33.840  36.558  28.090  1.00  0.00    -0.237 OA
ATOM     77  O   UNL A   1      32.549  34.458  28.031  1.00  0.00    -0.744 OA
ENDBRANCH  73  74
ENDBRANCH  54  68
BRANCH  55  78
ATOM     78  C   UNL A   1      44.145  28.815  35.705  1.00  0.00    -0.014 A 
ATOM     79  C   UNL A   1      43.949  27.630  36.434  1.00  0.00     0.010 A 
ATOM     80  C   UNL A   1      45.442  29.353  35.607  1.00  0.00     0.010 A 
ATOM     81  C   UNL A   1      45.025  27.004  37.071  1.00  0.00     0.020 A 
ATOM     82  C   UNL A   1      46.525  28.713  36.218  1.00  0.00     0.020 A 
ATOM     83  C   UNL A   1      46.307  27.549  36.957  1.00  0.00     0.054 A 
BRANCH  83  84
ATOM     84  S   UNL A   1      47.697  26.692  37.748  1.00  0.00     0.124 S 
ATOM     85  O   UNL A   1      47.358  26.806  39.163  1.00  0.00    -0.237 OA
ATOM     86  O   UNL A   1      47.603  25.349  37.181  1.00  0.00    -0.237 OA
ATOM     87  O   UNL A   1      48.862  27.461  37.318  1.00  0.00    -0.744 OA
ENDBRANCH  83  84
ENDBRANCH  55  78
BRANCH  67  88
ATOM     88  C   UNL A   1      39.617  33.735  37.685  1.00  0.00    -0.014 A 
ATOM     89  C   UNL A   1      38.724  33.274  38.668  1.00  0.00     0.010 A 
ATOM     90  C   UNL A   1      40.371  34.896  37.933  1.00  0.00     0.010 A 
ATOM     91  C   UNL A   1      38.557  33.987  39.859  1.00  0.00     0.020 A 
ATOM     92  C   UNL A   1      40.229  35.594  39.134  1.00  0.00     0.020 A 
ATOM     93  C   UNL A   1      39.307  35.145  40.083  1.00  0.00     0.054 A 
BRANCH  93  94
ATOM     94  S   UNL A   1      39.090  36.040  41.644  1.00  0.00     0.124 S 
ATOM     95  O   UNL A   1      40.271  35.629  42.396  1.00  0.00    -0.237 OA
ATOM     96  O   UNL A   1      39.071  37.436  41.215  1.00  0.00    -0.237 OA
ATOM     97  O   UNL A   1      37.817  35.536  42.158  1.00  0.00    -0.744 OA
ENDBRANCH  93  94
ENDBRANCH  67  88
ENDBRANCH  41  42
ENDBRANCH  33  36
ENDBRANCH  31  32
ENDBRANCH  30  31
ENDBRANCH  29  30
ENDBRANCH   1  29
TORSDOF 19
ENDMDL
MODEL 3
REMARK VINA RESULT:      -8.7      5.072     12.135
REMARK SMILES O=C(CSc1ccc2ccccc2n1)NCc1ccc(C(=O)NCCCCNC(=O)c2ccc(-c3c4nc(c(-c5ccc(S(=O)(=O)[O-])cc5)c5ccc([nH]5)c(-c5ccc(S(=O)(=O)[O-])cc5)c5nc(c(-c6ccc(S(=O)(=O)[O-])cc6)c6ccc3[nH]6)C=C5)C=C4)cc2)cc1
REMARK SMILES IDX 24 1 23 2 21 3 22 4 20 6 17 7 18 8 92 9 19 10 91 11 16 12
REMARK SMILES IDX 15 13 1 14 2 15 3 17 4 18 5 19 6 20 14 21 7 22 13 23 8 24
REMARK SMILES IDX 12 25 9 26 11 27 10 28 25 29 26 30 27 31 28 32 29 33 30 35
REMARK SMILES IDX 31 36 32 37 90 38 33 39 89 40 34 41 35 42 36 43 83 44 37 45
REMARK SMILES IDX 88 46 82 47 84 48 38 49 87 50 81 51 80 52 39 54 69 55 50 56
REMARK SMILES IDX 68 57 51 58 54 59 67 60 85 61 52 62 53 63 66 65 86 66 55 67
REMARK SMILES IDX 40 68 41 69 49 70 42 71 48 72 43 73 44 74 45 75 46 76 47 77
REMARK SMILES IDX 70 78 71 79 79 80 72 81 78 82 73 83 74 84 75 85 76 86 77 87
REMARK SMILES IDX 56 88 57 89 65 90 58 91 64 92 59 93 60 94 61 95 62 96 63 97
REMARK H PARENT 23 5 15 16 28 34 84 53 54 64
REMARK Flexibility Score: inf
ROOT
ATOM      1  C   UNL A   1      34.087  21.493  26.412  1.00  0.00     0.116 C 
ENDROOT
BRANCH   1   2
ATOM      2  N   UNL A   1      33.444  20.564  25.503  1.00  0.00    -0.352 N 
ATOM      3  C   UNL A   1      32.848  20.739  24.280  1.00  0.00     0.251 C 
ATOM      4  O   UNL A   1      32.414  19.735  23.711  1.00  0.00    -0.269 OA
ATOM      5  H   UNL A   1      33.433  19.634  25.825  1.00  0.00     0.163 HD
BRANCH   3   6
ATOM      6  C   UNL A   1      32.743  22.058  23.591  1.00  0.00     0.039 A 
ATOM      7  C   UNL A   1      32.345  24.559  22.313  1.00  0.00    -0.029 A 
ATOM      8  C   UNL A   1      31.272  23.879  22.900  1.00  0.00     0.006 A 
ATOM      9  C   UNL A   1      33.624  23.997  22.421  1.00  0.00     0.006 A 
ATOM     10  C   UNL A   1      31.468  22.638  23.519  1.00  0.00     0.014 A 
ATOM     11  C   UNL A   1      33.822  22.774  23.073  1.00  0.00     0.014 A 
BRANCH   7  12
ATOM     12  C   UNL A   1      32.206  25.913  21.664  1.00  0.00     0.151 C 
BRANCH  12  13
ATOM     13  N   UNL A   1      33.002  26.946  22.284  1.00  0.00    -0.351 N 
ATOM     14  O   UNL A   1      31.312  28.491  22.393  1.00  0.00    -0.274 OA
ATOM     15  C   UNL A   1      32.464  28.159  22.662  1.00  0.00     0.230 C 
ATOM     16  H   UNL A   1      33.960  26.781  22.441  1.00  0.00     0.163 HD
BRANCH  15  17
ATOM     17  C   UNL A   1      33.432  29.098  23.363  1.00  0.00     0.176 C 
BRANCH  17  18
ATOM     18  S   UNL A   1      32.988  29.329  25.117  1.00  0.00    -0.096 SA
BRANCH  18  19
ATOM     19  C   UNL A   1      32.640  27.637  25.559  1.00  0.00     0.097 A 
ATOM     20  C   UNL A   1      33.698  26.780  25.818  1.00  0.00     0.036 A 
ATOM     21  N   UNL A   1      31.347  27.268  25.667  1.00  0.00    -0.241 NA
ATOM     22  C   UNL A   1      33.415  25.472  26.197  1.00  0.00     0.013 A 
ATOM     23  C   UNL A   1      31.072  26.003  26.038  1.00  0.00     0.072 A 
ATOM     24  C   UNL A   1      32.085  25.061  26.319  1.00  0.00     0.000 A 
ATOM     25  C   UNL A   1      29.750  25.591  26.163  1.00  0.00     0.029 A 
ATOM     26  C   UNL A   1      31.753  23.753  26.718  1.00  0.00     0.010 A 
ATOM     27  C   UNL A   1      29.416  24.292  26.563  1.00  0.00     0.002 A 
ATOM     28  C   UNL A   1      30.420  23.373  26.842  1.00  0.00     0.001 A 
ENDBRANCH  18  19
ENDBRANCH  17  18
ENDBRANCH  15  17
ENDBRANCH  12  13
ENDBRANCH   7  12
ENDBRANCH   3   6
ENDBRANCH   1   2
BRANCH   1  29
ATOM     29  C   UNL A   1      35.560  21.680  26.041  1.00  0.00     0.023 C 
BRANCH  29  30
ATOM     30  C   UNL A   1      35.996  23.142  25.907  1.00  0.00     0.023 C 
BRANCH  30  31
ATOM     31  C   UNL A   1      37.385  23.349  25.311  1.00  0.00     0.116 C 
BRANCH  31  32
ATOM     32  N   UNL A   1      38.307  22.271  25.625  1.00  0.00    -0.352 N 
ATOM     33  C   UNL A   1      39.533  22.339  26.245  1.00  0.00     0.251 C 
ATOM     34  H   UNL A   1      38.014  21.369  25.360  1.00  0.00     0.163 HD
ATOM     35  O   UNL A   1      40.231  21.340  26.329  1.00  0.00    -0.269 OA
BRANCH  33  36
ATOM     36  C   UNL A   1      40.013  23.637  26.768  1.00  0.00     0.039 A 
ATOM     37  C   UNL A   1      40.599  23.672  28.034  1.00  0.00     0.014 A 
ATOM     38  C   UNL A   1      39.898  24.809  26.012  1.00  0.00     0.014 A 
ATOM     39  C   UNL A   1      41.119  24.872  28.522  1.00  0.00     0.010 A 
ATOM     40  C   UNL A   1      40.481  25.987  26.469  1.00  0.00     0.010 A 
ATOM     41  C   UNL A   1      41.090  26.033  27.731  1.00  0.00    -0.014 A 
BRANCH  41  42
ATOM     42  C   UNL A   1      41.699  27.297  28.218  1.00  0.00     0.031 A 
ATOM     43  C   UNL A   1      43.192  27.482  28.188  1.00  0.00     0.074 A 
ATOM     44  C   UNL A   1      40.906  28.263  28.723  1.00  0.00     0.049 A 
ATOM     45  N   UNL A   1      43.900  28.519  28.559  1.00  0.00    -0.248 NA
ATOM     46  C   UNL A   1      43.998  26.350  27.704  1.00  0.00     0.031 C 
ATOM     47  C   UNL A   1      39.449  28.178  28.858  1.00  0.00     0.029 A 
ATOM     48  N   UNL A   1      41.213  29.507  29.214  1.00  0.00    -0.354 N 
ATOM     49  C   UNL A   1      45.228  28.161  28.362  1.00  0.00     0.074 A 
ATOM     50  C   UNL A   1      45.232  26.793  27.894  1.00  0.00     0.031 C 
ATOM     51  C   UNL A   1      38.986  29.335  29.360  1.00  0.00     0.029 A 
ATOM     52  C   UNL A   1      40.112  30.228  29.613  1.00  0.00     0.049 A 
ATOM     53  H   UNL A   1      42.133  29.849  29.276  1.00  0.00     0.167 HD
ATOM     54  C   UNL A   1      46.344  28.910  28.534  1.00  0.00     0.031 A 
ATOM     55  C   UNL A   1      40.018  31.474  30.117  1.00  0.00     0.031 A 
ATOM     56  C   UNL A   1      46.335  30.275  28.991  1.00  0.00     0.049 A 
ATOM     57  C   UNL A   1      41.269  32.291  30.286  1.00  0.00     0.074 A 
ATOM     58  C   UNL A   1      47.406  31.138  29.143  1.00  0.00     0.029 A 
ATOM     59  N   UNL A   1      45.200  30.975  29.372  1.00  0.00    -0.354 N 
ATOM     60  N   UNL A   1      42.511  31.960  30.021  1.00  0.00    -0.248 NA
ATOM     61  C   UNL A   1      41.103  33.656  30.802  1.00  0.00     0.031 C 
ATOM     62  C   UNL A   1      46.924  32.345  29.662  1.00  0.00     0.029 A 
ATOM     63  C   UNL A   1      45.546  32.253  29.777  1.00  0.00     0.049 A 
ATOM     64  H   UNL A   1      44.284  30.615  29.355  1.00  0.00     0.167 HD
ATOM     65  C   UNL A   1      43.272  33.086  30.313  1.00  0.00     0.074 A 
ATOM     66  C   UNL A   1      42.348  34.111  30.756  1.00  0.00     0.031 C 
ATOM     67  C   UNL A   1      44.615  33.259  30.222  1.00  0.00     0.031 A 
BRANCH  54  68
ATOM     68  C   UNL A   1      47.670  28.264  28.223  1.00  0.00    -0.014 A 
ATOM     69  C   UNL A   1      48.481  27.744  29.247  1.00  0.00     0.010 A 
ATOM     70  C   UNL A   1      48.096  28.146  26.888  1.00  0.00     0.010 A 
ATOM     71  C   UNL A   1      49.714  27.158  28.947  1.00  0.00     0.020 A 
ATOM     72  C   UNL A   1      49.315  27.535  26.580  1.00  0.00     0.020 A 
ATOM     73  C   UNL A   1      50.125  27.061  27.614  1.00  0.00     0.054 A 
BRANCH  73  74
ATOM     74  S   UNL A   1      51.721  26.278  27.252  1.00  0.00     0.124 S 
ATOM     75  O   UNL A   1      52.289  27.198  26.268  1.00  0.00    -0.237 OA
ATOM     76  O   UNL A   1      52.379  26.272  28.556  1.00  0.00    -0.237 OA
ATOM     77  O   UNL A   1      51.353  24.963  26.735  1.00  0.00    -0.744 OA
ENDBRANCH  73  74
ENDBRANCH  54  68
BRANCH  55  78
ATOM     78  C   UNL A   1      38.684  32.034  30.468  1.00  0.00    -0.014 A 
ATOM     79  C   UNL A   1      38.184  31.920  31.776  1.00  0.00     0.010 A 
ATOM     80  C   UNL A   1      37.914  32.700  29.496  1.00  0.00     0.010 A 
ATOM     81  C   UNL A   1      36.928  32.441  32.103  1.00  0.00     0.020 A 
ATOM     82  C   UNL A   1      36.671  33.248  29.826  1.00  0.00     0.020 A 
ATOM     83  C   UNL A   1      36.180  33.104  31.125  1.00  0.00     0.054 A 
BRANCH  83  84
ATOM     84  S   UNL A   1      34.577  33.819  31.585  1.00  0.00     0.124 S 
ATOM     85  O   UNL A   1      33.936  32.705  32.277  1.00  0.00    -0.237 OA
ATOM     86  O   UNL A   1      34.964  34.949  32.425  1.00  0.00    -0.237 OA
ATOM     87  O   UNL A   1      33.985  34.183  30.300  1.00  0.00    -0.744 OA
ENDBRANCH  83  84
ENDBRANCH  55  78
BRANCH  67  88
ATOM     88  C   UNL A   1      45.161  34.615  30.579  1.00  0.00    -0.014 A 
ATOM     89  C   UNL A   1      45.280  35.632  29.616  1.00  0.00     0.010 A 
ATOM     90  C   UNL A   1      45.530  34.884  31.910  1.00  0.00     0.010 A 
ATOM     91  C   UNL A   1      45.800  36.880  29.968  1.00  0.00     0.020 A 
ATOM     92  C   UNL A   1      46.022  36.140  32.272  1.00  0.00     0.020 A 
ATOM     93  C   UNL A   1      46.172  37.126  31.294  1.00  0.00     0.054 A 
BRANCH  93  94
ATOM     94  S   UNL A   1      46.823  38.760  31.732  1.00  0.00     0.124 S 
ATOM     95  O   UNL A   1      45.622  39.588  31.678  1.00  0.00    -0.237 OA
ATOM     96  O   UNL A   1      47.376  38.539  33.065  1.00  0.00    -0.237 OA
ATOM     97  O   UNL A   1      47.813  39.029  30.690  1.00  0.00    -0.744 OA
ENDBRANCH  93  94
ENDBRANCH  67  88
ENDBRANCH  41  42
ENDBRANCH  33  36
ENDBRANCH  31  32
ENDBRANCH  30  31
ENDBRANCH  29  30
ENDBRANCH   1  29
TORSDOF 19
ENDMDL
