MODEL 1
REMARK VINA RESULT:     -12.5      0.000      0.000
REMARK SMILES Cc1cccc([C@@H](CCC[C@@H]2CCCO2)C(=O)NCCCCNC(=O)c2ccc(-c3c4nc(c(-c5ccc(S(=O)(=O)[O-])cc5)c5ccc([nH]5)c(-c5ccc(S(=O)(=O)[O-])cc5)c5nc(c(-c6ccc(S(=O)(=O)[O-])cc6)c6ccc3[nH]6)C=C5)C=C4)cc2)c1
REMARK SMILES IDX 20 1 19 2 18 3 16 4 17 5 7 7 6 8 1 9 2 10 3 11 86 12 4 13
REMARK SMILES IDX 5 14 8 15 9 16 10 17 11 18 12 19 15 20 13 21 14 22 21 23
REMARK SMILES IDX 22 24 23 25 24 26 25 28 26 29 27 30 85 31 28 32 84 33 29 34
REMARK SMILES IDX 30 35 31 36 78 37 32 38 83 39 77 40 79 41 33 42 82 43 76 44
REMARK SMILES IDX 75 45 34 47 64 48 45 49 63 50 46 51 49 52 62 53 80 54 47 55
REMARK SMILES IDX 48 56 61 58 81 59 50 60 35 61 36 62 44 63 37 64 43 65 38 66
REMARK SMILES IDX 39 67 40 68 41 69 42 70 65 71 66 72 74 73 67 74 73 75 68 76
REMARK SMILES IDX 69 77 70 78 71 79 72 80 51 81 52 82 60 83 53 84 59 85 54 86
REMARK SMILES IDX 55 87 56 88 57 89 58 90
REMARK H PARENT 18 6 23 27 79 46 49 57
REMARK Flexibility Score: inf
ROOT
ATOM      1  C   UNL A   1      32.686  27.336  26.414  1.00  0.00     0.023 C 
ENDROOT
BRANCH   1   2
ATOM      2  C   UNL A   1      32.593  25.987  25.695  1.00  0.00     0.116 C 
BRANCH   2   3
ATOM      3  N   UNL A   1      32.454  24.836  26.567  1.00  0.00    -0.356 N 
ATOM      4  C   UNL A   1      33.025  23.598  26.497  1.00  0.00     0.227 C 
ATOM      5  O   UNL A   1      32.894  22.876  27.497  1.00  0.00    -0.274 OA
ATOM      6  H   UNL A   1      31.851  24.970  27.333  1.00  0.00     0.163 HD
BRANCH   4   7
ATOM      7  C   UNL A   1      33.731  23.044  25.244  1.00  0.00     0.108 C 
BRANCH   7   8
ATOM      8  C   UNL A   1      35.236  22.844  25.447  1.00  0.00    -0.035 A 
ATOM      9  C   UNL A   1      37.734  19.990  24.892  1.00  0.00     0.044 C 
ATOM     10  C   UNL A   1      37.172  21.345  25.195  1.00  0.00    -0.051 A 
ATOM     11  C   UNL A   1      38.024  22.407  25.500  1.00  0.00     0.003 A 
ATOM     12  C   UNL A   1      35.791  21.581  25.141  1.00  0.00     0.008 A 
ATOM     13  C   UNL A   1      37.497  23.653  25.829  1.00  0.00     0.001 A 
ATOM     14  C   UNL A   1      36.115  23.855  25.841  1.00  0.00     0.004 A 
ENDBRANCH   7   8
BRANCH   7  15
ATOM     15  C   UNL A   1      32.947  22.104  24.293  1.00  0.00     0.018 C 
BRANCH  15  16
ATOM     16  C   UNL A   1      32.077  20.953  24.801  1.00  0.00     0.004 C 
BRANCH  16  17
ATOM     17  C   UNL A   1      32.789  19.770  25.464  1.00  0.00     0.032 C 
BRANCH  17  18
ATOM     18  C   UNL A   1      32.958  18.473  24.684  1.00  0.00     0.118 C 
ATOM     19  C   UNL A   1      34.367  18.027  24.355  1.00  0.00     0.034 C 
ATOM     20  O   UNL A   1      32.281  18.521  23.416  1.00  0.00    -0.378 OA
ATOM     21  C   UNL A   1      34.075  16.961  23.327  1.00  0.00     0.031 C 
ATOM     22  C   UNL A   1      32.939  17.589  22.540  1.00  0.00     0.160 C 
ENDBRANCH  17  18
ENDBRANCH  16  17
ENDBRANCH  15  16
ENDBRANCH   7  15
ENDBRANCH   4   7
ENDBRANCH   2   3
ENDBRANCH   1   2
BRANCH   1  23
ATOM     23  C   UNL A   1      33.982  28.117  26.171  1.00  0.00     0.023 C 
BRANCH  23  24
ATOM     24  C   UNL A   1      34.329  29.145  27.241  1.00  0.00     0.116 C 
BRANCH  24  25
ATOM     25  N   UNL A   1      35.245  30.216  26.884  1.00  0.00    -0.352 N 
ATOM     26  C   UNL A   1      36.213  30.609  27.820  1.00  0.00     0.251 C 
ATOM     27  H   UNL A   1      35.188  30.654  26.004  1.00  0.00     0.163 HD
ATOM     28  O   UNL A   1      36.173  31.630  28.469  1.00  0.00    -0.269 OA
BRANCH  26  29
ATOM     29  C   UNL A   1      37.268  29.589  28.057  1.00  0.00     0.039 A 
ATOM     30  C   UNL A   1      37.360  28.903  29.268  1.00  0.00     0.014 A 
ATOM     31  C   UNL A   1      38.262  29.455  27.088  1.00  0.00     0.014 A 
ATOM     32  C   UNL A   1      38.536  28.205  29.566  1.00  0.00     0.010 A 
ATOM     33  C   UNL A   1      39.459  28.873  27.426  1.00  0.00     0.010 A 
ATOM     34  C   UNL A   1      39.608  28.267  28.675  1.00  0.00    -0.014 A 
BRANCH  34  35
ATOM     35  C   UNL A   1      40.950  27.758  28.924  1.00  0.00     0.031 A 
ATOM     36  C   UNL A   1      41.283  26.361  28.572  1.00  0.00     0.074 A 
ATOM     37  C   UNL A   1      41.931  28.622  29.265  1.00  0.00     0.049 A 
ATOM     38  N   UNL A   1      42.326  25.730  28.995  1.00  0.00    -0.248 NA
ATOM     39  C   UNL A   1      40.428  25.543  27.718  1.00  0.00     0.031 C 
ATOM     40  C   UNL A   1      43.371  28.391  29.201  1.00  0.00     0.029 A 
ATOM     41  N   UNL A   1      41.817  29.826  29.959  1.00  0.00    -0.354 N 
ATOM     42  C   UNL A   1      42.455  24.591  28.230  1.00  0.00     0.074 A 
ATOM     43  C   UNL A   1      41.201  24.471  27.525  1.00  0.00     0.031 C 
ATOM     44  C   UNL A   1      43.968  29.206  30.084  1.00  0.00     0.029 A 
ATOM     45  C   UNL A   1      42.914  29.865  30.837  1.00  0.00     0.049 A 
ATOM     46  H   UNL A   1      41.113  30.507  29.857  1.00  0.00     0.167 HD
ATOM     47  C   UNL A   1      43.661  23.957  28.172  1.00  0.00     0.031 A 
ATOM     48  C   UNL A   1      42.780  29.836  32.198  1.00  0.00     0.031 A 
ATOM     49  C   UNL A   1      44.637  24.557  29.088  1.00  0.00     0.049 A 
ATOM     50  C   UNL A   1      43.450  28.628  32.836  1.00  0.00     0.074 A 
ATOM     51  C   UNL A   1      45.758  25.356  28.931  1.00  0.00     0.029 A 
ATOM     52  N   UNL A   1      44.343  24.579  30.442  1.00  0.00    -0.354 N 
ATOM     53  N   UNL A   1      44.063  27.688  32.168  1.00  0.00    -0.248 NA
ATOM     54  C   UNL A   1      43.403  28.335  34.268  1.00  0.00     0.031 C 
ATOM     55  C   UNL A   1      46.113  25.878  30.210  1.00  0.00     0.029 A 
ATOM     56  C   UNL A   1      45.221  25.381  31.142  1.00  0.00     0.049 A 
ATOM     57  H   UNL A   1      43.598  24.083  30.855  1.00  0.00     0.167 HD
ATOM     58  C   UNL A   1      44.439  26.683  33.013  1.00  0.00     0.074 A 
ATOM     59  C   UNL A   1      44.010  27.135  34.324  1.00  0.00     0.031 C 
ATOM     60  C   UNL A   1      45.035  25.537  32.576  1.00  0.00     0.031 A 
BRANCH  47  61
ATOM     61  C   UNL A   1      44.029  22.935  27.112  1.00  0.00    -0.014 A 
ATOM     62  C   UNL A   1      43.081  21.968  26.718  1.00  0.00     0.010 A 
ATOM     63  C   UNL A   1      45.293  22.838  26.500  1.00  0.00     0.010 A 
ATOM     64  C   UNL A   1      43.405  20.914  25.847  1.00  0.00     0.020 A 
ATOM     65  C   UNL A   1      45.643  21.772  25.656  1.00  0.00     0.020 A 
ATOM     66  C   UNL A   1      44.697  20.806  25.344  1.00  0.00     0.054 A 
BRANCH  66  67
ATOM     67  S   UNL A   1      45.124  19.400  24.283  1.00  0.00     0.124 S 
ATOM     68  O   UNL A   1      44.562  18.270  25.019  1.00  0.00    -0.237 OA
ATOM     69  O   UNL A   1      44.450  19.736  23.032  1.00  0.00    -0.237 OA
ATOM     70  O   UNL A   1      46.584  19.436  24.230  1.00  0.00    -0.744 OA
ENDBRANCH  66  67
ENDBRANCH  47  61
BRANCH  48  71
ATOM     71  C   UNL A   1      41.530  30.492  32.683  1.00  0.00    -0.014 A 
ATOM     72  C   UNL A   1      40.416  29.654  32.919  1.00  0.00     0.010 A 
ATOM     73  C   UNL A   1      41.589  31.738  33.331  1.00  0.00     0.010 A 
ATOM     74  C   UNL A   1      39.503  29.955  33.932  1.00  0.00     0.020 A 
ATOM     75  C   UNL A   1      40.660  32.049  34.336  1.00  0.00     0.020 A 
ATOM     76  C   UNL A   1      39.682  31.113  34.687  1.00  0.00     0.054 A 
BRANCH  76  77
ATOM     77  S   UNL A   1      38.754  31.277  36.245  1.00  0.00     0.124 S 
ATOM     78  O   UNL A   1      37.549  31.981  35.821  1.00  0.00    -0.237 OA
ATOM     79  O   UNL A   1      38.566  29.877  36.638  1.00  0.00    -0.237 OA
ATOM     80  O   UNL A   1      39.663  32.038  37.095  1.00  0.00    -0.744 OA
ENDBRANCH  76  77
ENDBRANCH  48  71
BRANCH  60  81
ATOM     81  C   UNL A   1      45.468  24.430  33.494  1.00  0.00    -0.014 A 
ATOM     82  C   UNL A   1      46.804  24.269  33.891  1.00  0.00     0.010 A 
ATOM     83  C   UNL A   1      44.546  23.434  33.885  1.00  0.00     0.010 A 
ATOM     84  C   UNL A   1      47.190  23.194  34.704  1.00  0.00     0.020 A 
ATOM     85  C   UNL A   1      44.924  22.347  34.677  1.00  0.00     0.020 A 
ATOM     86  C   UNL A   1      46.242  22.248  35.101  1.00  0.00     0.054 A 
BRANCH  86  87
ATOM     87  S   UNL A   1      46.759  20.856  36.138  1.00  0.00     0.124 S 
ATOM     88  O   UNL A   1      45.663  20.744  37.098  1.00  0.00    -0.237 OA
ATOM     89  O   UNL A   1      46.850  19.774  35.161  1.00  0.00    -0.237 OA
ATOM     90  O   UNL A   1      48.031  21.297  36.703  1.00  0.00    -0.744 OA
ENDBRANCH  86  87
ENDBRANCH  60  81
ENDBRANCH  34  35
ENDBRANCH  26  29
ENDBRANCH  24  25
ENDBRANCH  23  24
ENDBRANCH   1  23
TORSDOF 19
ENDMDL
MODEL 2
REMARK VINA RESULT:     -12.3      4.926     11.134
REMARK SMILES Cc1cccc([C@@H](CCC[C@@H]2CCCO2)C(=O)NCCCCNC(=O)c2ccc(-c3c4nc(c(-c5ccc(S(=O)(=O)[O-])cc5)c5ccc([nH]5)c(-c5ccc(S(=O)(=O)[O-])cc5)c5nc(c(-c6ccc(S(=O)(=O)[O-])cc6)c6ccc3[nH]6)C=C5)C=C4)cc2)c1
REMARK SMILES IDX 20 1 19 2 18 3 16 4 17 5 7 7 6 8 1 9 2 10 3 11 86 12 4 13
REMARK SMILES IDX 5 14 8 15 9 16 10 17 11 18 12 19 15 20 13 21 14 22 21 23
REMARK SMILES IDX 22 24 23 25 24 26 25 28 26 29 27 30 85 31 28 32 84 33 29 34
REMARK SMILES IDX 30 35 31 36 78 37 32 38 83 39 77 40 79 41 33 42 82 43 76 44
REMARK SMILES IDX 75 45 34 47 64 48 45 49 63 50 46 51 49 52 62 53 80 54 47 55
REMARK SMILES IDX 48 56 61 58 81 59 50 60 35 61 36 62 44 63 37 64 43 65 38 66
REMARK SMILES IDX 39 67 40 68 41 69 42 70 65 71 66 72 74 73 67 74 73 75 68 76
REMARK SMILES IDX 69 77 70 78 71 79 72 80 51 81 52 82 60 83 53 84 59 85 54 86
REMARK SMILES IDX 55 87 56 88 57 89 58 90
REMARK H PARENT 18 6 23 27 79 46 49 57
REMARK Flexibility Score: inf
ROOT
ATOM      1  C   UNL A   1      36.282  22.185  24.399  1.00  0.00     0.023 C 
ENDROOT
BRANCH   1   2
ATOM      2  C   UNL A   1      35.689  23.334  23.577  1.00  0.00     0.116 C 
BRANCH   2   3
ATOM      3  N   UNL A   1      34.345  23.103  23.082  1.00  0.00    -0.356 N 
ATOM      4  C   UNL A   1      33.138  23.212  23.711  1.00  0.00     0.227 C 
ATOM      5  O   UNL A   1      32.134  23.159  22.986  1.00  0.00    -0.274 OA
ATOM      6  H   UNL A   1      34.295  22.822  22.140  1.00  0.00     0.163 HD
BRANCH   4   7
ATOM      7  C   UNL A   1      32.969  23.313  25.240  1.00  0.00     0.108 C 
BRANCH   7   8
ATOM      8  C   UNL A   1      32.470  24.688  25.695  1.00  0.00    -0.035 A 
ATOM      9  C   UNL A   1      34.078  28.074  26.499  1.00  0.00     0.044 C 
ATOM     10  C   UNL A   1      33.048  27.018  26.235  1.00  0.00    -0.051 A 
ATOM     11  C   UNL A   1      31.690  27.341  26.261  1.00  0.00     0.003 A 
ATOM     12  C   UNL A   1      33.425  25.705  25.923  1.00  0.00     0.008 A 
ATOM     13  C   UNL A   1      30.734  26.349  26.064  1.00  0.00     0.001 A 
ATOM     14  C   UNL A   1      31.122  25.029  25.824  1.00  0.00     0.004 A 
ENDBRANCH   7   8
BRANCH   7  15
ATOM     15  C   UNL A   1      32.576  22.044  26.038  1.00  0.00     0.018 C 
BRANCH  15  16
ATOM     16  C   UNL A   1      33.328  20.719  25.906  1.00  0.00     0.004 C 
BRANCH  16  17
ATOM     17  C   UNL A   1      32.632  19.586  25.144  1.00  0.00     0.032 C 
BRANCH  17  18
ATOM     18  C   UNL A   1      33.456  18.397  24.666  1.00  0.00     0.118 C 
ATOM     19  C   UNL A   1      33.193  17.875  23.270  1.00  0.00     0.034 C 
ATOM     20  O   UNL A   1      33.293  17.256  25.524  1.00  0.00    -0.378 OA
ATOM     21  C   UNL A   1      33.921  16.554  23.339  1.00  0.00     0.031 C 
ATOM     22  C   UNL A   1      33.579  16.083  24.741  1.00  0.00     0.160 C 
ENDBRANCH  17  18
ENDBRANCH  16  17
ENDBRANCH  15  16
ENDBRANCH   7  15
ENDBRANCH   4   7
ENDBRANCH   2   3
ENDBRANCH   1   2
BRANCH   1  23
ATOM     23  C   UNL A   1      37.706  22.417  24.912  1.00  0.00     0.023 C 
BRANCH  23  24
ATOM     24  C   UNL A   1      37.856  23.549  25.922  1.00  0.00     0.116 C 
BRANCH  24  25
ATOM     25  N   UNL A   1      38.540  23.260  27.171  1.00  0.00    -0.352 N 
ATOM     26  C   UNL A   1      39.737  23.936  27.451  1.00  0.00     0.251 C 
ATOM     27  H   UNL A   1      38.172  22.605  27.807  1.00  0.00     0.163 HD
ATOM     28  O   UNL A   1      40.840  23.443  27.392  1.00  0.00    -0.269 OA
BRANCH  26  29
ATOM     29  C   UNL A   1      39.557  25.389  27.716  1.00  0.00     0.039 A 
ATOM     30  C   UNL A   1      40.054  26.357  26.842  1.00  0.00     0.014 A 
ATOM     31  C   UNL A   1      39.017  25.755  28.948  1.00  0.00     0.014 A 
ATOM     32  C   UNL A   1      40.150  27.682  27.280  1.00  0.00     0.010 A 
ATOM     33  C   UNL A   1      39.220  27.027  29.422  1.00  0.00     0.010 A 
ATOM     34  C   UNL A   1      39.810  27.989  28.599  1.00  0.00    -0.014 A 
BRANCH  34  35
ATOM     35  C   UNL A   1      40.030  29.270  29.257  1.00  0.00     0.031 A 
ATOM     36  C   UNL A   1      38.991  30.319  29.189  1.00  0.00     0.074 A 
ATOM     37  C   UNL A   1      41.077  29.407  30.100  1.00  0.00     0.049 A 
ATOM     38  N   UNL A   1      39.186  31.560  29.484  1.00  0.00    -0.248 NA
ATOM     39  C   UNL A   1      37.628  30.045  28.747  1.00  0.00     0.031 C 
ATOM     40  C   UNL A   1      41.264  30.444  31.110  1.00  0.00     0.029 A 
ATOM     41  N   UNL A   1      42.307  28.751  30.062  1.00  0.00    -0.354 N 
ATOM     42  C   UNL A   1      37.948  32.155  29.596  1.00  0.00     0.074 A 
ATOM     43  C   UNL A   1      37.023  31.201  29.033  1.00  0.00     0.031 C 
ATOM     44  C   UNL A   1      42.579  30.569  31.346  1.00  0.00     0.029 A 
ATOM     45  C   UNL A   1      43.268  29.725  30.383  1.00  0.00     0.049 A 
ATOM     46  H   UNL A   1      42.468  27.803  29.853  1.00  0.00     0.167 HD
ATOM     47  C   UNL A   1      37.828  33.327  30.283  1.00  0.00     0.031 A 
ATOM     48  C   UNL A   1      44.220  30.152  29.498  1.00  0.00     0.031 A 
ATOM     49  C   UNL A   1      39.134  33.851  30.699  1.00  0.00     0.049 A 
ATOM     50  C   UNL A   1      44.117  31.637  29.183  1.00  0.00     0.074 A 
ATOM     51  C   UNL A   1      39.809  33.941  31.906  1.00  0.00     0.029 A 
ATOM     52  N   UNL A   1      40.071  34.139  29.719  1.00  0.00    -0.354 N 
ATOM     53  N   UNL A   1      43.202  32.430  29.670  1.00  0.00    -0.248 NA
ATOM     54  C   UNL A   1      44.981  32.326  28.225  1.00  0.00     0.031 C 
ATOM     55  C   UNL A   1      41.171  34.261  31.629  1.00  0.00     0.029 A 
ATOM     56  C   UNL A   1      41.317  34.384  30.260  1.00  0.00     0.049 A 
ATOM     57  H   UNL A   1      39.872  34.166  28.754  1.00  0.00     0.167 HD
ATOM     58  C   UNL A   1      43.301  33.666  29.096  1.00  0.00     0.074 A 
ATOM     59  C   UNL A   1      44.438  33.557  28.200  1.00  0.00     0.031 C 
ATOM     60  C   UNL A   1      42.424  34.675  29.362  1.00  0.00     0.031 A 
BRANCH  47  61
ATOM     61  C   UNL A   1      36.509  33.884  30.783  1.00  0.00    -0.014 A 
ATOM     62  C   UNL A   1      35.460  34.117  29.869  1.00  0.00     0.010 A 
ATOM     63  C   UNL A   1      36.246  34.242  32.119  1.00  0.00     0.010 A 
ATOM     64  C   UNL A   1      34.267  34.758  30.245  1.00  0.00     0.020 A 
ATOM     65  C   UNL A   1      35.075  34.914  32.505  1.00  0.00     0.020 A 
ATOM     66  C   UNL A   1      34.095  35.180  31.559  1.00  0.00     0.054 A 
BRANCH  66  67
ATOM     67  S   UNL A   1      32.586  36.073  32.015  1.00  0.00     0.124 S 
ATOM     68  O   UNL A   1      31.724  35.001  32.508  1.00  0.00    -0.237 OA
ATOM     69  O   UNL A   1      33.069  37.009  33.027  1.00  0.00    -0.237 OA
ATOM     70  O   UNL A   1      32.152  36.685  30.761  1.00  0.00    -0.744 OA
ENDBRANCH  66  67
ENDBRANCH  47  61
BRANCH  48  71
ATOM     71  C   UNL A   1      44.657  29.091  28.543  1.00  0.00    -0.014 A 
ATOM     72  C   UNL A   1      44.045  29.084  27.268  1.00  0.00     0.010 A 
ATOM     73  C   UNL A   1      45.909  28.471  28.697  1.00  0.00     0.010 A 
ATOM     74  C   UNL A   1      44.756  28.666  26.141  1.00  0.00     0.020 A 
ATOM     75  C   UNL A   1      46.616  28.033  27.566  1.00  0.00     0.020 A 
ATOM     76  C   UNL A   1      46.069  28.219  26.293  1.00  0.00     0.054 A 
BRANCH  76  77
ATOM     77  S   UNL A   1      47.107  28.080  24.804  1.00  0.00     0.124 S 
ATOM     78  O   UNL A   1      48.446  28.317  25.331  1.00  0.00    -0.237 OA
ATOM     79  O   UNL A   1      46.830  26.710  24.364  1.00  0.00    -0.237 OA
ATOM     80  O   UNL A   1      46.579  29.125  23.932  1.00  0.00    -0.744 OA
ENDBRANCH  76  77
ENDBRANCH  48  71
BRANCH  60  81
ATOM     81  C   UNL A   1      42.528  36.043  28.752  1.00  0.00    -0.014 A 
ATOM     82  C   UNL A   1      41.986  36.344  27.493  1.00  0.00     0.010 A 
ATOM     83  C   UNL A   1      43.296  37.044  29.388  1.00  0.00     0.010 A 
ATOM     84  C   UNL A   1      42.147  37.614  26.924  1.00  0.00     0.020 A 
ATOM     85  C   UNL A   1      43.481  38.306  28.819  1.00  0.00     0.020 A 
ATOM     86  C   UNL A   1      42.883  38.591  27.599  1.00  0.00     0.054 A 
BRANCH  86  87
ATOM     87  S   UNL A   1      43.095  40.222  26.842  1.00  0.00     0.124 S 
ATOM     88  O   UNL A   1      43.498  41.053  27.975  1.00  0.00    -0.237 OA
ATOM     89  O   UNL A   1      44.139  39.960  25.855  1.00  0.00    -0.237 OA
ATOM     90  O   UNL A   1      41.776  40.525  26.293  1.00  0.00    -0.744 OA
ENDBRANCH  86  87
ENDBRANCH  60  81
ENDBRANCH  34  35
ENDBRANCH  26  29
ENDBRANCH  24  25
ENDBRANCH  23  24
ENDBRANCH   1  23
TORSDOF 19
ENDMDL
MODEL 3
REMARK VINA RESULT:     -12.1      1.916      3.374
REMARK SMILES Cc1cccc([C@@H](CCC[C@@H]2CCCO2)C(=O)NCCCCNC(=O)c2ccc(-c3c4nc(c(-c5ccc(S(=O)(=O)[O-])cc5)c5ccc([nH]5)c(-c5ccc(S(=O)(=O)[O-])cc5)c5nc(c(-c6ccc(S(=O)(=O)[O-])cc6)c6ccc3[nH]6)C=C5)C=C4)cc2)c1
REMARK SMILES IDX 20 1 19 2 18 3 16 4 17 5 7 7 6 8 1 9 2 10 3 11 86 12 4 13
REMARK SMILES IDX 5 14 8 15 9 16 10 17 11 18 12 19 15 20 13 21 14 22 21 23
REMARK SMILES IDX 22 24 23 25 24 26 25 28 26 29 27 30 85 31 28 32 84 33 29 34
REMARK SMILES IDX 30 35 31 36 78 37 32 38 83 39 77 40 79 41 33 42 82 43 76 44
REMARK SMILES IDX 75 45 34 47 64 48 45 49 63 50 46 51 49 52 62 53 80 54 47 55
REMARK SMILES IDX 48 56 61 58 81 59 50 60 35 61 36 62 44 63 37 64 43 65 38 66
REMARK SMILES IDX 39 67 40 68 41 69 42 70 65 71 66 72 74 73 67 74 73 75 68 76
REMARK SMILES IDX 69 77 70 78 71 79 72 80 51 81 52 82 60 83 53 84 59 85 54 86
REMARK SMILES IDX 55 87 56 88 57 89 58 90
REMARK H PARENT 18 6 23 27 79 46 49 57
REMARK Flexibility Score: inf
ROOT
ATOM      1  C   UNL A   1      32.384  28.534  25.589  1.00  0.00     0.023 C 
ENDROOT
BRANCH   1   2
ATOM      2  C   UNL A   1      33.416  27.417  25.403  1.00  0.00     0.116 C 
BRANCH   2   3
ATOM      3  N   UNL A   1      33.838  27.196  24.032  1.00  0.00    -0.356 N 
ATOM      4  C   UNL A   1      33.617  26.139  23.197  1.00  0.00     0.227 C 
ATOM      5  O   UNL A   1      33.915  26.308  22.006  1.00  0.00    -0.274 OA
ATOM      6  H   UNL A   1      34.369  27.926  23.642  1.00  0.00     0.163 HD
BRANCH   4   7
ATOM      7  C   UNL A   1      33.107  24.761  23.666  1.00  0.00     0.108 C 
BRANCH   7   8
ATOM      8  C   UNL A   1      34.152  23.978  24.465  1.00  0.00    -0.035 A 
ATOM      9  C   UNL A   1      34.165  21.888  27.678  1.00  0.00     0.044 C 
ATOM     10  C   UNL A   1      34.610  22.523  26.396  1.00  0.00    -0.051 A 
ATOM     11  C   UNL A   1      35.886  22.270  25.894  1.00  0.00     0.003 A 
ATOM     12  C   UNL A   1      33.746  23.348  25.663  1.00  0.00     0.008 A 
ATOM     13  C   UNL A   1      36.315  22.899  24.729  1.00  0.00     0.001 A 
ATOM     14  C   UNL A   1      35.469  23.776  24.045  1.00  0.00     0.004 A 
ENDBRANCH   7   8
BRANCH   7  15
ATOM     15  C   UNL A   1      31.599  24.588  23.985  1.00  0.00     0.018 C 
BRANCH  15  16
ATOM     16  C   UNL A   1      30.499  25.272  23.172  1.00  0.00     0.004 C 
BRANCH  16  17
ATOM     17  C   UNL A   1      29.774  26.454  23.823  1.00  0.00     0.032 C 
BRANCH  17  18
ATOM     18  C   UNL A   1      29.577  27.737  23.023  1.00  0.00     0.118 C 
ATOM     19  C   UNL A   1      30.782  28.313  22.312  1.00  0.00     0.034 C 
ATOM     20  O   UNL A   1      29.087  28.808  23.847  1.00  0.00    -0.378 OA
ATOM     21  C   UNL A   1      30.256  29.687  21.970  1.00  0.00     0.031 C 
ATOM     22  C   UNL A   1      29.481  30.044  23.226  1.00  0.00     0.160 C 
ENDBRANCH  17  18
ENDBRANCH  16  17
ENDBRANCH  15  16
ENDBRANCH   7  15
ENDBRANCH   4   7
ENDBRANCH   2   3
ENDBRANCH   1   2
BRANCH   1  23
ATOM     23  C   UNL A   1      32.737  29.577  26.655  1.00  0.00     0.023 C 
BRANCH  23  24
ATOM     24  C   UNL A   1      34.138  29.457  27.241  1.00  0.00     0.116 C 
BRANCH  24  25
ATOM     25  N   UNL A   1      35.096  30.507  26.936  1.00  0.00    -0.352 N 
ATOM     26  C   UNL A   1      36.072  30.820  27.892  1.00  0.00     0.251 C 
ATOM     27  H   UNL A   1      35.060  30.986  26.077  1.00  0.00     0.163 HD
ATOM     28  O   UNL A   1      36.068  31.812  28.587  1.00  0.00    -0.269 OA
BRANCH  26  29
ATOM     29  C   UNL A   1      37.087  29.751  28.086  1.00  0.00     0.039 A 
ATOM     30  C   UNL A   1      37.120  28.979  29.248  1.00  0.00     0.014 A 
ATOM     31  C   UNL A   1      38.106  29.652  27.140  1.00  0.00     0.014 A 
ATOM     32  C   UNL A   1      38.263  28.222  29.529  1.00  0.00     0.010 A 
ATOM     33  C   UNL A   1      39.273  29.008  27.469  1.00  0.00     0.010 A 
ATOM     34  C   UNL A   1      39.364  28.311  28.676  1.00  0.00    -0.014 A 
BRANCH  34  35
ATOM     35  C   UNL A   1      40.681  27.741  28.927  1.00  0.00     0.031 A 
ATOM     36  C   UNL A   1      40.952  26.333  28.567  1.00  0.00     0.074 A 
ATOM     37  C   UNL A   1      41.698  28.558  29.277  1.00  0.00     0.049 A 
ATOM     38  N   UNL A   1      41.965  25.653  28.990  1.00  0.00    -0.248 NA
ATOM     39  C   UNL A   1      40.066  25.559  27.705  1.00  0.00     0.031 C 
ATOM     40  C   UNL A   1      43.127  28.263  29.218  1.00  0.00     0.029 A 
ATOM     41  N   UNL A   1      41.635  29.761  29.979  1.00  0.00    -0.354 N 
ATOM     42  C   UNL A   1      42.046  24.515  28.218  1.00  0.00     0.074 A 
ATOM     43  C   UNL A   1      40.791  24.455  27.507  1.00  0.00     0.031 C 
ATOM     44  C   UNL A   1      43.756  29.045  30.108  1.00  0.00     0.029 A 
ATOM     45  C   UNL A   1      42.729  29.746  30.861  1.00  0.00     0.049 A 
ATOM     46  H   UNL A   1      40.963  30.473  29.879  1.00  0.00     0.167 HD
ATOM     47  C   UNL A   1      43.223  23.827  28.161  1.00  0.00     0.031 A 
ATOM     48  C   UNL A   1      42.589  29.714  32.222  1.00  0.00     0.031 A 
ATOM     49  C   UNL A   1      44.220  24.377  29.084  1.00  0.00     0.049 A 
ATOM     50  C   UNL A   1      43.200  28.473  32.854  1.00  0.00     0.074 A 
ATOM     51  C   UNL A   1      45.377  25.126  28.937  1.00  0.00     0.029 A 
ATOM     52  N   UNL A   1      43.922  24.403  30.437  1.00  0.00    -0.354 N 
ATOM     53  N   UNL A   1      43.774  27.511  32.182  1.00  0.00    -0.248 NA
ATOM     54  C   UNL A   1      43.135  28.173  34.285  1.00  0.00     0.031 C 
ATOM     55  C   UNL A   1      45.749  25.624  30.220  1.00  0.00     0.029 A 
ATOM     56  C   UNL A   1      44.832  25.161  31.146  1.00  0.00     0.049 A 
ATOM     57  H   UNL A   1      43.154  23.938  30.844  1.00  0.00     0.167 HD
ATOM     58  C   UNL A   1      44.101  26.485  33.022  1.00  0.00     0.074 A 
ATOM     59  C   UNL A   1      43.688  26.947  34.335  1.00  0.00     0.031 C 
ATOM     60  C   UNL A   1      44.647  25.316  32.580  1.00  0.00     0.031 A 
BRANCH  47  61
ATOM     61  C   UNL A   1      43.549  22.797  27.096  1.00  0.00    -0.014 A 
ATOM     62  C   UNL A   1      42.739  21.649  26.965  1.00  0.00     0.010 A 
ATOM     63  C   UNL A   1      44.654  22.868  26.227  1.00  0.00     0.010 A 
ATOM     64  C   UNL A   1      43.069  20.596  26.095  1.00  0.00     0.020 A 
ATOM     65  C   UNL A   1      45.017  21.810  25.377  1.00  0.00     0.020 A 
ATOM     66  C   UNL A   1      44.225  20.671  25.326  1.00  0.00     0.054 A 
BRANCH  66  67
ATOM     67  S   UNL A   1      44.680  19.274  24.266  1.00  0.00     0.124 S 
ATOM     68  O   UNL A   1      44.456  19.812  22.926  1.00  0.00    -0.237 OA
ATOM     69  O   UNL A   1      46.076  19.046  24.629  1.00  0.00    -0.237 OA
ATOM     70  O   UNL A   1      43.754  18.217  24.667  1.00  0.00    -0.744 OA
ENDBRANCH  66  67
ENDBRANCH  47  61
BRANCH  48  71
ATOM     71  C   UNL A   1      41.367  30.422  32.707  1.00  0.00    -0.014 A 
ATOM     72  C   UNL A   1      40.224  29.629  32.961  1.00  0.00     0.010 A 
ATOM     73  C   UNL A   1      41.476  31.674  33.336  1.00  0.00     0.010 A 
ATOM     74  C   UNL A   1      39.330  29.976  33.976  1.00  0.00     0.020 A 
ATOM     75  C   UNL A   1      40.567  32.032  34.343  1.00  0.00     0.020 A 
ATOM     76  C   UNL A   1      39.557  31.138  34.714  1.00  0.00     0.054 A 
BRANCH  76  77
ATOM     77  S   UNL A   1      38.647  31.356  36.276  1.00  0.00     0.124 S 
ATOM     78  O   UNL A   1      38.416  29.979  36.700  1.00  0.00    -0.237 OA
ATOM     79  O   UNL A   1      39.605  32.116  37.084  1.00  0.00    -0.237 OA
ATOM     80  O   UNL A   1      37.459  32.098  35.868  1.00  0.00    -0.744 OA
ENDBRANCH  76  77
ENDBRANCH  48  71
BRANCH  60  81
ATOM     81  C   UNL A   1      45.027  24.185  33.492  1.00  0.00    -0.014 A 
ATOM     82  C   UNL A   1      46.344  23.993  33.936  1.00  0.00     0.010 A 
ATOM     83  C   UNL A   1      44.073  23.199  33.830  1.00  0.00     0.010 A 
ATOM     84  C   UNL A   1      46.680  22.897  34.743  1.00  0.00     0.020 A 
ATOM     85  C   UNL A   1      44.403  22.091  34.614  1.00  0.00     0.020 A 
ATOM     86  C   UNL A   1      45.702  21.960  35.086  1.00  0.00     0.054 A 
BRANCH  86  87
ATOM     87  S   UNL A   1      46.157  20.541  36.114  1.00  0.00     0.124 S 
ATOM     88  O   UNL A   1      45.325  19.469  35.570  1.00  0.00    -0.237 OA
ATOM     89  O   UNL A   1      47.587  20.423  35.845  1.00  0.00    -0.237 OA
ATOM     90  O   UNL A   1      45.807  20.965  37.467  1.00  0.00    -0.744 OA
ENDBRANCH  86  87
ENDBRANCH  60  81
ENDBRANCH  34  35
ENDBRANCH  26  29
ENDBRANCH  24  25
ENDBRANCH  23  24
ENDBRANCH   1  23
TORSDOF 19
ENDMDL
