MODEL 1
REMARK VINA RESULT:     -10.8      0.000      0.000
REMARK SMILES O=C(CCc1cccnc1)Nc1cccc(F)c1C(=O)NCCCCNC(=O)c1ccc(-c2c3nc(c(-c4ccc(S(=O)(=O)[O-])cc4)c4ccc([nH]4)c(-c4ccc(S(=O)(=O)[O-])cc4)c4nc(c(-c5ccc(S(=O)(=O)[O-])cc5)c5ccc2[nH]5)C=C4)C=C3)cc1
REMARK SMILES IDX 23 1 22 2 21 3 19 4 20 5 18 7 12 8 13 9 14 10 16 11 15 12
REMARK SMILES IDX 17 13 11 14 1 15 2 16 3 18 4 19 5 20 6 21 10 22 7 23 9 24
REMARK SMILES IDX 8 25 24 26 25 27 26 28 27 29 28 31 29 32 30 33 88 34 31 35
REMARK SMILES IDX 87 36 32 37 33 38 34 39 81 40 35 41 86 42 80 43 82 44 36 45
REMARK SMILES IDX 85 46 79 47 78 48 37 50 67 51 48 52 66 53 49 54 52 55 65 56
REMARK SMILES IDX 83 57 50 58 51 59 64 61 84 62 53 63 38 64 39 65 47 66 40 67
REMARK SMILES IDX 46 68 41 69 42 70 43 71 44 72 45 73 68 74 69 75 77 76 70 77
REMARK SMILES IDX 76 78 71 79 72 80 73 81 74 82 75 83 54 84 55 85 63 86 56 87
REMARK SMILES IDX 62 88 57 89 58 90 59 91 60 92 61 93
REMARK H PARENT 21 6 11 17 26 30 82 49 52 60
REMARK Flexibility Score: inf
ROOT
ATOM      1  C   UNL A   1      33.887  28.938  24.963  1.00  0.00     0.023 C 
ENDROOT
BRANCH   1   2
ATOM      2  C   UNL A   1      32.761  28.956  23.928  1.00  0.00     0.116 C 
BRANCH   2   3
ATOM      3  N   UNL A   1      32.827  27.945  22.884  1.00  0.00    -0.352 N 
ATOM      4  C   UNL A   1      32.088  26.781  22.721  1.00  0.00     0.256 C 
ATOM      5  O   UNL A   1      32.076  26.266  21.606  1.00  0.00    -0.269 OA
ATOM      6  H   UNL A   1      33.499  28.112  22.184  1.00  0.00     0.163 HD
BRANCH   4   7
ATOM      7  C   UNL A   1      31.400  26.094  23.849  1.00  0.00     0.099 A 
ATOM      8  C   UNL A   1      32.016  25.044  24.573  1.00  0.00     0.056 A 
ATOM      9  C   UNL A   1      31.405  24.517  25.721  1.00  0.00     0.027 A 
ATOM     10  C   UNL A   1      30.158  24.980  26.130  1.00  0.00     0.005 A 
ATOM     11  C   UNL A   1      30.120  26.487  24.241  1.00  0.00     0.138 A 
ATOM     12  C   UNL A   1      29.511  25.957  25.380  1.00  0.00     0.040 A 
ATOM     13  F   UNL A   1      29.427  27.393  23.537  1.00  0.00    -0.206 F 
BRANCH   8  14
ATOM     14  N   UNL A   1      33.269  24.491  24.245  1.00  0.00    -0.325 N 
ATOM     15  O   UNL A   1      32.447  22.808  22.882  1.00  0.00    -0.275 OA
ATOM     16  C   UNL A   1      33.391  23.424  23.368  1.00  0.00     0.224 C 
ATOM     17  H   UNL A   1      34.081  24.872  24.650  1.00  0.00     0.169 HD
BRANCH  16  18
ATOM     18  C   UNL A   1      34.831  23.019  23.097  1.00  0.00     0.105 C 
BRANCH  18  19
ATOM     19  C   UNL A   1      35.317  21.938  24.067  1.00  0.00     0.047 C 
BRANCH  19  20
ATOM     20  C   UNL A   1      36.543  22.281  24.883  1.00  0.00    -0.029 A 
ATOM     21  C   UNL A   1      36.776  23.547  25.419  1.00  0.00     0.007 A 
ATOM     22  C   UNL A   1      37.564  21.352  25.057  1.00  0.00     0.114 A 
ATOM     23  C   UNL A   1      37.950  23.837  26.104  1.00  0.00     0.020 A 
ATOM     24  N   UNL A   1      38.715  21.591  25.731  1.00  0.00    -0.264 NA
ATOM     25  C   UNL A   1      38.885  22.832  26.231  1.00  0.00     0.111 A 
ENDBRANCH  19  20
ENDBRANCH  18  19
ENDBRANCH  16  18
ENDBRANCH   8  14
ENDBRANCH   4   7
ENDBRANCH   2   3
ENDBRANCH   1   2
BRANCH   1  26
ATOM     26  C   UNL A   1      33.770  27.990  26.157  1.00  0.00     0.023 C 
BRANCH  26  27
ATOM     27  C   UNL A   1      33.149  28.536  27.441  1.00  0.00     0.116 C 
BRANCH  27  28
ATOM     28  N   UNL A   1      33.278  29.976  27.609  1.00  0.00    -0.352 N 
ATOM     29  C   UNL A   1      34.364  30.746  27.968  1.00  0.00     0.251 C 
ATOM     30  H   UNL A   1      32.453  30.485  27.438  1.00  0.00     0.163 HD
ATOM     31  O   UNL A   1      34.220  31.961  28.094  1.00  0.00    -0.269 OA
BRANCH  29  32
ATOM     32  C   UNL A   1      35.685  30.133  28.253  1.00  0.00     0.039 A 
ATOM     33  C   UNL A   1      36.627  30.059  27.221  1.00  0.00     0.014 A 
ATOM     34  C   UNL A   1      36.010  29.633  29.516  1.00  0.00     0.014 A 
ATOM     35  C   UNL A   1      37.919  29.588  27.481  1.00  0.00     0.010 A 
ATOM     36  C   UNL A   1      37.319  29.234  29.793  1.00  0.00     0.010 A 
ATOM     37  C   UNL A   1      38.295  29.225  28.784  1.00  0.00    -0.014 A 
BRANCH  37  38
ATOM     38  C   UNL A   1      39.706  28.883  29.119  1.00  0.00     0.031 A 
ATOM     39  C   UNL A   1      40.629  29.917  29.711  1.00  0.00     0.074 A 
ATOM     40  C   UNL A   1      40.186  27.659  28.809  1.00  0.00     0.049 A 
ATOM     41  N   UNL A   1      41.906  29.822  29.983  1.00  0.00    -0.248 NA
ATOM     42  C   UNL A   1      40.050  31.236  30.013  1.00  0.00     0.031 C 
ATOM     43  C   UNL A   1      39.416  26.579  28.186  1.00  0.00     0.029 A 
ATOM     44  N   UNL A   1      41.442  27.121  28.958  1.00  0.00    -0.354 N 
ATOM     45  C   UNL A   1      42.287  31.069  30.465  1.00  0.00     0.074 A 
ATOM     46  C   UNL A   1      41.114  31.916  30.414  1.00  0.00     0.031 C 
ATOM     47  C   UNL A   1      40.207  25.507  28.022  1.00  0.00     0.029 A 
ATOM     48  C   UNL A   1      41.553  25.833  28.484  1.00  0.00     0.049 A 
ATOM     49  H   UNL A   1      42.192  27.610  29.365  1.00  0.00     0.167 HD
ATOM     50  C   UNL A   1      43.498  31.471  30.920  1.00  0.00     0.031 A 
ATOM     51  C   UNL A   1      42.617  25.008  28.409  1.00  0.00     0.031 A 
ATOM     52  C   UNL A   1      44.659  30.623  30.990  1.00  0.00     0.049 A 
ATOM     53  C   UNL A   1      43.950  25.480  28.924  1.00  0.00     0.074 A 
ATOM     54  C   UNL A   1      45.908  30.920  31.510  1.00  0.00     0.029 A 
ATOM     55  N   UNL A   1      44.720  29.318  30.526  1.00  0.00    -0.354 N 
ATOM     56  N   UNL A   1      44.265  26.637  29.456  1.00  0.00    -0.248 NA
ATOM     57  C   UNL A   1      45.071  24.532  28.838  1.00  0.00     0.031 C 
ATOM     58  C   UNL A   1      46.741  29.816  31.308  1.00  0.00     0.029 A 
ATOM     59  C   UNL A   1      45.994  28.808  30.720  1.00  0.00     0.049 A 
ATOM     60  H   UNL A   1      43.971  28.827  30.120  1.00  0.00     0.167 HD
ATOM     61  C   UNL A   1      45.612  26.545  29.791  1.00  0.00     0.074 A 
ATOM     62  C   UNL A   1      46.047  25.214  29.421  1.00  0.00     0.031 C 
ATOM     63  C   UNL A   1      46.415  27.481  30.353  1.00  0.00     0.031 A 
BRANCH  50  64
ATOM     64  C   UNL A   1      43.643  32.898  31.382  1.00  0.00    -0.014 A 
ATOM     65  C   UNL A   1      43.458  33.246  32.732  1.00  0.00     0.010 A 
ATOM     66  C   UNL A   1      44.054  33.888  30.470  1.00  0.00     0.010 A 
ATOM     67  C   UNL A   1      43.657  34.564  33.156  1.00  0.00     0.020 A 
ATOM     68  C   UNL A   1      44.280  35.199  30.895  1.00  0.00     0.020 A 
ATOM     69  C   UNL A   1      44.071  35.531  32.235  1.00  0.00     0.054 A 
BRANCH  69  70
ATOM     70  S   UNL A   1      44.376  37.218  32.827  1.00  0.00     0.124 S 
ATOM     71  O   UNL A   1      43.160  37.496  33.588  1.00  0.00    -0.237 OA
ATOM     72  O   UNL A   1      45.591  37.064  33.622  1.00  0.00    -0.237 OA
ATOM     73  O   UNL A   1      44.532  37.996  31.601  1.00  0.00    -0.744 OA
ENDBRANCH  69  70
ENDBRANCH  50  64
BRANCH  51  74
ATOM     74  C   UNL A   1      42.474  23.650  27.812  1.00  0.00    -0.014 A 
ATOM     75  C   UNL A   1      42.028  22.566  28.589  1.00  0.00     0.010 A 
ATOM     76  C   UNL A   1      42.803  23.431  26.461  1.00  0.00     0.010 A 
ATOM     77  C   UNL A   1      41.944  21.284  28.037  1.00  0.00     0.020 A 
ATOM     78  C   UNL A   1      42.689  22.157  25.897  1.00  0.00     0.020 A 
ATOM     79  C   UNL A   1      42.277  21.087  26.693  1.00  0.00     0.054 A 
BRANCH  79  80
ATOM     80  S   UNL A   1      42.134  19.421  25.989  1.00  0.00     0.124 S 
ATOM     81  O   UNL A   1      40.704  19.325  25.721  1.00  0.00    -0.237 OA
ATOM     82  O   UNL A   1      42.996  19.501  24.811  1.00  0.00    -0.237 OA
ATOM     83  O   UNL A   1      42.632  18.556  27.056  1.00  0.00    -0.744 OA
ENDBRANCH  79  80
ENDBRANCH  51  74
BRANCH  63  84
ATOM     84  C   UNL A   1      47.842  27.093  30.639  1.00  0.00    -0.014 A 
ATOM     85  C   UNL A   1      48.864  27.326  29.703  1.00  0.00     0.010 A 
ATOM     86  C   UNL A   1      48.173  26.543  31.892  1.00  0.00     0.010 A 
ATOM     87  C   UNL A   1      50.188  26.988  30.003  1.00  0.00     0.020 A 
ATOM     88  C   UNL A   1      49.498  26.231  32.206  1.00  0.00     0.020 A 
ATOM     89  C   UNL A   1      50.496  26.444  31.254  1.00  0.00     0.054 A 
BRANCH  89  90
ATOM     90  S   UNL A   1      52.227  26.060  31.636  1.00  0.00     0.124 S 
ATOM     91  O   UNL A   1      52.531  27.035  32.679  1.00  0.00    -0.237 OA
ATOM     92  O   UNL A   1      52.158  24.669  32.076  1.00  0.00    -0.237 OA
ATOM     93  O   UNL A   1      52.918  26.272  30.366  1.00  0.00    -0.744 OA
ENDBRANCH  89  90
ENDBRANCH  63  84
ENDBRANCH  37  38
ENDBRANCH  29  32
ENDBRANCH  27  28
ENDBRANCH  26  27
ENDBRANCH   1  26
TORSDOF 18
ENDMDL
MODEL 2
REMARK VINA RESULT:     -10.5      4.512     10.369
REMARK SMILES O=C(CCc1cccnc1)Nc1cccc(F)c1C(=O)NCCCCNC(=O)c1ccc(-c2c3nc(c(-c4ccc(S(=O)(=O)[O-])cc4)c4ccc([nH]4)c(-c4ccc(S(=O)(=O)[O-])cc4)c4nc(c(-c5ccc(S(=O)(=O)[O-])cc5)c5ccc2[nH]5)C=C4)C=C3)cc1
REMARK SMILES IDX 23 1 22 2 21 3 19 4 20 5 18 7 12 8 13 9 14 10 16 11 15 12
REMARK SMILES IDX 17 13 11 14 1 15 2 16 3 18 4 19 5 20 6 21 10 22 7 23 9 24
REMARK SMILES IDX 8 25 24 26 25 27 26 28 27 29 28 31 29 32 30 33 88 34 31 35
REMARK SMILES IDX 87 36 32 37 33 38 34 39 81 40 35 41 86 42 80 43 82 44 36 45
REMARK SMILES IDX 85 46 79 47 78 48 37 50 67 51 48 52 66 53 49 54 52 55 65 56
REMARK SMILES IDX 83 57 50 58 51 59 64 61 84 62 53 63 38 64 39 65 47 66 40 67
REMARK SMILES IDX 46 68 41 69 42 70 43 71 44 72 45 73 68 74 69 75 77 76 70 77
REMARK SMILES IDX 76 78 71 79 72 80 73 81 74 82 75 83 54 84 55 85 63 86 56 87
REMARK SMILES IDX 62 88 57 89 58 90 59 91 60 92 61 93
REMARK H PARENT 21 6 11 17 26 30 82 49 52 60
REMARK Flexibility Score: inf
ROOT
ATOM      1  C   UNL A   1      36.188  23.436  25.335  1.00  0.00     0.023 C 
ENDROOT
BRANCH   1   2
ATOM      2  C   UNL A   1      35.155  22.317  25.478  1.00  0.00     0.116 C 
BRANCH   2   3
ATOM      3  N   UNL A   1      33.888  22.681  26.091  1.00  0.00    -0.352 N 
ATOM      4  C   UNL A   1      32.730  23.184  25.516  1.00  0.00     0.256 C 
ATOM      5  O   UNL A   1      31.688  23.097  26.162  1.00  0.00    -0.269 OA
ATOM      6  H   UNL A   1      33.844  22.550  27.067  1.00  0.00     0.163 HD
BRANCH   4   7
ATOM      7  C   UNL A   1      32.718  23.900  24.210  1.00  0.00     0.099 A 
ATOM      8  C   UNL A   1      32.708  25.314  24.131  1.00  0.00     0.056 A 
ATOM      9  C   UNL A   1      32.847  25.959  22.893  1.00  0.00     0.027 A 
ATOM     10  C   UNL A   1      32.939  25.218  21.720  1.00  0.00     0.005 A 
ATOM     11  C   UNL A   1      32.741  23.185  23.012  1.00  0.00     0.138 A 
ATOM     12  C   UNL A   1      32.873  23.829  21.780  1.00  0.00     0.040 A 
ATOM     13  F   UNL A   1      32.638  21.849  23.001  1.00  0.00    -0.206 F 
BRANCH   8  14
ATOM     14  N   UNL A   1      32.608  26.164  25.250  1.00  0.00    -0.325 N 
ATOM     15  O   UNL A   1      30.297  26.317  25.239  1.00  0.00    -0.275 OA
ATOM     16  C   UNL A   1      31.382  26.567  25.756  1.00  0.00     0.224 C 
ATOM     17  H   UNL A   1      33.432  26.481  25.685  1.00  0.00     0.169 HD
BRANCH  16  18
ATOM     18  C   UNL A   1      31.491  27.429  27.004  1.00  0.00     0.105 C 
BRANCH  18  19
ATOM     19  C   UNL A   1      31.599  28.919  26.667  1.00  0.00     0.047 C 
BRANCH  19  20
ATOM     20  C   UNL A   1      32.911  29.585  27.018  1.00  0.00    -0.029 A 
ATOM     21  C   UNL A   1      34.099  28.881  27.212  1.00  0.00     0.007 A 
ATOM     22  C   UNL A   1      32.971  30.953  27.263  1.00  0.00     0.114 A 
ATOM     23  C   UNL A   1      35.266  29.526  27.602  1.00  0.00     0.020 A 
ATOM     24  N   UNL A   1      34.092  31.621  27.629  1.00  0.00    -0.264 NA
ATOM     25  C   UNL A   1      35.212  30.890  27.799  1.00  0.00     0.111 A 
ENDBRANCH  19  20
ENDBRANCH  18  19
ENDBRANCH  16  18
ENDBRANCH   8  14
ENDBRANCH   4   7
ENDBRANCH   2   3
ENDBRANCH   1   2
BRANCH   1  26
ATOM     26  C   UNL A   1      37.660  23.112  25.589  1.00  0.00     0.023 C 
BRANCH  26  27
ATOM     27  C   UNL A   1      38.531  24.198  26.216  1.00  0.00     0.116 C 
BRANCH  27  28
ATOM     28  N   UNL A   1      39.962  23.938  26.150  1.00  0.00    -0.352 N 
ATOM     29  C   UNL A   1      41.022  24.580  26.751  1.00  0.00     0.251 C 
ATOM     30  H   UNL A   1      40.214  23.175  25.579  1.00  0.00     0.163 HD
ATOM     31  O   UNL A   1      42.167  24.203  26.505  1.00  0.00    -0.269 OA
BRANCH  29  32
ATOM     32  C   UNL A   1      40.813  25.744  27.647  1.00  0.00     0.039 A 
ATOM     33  C   UNL A   1      39.769  25.696  28.578  1.00  0.00     0.014 A 
ATOM     34  C   UNL A   1      41.625  26.878  27.586  1.00  0.00     0.014 A 
ATOM     35  C   UNL A   1      39.610  26.727  29.511  1.00  0.00     0.010 A 
ATOM     36  C   UNL A   1      41.514  27.870  28.563  1.00  0.00     0.010 A 
ATOM     37  C   UNL A   1      40.518  27.797  29.549  1.00  0.00    -0.014 A 
BRANCH  37  38
ATOM     38  C   UNL A   1      40.472  28.817  30.635  1.00  0.00     0.031 A 
ATOM     39  C   UNL A   1      41.357  28.689  31.848  1.00  0.00     0.074 A 
ATOM     40  C   UNL A   1      39.565  29.816  30.572  1.00  0.00     0.049 A 
ATOM     41  N   UNL A   1      41.389  29.431  32.926  1.00  0.00    -0.248 NA
ATOM     42  C   UNL A   1      42.313  27.570  31.864  1.00  0.00     0.031 C 
ATOM     43  C   UNL A   1      38.612  30.028  29.479  1.00  0.00     0.029 A 
ATOM     44  N   UNL A   1      39.285  30.833  31.453  1.00  0.00    -0.354 N 
ATOM     45  C   UNL A   1      42.347  28.858  33.755  1.00  0.00     0.074 A 
ATOM     46  C   UNL A   1      42.848  27.685  33.070  1.00  0.00     0.031 C 
ATOM     47  C   UNL A   1      37.866  31.112  29.746  1.00  0.00     0.029 A 
ATOM     48  C   UNL A   1      38.252  31.648  31.047  1.00  0.00     0.049 A 
ATOM     49  H   UNL A   1      39.776  30.966  32.295  1.00  0.00     0.167 HD
ATOM     50  C   UNL A   1      42.780  29.276  34.969  1.00  0.00     0.031 A 
ATOM     51  C   UNL A   1      37.665  32.699  31.656  1.00  0.00     0.031 A 
ATOM     52  C   UNL A   1      42.297  30.454  35.640  1.00  0.00     0.049 A 
ATOM     53  C   UNL A   1      38.168  33.143  33.003  1.00  0.00     0.074 A 
ATOM     54  C   UNL A   1      42.733  31.000  36.836  1.00  0.00     0.029 A 
ATOM     55  N   UNL A   1      41.272  31.267  35.181  1.00  0.00    -0.354 N 
ATOM     56  N   UNL A   1      39.136  32.635  33.729  1.00  0.00    -0.248 NA
ATOM     57  C   UNL A   1      37.507  34.307  33.611  1.00  0.00     0.031 C 
ATOM     58  C   UNL A   1      41.934  32.108  37.130  1.00  0.00     0.029 A 
ATOM     59  C   UNL A   1      41.041  32.290  36.086  1.00  0.00     0.049 A 
ATOM     60  H   UNL A   1      40.781  31.136  34.339  1.00  0.00     0.167 HD
ATOM     61  C   UNL A   1      39.216  33.435  34.865  1.00  0.00     0.074 A 
ATOM     62  C   UNL A   1      38.214  34.470  34.721  1.00  0.00     0.031 C 
ATOM     63  C   UNL A   1      40.045  33.319  35.931  1.00  0.00     0.031 A 
BRANCH  50  64
ATOM     64  C   UNL A   1      43.835  28.455  35.665  1.00  0.00    -0.014 A 
ATOM     65  C   UNL A   1      43.484  27.412  36.540  1.00  0.00     0.010 A 
ATOM     66  C   UNL A   1      45.194  28.675  35.373  1.00  0.00     0.010 A 
ATOM     67  C   UNL A   1      44.473  26.619  37.128  1.00  0.00     0.020 A 
ATOM     68  C   UNL A   1      46.185  27.867  35.938  1.00  0.00     0.020 A 
ATOM     69  C   UNL A   1      45.818  26.850  36.821  1.00  0.00     0.054 A 
BRANCH  69  70
ATOM     70  S   UNL A   1      47.074  25.768  37.557  1.00  0.00     0.124 S 
ATOM     71  O   UNL A   1      47.220  24.735  36.534  1.00  0.00    -0.237 OA
ATOM     72  O   UNL A   1      48.217  26.664  37.711  1.00  0.00    -0.237 OA
ATOM     73  O   UNL A   1      46.462  25.323  38.806  1.00  0.00    -0.744 OA
ENDBRANCH  69  70
ENDBRANCH  50  64
BRANCH  51  74
ATOM     74  C   UNL A   1      36.524  33.404  31.005  1.00  0.00    -0.014 A 
ATOM     75  C   UNL A   1      36.633  33.883  29.687  1.00  0.00     0.010 A 
ATOM     76  C   UNL A   1      35.325  33.613  31.710  1.00  0.00     0.010 A 
ATOM     77  C   UNL A   1      35.577  34.587  29.100  1.00  0.00     0.020 A 
ATOM     78  C   UNL A   1      34.256  34.288  31.115  1.00  0.00     0.020 A 
ATOM     79  C   UNL A   1      34.395  34.787  29.818  1.00  0.00     0.054 A 
BRANCH  79  80
ATOM     80  S   UNL A   1      33.027  35.678  29.027  1.00  0.00     0.124 S 
ATOM     81  O   UNL A   1      32.206  36.054  30.172  1.00  0.00    -0.237 OA
ATOM     82  O   UNL A   1      33.715  36.778  28.353  1.00  0.00    -0.237 OA
ATOM     83  O   UNL A   1      32.441  34.681  28.134  1.00  0.00    -0.744 OA
ENDBRANCH  79  80
ENDBRANCH  51  74
BRANCH  63  84
ATOM     84  C   UNL A   1      39.933  34.357  37.016  1.00  0.00    -0.014 A 
ATOM     85  C   UNL A   1      40.612  35.584  36.927  1.00  0.00     0.010 A 
ATOM     86  C   UNL A   1      39.083  34.123  38.114  1.00  0.00     0.010 A 
ATOM     87  C   UNL A   1      40.467  36.547  37.930  1.00  0.00     0.020 A 
ATOM     88  C   UNL A   1      38.913  35.094  39.103  1.00  0.00     0.020 A 
ATOM     89  C   UNL A   1      39.617  36.296  39.012  1.00  0.00     0.054 A 
BRANCH  89  90
ATOM     90  S   UNL A   1      39.408  37.581  40.274  1.00  0.00     0.124 S 
ATOM     91  O   UNL A   1      38.510  38.519  39.607  1.00  0.00    -0.237 OA
ATOM     92  O   UNL A   1      38.828  36.841  41.393  1.00  0.00    -0.237 OA
ATOM     93  O   UNL A   1      40.766  38.072  40.498  1.00  0.00    -0.744 OA
ENDBRANCH  89  90
ENDBRANCH  63  84
ENDBRANCH  37  38
ENDBRANCH  29  32
ENDBRANCH  27  28
ENDBRANCH  26  27
ENDBRANCH   1  26
TORSDOF 18
ENDMDL
MODEL 3
REMARK VINA RESULT:     -10.4      1.765      8.909
REMARK SMILES O=C(CCc1cccnc1)Nc1cccc(F)c1C(=O)NCCCCNC(=O)c1ccc(-c2c3nc(c(-c4ccc(S(=O)(=O)[O-])cc4)c4ccc([nH]4)c(-c4ccc(S(=O)(=O)[O-])cc4)c4nc(c(-c5ccc(S(=O)(=O)[O-])cc5)c5ccc2[nH]5)C=C4)C=C3)cc1
REMARK SMILES IDX 23 1 22 2 21 3 19 4 20 5 18 7 12 8 13 9 14 10 16 11 15 12
REMARK SMILES IDX 17 13 11 14 1 15 2 16 3 18 4 19 5 20 6 21 10 22 7 23 9 24
REMARK SMILES IDX 8 25 24 26 25 27 26 28 27 29 28 31 29 32 30 33 88 34 31 35
REMARK SMILES IDX 87 36 32 37 33 38 34 39 81 40 35 41 86 42 80 43 82 44 36 45
REMARK SMILES IDX 85 46 79 47 78 48 37 50 67 51 48 52 66 53 49 54 52 55 65 56
REMARK SMILES IDX 83 57 50 58 51 59 64 61 84 62 53 63 38 64 39 65 47 66 40 67
REMARK SMILES IDX 46 68 41 69 42 70 43 71 44 72 45 73 68 74 69 75 77 76 70 77
REMARK SMILES IDX 76 78 71 79 72 80 73 81 74 82 75 83 54 84 55 85 63 86 56 87
REMARK SMILES IDX 62 88 57 89 58 90 59 91 60 92 61 93
REMARK H PARENT 21 6 11 17 26 30 82 49 52 60
REMARK Flexibility Score: inf
ROOT
ATOM      1  C   UNL A   1      33.855  27.035  25.280  1.00  0.00     0.023 C 
ENDROOT
BRANCH   1   2
ATOM      2  C   UNL A   1      33.879  25.570  25.719  1.00  0.00     0.116 C 
BRANCH   2   3
ATOM      3  N   UNL A   1      32.746  25.113  26.508  1.00  0.00    -0.352 N 
ATOM      4  C   UNL A   1      32.222  23.837  26.662  1.00  0.00     0.256 C 
ATOM      5  O   UNL A   1      31.489  23.635  27.627  1.00  0.00    -0.269 OA
ATOM      6  H   UNL A   1      32.278  25.818  27.012  1.00  0.00     0.163 HD
BRANCH   4   7
ATOM      7  C   UNL A   1      32.433  22.749  25.667  1.00  0.00     0.099 A 
ATOM      8  C   UNL A   1      31.698  22.688  24.457  1.00  0.00     0.056 A 
ATOM      9  C   UNL A   1      32.022  21.740  23.475  1.00  0.00     0.027 A 
ATOM     10  C   UNL A   1      33.031  20.809  23.701  1.00  0.00     0.005 A 
ATOM     11  C   UNL A   1      33.390  21.760  25.894  1.00  0.00     0.138 A 
ATOM     12  C   UNL A   1      33.706  20.812  24.918  1.00  0.00     0.040 A 
ATOM     13  F   UNL A   1      34.046  21.684  27.061  1.00  0.00    -0.206 F 
BRANCH   8  14
ATOM     14  N   UNL A   1      30.651  23.570  24.127  1.00  0.00    -0.325 N 
ATOM     15  O   UNL A   1      31.964  25.092  22.977  1.00  0.00    -0.275 OA
ATOM     16  C   UNL A   1      30.864  24.701  23.355  1.00  0.00     0.224 C 
ATOM     17  H   UNL A   1      29.743  23.378  24.454  1.00  0.00     0.169 HD
BRANCH  16  18
ATOM     18  C   UNL A   1      29.595  25.485  23.058  1.00  0.00     0.105 C 
BRANCH  18  19
ATOM     19  C   UNL A   1      29.482  26.746  23.920  1.00  0.00     0.047 C 
BRANCH  19  20
ATOM     20  C   UNL A   1      29.202  28.033  23.178  1.00  0.00    -0.029 A 
ATOM     21  C   UNL A   1      27.956  28.658  23.172  1.00  0.00     0.007 A 
ATOM     22  C   UNL A   1      30.175  28.613  22.369  1.00  0.00     0.114 A 
ATOM     23  C   UNL A   1      27.725  29.803  22.419  1.00  0.00     0.020 A 
ATOM     24  N   UNL A   1      29.993  29.736  21.633  1.00  0.00    -0.264 NA
ATOM     25  C   UNL A   1      28.769  30.301  21.669  1.00  0.00     0.111 A 
ENDBRANCH  19  20
ENDBRANCH  18  19
ENDBRANCH  16  18
ENDBRANCH   8  14
ENDBRANCH   4   7
ENDBRANCH   2   3
ENDBRANCH   1   2
BRANCH   1  26
ATOM     26  C   UNL A   1      32.907  27.999  25.994  1.00  0.00     0.023 C 
BRANCH  26  27
ATOM     27  C   UNL A   1      33.230  28.378  27.437  1.00  0.00     0.116 C 
BRANCH  27  28
ATOM     28  N   UNL A   1      33.275  29.811  27.689  1.00  0.00    -0.352 N 
ATOM     29  C   UNL A   1      34.318  30.626  28.071  1.00  0.00     0.251 C 
ATOM     30  H   UNL A   1      32.415  30.277  27.565  1.00  0.00     0.163 HD
ATOM     31  O   UNL A   1      34.103  31.820  28.272  1.00  0.00    -0.269 OA
BRANCH  29  32
ATOM     32  C   UNL A   1      35.681  30.082  28.293  1.00  0.00     0.039 A 
ATOM     33  C   UNL A   1      36.585  30.077  27.224  1.00  0.00     0.014 A 
ATOM     34  C   UNL A   1      36.083  29.579  29.532  1.00  0.00     0.014 A 
ATOM     35  C   UNL A   1      37.910  29.673  27.424  1.00  0.00     0.010 A 
ATOM     36  C   UNL A   1      37.422  29.248  29.750  1.00  0.00     0.010 A 
ATOM     37  C   UNL A   1      38.356  29.310  28.704  1.00  0.00    -0.014 A 
BRANCH  37  38
ATOM     38  C   UNL A   1      39.796  29.040  28.978  1.00  0.00     0.031 A 
ATOM     39  C   UNL A   1      40.411  27.711  28.620  1.00  0.00     0.074 A 
ATOM     40  C   UNL A   1      40.534  29.964  29.630  1.00  0.00     0.049 A 
ATOM     41  N   UNL A   1      41.620  27.271  28.862  1.00  0.00    -0.248 NA
ATOM     42  C   UNL A   1      39.550  26.742  27.923  1.00  0.00     0.031 C 
ATOM     43  C   UNL A   1      40.051  31.272  30.079  1.00  0.00     0.029 A 
ATOM     44  N   UNL A   1      41.844  29.939  30.046  1.00  0.00    -0.354 N 
ATOM     45  C   UNL A   1      41.659  25.972  28.371  1.00  0.00     0.074 A 
ATOM     46  C   UNL A   1      40.340  25.680  27.849  1.00  0.00     0.031 C 
ATOM     47  C   UNL A   1      41.050  31.928  30.691  1.00  0.00     0.029 A 
ATOM     48  C   UNL A   1      42.233  31.074  30.721  1.00  0.00     0.049 A 
ATOM     49  H   UNL A   1      42.447  29.180  29.877  1.00  0.00     0.167 HD
ATOM     50  C   UNL A   1      42.699  25.104  28.344  1.00  0.00     0.031 A 
ATOM     51  C   UNL A   1      43.401  31.392  31.314  1.00  0.00     0.031 A 
ATOM     52  C   UNL A   1      44.015  25.401  28.845  1.00  0.00     0.049 A 
ATOM     53  C   UNL A   1      44.541  30.409  31.267  1.00  0.00     0.074 A 
ATOM     54  C   UNL A   1      45.152  24.612  28.789  1.00  0.00     0.029 A 
ATOM     55  N   UNL A   1      44.373  26.572  29.494  1.00  0.00    -0.354 N 
ATOM     56  N   UNL A   1      44.578  29.218  30.719  1.00  0.00    -0.248 NA
ATOM     57  C   UNL A   1      45.798  30.816  31.911  1.00  0.00     0.031 C 
ATOM     58  C   UNL A   1      46.182  25.281  29.455  1.00  0.00     0.029 A 
ATOM     59  C   UNL A   1      45.705  26.514  29.871  1.00  0.00     0.049 A 
ATOM     60  H   UNL A   1      43.771  27.332  29.662  1.00  0.00     0.167 HD
ATOM     61  C   UNL A   1      45.870  28.746  30.929  1.00  0.00     0.074 A 
ATOM     62  C   UNL A   1      46.588  29.787  31.636  1.00  0.00     0.031 C 
ATOM     63  C   UNL A   1      46.412  27.557  30.569  1.00  0.00     0.031 A 
BRANCH  50  64
ATOM     64  C   UNL A   1      42.465  23.737  27.754  1.00  0.00    -0.014 A 
ATOM     65  C   UNL A   1      42.840  23.443  26.431  1.00  0.00     0.010 A 
ATOM     66  C   UNL A   1      41.942  22.710  28.561  1.00  0.00     0.010 A 
ATOM     67  C   UNL A   1      42.673  22.153  25.919  1.00  0.00     0.020 A 
ATOM     68  C   UNL A   1      41.800  21.413  28.062  1.00  0.00     0.020 A 
ATOM     69  C   UNL A   1      42.157  21.145  26.739  1.00  0.00     0.054 A 
BRANCH  69  70
ATOM     70  S   UNL A   1      42.007  19.468  26.062  1.00  0.00     0.124 S 
ATOM     71  O   UNL A   1      42.827  19.554  24.857  1.00  0.00    -0.237 OA
ATOM     72  O   UNL A   1      42.553  18.640  27.135  1.00  0.00    -0.237 OA
ATOM     73  O   UNL A   1      40.573  19.314  25.829  1.00  0.00    -0.744 OA
ENDBRANCH  69  70
ENDBRANCH  50  64
BRANCH  51  74
ATOM     74  C   UNL A   1      43.557  32.697  32.018  1.00  0.00    -0.014 A 
ATOM     75  C   UNL A   1      43.241  32.820  33.383  1.00  0.00     0.010 A 
ATOM     76  C   UNL A   1      44.007  33.831  31.317  1.00  0.00     0.010 A 
ATOM     77  C   UNL A   1      43.342  34.058  34.025  1.00  0.00     0.020 A 
ATOM     78  C   UNL A   1      44.139  35.063  31.963  1.00  0.00     0.020 A 
ATOM     79  C   UNL A   1      43.790  35.173  33.310  1.00  0.00     0.054 A 
BRANCH  79  80
ATOM     80  S   UNL A   1      43.939  36.764  34.169  1.00  0.00     0.124 S 
ATOM     81  O   UNL A   1      44.591  37.593  33.162  1.00  0.00    -0.237 OA
ATOM     82  O   UNL A   1      42.546  37.098  34.461  1.00  0.00    -0.237 OA
ATOM     83  O   UNL A   1      44.752  36.444  35.341  1.00  0.00    -0.744 OA
ENDBRANCH  79  80
ENDBRANCH  51  74
BRANCH  63  84
ATOM     84  C   UNL A   1      47.862  27.323  30.900  1.00  0.00    -0.014 A 
ATOM     85  C   UNL A   1      48.886  27.741  30.033  1.00  0.00     0.010 A 
ATOM     86  C   UNL A   1      48.206  26.730  32.130  1.00  0.00     0.010 A 
ATOM     87  C   UNL A   1      50.227  27.543  30.375  1.00  0.00     0.020 A 
ATOM     88  C   UNL A   1      49.544  26.557  32.488  1.00  0.00     0.020 A 
ATOM     89  C   UNL A   1      50.547  26.953  31.602  1.00  0.00     0.054 A 
BRANCH  89  90
ATOM     90  S   UNL A   1      52.295  26.754  32.044  1.00  0.00     0.124 S 
ATOM     91  O   UNL A   1      52.857  28.043  31.652  1.00  0.00    -0.237 OA
ATOM     92  O   UNL A   1      52.236  26.505  33.483  1.00  0.00    -0.237 OA
ATOM     93  O   UNL A   1      52.729  25.615  31.239  1.00  0.00    -0.744 OA
ENDBRANCH  89  90
ENDBRANCH  63  84
ENDBRANCH  37  38
ENDBRANCH  29  32
ENDBRANCH  27  28
ENDBRANCH  26  27
ENDBRANCH   1  26
TORSDOF 18
ENDMDL
