MODEL 1
REMARK VINA RESULT:     -11.3      0.000      0.000
REMARK SMILES O=C(Cn1cc(-c2ccccc2CO)cn1)NCCCCNC(=O)c1ccc(-c2c3nc(c(-c4ccc(S(=O)(=O)[O-])cc4)c4ccc([nH]4)c(-c4ccc(S(=O)(=O)[O-])cc4)c4nc(c(-c5ccc(S(=O)(=O)[O-])cc5)c5ccc2[nH]5)C=C4)C=C3)cc1
REMARK SMILES IDX 19 1 18 2 17 3 1 4 2 5 3 7 4 8 5 9 16 10 6 11 15 12 7 13
REMARK SMILES IDX 8 14 12 15 9 16 11 17 10 18 13 19 14 20 20 22 21 23 22 24
REMARK SMILES IDX 23 25 24 27 25 28 26 29 84 30 27 31 83 32 28 33 29 34 30 35
REMARK SMILES IDX 77 36 31 37 82 38 76 39 78 40 32 41 81 42 75 43 74 44 33 46
REMARK SMILES IDX 63 47 44 48 62 49 45 50 48 51 61 52 79 53 46 54 47 55 60 57
REMARK SMILES IDX 80 58 49 59 34 60 35 61 43 62 36 63 42 64 37 65 38 66 39 67
REMARK SMILES IDX 40 68 41 69 64 70 65 71 73 72 66 73 72 74 67 75 68 76 69 77
REMARK SMILES IDX 70 78 71 79 50 80 51 81 59 82 52 83 58 84 53 85 54 86 55 87
REMARK SMILES IDX 56 88 57 89
REMARK H PARENT 17 6 14 21 22 26 78 45 48 56
REMARK Flexibility Score: inf
ROOT
ATOM      1  C   UNL A   1      40.323  21.515  26.905  1.00  0.00     0.023 C 
ENDROOT
BRANCH   1   2
ATOM      2  C   UNL A   1      39.402  22.237  25.911  1.00  0.00     0.116 C 
BRANCH   2   3
ATOM      3  N   UNL A   1      38.068  22.469  26.434  1.00  0.00    -0.354 N 
ATOM      4  O   UNL A   1      37.355  23.718  24.652  1.00  0.00    -0.273 OA
ATOM      5  C   UNL A   1      37.106  23.168  25.725  1.00  0.00     0.241 C 
ATOM      6  H   UNL A   1      37.839  22.117  27.324  1.00  0.00     0.163 HD
BRANCH   5   7
ATOM      7  C   UNL A   1      35.776  23.371  26.422  1.00  0.00     0.243 C 
BRANCH   7   8
ATOM      8  N   UNL A   1      34.724  22.490  25.952  1.00  0.00    -0.263 N 
ATOM      9  C   UNL A   1      34.855  21.478  25.040  1.00  0.00     0.118 A 
ATOM     10  N   UNL A   1      33.508  22.535  26.523  1.00  0.00    -0.180 NA
ATOM     11  C   UNL A   1      33.651  20.804  25.039  1.00  0.00     0.020 A 
ATOM     12  C   UNL A   1      32.849  21.518  25.957  1.00  0.00     0.143 A 
BRANCH  11  13
ATOM     13  C   UNL A   1      33.336  19.651  24.217  1.00  0.00    -0.010 A 
ATOM     14  C   UNL A   1      33.908  18.419  24.585  1.00  0.00     0.009 A 
ATOM     15  C   UNL A   1      32.531  19.719  23.060  1.00  0.00    -0.015 A 
ATOM     16  C   UNL A   1      33.691  17.270  23.826  1.00  0.00     0.001 A 
ATOM     17  C   UNL A   1      32.331  18.545  22.303  1.00  0.00     0.007 A 
ATOM     18  C   UNL A   1      32.907  17.333  22.681  1.00  0.00     0.000 A 
BRANCH  15  19
ATOM     19  C   UNL A   1      31.905  20.989  22.538  1.00  0.00     0.192 C 
BRANCH  19  20
ATOM     20  O   UNL A   1      31.429  20.829  21.206  1.00  0.00    -0.392 OA
ATOM     21  H   UNL A   1      32.140  21.042  20.581  1.00  0.00     0.211 HD
ENDBRANCH  19  20
ENDBRANCH  15  19
ENDBRANCH  11  13
ENDBRANCH   7   8
ENDBRANCH   5   7
ENDBRANCH   2   3
ENDBRANCH   1   2
BRANCH   1  22
ATOM     22  C   UNL A   1      40.852  20.137  26.477  1.00  0.00     0.023 C 
BRANCH  22  23
ATOM     23  C   UNL A   1      42.215  19.777  27.045  1.00  0.00     0.116 C 
BRANCH  23  24
ATOM     24  N   UNL A   1      43.267  19.631  26.033  1.00  0.00    -0.352 N 
ATOM     25  C   UNL A   1      43.841  20.623  25.241  1.00  0.00     0.251 C 
ATOM     26  H   UNL A   1      43.610  18.718  25.895  1.00  0.00     0.163 HD
ATOM     27  O   UNL A   1      44.427  20.348  24.210  1.00  0.00    -0.269 OA
BRANCH  25  28
ATOM     28  C   UNL A   1      43.734  22.024  25.701  1.00  0.00     0.039 A 
ATOM     29  C   UNL A   1      42.987  23.008  25.040  1.00  0.00     0.014 A 
ATOM     30  C   UNL A   1      44.407  22.328  26.874  1.00  0.00     0.014 A 
ATOM     31  C   UNL A   1      42.881  24.275  25.623  1.00  0.00     0.010 A 
ATOM     32  C   UNL A   1      44.083  23.454  27.565  1.00  0.00     0.010 A 
ATOM     33  C   UNL A   1      43.434  24.479  26.893  1.00  0.00    -0.014 A 
BRANCH  33  34
ATOM     34  C   UNL A   1      43.385  25.739  27.621  1.00  0.00     0.031 A 
ATOM     35  C   UNL A   1      44.432  26.720  27.244  1.00  0.00     0.074 A 
ATOM     36  C   UNL A   1      42.256  26.095  28.279  1.00  0.00     0.049 A 
ATOM     37  N   UNL A   1      45.421  27.136  27.960  1.00  0.00    -0.248 NA
ATOM     38  C   UNL A   1      44.474  27.184  25.847  1.00  0.00     0.031 C 
ATOM     39  C   UNL A   1      40.998  25.332  28.381  1.00  0.00     0.029 A 
ATOM     40  N   UNL A   1      41.926  27.277  28.861  1.00  0.00    -0.354 N 
ATOM     41  C   UNL A   1      46.072  28.092  27.185  1.00  0.00     0.074 A 
ATOM     42  C   UNL A   1      45.601  27.897  25.839  1.00  0.00     0.031 C 
ATOM     43  C   UNL A   1      39.996  26.150  28.770  1.00  0.00     0.029 A 
ATOM     44  C   UNL A   1      40.567  27.435  29.122  1.00  0.00     0.049 A 
ATOM     45  H   UNL A   1      42.594  27.967  29.082  1.00  0.00     0.167 HD
ATOM     46  C   UNL A   1      46.716  29.152  27.753  1.00  0.00     0.031 A 
ATOM     47  C   UNL A   1      39.949  28.547  29.591  1.00  0.00     0.031 A 
ATOM     48  C   UNL A   1      46.773  29.007  29.186  1.00  0.00     0.049 A 
ATOM     49  C   UNL A   1      40.997  29.382  30.223  1.00  0.00     0.074 A 
ATOM     50  C   UNL A   1      47.412  28.169  30.072  1.00  0.00     0.029 A 
ATOM     51  N   UNL A   1      45.732  29.598  29.866  1.00  0.00    -0.354 N 
ATOM     52  N   UNL A   1      41.683  28.996  31.262  1.00  0.00    -0.248 NA
ATOM     53  C   UNL A   1      41.591  30.469  29.462  1.00  0.00     0.031 C 
ATOM     54  C   UNL A   1      46.511  28.020  31.167  1.00  0.00     0.029 A 
ATOM     55  C   UNL A   1      45.387  28.817  30.938  1.00  0.00     0.049 A 
ATOM     56  H   UNL A   1      45.303  30.449  29.620  1.00  0.00     0.167 HD
ATOM     57  C   UNL A   1      42.968  29.461  31.032  1.00  0.00     0.074 A 
ATOM     58  C   UNL A   1      42.818  30.477  29.995  1.00  0.00     0.031 C 
ATOM     59  C   UNL A   1      44.050  28.773  31.499  1.00  0.00     0.031 A 
BRANCH  46  60
ATOM     60  C   UNL A   1      46.884  30.514  27.112  1.00  0.00    -0.014 A 
ATOM     61  C   UNL A   1      48.153  31.129  27.178  1.00  0.00     0.010 A 
ATOM     62  C   UNL A   1      45.809  31.325  26.699  1.00  0.00     0.010 A 
ATOM     63  C   UNL A   1      48.318  32.499  26.937  1.00  0.00     0.020 A 
ATOM     64  C   UNL A   1      45.968  32.684  26.415  1.00  0.00     0.020 A 
ATOM     65  C   UNL A   1      47.215  33.271  26.577  1.00  0.00     0.054 A 
BRANCH  65  66
ATOM     66  S   UNL A   1      47.400  35.062  26.409  1.00  0.00     0.124 S 
ATOM     67  O   UNL A   1      46.010  35.504  26.382  1.00  0.00    -0.237 OA
ATOM     68  O   UNL A   1      48.158  35.409  27.608  1.00  0.00    -0.237 OA
ATOM     69  O   UNL A   1      48.128  35.210  25.150  1.00  0.00    -0.744 OA
ENDBRANCH  65  66
ENDBRANCH  46  60
BRANCH  47  70
ATOM     70  C   UNL A   1      38.579  29.043  29.312  1.00  0.00    -0.014 A 
ATOM     71  C   UNL A   1      37.715  29.436  30.349  1.00  0.00     0.010 A 
ATOM     72  C   UNL A   1      38.226  29.395  27.993  1.00  0.00     0.010 A 
ATOM     73  C   UNL A   1      36.568  30.207  30.083  1.00  0.00     0.020 A 
ATOM     74  C   UNL A   1      37.088  30.165  27.720  1.00  0.00     0.020 A 
ATOM     75  C   UNL A   1      36.275  30.587  28.770  1.00  0.00     0.054 A 
BRANCH  75  76
ATOM     76  S   UNL A   1      34.895  31.732  28.455  1.00  0.00     0.124 S 
ATOM     77  O   UNL A   1      34.590  32.227  29.794  1.00  0.00    -0.237 OA
ATOM     78  O   UNL A   1      35.491  32.703  27.543  1.00  0.00    -0.237 OA
ATOM     79  O   UNL A   1      33.871  30.875  27.860  1.00  0.00    -0.744 OA
ENDBRANCH  75  76
ENDBRANCH  47  70
BRANCH  59  80
ATOM     80  C   UNL A   1      43.806  27.745  32.578  1.00  0.00    -0.014 A 
ATOM     81  C   UNL A   1      43.824  26.352  32.363  1.00  0.00     0.010 A 
ATOM     82  C   UNL A   1      43.670  28.220  33.893  1.00  0.00     0.010 A 
ATOM     83  C   UNL A   1      43.687  25.461  33.439  1.00  0.00     0.020 A 
ATOM     84  C   UNL A   1      43.552  27.340  34.968  1.00  0.00     0.020 A 
ATOM     85  C   UNL A   1      43.550  25.964  34.736  1.00  0.00     0.054 A 
BRANCH  85  86
ATOM     86  S   UNL A   1      43.413  24.814  36.134  1.00  0.00     0.124 S 
ATOM     87  O   UNL A   1      44.566  25.174  36.954  1.00  0.00    -0.237 OA
ATOM     88  O   UNL A   1      42.109  25.146  36.701  1.00  0.00    -0.237 OA
ATOM     89  O   UNL A   1      43.488  23.495  35.507  1.00  0.00    -0.744 OA
ENDBRANCH  85  86
ENDBRANCH  59  80
ENDBRANCH  33  34
ENDBRANCH  25  28
ENDBRANCH  23  24
ENDBRANCH  22  23
ENDBRANCH   1  22
TORSDOF 18
ENDMDL
MODEL 2
REMARK VINA RESULT:     -11.2      1.668      2.796
REMARK SMILES O=C(Cn1cc(-c2ccccc2CO)cn1)NCCCCNC(=O)c1ccc(-c2c3nc(c(-c4ccc(S(=O)(=O)[O-])cc4)c4ccc([nH]4)c(-c4ccc(S(=O)(=O)[O-])cc4)c4nc(c(-c5ccc(S(=O)(=O)[O-])cc5)c5ccc2[nH]5)C=C4)C=C3)cc1
REMARK SMILES IDX 19 1 18 2 17 3 1 4 2 5 3 7 4 8 5 9 16 10 6 11 15 12 7 13
REMARK SMILES IDX 8 14 12 15 9 16 11 17 10 18 13 19 14 20 20 22 21 23 22 24
REMARK SMILES IDX 23 25 24 27 25 28 26 29 84 30 27 31 83 32 28 33 29 34 30 35
REMARK SMILES IDX 77 36 31 37 82 38 76 39 78 40 32 41 81 42 75 43 74 44 33 46
REMARK SMILES IDX 63 47 44 48 62 49 45 50 48 51 61 52 79 53 46 54 47 55 60 57
REMARK SMILES IDX 80 58 49 59 34 60 35 61 43 62 36 63 42 64 37 65 38 66 39 67
REMARK SMILES IDX 40 68 41 69 64 70 65 71 73 72 66 73 72 74 67 75 68 76 69 77
REMARK SMILES IDX 70 78 71 79 50 80 51 81 59 82 52 83 58 84 53 85 54 86 55 87
REMARK SMILES IDX 56 88 57 89
REMARK H PARENT 17 6 14 21 22 26 78 45 48 56
REMARK Flexibility Score: inf
ROOT
ATOM      1  C   UNL A   1      40.107  21.544  26.908  1.00  0.00     0.023 C 
ENDROOT
BRANCH   1   2
ATOM      2  C   UNL A   1      39.206  22.316  25.934  1.00  0.00     0.116 C 
BRANCH   2   3
ATOM      3  N   UNL A   1      37.794  22.205  26.252  1.00  0.00    -0.354 N 
ATOM      4  O   UNL A   1      37.331  20.662  24.625  1.00  0.00    -0.273 OA
ATOM      5  C   UNL A   1      36.952  21.329  25.588  1.00  0.00     0.241 C 
ATOM      6  H   UNL A   1      37.422  22.773  26.964  1.00  0.00     0.163 HD
BRANCH   5   7
ATOM      7  C   UNL A   1      35.494  21.362  25.998  1.00  0.00     0.243 C 
BRANCH   7   8
ATOM      8  N   UNL A   1      34.774  22.527  25.520  1.00  0.00    -0.263 N 
ATOM      9  C   UNL A   1      34.137  23.464  26.288  1.00  0.00     0.118 A 
ATOM     10  N   UNL A   1      34.807  22.845  24.214  1.00  0.00    -0.180 NA
ATOM     11  C   UNL A   1      33.755  24.471  25.427  1.00  0.00     0.020 A 
ATOM     12  C   UNL A   1      34.174  24.022  24.155  1.00  0.00     0.143 A 
BRANCH  11  13
ATOM     13  C   UNL A   1      33.043  25.676  25.809  1.00  0.00    -0.010 A 
ATOM     14  C   UNL A   1      33.814  26.815  26.106  1.00  0.00     0.009 A 
ATOM     15  C   UNL A   1      31.639  25.742  25.934  1.00  0.00    -0.015 A 
ATOM     16  C   UNL A   1      33.212  28.001  26.522  1.00  0.00     0.001 A 
ATOM     17  C   UNL A   1      31.052  26.951  26.363  1.00  0.00     0.007 A 
ATOM     18  C   UNL A   1      31.831  28.070  26.656  1.00  0.00     0.000 A 
BRANCH  15  19
ATOM     19  C   UNL A   1      30.712  24.576  25.691  1.00  0.00     0.192 C 
BRANCH  19  20
ATOM     20  O   UNL A   1      29.678  24.517  26.667  1.00  0.00    -0.392 OA
ATOM     21  H   UNL A   1      30.071  24.406  27.547  1.00  0.00     0.211 HD
ENDBRANCH  19  20
ENDBRANCH  15  19
ENDBRANCH  11  13
ENDBRANCH   7   8
ENDBRANCH   5   7
ENDBRANCH   2   3
ENDBRANCH   1   2
BRANCH   1  22
ATOM     22  C   UNL A   1      40.652  20.193  26.418  1.00  0.00     0.023 C 
BRANCH  22  23
ATOM     23  C   UNL A   1      41.967  19.771  27.055  1.00  0.00     0.116 C 
BRANCH  23  24
ATOM     24  N   UNL A   1      43.063  19.581  26.099  1.00  0.00    -0.352 N 
ATOM     25  C   UNL A   1      43.714  20.547  25.335  1.00  0.00     0.251 C 
ATOM     26  H   UNL A   1      43.378  18.655  25.983  1.00  0.00     0.163 HD
ATOM     27  O   UNL A   1      44.341  20.245  24.337  1.00  0.00    -0.269 OA
BRANCH  25  28
ATOM     28  C   UNL A   1      43.636  21.954  25.785  1.00  0.00     0.039 A 
ATOM     29  C   UNL A   1      42.884  22.940  25.134  1.00  0.00     0.014 A 
ATOM     30  C   UNL A   1      44.342  22.260  26.937  1.00  0.00     0.014 A 
ATOM     31  C   UNL A   1      42.808  24.214  25.707  1.00  0.00     0.010 A 
ATOM     32  C   UNL A   1      44.050  23.396  27.625  1.00  0.00     0.010 A 
ATOM     33  C   UNL A   1      43.396  24.423  26.960  1.00  0.00    -0.014 A 
BRANCH  33  34
ATOM     34  C   UNL A   1      43.381  25.690  27.678  1.00  0.00     0.031 A 
ATOM     35  C   UNL A   1      44.465  26.631  27.306  1.00  0.00     0.074 A 
ATOM     36  C   UNL A   1      42.256  26.090  28.317  1.00  0.00     0.049 A 
ATOM     37  N   UNL A   1      45.458  27.020  28.031  1.00  0.00    -0.248 NA
ATOM     38  C   UNL A   1      44.540  27.082  25.905  1.00  0.00     0.031 C 
ATOM     39  C   UNL A   1      40.972  25.371  28.409  1.00  0.00     0.029 A 
ATOM     40  N   UNL A   1      41.960  27.287  28.886  1.00  0.00    -0.354 N 
ATOM     41  C   UNL A   1      46.152  27.946  27.256  1.00  0.00     0.074 A 
ATOM     42  C   UNL A   1      45.691  27.756  25.906  1.00  0.00     0.031 C 
ATOM     43  C   UNL A   1      39.993  26.226  28.779  1.00  0.00     0.029 A 
ATOM     44  C   UNL A   1      40.604  27.494  29.128  1.00  0.00     0.049 A 
ATOM     45  H   UNL A   1      42.648  27.956  29.109  1.00  0.00     0.167 HD
ATOM     46  C   UNL A   1      46.825  28.988  27.824  1.00  0.00     0.031 A 
ATOM     47  C   UNL A   1      40.018  28.630  29.579  1.00  0.00     0.031 A 
ATOM     48  C   UNL A   1      46.858  28.854  29.259  1.00  0.00     0.049 A 
ATOM     49  C   UNL A   1      41.085  29.435  30.218  1.00  0.00     0.074 A 
ATOM     50  C   UNL A   1      47.457  28.002  30.160  1.00  0.00     0.029 A 
ATOM     51  N   UNL A   1      45.830  29.486  29.921  1.00  0.00    -0.354 N 
ATOM     52  N   UNL A   1      41.745  29.034  31.269  1.00  0.00    -0.248 NA
ATOM     53  C   UNL A   1      41.726  30.494  29.456  1.00  0.00     0.031 C 
ATOM     54  C   UNL A   1      46.538  27.894  31.244  1.00  0.00     0.029 A 
ATOM     55  C   UNL A   1      45.445  28.726  30.994  1.00  0.00     0.049 A 
ATOM     56  H   UNL A   1      45.433  30.349  29.662  1.00  0.00     0.167 HD
ATOM     57  C   UNL A   1      43.048  29.453  31.052  1.00  0.00     0.074 A 
ATOM     58  C   UNL A   1      42.946  30.465  30.004  1.00  0.00     0.031 C 
ATOM     59  C   UNL A   1      44.100  28.733  31.539  1.00  0.00     0.031 A 
BRANCH  46  60
ATOM     60  C   UNL A   1      47.047  30.338  27.175  1.00  0.00    -0.014 A 
ATOM     61  C   UNL A   1      48.339  30.904  27.239  1.00  0.00     0.010 A 
ATOM     62  C   UNL A   1      46.005  31.187  26.753  1.00  0.00     0.010 A 
ATOM     63  C   UNL A   1      48.557  32.265  26.990  1.00  0.00     0.020 A 
ATOM     64  C   UNL A   1      46.218  32.537  26.460  1.00  0.00     0.020 A 
ATOM     65  C   UNL A   1      47.486  33.076  26.621  1.00  0.00     0.054 A 
BRANCH  65  66
ATOM     66  S   UNL A   1      47.742  34.858  26.441  1.00  0.00     0.124 S 
ATOM     67  O   UNL A   1      47.627  35.030  24.997  1.00  0.00    -0.237 OA
ATOM     68  O   UNL A   1      46.650  35.410  27.239  1.00  0.00    -0.237 OA
ATOM     69  O   UNL A   1      49.080  35.065  26.992  1.00  0.00    -0.744 OA
ENDBRANCH  65  66
ENDBRANCH  46  60
BRANCH  47  70
ATOM     70  C   UNL A   1      38.670  29.170  29.279  1.00  0.00    -0.014 A 
ATOM     71  C   UNL A   1      37.846  29.696  30.290  1.00  0.00     0.010 A 
ATOM     72  C   UNL A   1      38.308  29.424  27.939  1.00  0.00     0.010 A 
ATOM     73  C   UNL A   1      36.734  30.499  29.975  1.00  0.00     0.020 A 
ATOM     74  C   UNL A   1      37.205  30.225  27.617  1.00  0.00     0.020 A 
ATOM     75  C   UNL A   1      36.435  30.778  28.638  1.00  0.00     0.054 A 
BRANCH  75  76
ATOM     76  S   UNL A   1      35.108  31.960  28.245  1.00  0.00     0.124 S 
ATOM     77  O   UNL A   1      35.844  33.060  27.628  1.00  0.00    -0.237 OA
ATOM     78  O   UNL A   1      34.252  31.190  27.348  1.00  0.00    -0.237 OA
ATOM     79  O   UNL A   1      34.521  32.260  29.550  1.00  0.00    -0.744 OA
ENDBRANCH  75  76
ENDBRANCH  47  70
BRANCH  59  80
ATOM     80  C   UNL A   1      43.808  27.723  32.623  1.00  0.00    -0.014 A 
ATOM     81  C   UNL A   1      43.845  26.327  32.435  1.00  0.00     0.010 A 
ATOM     82  C   UNL A   1      43.600  28.221  33.919  1.00  0.00     0.010 A 
ATOM     83  C   UNL A   1      43.659  25.455  33.519  1.00  0.00     0.020 A 
ATOM     84  C   UNL A   1      43.433  27.360  35.003  1.00  0.00     0.020 A 
ATOM     85  C   UNL A   1      43.452  25.980  34.798  1.00  0.00     0.054 A 
BRANCH  85  86
ATOM     86  S   UNL A   1      43.250  24.855  36.208  1.00  0.00     0.124 S 
ATOM     87  O   UNL A   1      44.473  25.084  36.972  1.00  0.00    -0.237 OA
ATOM     88  O   UNL A   1      42.020  25.334  36.832  1.00  0.00    -0.237 OA
ATOM     89  O   UNL A   1      43.147  23.535  35.587  1.00  0.00    -0.744 OA
ENDBRANCH  85  86
ENDBRANCH  59  80
ENDBRANCH  33  34
ENDBRANCH  25  28
ENDBRANCH  23  24
ENDBRANCH  22  23
ENDBRANCH   1  22
TORSDOF 18
ENDMDL
MODEL 3
REMARK VINA RESULT:     -11.1      2.776      4.432
REMARK SMILES O=C(Cn1cc(-c2ccccc2CO)cn1)NCCCCNC(=O)c1ccc(-c2c3nc(c(-c4ccc(S(=O)(=O)[O-])cc4)c4ccc([nH]4)c(-c4ccc(S(=O)(=O)[O-])cc4)c4nc(c(-c5ccc(S(=O)(=O)[O-])cc5)c5ccc2[nH]5)C=C4)C=C3)cc1
REMARK SMILES IDX 19 1 18 2 17 3 1 4 2 5 3 7 4 8 5 9 16 10 6 11 15 12 7 13
REMARK SMILES IDX 8 14 12 15 9 16 11 17 10 18 13 19 14 20 20 22 21 23 22 24
REMARK SMILES IDX 23 25 24 27 25 28 26 29 84 30 27 31 83 32 28 33 29 34 30 35
REMARK SMILES IDX 77 36 31 37 82 38 76 39 78 40 32 41 81 42 75 43 74 44 33 46
REMARK SMILES IDX 63 47 44 48 62 49 45 50 48 51 61 52 79 53 46 54 47 55 60 57
REMARK SMILES IDX 80 58 49 59 34 60 35 61 43 62 36 63 42 64 37 65 38 66 39 67
REMARK SMILES IDX 40 68 41 69 64 70 65 71 73 72 66 73 72 74 67 75 68 76 69 77
REMARK SMILES IDX 70 78 71 79 50 80 51 81 59 82 52 83 58 84 53 85 54 86 55 87
REMARK SMILES IDX 56 88 57 89
REMARK H PARENT 17 6 14 21 22 26 78 45 48 56
REMARK Flexibility Score: inf
ROOT
ATOM      1  C   UNL A   1      36.127  20.491  24.979  1.00  0.00     0.023 C 
ENDROOT
BRANCH   1   2
ATOM      2  C   UNL A   1      34.691  19.949  24.990  1.00  0.00     0.116 C 
BRANCH   2   3
ATOM      3  N   UNL A   1      33.714  20.931  25.426  1.00  0.00    -0.354 N 
ATOM      4  O   UNL A   1      32.150  20.391  23.843  1.00  0.00    -0.273 OA
ATOM      5  C   UNL A   1      32.467  21.048  24.835  1.00  0.00     0.241 C 
ATOM      6  H   UNL A   1      33.947  21.535  26.167  1.00  0.00     0.163 HD
BRANCH   5   7
ATOM      7  C   UNL A   1      31.576  22.151  25.366  1.00  0.00     0.243 C 
BRANCH   7   8
ATOM      8  N   UNL A   1      31.956  23.480  24.924  1.00  0.00    -0.263 N 
ATOM      9  C   UNL A   1      31.394  24.663  25.320  1.00  0.00     0.118 A 
ATOM     10  N   UNL A   1      33.043  23.642  24.149  1.00  0.00    -0.180 NA
ATOM     11  C   UNL A   1      32.185  25.661  24.790  1.00  0.00     0.020 A 
ATOM     12  C   UNL A   1      33.175  24.970  24.055  1.00  0.00     0.143 A 
BRANCH  11  13
ATOM     13  C   UNL A   1      31.963  27.085  24.955  1.00  0.00    -0.010 A 
ATOM     14  C   UNL A   1      32.571  27.709  26.059  1.00  0.00     0.009 A 
ATOM     15  C   UNL A   1      31.144  27.848  24.095  1.00  0.00    -0.015 A 
ATOM     16  C   UNL A   1      32.374  29.066  26.316  1.00  0.00     0.001 A 
ATOM     17  C   UNL A   1      30.954  29.217  24.378  1.00  0.00     0.007 A 
ATOM     18  C   UNL A   1      31.562  29.820  25.478  1.00  0.00     0.000 A 
BRANCH  15  19
ATOM     19  C   UNL A   1      30.401  27.281  22.910  1.00  0.00     0.192 C 
BRANCH  19  20
ATOM     20  O   UNL A   1      31.092  27.529  21.692  1.00  0.00    -0.392 OA
ATOM     21  H   UNL A   1      31.731  28.247  21.823  1.00  0.00     0.211 HD
ENDBRANCH  19  20
ENDBRANCH  15  19
ENDBRANCH  11  13
ENDBRANCH   7   8
ENDBRANCH   5   7
ENDBRANCH   2   3
ENDBRANCH   1   2
BRANCH   1  22
ATOM     22  C   UNL A   1      36.295  21.992  24.700  1.00  0.00     0.023 C 
BRANCH  22  23
ATOM     23  C   UNL A   1      37.370  22.676  25.531  1.00  0.00     0.116 C 
BRANCH  23  24
ATOM     24  N   UNL A   1      38.377  21.761  26.078  1.00  0.00    -0.352 N 
ATOM     25  C   UNL A   1      39.643  22.072  26.571  1.00  0.00     0.251 C 
ATOM     26  H   UNL A   1      38.128  20.809  26.100  1.00  0.00     0.163 HD
ATOM     27  O   UNL A   1      40.512  21.224  26.659  1.00  0.00    -0.269 OA
BRANCH  25  28
ATOM     28  C   UNL A   1      39.896  23.464  27.002  1.00  0.00     0.039 A 
ATOM     29  C   UNL A   1      39.018  24.528  26.757  1.00  0.00     0.014 A 
ATOM     30  C   UNL A   1      41.067  23.673  27.711  1.00  0.00     0.014 A 
ATOM     31  C   UNL A   1      39.317  25.783  27.297  1.00  0.00     0.010 A 
ATOM     32  C   UNL A   1      41.214  24.804  28.452  1.00  0.00     0.010 A 
ATOM     33  C   UNL A   1      40.421  25.902  28.150  1.00  0.00    -0.014 A 
BRANCH  33  34
ATOM     34  C   UNL A   1      40.839  27.140  28.792  1.00  0.00     0.031 A 
ATOM     35  C   UNL A   1      42.020  27.795  28.178  1.00  0.00     0.074 A 
ATOM     36  C   UNL A   1      39.982  27.800  29.607  1.00  0.00     0.049 A 
ATOM     37  N   UNL A   1      43.196  27.940  28.687  1.00  0.00    -0.248 NA
ATOM     38  C   UNL A   1      41.927  28.206  26.767  1.00  0.00     0.031 C 
ATOM     39  C   UNL A   1      38.608  27.407  29.972  1.00  0.00     0.029 A 
ATOM     40  N   UNL A   1      40.086  29.036  30.159  1.00  0.00    -0.354 N 
ATOM     41  C   UNL A   1      43.924  28.671  27.750  1.00  0.00     0.074 A 
ATOM     42  C   UNL A   1      43.182  28.588  26.520  1.00  0.00     0.031 C 
ATOM     43  C   UNL A   1      37.944  28.472  30.472  1.00  0.00     0.029 A 
ATOM     44  C   UNL A   1      38.888  29.560  30.637  1.00  0.00     0.049 A 
ATOM     45  H   UNL A   1      40.941  29.524  30.217  1.00  0.00     0.167 HD
ATOM     46  C   UNL A   1      44.916  29.526  28.129  1.00  0.00     0.031 A 
ATOM     47  C   UNL A   1      38.679  30.806  31.130  1.00  0.00     0.031 A 
ATOM     48  C   UNL A   1      45.193  29.396  29.539  1.00  0.00     0.049 A 
ATOM     49  C   UNL A   1      40.007  31.338  31.518  1.00  0.00     0.074 A 
ATOM     50  C   UNL A   1      45.739  28.432  30.356  1.00  0.00     0.029 A 
ATOM     51  N   UNL A   1      44.486  30.258  30.346  1.00  0.00    -0.354 N 
ATOM     52  N   UNL A   1      40.744  30.798  32.448  1.00  0.00    -0.248 NA
ATOM     53  C   UNL A   1      40.717  32.210  30.598  1.00  0.00     0.031 C 
ATOM     54  C   UNL A   1      45.045  28.551  31.595  1.00  0.00     0.029 A 
ATOM     55  C   UNL A   1      44.148  29.618  31.509  1.00  0.00     0.049 A 
ATOM     56  H   UNL A   1      44.258  31.189  30.122  1.00  0.00     0.167 HD
ATOM     57  C   UNL A   1      42.042  30.894  31.972  1.00  0.00     0.074 A 
ATOM     58  C   UNL A   1      41.979  31.895  30.912  1.00  0.00     0.031 C 
ATOM     59  C   UNL A   1      42.972  29.947  32.292  1.00  0.00     0.031 A 
BRANCH  46  60
ATOM     60  C   UNL A   1      45.317  30.781  27.382  1.00  0.00    -0.014 A 
ATOM     61  C   UNL A   1      46.687  30.983  27.106  1.00  0.00     0.010 A 
ATOM     62  C   UNL A   1      44.463  31.883  27.184  1.00  0.00     0.010 A 
ATOM     63  C   UNL A   1      47.185  32.243  26.747  1.00  0.00     0.020 A 
ATOM     64  C   UNL A   1      44.942  33.134  26.784  1.00  0.00     0.020 A 
ATOM     65  C   UNL A   1      46.306  33.315  26.610  1.00  0.00     0.054 A 
BRANCH  65  66
ATOM     66  S   UNL A   1      46.965  34.969  26.288  1.00  0.00     0.124 S 
ATOM     67  O   UNL A   1      47.705  34.759  25.048  1.00  0.00    -0.237 OA
ATOM     68  O   UNL A   1      45.750  35.771  26.178  1.00  0.00    -0.237 OA
ATOM     69  O   UNL A   1      47.785  35.242  27.467  1.00  0.00    -0.744 OA
ENDBRANCH  65  66
ENDBRANCH  46  60
BRANCH  47  70
ATOM     70  C   UNL A   1      37.461  31.649  31.057  1.00  0.00    -0.014 A 
ATOM     71  C   UNL A   1      36.240  31.226  31.612  1.00  0.00     0.010 A 
ATOM     72  C   UNL A   1      37.578  33.004  30.682  1.00  0.00     0.010 A 
ATOM     73  C   UNL A   1      35.194  32.138  31.841  1.00  0.00     0.020 A 
ATOM     74  C   UNL A   1      36.543  33.919  30.910  1.00  0.00     0.020 A 
ATOM     75  C   UNL A   1      35.362  33.486  31.509  1.00  0.00     0.054 A 
BRANCH  75  76
ATOM     76  S   UNL A   1      34.077  34.689  31.973  1.00  0.00     0.124 S 
ATOM     77  O   UNL A   1      33.423  34.954  30.695  1.00  0.00    -0.237 OA
ATOM     78  O   UNL A   1      33.283  33.945  32.947  1.00  0.00    -0.237 OA
ATOM     79  O   UNL A   1      34.839  35.807  32.526  1.00  0.00    -0.744 OA
ENDBRANCH  75  76
ENDBRANCH  47  70
BRANCH  59  80
ATOM     80  C   UNL A   1      42.666  29.042  33.462  1.00  0.00    -0.014 A 
ATOM     81  C   UNL A   1      42.030  27.790  33.349  1.00  0.00     0.010 A 
ATOM     82  C   UNL A   1      43.158  29.435  34.718  1.00  0.00     0.010 A 
ATOM     83  C   UNL A   1      41.872  26.964  34.473  1.00  0.00     0.020 A 
ATOM     84  C   UNL A   1      43.021  28.612  35.834  1.00  0.00     0.020 A 
ATOM     85  C   UNL A   1      42.369  27.384  35.710  1.00  0.00     0.054 A 
BRANCH  85  86
ATOM     86  S   UNL A   1      42.203  26.301  37.158  1.00  0.00     0.124 S 
ATOM     87  O   UNL A   1      42.348  24.970  36.575  1.00  0.00    -0.237 OA
ATOM     88  O   UNL A   1      43.301  26.735  38.016  1.00  0.00    -0.237 OA
ATOM     89  O   UNL A   1      40.868  26.609  37.671  1.00  0.00    -0.744 OA
ENDBRANCH  85  86
ENDBRANCH  59  80
ENDBRANCH  33  34
ENDBRANCH  25  28
ENDBRANCH  23  24
ENDBRANCH  22  23
ENDBRANCH   1  22
TORSDOF 18
ENDMDL
