MODEL 1
REMARK VINA RESULT:     -12.0      0.000      0.000
REMARK SMILES O=C(NCCCCNC(=O)c1cc(-c2ccccc2)nc(Nc2nc3ccccc3s2)n1)c1ccc(-c2c3nc(c(-c4ccc(S(=O)(=O)[O-])cc4)c4ccc([nH]4)c(-c4ccc(S(=O)(=O)[O-])cc4)c4nc(c(-c5ccc(S(=O)(=O)[O-])cc5)c5ccc2[nH]5)C=C4)C=C3)cc1
REMARK SMILES IDX 5 1 4 2 3 3 1 4 2 5 33 7 34 8 92 9 35 10 91 11 36 12 37 13
REMARK SMILES IDX 38 14 85 15 39 16 90 17 84 18 86 19 40 20 89 21 83 22 82 23
REMARK SMILES IDX 41 25 71 26 52 27 70 28 53 29 56 30 69 31 87 32 54 33 55 34
REMARK SMILES IDX 68 36 88 37 57 38 42 39 43 40 51 41 44 42 50 43 45 44 46 45
REMARK SMILES IDX 47 46 48 47 49 48 72 49 73 50 81 51 74 52 80 53 75 54 76 55
REMARK SMILES IDX 77 56 78 57 79 58 58 59 59 60 67 61 60 62 66 63 61 64 62 65
REMARK SMILES IDX 63 66 64 67 65 68 6 69 7 70 8 71 9 72 10 74 11 75 12 76
REMARK SMILES IDX 32 77 13 78 21 79 20 80 14 81 15 82 19 83 16 84 18 85 17 86
REMARK SMILES IDX 22 87 23 89 24 90 31 91 25 92 30 93 26 94 29 95 27 96 28 97
REMARK H PARENT 3 6 86 24 56 35 8 73 22 88
REMARK Flexibility Score: inf
ROOT
ATOM      1  C   UNL A   1      32.962  27.514  26.675  1.00  0.00     0.023 C 
ENDROOT
BRANCH   1   2
ATOM      2  C   UNL A   1      34.137  28.478  26.604  1.00  0.00     0.116 C 
BRANCH   2   3
ATOM      3  N   UNL A   1      33.910  29.735  27.301  1.00  0.00    -0.352 N 
ATOM      4  O   UNL A   1      34.398  31.439  28.698  1.00  0.00    -0.269 OA
ATOM      5  C   UNL A   1      34.777  30.437  28.116  1.00  0.00     0.251 C 
ATOM      6  H   UNL A   1      33.021  30.137  27.177  1.00  0.00     0.163 HD
BRANCH   5   7
ATOM      7  C   UNL A   1      36.158  29.932  28.302  1.00  0.00     0.039 A 
ATOM      8  C   UNL A   1      36.548  29.372  29.519  1.00  0.00     0.014 A 
ATOM      9  C   UNL A   1      37.082  30.064  27.262  1.00  0.00     0.014 A 
ATOM     10  C   UNL A   1      37.890  29.105  29.752  1.00  0.00     0.010 A 
ATOM     11  C   UNL A   1      38.418  29.703  27.468  1.00  0.00     0.010 A 
ATOM     12  C   UNL A   1      38.842  29.257  28.728  1.00  0.00    -0.014 A 
BRANCH  12  13
ATOM     13  C   UNL A   1      40.252  28.881  29.009  1.00  0.00     0.031 A 
ATOM     14  C   UNL A   1      40.804  27.535  28.623  1.00  0.00     0.074 A 
ATOM     15  C   UNL A   1      41.062  29.813  29.551  1.00  0.00     0.049 A 
ATOM     16  N   UNL A   1      42.037  27.099  28.713  1.00  0.00    -0.248 NA
ATOM     17  C   UNL A   1      39.861  26.547  28.074  1.00  0.00     0.031 C 
ATOM     18  C   UNL A   1      40.634  31.148  29.986  1.00  0.00     0.029 A 
ATOM     19  N   UNL A   1      42.411  29.805  29.788  1.00  0.00    -0.354 N 
ATOM     20  C   UNL A   1      42.018  25.790  28.247  1.00  0.00     0.074 A 
ATOM     21  C   UNL A   1      40.645  25.491  27.897  1.00  0.00     0.031 C 
ATOM     22  C   UNL A   1      41.709  31.851  30.367  1.00  0.00     0.029 A 
ATOM     23  C   UNL A   1      42.890  31.003  30.262  1.00  0.00     0.049 A 
ATOM     24  H   UNL A   1      42.982  29.017  29.636  1.00  0.00     0.167 HD
ATOM     25  C   UNL A   1      43.050  24.920  28.118  1.00  0.00     0.031 A 
ATOM     26  C   UNL A   1      44.140  31.384  30.582  1.00  0.00     0.031 A 
ATOM     27  C   UNL A   1      44.415  25.222  28.466  1.00  0.00     0.049 A 
ATOM     28  C   UNL A   1      45.264  30.406  30.412  1.00  0.00     0.074 A 
ATOM     29  C   UNL A   1      45.530  24.407  28.372  1.00  0.00     0.029 A 
ATOM     30  N   UNL A   1      44.855  26.438  28.970  1.00  0.00    -0.354 N 
ATOM     31  N   UNL A   1      45.221  29.175  29.963  1.00  0.00    -0.248 NA
ATOM     32  C   UNL A   1      46.604  30.870  30.791  1.00  0.00     0.031 C 
ATOM     33  C   UNL A   1      46.637  25.117  28.849  1.00  0.00     0.029 A 
ATOM     34  C   UNL A   1      46.221  26.390  29.199  1.00  0.00     0.049 A 
ATOM     35  H   UNL A   1      44.281  27.219  29.139  1.00  0.00     0.167 HD
ATOM     36  C   UNL A   1      46.528  28.712  30.013  1.00  0.00     0.074 A 
ATOM     37  C   UNL A   1      47.343  29.809  30.497  1.00  0.00     0.031 C 
ATOM     38  C   UNL A   1      47.011  27.484  29.701  1.00  0.00     0.031 A 
BRANCH  25  39
ATOM     39  C   UNL A   1      42.745  23.544  27.586  1.00  0.00    -0.014 A 
ATOM     40  C   UNL A   1      42.981  23.219  26.239  1.00  0.00     0.010 A 
ATOM     41  C   UNL A   1      42.282  22.542  28.460  1.00  0.00     0.010 A 
ATOM     42  C   UNL A   1      42.738  21.925  25.768  1.00  0.00     0.020 A 
ATOM     43  C   UNL A   1      42.056  21.241  27.998  1.00  0.00     0.020 A 
ATOM     44  C   UNL A   1      42.274  20.945  26.651  1.00  0.00     0.054 A 
BRANCH  44  45
ATOM     45  S   UNL A   1      42.003  19.263  26.023  1.00  0.00     0.124 S 
ATOM     46  O   UNL A   1      42.849  19.248  24.832  1.00  0.00    -0.237 OA
ATOM     47  O   UNL A   1      42.461  18.428  27.130  1.00  0.00    -0.237 OA
ATOM     48  O   UNL A   1      40.566  19.216  25.765  1.00  0.00    -0.744 OA
ENDBRANCH  44  45
ENDBRANCH  25  39
BRANCH  26  49
ATOM     49  C   UNL A   1      44.379  32.752  31.112  1.00  0.00    -0.014 A 
ATOM     50  C   UNL A   1      44.222  33.033  32.480  1.00  0.00     0.010 A 
ATOM     51  C   UNL A   1      44.795  33.777  30.243  1.00  0.00     0.010 A 
ATOM     52  C   UNL A   1      44.464  34.322  32.966  1.00  0.00     0.020 A 
ATOM     53  C   UNL A   1      45.067  35.056  30.730  1.00  0.00     0.020 A 
ATOM     54  C   UNL A   1      44.886  35.324  32.087  1.00  0.00     0.054 A 
BRANCH  54  55
ATOM     55  S   UNL A   1      45.255  36.976  32.740  1.00  0.00     0.124 S 
ATOM     56  O   UNL A   1      46.024  36.661  33.939  1.00  0.00    -0.237 OA
ATOM     57  O   UNL A   1      46.005  37.593  31.649  1.00  0.00    -0.237 OA
ATOM     58  O   UNL A   1      43.931  37.551  32.975  1.00  0.00    -0.744 OA
ENDBRANCH  54  55
ENDBRANCH  26  49
BRANCH  38  59
ATOM     59  C   UNL A   1      48.488  27.275  29.881  1.00  0.00    -0.014 A 
ATOM     60  C   UNL A   1      49.006  26.818  31.107  1.00  0.00     0.010 A 
ATOM     61  C   UNL A   1      49.367  27.540  28.816  1.00  0.00     0.010 A 
ATOM     62  C   UNL A   1      50.384  26.675  31.280  1.00  0.00     0.020 A 
ATOM     63  C   UNL A   1      50.745  27.376  28.980  1.00  0.00     0.020 A 
ATOM     64  C   UNL A   1      51.246  26.965  30.218  1.00  0.00     0.054 A 
BRANCH  64  65
ATOM     65  S   UNL A   1      53.032  26.771  30.462  1.00  0.00     0.124 S 
ATOM     66  O   UNL A   1      53.094  25.593  31.322  1.00  0.00    -0.237 OA
ATOM     67  O   UNL A   1      53.528  26.583  29.100  1.00  0.00    -0.237 OA
ATOM     68  O   UNL A   1      53.431  28.027  31.094  1.00  0.00    -0.744 OA
ENDBRANCH  64  65
ENDBRANCH  38  59
ENDBRANCH  12  13
ENDBRANCH   5   7
ENDBRANCH   2   3
ENDBRANCH   1   2
BRANCH   1  69
ATOM     69  C   UNL A   1      31.769  27.859  25.789  1.00  0.00     0.023 C 
BRANCH  69  70
ATOM     70  C   UNL A   1      31.409  26.813  24.741  1.00  0.00     0.116 C 
BRANCH  70  71
ATOM     71  N   UNL A   1      32.170  26.941  23.508  1.00  0.00    -0.351 N 
ATOM     72  C   UNL A   1      33.120  26.091  22.987  1.00  0.00     0.270 C 
ATOM     73  H   UNL A   1      31.981  27.745  22.973  1.00  0.00     0.163 HD
ATOM     74  O   UNL A   1      33.661  26.341  21.914  1.00  0.00    -0.268 OA
BRANCH  72  75
ATOM     75  C   UNL A   1      33.458  24.856  23.728  1.00  0.00     0.134 A 
ATOM     76  C   UNL A   1      34.701  24.710  24.277  1.00  0.00     0.063 A 
ATOM     77  N   UNL A   1      32.525  23.898  23.719  1.00  0.00    -0.207 NA
ATOM     78  C   UNL A   1      34.979  23.449  24.749  1.00  0.00     0.077 A 
ATOM     79  C   UNL A   1      32.840  22.719  24.254  1.00  0.00     0.230 A 
ATOM     80  N   UNL A   1      34.057  22.452  24.761  1.00  0.00    -0.213 NA
BRANCH  78  81
ATOM     81  C   UNL A   1      36.356  23.102  25.127  1.00  0.00     0.000 A 
ATOM     82  C   UNL A   1      37.140  24.002  25.866  1.00  0.00     0.010 A 
ATOM     83  C   UNL A   1      36.881  21.821  24.875  1.00  0.00     0.010 A 
ATOM     84  C   UNL A   1      38.389  23.626  26.368  1.00  0.00     0.001 A 
ATOM     85  C   UNL A   1      38.132  21.445  25.372  1.00  0.00     0.001 A 
ATOM     86  C   UNL A   1      38.879  22.344  26.127  1.00  0.00     0.000 A 
ENDBRANCH  78  81
BRANCH  79  87
ATOM     87  N   UNL A   1      31.865  21.731  24.364  1.00  0.00    -0.300 N 
ATOM     88  H   UNL A   1      30.930  22.007  24.500  1.00  0.00     0.172 HD
BRANCH  87  89
ATOM     89  C   UNL A   1      32.142  20.412  24.291  1.00  0.00     0.190 A 
ATOM     90  N   UNL A   1      32.157  19.585  25.312  1.00  0.00    -0.220 NA
ATOM     91  S   UNL A   1      32.530  19.669  22.782  1.00  0.00    -0.097 S 
ATOM     92  C   UNL A   1      32.717  18.377  24.962  1.00  0.00     0.084 A 
ATOM     93  C   UNL A   1      33.016  18.234  23.608  1.00  0.00     0.056 A 
ATOM     94  C   UNL A   1      33.017  17.324  25.848  1.00  0.00     0.030 A 
ATOM     95  C   UNL A   1      33.623  17.069  23.109  1.00  0.00     0.021 A 
ATOM     96  C   UNL A   1      33.636  16.169  25.367  1.00  0.00     0.002 A 
ATOM     97  C   UNL A   1      33.937  16.047  24.013  1.00  0.00     0.002 A 
ENDBRANCH  87  89
ENDBRANCH  79  87
ENDBRANCH  72  75
ENDBRANCH  70  71
ENDBRANCH  69  70
ENDBRANCH   1  69
TORSDOF 17
ENDMDL
MODEL 2
REMARK VINA RESULT:     -11.8      1.048      8.025
REMARK SMILES O=C(NCCCCNC(=O)c1cc(-c2ccccc2)nc(Nc2nc3ccccc3s2)n1)c1ccc(-c2c3nc(c(-c4ccc(S(=O)(=O)[O-])cc4)c4ccc([nH]4)c(-c4ccc(S(=O)(=O)[O-])cc4)c4nc(c(-c5ccc(S(=O)(=O)[O-])cc5)c5ccc2[nH]5)C=C4)C=C3)cc1
REMARK SMILES IDX 5 1 4 2 3 3 1 4 2 5 33 7 34 8 92 9 35 10 91 11 36 12 37 13
REMARK SMILES IDX 38 14 85 15 39 16 90 17 84 18 86 19 40 20 89 21 83 22 82 23
REMARK SMILES IDX 41 25 71 26 52 27 70 28 53 29 56 30 69 31 87 32 54 33 55 34
REMARK SMILES IDX 68 36 88 37 57 38 42 39 43 40 51 41 44 42 50 43 45 44 46 45
REMARK SMILES IDX 47 46 48 47 49 48 72 49 73 50 81 51 74 52 80 53 75 54 76 55
REMARK SMILES IDX 77 56 78 57 79 58 58 59 59 60 67 61 60 62 66 63 61 64 62 65
REMARK SMILES IDX 63 66 64 67 65 68 6 69 7 70 8 71 9 72 10 74 11 75 12 76
REMARK SMILES IDX 32 77 13 78 21 79 20 80 14 81 15 82 19 83 16 84 18 85 17 86
REMARK SMILES IDX 22 87 23 89 24 90 31 91 25 92 30 93 26 94 29 95 27 96 28 97
REMARK H PARENT 3 6 86 24 56 35 8 73 22 88
REMARK Flexibility Score: inf
ROOT
ATOM      1  C   UNL A   1      32.746  28.008  26.011  1.00  0.00     0.023 C 
ENDROOT
BRANCH   1   2
ATOM      2  C   UNL A   1      33.905  28.483  26.876  1.00  0.00     0.116 C 
BRANCH   2   3
ATOM      3  N   UNL A   1      33.711  29.809  27.442  1.00  0.00    -0.352 N 
ATOM      4  O   UNL A   1      34.254  31.644  28.640  1.00  0.00    -0.269 OA
ATOM      5  C   UNL A   1      34.605  30.581  28.158  1.00  0.00     0.251 C 
ATOM      6  H   UNL A   1      32.824  30.210  27.295  1.00  0.00     0.163 HD
BRANCH   5   7
ATOM      7  C   UNL A   1      35.984  30.076  28.366  1.00  0.00     0.039 A 
ATOM      8  C   UNL A   1      36.376  29.579  29.609  1.00  0.00     0.014 A 
ATOM      9  C   UNL A   1      36.905  30.147  27.316  1.00  0.00     0.014 A 
ATOM     10  C   UNL A   1      37.717  29.316  29.851  1.00  0.00     0.010 A 
ATOM     11  C   UNL A   1      38.239  29.787  27.536  1.00  0.00     0.010 A 
ATOM     12  C   UNL A   1      38.665  29.407  28.816  1.00  0.00    -0.014 A 
BRANCH  12  13
ATOM     13  C   UNL A   1      40.075  29.037  29.111  1.00  0.00     0.031 A 
ATOM     14  C   UNL A   1      40.986  29.948  29.888  1.00  0.00     0.074 A 
ATOM     15  C   UNL A   1      40.502  27.816  28.734  1.00  0.00     0.049 A 
ATOM     16  N   UNL A   1      42.206  29.722  30.308  1.00  0.00    -0.248 NA
ATOM     17  C   UNL A   1      40.474  31.284  30.235  1.00  0.00     0.031 C 
ATOM     18  C   UNL A   1      39.714  26.852  27.957  1.00  0.00     0.029 A 
ATOM     19  N   UNL A   1      41.676  27.156  28.985  1.00  0.00    -0.354 N 
ATOM     20  C   UNL A   1      42.614  30.883  30.954  1.00  0.00     0.074 A 
ATOM     21  C   UNL A   1      41.519  31.825  30.851  1.00  0.00     0.031 C 
ATOM     22  C   UNL A   1      40.397  25.703  27.859  1.00  0.00     0.029 A 
ATOM     23  C   UNL A   1      41.691  25.866  28.511  1.00  0.00     0.049 A 
ATOM     24  H   UNL A   1      42.437  27.566  29.459  1.00  0.00     0.167 HD
ATOM     25  C   UNL A   1      43.789  31.139  31.579  1.00  0.00     0.031 A 
ATOM     26  C   UNL A   1      42.638  24.913  28.586  1.00  0.00     0.031 A 
ATOM     27  C   UNL A   1      44.876  30.198  31.681  1.00  0.00     0.049 A 
ATOM     28  C   UNL A   1      43.921  25.219  29.299  1.00  0.00     0.074 A 
ATOM     29  C   UNL A   1      46.106  30.365  32.295  1.00  0.00     0.029 A 
ATOM     30  N   UNL A   1      44.863  28.911  31.163  1.00  0.00    -0.354 N 
ATOM     31  N   UNL A   1      44.280  26.324  29.908  1.00  0.00    -0.248 NA
ATOM     32  C   UNL A   1      44.926  24.149  29.337  1.00  0.00     0.031 C 
ATOM     33  C   UNL A   1      46.849  29.192  32.119  1.00  0.00     0.029 A 
ATOM     34  C   UNL A   1      46.065  28.278  31.434  1.00  0.00     0.049 A 
ATOM     35  H   UNL A   1      44.110  28.508  30.675  1.00  0.00     0.167 HD
ATOM     36  C   UNL A   1      45.558  26.085  30.395  1.00  0.00     0.074 A 
ATOM     37  C   UNL A   1      45.891  24.718  30.045  1.00  0.00     0.031 C 
ATOM     38  C   UNL A   1      46.388  26.926  31.059  1.00  0.00     0.031 A 
BRANCH  25  39
ATOM     39  C   UNL A   1      43.973  32.500  32.198  1.00  0.00    -0.014 A 
ATOM     40  C   UNL A   1      43.636  32.736  33.543  1.00  0.00     0.010 A 
ATOM     41  C   UNL A   1      44.555  33.538  31.447  1.00  0.00     0.010 A 
ATOM     42  C   UNL A   1      43.854  33.991  34.119  1.00  0.00     0.020 A 
ATOM     43  C   UNL A   1      44.795  34.790  32.025  1.00  0.00     0.020 A 
ATOM     44  C   UNL A   1      44.430  35.011  33.355  1.00  0.00     0.054 A 
BRANCH  44  45
ATOM     45  S   UNL A   1      44.740  36.619  34.138  1.00  0.00     0.124 S 
ATOM     46  O   UNL A   1      46.059  36.960  33.613  1.00  0.00    -0.237 OA
ATOM     47  O   UNL A   1      43.635  37.437  33.642  1.00  0.00    -0.237 OA
ATOM     48  O   UNL A   1      44.697  36.323  35.568  1.00  0.00    -0.744 OA
ENDBRANCH  44  45
ENDBRANCH  25  39
BRANCH  26  49
ATOM     49  C   UNL A   1      42.405  23.592  27.946  1.00  0.00    -0.014 A 
ATOM     50  C   UNL A   1      42.829  23.342  26.630  1.00  0.00     0.010 A 
ATOM     51  C   UNL A   1      41.777  22.564  28.673  1.00  0.00     0.010 A 
ATOM     52  C   UNL A   1      42.615  22.089  26.048  1.00  0.00     0.020 A 
ATOM     53  C   UNL A   1      41.588  21.304  28.105  1.00  0.00     0.020 A 
ATOM     54  C   UNL A   1      41.997  21.078  26.790  1.00  0.00     0.054 A 
BRANCH  54  55
ATOM     55  S   UNL A   1      41.779  19.439  26.043  1.00  0.00     0.124 S 
ATOM     56  O   UNL A   1      42.622  19.534  24.857  1.00  0.00    -0.237 OA
ATOM     57  O   UNL A   1      42.258  18.542  27.093  1.00  0.00    -0.237 OA
ATOM     58  O   UNL A   1      40.341  19.371  25.789  1.00  0.00    -0.744 OA
ENDBRANCH  54  55
ENDBRANCH  26  49
BRANCH  38  59
ATOM     59  C   UNL A   1      47.735  26.380  31.442  1.00  0.00    -0.014 A 
ATOM     60  C   UNL A   1      48.820  26.453  30.551  1.00  0.00     0.010 A 
ATOM     61  C   UNL A   1      47.916  25.787  32.704  1.00  0.00     0.010 A 
ATOM     62  C   UNL A   1      50.054  25.898  30.897  1.00  0.00     0.020 A 
ATOM     63  C   UNL A   1      49.156  25.251  33.061  1.00  0.00     0.020 A 
ATOM     64  C   UNL A   1      50.211  25.291  32.146  1.00  0.00     0.054 A 
BRANCH  64  65
ATOM     65  S   UNL A   1      51.822  24.578  32.577  1.00  0.00     0.124 S 
ATOM     66  O   UNL A   1      51.924  24.898  33.998  1.00  0.00    -0.237 OA
ATOM     67  O   UNL A   1      51.645  23.162  32.263  1.00  0.00    -0.237 OA
ATOM     68  O   UNL A   1      52.756  25.289  31.708  1.00  0.00    -0.744 OA
ENDBRANCH  64  65
ENDBRANCH  38  59
ENDBRANCH  12  13
ENDBRANCH   5   7
ENDBRANCH   2   3
ENDBRANCH   1   2
BRANCH   1  69
ATOM     69  C   UNL A   1      33.060  27.818  24.531  1.00  0.00     0.023 C 
BRANCH  69  70
ATOM     70  C   UNL A   1      31.990  27.093  23.723  1.00  0.00     0.116 C 
BRANCH  70  71
ATOM     71  N   UNL A   1      32.424  26.727  22.384  1.00  0.00    -0.351 N 
ATOM     72  C   UNL A   1      33.065  25.581  21.966  1.00  0.00     0.270 C 
ATOM     73  H   UNL A   1      32.235  27.388  21.679  1.00  0.00     0.163 HD
ATOM     74  O   UNL A   1      33.348  25.420  20.783  1.00  0.00    -0.268 OA
BRANCH  72  75
ATOM     75  C   UNL A   1      33.381  24.535  22.963  1.00  0.00     0.134 A 
ATOM     76  C   UNL A   1      34.590  24.546  23.600  1.00  0.00     0.063 A 
ATOM     77  N   UNL A   1      32.471  23.565  23.098  1.00  0.00    -0.207 NA
ATOM     78  C   UNL A   1      34.864  23.417  24.336  1.00  0.00     0.077 A 
ATOM     79  C   UNL A   1      32.776  22.531  23.881  1.00  0.00     0.230 A 
ATOM     80  N   UNL A   1      33.965  22.414  24.500  1.00  0.00    -0.213 NA
BRANCH  78  81
ATOM     81  C   UNL A   1      36.222  23.200  24.855  1.00  0.00     0.000 A 
ATOM     82  C   UNL A   1      36.806  24.128  25.733  1.00  0.00     0.010 A 
ATOM     83  C   UNL A   1      36.921  22.007  24.595  1.00  0.00     0.010 A 
ATOM     84  C   UNL A   1      38.026  23.859  26.358  1.00  0.00     0.001 A 
ATOM     85  C   UNL A   1      38.144  21.739  25.215  1.00  0.00     0.001 A 
ATOM     86  C   UNL A   1      38.690  22.661  26.104  1.00  0.00     0.000 A 
ENDBRANCH  78  81
BRANCH  79  87
ATOM     87  N   UNL A   1      31.817  21.554  24.135  1.00  0.00    -0.300 N 
ATOM     88  H   UNL A   1      30.893  21.840  24.315  1.00  0.00     0.172 HD
BRANCH  87  89
ATOM     89  C   UNL A   1      32.097  20.234  24.148  1.00  0.00     0.190 A 
ATOM     90  N   UNL A   1      32.057  19.462  25.211  1.00  0.00    -0.220 NA
ATOM     91  S   UNL A   1      32.563  19.412  22.704  1.00  0.00    -0.097 S 
ATOM     92  C   UNL A   1      32.633  18.238  24.956  1.00  0.00     0.084 A 
ATOM     93  C   UNL A   1      33.004  18.024  23.630  1.00  0.00     0.056 A 
ATOM     94  C   UNL A   1      32.885  17.235  25.912  1.00  0.00     0.030 A 
ATOM     95  C   UNL A   1      33.635  16.836  23.226  1.00  0.00     0.021 A 
ATOM     96  C   UNL A   1      33.528  16.057  25.526  1.00  0.00     0.002 A 
ATOM     97  C   UNL A   1      33.900  15.864  24.199  1.00  0.00     0.002 A 
ENDBRANCH  87  89
ENDBRANCH  79  87
ENDBRANCH  72  75
ENDBRANCH  70  71
ENDBRANCH  69  70
ENDBRANCH   1  69
TORSDOF 17
ENDMDL
MODEL 3
REMARK VINA RESULT:     -11.4      2.976      8.283
REMARK SMILES O=C(NCCCCNC(=O)c1cc(-c2ccccc2)nc(Nc2nc3ccccc3s2)n1)c1ccc(-c2c3nc(c(-c4ccc(S(=O)(=O)[O-])cc4)c4ccc([nH]4)c(-c4ccc(S(=O)(=O)[O-])cc4)c4nc(c(-c5ccc(S(=O)(=O)[O-])cc5)c5ccc2[nH]5)C=C4)C=C3)cc1
REMARK SMILES IDX 5 1 4 2 3 3 1 4 2 5 33 7 34 8 92 9 35 10 91 11 36 12 37 13
REMARK SMILES IDX 38 14 85 15 39 16 90 17 84 18 86 19 40 20 89 21 83 22 82 23
REMARK SMILES IDX 41 25 71 26 52 27 70 28 53 29 56 30 69 31 87 32 54 33 55 34
REMARK SMILES IDX 68 36 88 37 57 38 42 39 43 40 51 41 44 42 50 43 45 44 46 45
REMARK SMILES IDX 47 46 48 47 49 48 72 49 73 50 81 51 74 52 80 53 75 54 76 55
REMARK SMILES IDX 77 56 78 57 79 58 58 59 59 60 67 61 60 62 66 63 61 64 62 65
REMARK SMILES IDX 63 66 64 67 65 68 6 69 7 70 8 71 9 72 10 74 11 75 12 76
REMARK SMILES IDX 32 77 13 78 21 79 20 80 14 81 15 82 19 83 16 84 18 85 17 86
REMARK SMILES IDX 22 87 23 89 24 90 31 91 25 92 30 93 26 94 29 95 27 96 28 97
REMARK H PARENT 3 6 86 24 56 35 8 73 22 88
REMARK Flexibility Score: inf
ROOT
ATOM      1  C   UNL A   1      39.116  21.273  25.776  1.00  0.00     0.023 C 
ENDROOT
BRANCH   1   2
ATOM      2  C   UNL A   1      39.763  20.240  26.687  1.00  0.00     0.116 C 
BRANCH   2   3
ATOM      3  N   UNL A   1      40.852  19.506  26.061  1.00  0.00    -0.352 N 
ATOM      4  O   UNL A   1      42.904  19.222  25.164  1.00  0.00    -0.269 OA
ATOM      5  C   UNL A   1      42.132  19.940  25.775  1.00  0.00     0.251 C 
ATOM      6  H   UNL A   1      40.651  18.577  25.806  1.00  0.00     0.163 HD
BRANCH   5   7
ATOM      7  C   UNL A   1      42.536  21.307  26.184  1.00  0.00     0.039 A 
ATOM      8  C   UNL A   1      42.639  22.328  25.239  1.00  0.00     0.014 A 
ATOM      9  C   UNL A   1      42.859  21.554  27.522  1.00  0.00     0.014 A 
ATOM     10  C   UNL A   1      43.224  23.536  25.595  1.00  0.00     0.010 A 
ATOM     11  C   UNL A   1      43.357  22.806  27.898  1.00  0.00     0.010 A 
ATOM     12  C   UNL A   1      43.581  23.795  26.930  1.00  0.00    -0.014 A 
BRANCH  12  13
ATOM     13  C   UNL A   1      44.130  25.134  27.270  1.00  0.00     0.031 A 
ATOM     14  C   UNL A   1      45.540  25.525  26.916  1.00  0.00     0.074 A 
ATOM     15  C   UNL A   1      43.301  26.034  27.836  1.00  0.00     0.049 A 
ATOM     16  N   UNL A   1      46.127  26.688  27.059  1.00  0.00    -0.248 NA
ATOM     17  C   UNL A   1      46.407  24.486  26.339  1.00  0.00     0.031 C 
ATOM     18  C   UNL A   1      41.917  25.764  28.243  1.00  0.00     0.029 A 
ATOM     19  N   UNL A   1      43.477  27.362  28.127  1.00  0.00    -0.354 N 
ATOM     20  C   UNL A   1      47.429  26.520  26.603  1.00  0.00     0.074 A 
ATOM     21  C   UNL A   1      47.556  25.135  26.201  1.00  0.00     0.031 C 
ATOM     22  C   UNL A   1      41.352  26.904  28.661  1.00  0.00     0.029 A 
ATOM     23  C   UNL A   1      42.344  27.971  28.610  1.00  0.00     0.049 A 
ATOM     24  H   UNL A   1      44.333  27.833  28.003  1.00  0.00     0.167 HD
ATOM     25  C   UNL A   1      48.425  27.437  26.522  1.00  0.00     0.031 A 
ATOM     26  C   UNL A   1      42.120  29.246  28.975  1.00  0.00     0.031 A 
ATOM     27  C   UNL A   1      48.294  28.815  26.921  1.00  0.00     0.049 A 
ATOM     28  C   UNL A   1      43.234  30.242  28.858  1.00  0.00     0.074 A 
ATOM     29  C   UNL A   1      49.245  29.820  26.877  1.00  0.00     0.029 A 
ATOM     30  N   UNL A   1      47.137  29.387  27.432  1.00  0.00    -0.354 N 
ATOM     31  N   UNL A   1      44.456  30.060  28.417  1.00  0.00    -0.248 NA
ATOM     32  C   UNL A   1      42.940  31.615  29.286  1.00  0.00     0.031 C 
ATOM     33  C   UNL A   1      48.675  30.990  27.392  1.00  0.00     0.029 A 
ATOM     34  C   UNL A   1      47.355  30.726  27.716  1.00  0.00     0.049 A 
ATOM     35  H   UNL A   1      46.287  28.911  27.572  1.00  0.00     0.167 HD
ATOM     36  C   UNL A   1      45.080  31.295  28.523  1.00  0.00     0.074 A 
ATOM     37  C   UNL A   1      44.089  32.224  29.030  1.00  0.00     0.031 C 
ATOM     38  C   UNL A   1      46.364  31.629  28.240  1.00  0.00     0.031 A 
BRANCH  25  39
ATOM     39  C   UNL A   1      49.758  26.980  25.989  1.00  0.00    -0.014 A 
ATOM     40  C   UNL A   1      50.109  27.185  24.643  1.00  0.00     0.010 A 
ATOM     41  C   UNL A   1      50.699  26.402  26.861  1.00  0.00     0.010 A 
ATOM     42  C   UNL A   1      51.367  26.798  24.172  1.00  0.00     0.020 A 
ATOM     43  C   UNL A   1      51.967  26.032  26.398  1.00  0.00     0.020 A 
ATOM     44  C   UNL A   1      52.287  26.222  25.052  1.00  0.00     0.054 A 
BRANCH  44  45
ATOM     45  S   UNL A   1      53.928  25.764  24.424  1.00  0.00     0.124 S 
ATOM     46  O   UNL A   1      53.761  25.952  22.985  1.00  0.00    -0.237 OA
ATOM     47  O   UNL A   1      54.806  26.725  25.086  1.00  0.00    -0.237 OA
ATOM     48  O   UNL A   1      54.090  24.378  24.855  1.00  0.00    -0.744 OA
ENDBRANCH  44  45
ENDBRANCH  25  39
BRANCH  26  49
ATOM     49  C   UNL A   1      40.787  29.636  29.505  1.00  0.00    -0.014 A 
ATOM     50  C   UNL A   1      40.528  29.632  30.885  1.00  0.00     0.010 A 
ATOM     51  C   UNL A   1      39.774  30.043  28.617  1.00  0.00     0.010 A 
ATOM     52  C   UNL A   1      39.274  30.016  31.368  1.00  0.00     0.020 A 
ATOM     53  C   UNL A   1      38.530  30.455  29.097  1.00  0.00     0.020 A 
ATOM     54  C   UNL A   1      38.283  30.425  30.471  1.00  0.00     0.054 A 
BRANCH  54  55
ATOM     55  S   UNL A   1      36.679  30.978  31.114  1.00  0.00     0.124 S 
ATOM     56  O   UNL A   1      35.905  31.146  29.888  1.00  0.00    -0.237 OA
ATOM     57  O   UNL A   1      36.276  29.866  31.972  1.00  0.00    -0.237 OA
ATOM     58  O   UNL A   1      37.007  32.213  31.824  1.00  0.00    -0.744 OA
ENDBRANCH  54  55
ENDBRANCH  26  49
BRANCH  38  59
ATOM     59  C   UNL A   1      46.756  33.060  28.480  1.00  0.00    -0.014 A 
ATOM     60  C   UNL A   1      47.269  33.465  29.726  1.00  0.00     0.010 A 
ATOM     61  C   UNL A   1      46.608  34.007  27.452  1.00  0.00     0.010 A 
ATOM     62  C   UNL A   1      47.584  34.806  29.954  1.00  0.00     0.020 A 
ATOM     63  C   UNL A   1      46.944  35.346  27.672  1.00  0.00     0.020 A 
ATOM     64  C   UNL A   1      47.409  35.741  28.929  1.00  0.00     0.054 A 
BRANCH  64  65
ATOM     65  S   UNL A   1      47.825  37.477  29.245  1.00  0.00     0.124 S 
ATOM     66  O   UNL A   1      48.952  37.355  30.164  1.00  0.00    -0.237 OA
ATOM     67  O   UNL A   1      48.150  37.981  27.914  1.00  0.00    -0.237 OA
ATOM     68  O   UNL A   1      46.601  38.023  29.829  1.00  0.00    -0.744 OA
ENDBRANCH  64  65
ENDBRANCH  38  59
ENDBRANCH  12  13
ENDBRANCH   5   7
ENDBRANCH   2   3
ENDBRANCH   1   2
BRANCH   1  69
ATOM     69  C   UNL A   1      39.016  22.685  26.345  1.00  0.00     0.023 C 
BRANCH  69  70
ATOM     70  C   UNL A   1      37.705  23.411  26.069  1.00  0.00     0.116 C 
BRANCH  70  71
ATOM     71  N   UNL A   1      37.404  23.547  24.653  1.00  0.00    -0.351 N 
ATOM     72  C   UNL A   1      36.309  23.089  23.954  1.00  0.00     0.270 C 
ATOM     73  H   UNL A   1      38.075  24.031  24.120  1.00  0.00     0.163 HD
ATOM     74  O   UNL A   1      36.199  23.306  22.751  1.00  0.00    -0.268 OA
BRANCH  72  75
ATOM     75  C   UNL A   1      35.252  22.355  24.684  1.00  0.00     0.134 A 
ATOM     76  C   UNL A   1      35.203  20.991  24.621  1.00  0.00     0.063 A 
ATOM     77  N   UNL A   1      34.329  23.111  25.289  1.00  0.00    -0.207 NA
ATOM     78  C   UNL A   1      34.065  20.429  25.148  1.00  0.00     0.077 A 
ATOM     79  C   UNL A   1      33.283  22.494  25.838  1.00  0.00     0.230 A 
ATOM     80  N   UNL A   1      33.109  21.162  25.774  1.00  0.00    -0.213 NA
BRANCH  78  81
ATOM     81  C   UNL A   1      33.781  19.005  24.915  1.00  0.00     0.000 A 
ATOM     82  C   UNL A   1      34.741  18.178  24.309  1.00  0.00     0.010 A 
ATOM     83  C   UNL A   1      32.605  18.406  25.402  1.00  0.00     0.010 A 
ATOM     84  C   UNL A   1      34.551  16.796  24.226  1.00  0.00     0.001 A 
ATOM     85  C   UNL A   1      32.411  17.025  25.314  1.00  0.00     0.001 A 
ATOM     86  C   UNL A   1      33.389  16.221  24.736  1.00  0.00     0.000 A 
ENDBRANCH  78  81
BRANCH  79  87
ATOM     87  N   UNL A   1      32.357  23.232  26.571  1.00  0.00    -0.300 N 
ATOM     88  H   UNL A   1      32.098  22.906  27.463  1.00  0.00     0.172 HD
BRANCH  87  89
ATOM     89  C   UNL A   1      31.799  24.372  26.115  1.00  0.00     0.190 A 
ATOM     90  N   UNL A   1      30.659  24.450  25.465  1.00  0.00    -0.220 NA
ATOM     91  S   UNL A   1      32.576  25.896  26.348  1.00  0.00    -0.097 S 
ATOM     92  C   UNL A   1      30.486  25.701  24.917  1.00  0.00     0.084 A 
ATOM     93  C   UNL A   1      31.455  26.640  25.268  1.00  0.00     0.056 A 
ATOM     94  C   UNL A   1      29.449  26.077  24.042  1.00  0.00     0.030 A 
ATOM     95  C   UNL A   1      31.429  27.949  24.757  1.00  0.00     0.021 A 
ATOM     96  C   UNL A   1      29.422  27.370  23.515  1.00  0.00     0.002 A 
ATOM     97  C   UNL A   1      30.404  28.291  23.867  1.00  0.00     0.002 A 
ENDBRANCH  87  89
ENDBRANCH  79  87
ENDBRANCH  72  75
ENDBRANCH  70  71
ENDBRANCH  69  70
ENDBRANCH   1  69
TORSDOF 17
ENDMDL
