MODEL 1
REMARK VINA RESULT:     -10.9      0.000      0.000
REMARK SMILES O=C(NCCCCNC(=O)[C@H](Cc1ccc(O)cc1)NC(=O)c1ccc(Cl)s1)c1ccc(-c2c3nc(c(-c4ccc(S(=O)(=O)[O-])cc4)c4ccc([nH]4)c(-c4ccc(S(=O)(=O)[O-])cc4)c4nc(c(-c5ccc(S(=O)(=O)[O-])cc5)c5ccc2[nH]5)C=C4)C=C3)cc1
REMARK SMILES IDX 5 1 4 2 3 3 1 4 2 5 29 7 30 8 88 9 31 10 87 11 32 12 33 13
REMARK SMILES IDX 34 14 81 15 35 16 86 17 80 18 82 19 36 20 85 21 79 22 78 23
REMARK SMILES IDX 37 25 67 26 48 27 66 28 49 29 52 30 65 31 83 32 50 33 51 34
REMARK SMILES IDX 64 36 84 37 53 38 38 39 39 40 47 41 40 42 46 43 41 44 42 45
REMARK SMILES IDX 43 46 44 47 45 48 68 49 69 50 77 51 70 52 76 53 71 54 72 55
REMARK SMILES IDX 73 56 74 57 75 58 54 59 55 60 63 61 56 62 62 63 57 64 58 65
REMARK SMILES IDX 59 66 60 67 61 68 6 69 7 70 8 71 9 72 10 74 11 75 20 76
REMARK SMILES IDX 21 77 22 79 23 80 24 81 28 82 25 83 26 84 27 85 12 86 13 87
REMARK SMILES IDX 14 88 19 89 15 90 18 91 16 92 17 93
REMARK H PARENT 3 6 82 24 52 35 8 73 20 78 17 94
REMARK Flexibility Score: inf
ROOT
ATOM      1  C   UNL A   1      32.759  27.836  25.927  1.00  0.00     0.023 C 
ENDROOT
BRANCH   1   2
ATOM      2  C   UNL A   1      33.765  28.325  26.958  1.00  0.00     0.116 C 
BRANCH   2   3
ATOM      3  N   UNL A   1      33.522  29.681  27.434  1.00  0.00    -0.352 N 
ATOM      4  O   UNL A   1      34.074  31.608  28.491  1.00  0.00    -0.269 OA
ATOM      5  C   UNL A   1      34.417  30.511  28.076  1.00  0.00     0.251 C 
ATOM      6  H   UNL A   1      32.621  30.044  27.280  1.00  0.00     0.163 HD
BRANCH   5   7
ATOM      7  C   UNL A   1      35.791  30.011  28.283  1.00  0.00     0.039 A 
ATOM      8  C   UNL A   1      36.164  29.527  29.538  1.00  0.00     0.014 A 
ATOM      9  C   UNL A   1      36.728  30.136  27.257  1.00  0.00     0.014 A 
ATOM     10  C   UNL A   1      37.505  29.320  29.816  1.00  0.00     0.010 A 
ATOM     11  C   UNL A   1      38.067  29.827  27.511  1.00  0.00     0.010 A 
ATOM     12  C   UNL A   1      38.468  29.445  28.800  1.00  0.00    -0.014 A 
BRANCH  12  13
ATOM     13  C   UNL A   1      39.869  29.062  29.101  1.00  0.00     0.031 A 
ATOM     14  C   UNL A   1      40.433  27.733  28.686  1.00  0.00     0.074 A 
ATOM     15  C   UNL A   1      40.638  29.969  29.734  1.00  0.00     0.049 A 
ATOM     16  N   UNL A   1      41.642  27.268  28.869  1.00  0.00    -0.248 NA
ATOM     17  C   UNL A   1      39.535  26.801  27.984  1.00  0.00     0.031 C 
ATOM     18  C   UNL A   1      40.182  31.288  30.190  1.00  0.00     0.029 A 
ATOM     19  N   UNL A   1      41.962  29.941  30.082  1.00  0.00    -0.354 N 
ATOM     20  C   UNL A   1      41.646  25.984  28.338  1.00  0.00     0.074 A 
ATOM     21  C   UNL A   1      40.315  25.739  27.824  1.00  0.00     0.031 C 
ATOM     22  C   UNL A   1      41.220  31.961  30.704  1.00  0.00     0.029 A 
ATOM     23  C   UNL A   1      42.392  31.097  30.688  1.00  0.00     0.049 A 
ATOM     24  H   UNL A   1      42.548  29.168  29.915  1.00  0.00     0.167 HD
ATOM     25  C   UNL A   1      42.668  25.095  28.292  1.00  0.00     0.031 A 
ATOM     26  C   UNL A   1      43.589  31.421  31.206  1.00  0.00     0.031 A 
ATOM     27  C   UNL A   1      43.991  25.362  28.795  1.00  0.00     0.049 A 
ATOM     28  C   UNL A   1      44.694  30.411  31.148  1.00  0.00     0.074 A 
ATOM     29  C   UNL A   1      45.107  24.543  28.753  1.00  0.00     0.029 A 
ATOM     30  N   UNL A   1      44.379  26.531  29.433  1.00  0.00    -0.354 N 
ATOM     31  N   UNL A   1      44.682  29.215  30.613  1.00  0.00    -0.248 NA
ATOM     32  C   UNL A   1      45.967  30.789  31.772  1.00  0.00     0.031 C 
ATOM     33  C   UNL A   1      46.154  25.197  29.410  1.00  0.00     0.029 A 
ATOM     34  C   UNL A   1      45.706  26.443  29.817  1.00  0.00     0.049 A 
ATOM     35  H   UNL A   1      43.795  27.308  29.590  1.00  0.00     0.167 HD
ATOM     36  C   UNL A   1      45.948  28.692  30.837  1.00  0.00     0.074 A 
ATOM     37  C   UNL A   1      46.709  29.716  31.526  1.00  0.00     0.031 C 
ATOM     38  C   UNL A   1      46.436  27.470  30.514  1.00  0.00     0.031 A 
BRANCH  25  39
ATOM     39  C   UNL A   1      42.404  23.734  27.704  1.00  0.00    -0.014 A 
ATOM     40  C   UNL A   1      42.720  23.443  26.366  1.00  0.00     0.010 A 
ATOM     41  C   UNL A   1      41.931  22.701  28.536  1.00  0.00     0.010 A 
ATOM     42  C   UNL A   1      42.558  22.146  25.867  1.00  0.00     0.020 A 
ATOM     43  C   UNL A   1      41.784  21.400  28.046  1.00  0.00     0.020 A 
ATOM     44  C   UNL A   1      42.093  21.132  26.711  1.00  0.00     0.054 A 
BRANCH  44  45
ATOM     45  S   UNL A   1      41.949  19.446  26.055  1.00  0.00     0.124 S 
ATOM     46  O   UNL A   1      42.847  19.494  24.903  1.00  0.00    -0.237 OA
ATOM     47  O   UNL A   1      42.409  18.627  27.173  1.00  0.00    -0.237 OA
ATOM     48  O   UNL A   1      40.530  19.316  25.734  1.00  0.00    -0.744 OA
ENDBRANCH  44  45
ENDBRANCH  25  39
BRANCH  26  49
ATOM     49  C   UNL A   1      43.775  32.738  31.868  1.00  0.00    -0.014 A 
ATOM     50  C   UNL A   1      43.542  32.891  33.245  1.00  0.00     0.010 A 
ATOM     51  C   UNL A   1      44.214  33.845  31.118  1.00  0.00     0.010 A 
ATOM     52  C   UNL A   1      43.727  34.135  33.856  1.00  0.00     0.020 A 
ATOM     53  C   UNL A   1      44.429  35.080  31.730  1.00  0.00     0.020 A 
ATOM     54  C   UNL A   1      44.168  35.221  33.094  1.00  0.00     0.054 A 
BRANCH  54  55
ATOM     55  S   UNL A   1      44.445  36.818  33.909  1.00  0.00     0.124 S 
ATOM     56  O   UNL A   1      43.907  36.572  35.243  1.00  0.00    -0.237 OA
ATOM     57  O   UNL A   1      45.896  36.969  33.829  1.00  0.00    -0.237 OA
ATOM     58  O   UNL A   1      43.684  37.755  33.086  1.00  0.00    -0.744 OA
ENDBRANCH  54  55
ENDBRANCH  26  49
BRANCH  38  59
ATOM     59  C   UNL A   1      47.859  27.187  30.900  1.00  0.00    -0.014 A 
ATOM     60  C   UNL A   1      48.925  27.646  30.104  1.00  0.00     0.010 A 
ATOM     61  C   UNL A   1      48.134  26.475  32.080  1.00  0.00     0.010 A 
ATOM     62  C   UNL A   1      50.243  27.366  30.464  1.00  0.00     0.020 A 
ATOM     63  C   UNL A   1      49.454  26.213  32.456  1.00  0.00     0.020 A 
ATOM     64  C   UNL A   1      50.499  26.646  31.637  1.00  0.00     0.054 A 
BRANCH  64  65
ATOM     65  S   UNL A   1      52.220  26.316  32.101  1.00  0.00     0.124 S 
ATOM     66  O   UNL A   1      52.647  27.614  32.618  1.00  0.00    -0.237 OA
ATOM     67  O   UNL A   1      52.089  25.254  33.095  1.00  0.00    -0.237 OA
ATOM     68  O   UNL A   1      52.844  25.910  30.844  1.00  0.00    -0.744 OA
ENDBRANCH  64  65
ENDBRANCH  38  59
ENDBRANCH  12  13
ENDBRANCH   5   7
ENDBRANCH   2   3
ENDBRANCH   1   2
BRANCH   1  69
ATOM     69  C   UNL A   1      31.800  26.771  26.443  1.00  0.00     0.023 C 
BRANCH  69  70
ATOM     70  C   UNL A   1      32.446  25.414  26.720  1.00  0.00     0.116 C 
BRANCH  70  71
ATOM     71  N   UNL A   1      31.450  24.385  26.955  1.00  0.00    -0.354 N 
ATOM     72  C   UNL A   1      31.057  23.348  26.157  1.00  0.00     0.242 C 
ATOM     73  H   UNL A   1      30.986  24.443  27.822  1.00  0.00     0.163 HD
ATOM     74  O   UNL A   1      30.175  22.591  26.572  1.00  0.00    -0.273 OA
BRANCH  72  75
ATOM     75  C   UNL A   1      31.727  23.108  24.792  1.00  0.00     0.176 C 
BRANCH  75  76
ATOM     76  N   UNL A   1      32.032  21.671  24.743  1.00  0.00    -0.339 N 
ATOM     77  C   UNL A   1      33.253  21.058  24.600  1.00  0.00     0.262 C 
ATOM     78  H   UNL A   1      31.259  21.068  24.823  1.00  0.00     0.164 HD
ATOM     79  O   UNL A   1      33.295  19.833  24.508  1.00  0.00    -0.268 OA
BRANCH  77  80
ATOM     80  C   UNL A   1      34.426  21.903  24.570  1.00  0.00     0.093 A 
ATOM     81  C   UNL A   1      34.980  22.583  23.500  1.00  0.00     0.027 A 
ATOM     82  S   UNL A   1      35.320  22.146  26.009  1.00  0.00    -0.118 S 
ATOM     83  C   UNL A   1      36.197  23.238  23.853  1.00  0.00     0.033 A 
ATOM     84  C   UNL A   1      36.475  23.070  25.186  1.00  0.00     0.094 A 
ATOM     85  Cl  UNL A   1      37.831  23.691  26.034  1.00  0.00    -0.072 Cl
ENDBRANCH  77  80
ENDBRANCH  75  76
BRANCH  75  86
ATOM     86  C   UNL A   1      30.781  23.527  23.644  1.00  0.00     0.070 C 
BRANCH  86  87
ATOM     87  C   UNL A   1      30.748  25.003  23.273  1.00  0.00    -0.045 A 
ATOM     88  C   UNL A   1      31.732  25.514  22.412  1.00  0.00     0.007 A 
ATOM     89  C   UNL A   1      29.723  25.871  23.669  1.00  0.00     0.007 A 
ATOM     90  C   UNL A   1      31.689  26.844  21.971  1.00  0.00     0.046 A 
ATOM     91  C   UNL A   1      29.661  27.189  23.218  1.00  0.00     0.046 A 
ATOM     92  C   UNL A   1      30.644  27.668  22.372  1.00  0.00     0.115 A 
BRANCH  92  93
ATOM     93  O   UNL A   1      30.542  28.960  21.956  1.00  0.00    -0.508 OA
ATOM     94  H   UNL A   1      30.359  29.149  21.057  1.00  0.00     0.293 HD
ENDBRANCH  92  93
ENDBRANCH  86  87
ENDBRANCH  75  86
ENDBRANCH  72  75
ENDBRANCH  70  71
ENDBRANCH  69  70
ENDBRANCH   1  69
TORSDOF 19
ENDMDL
MODEL 2
REMARK VINA RESULT:     -10.7      0.802      8.185
REMARK SMILES O=C(NCCCCNC(=O)[C@H](Cc1ccc(O)cc1)NC(=O)c1ccc(Cl)s1)c1ccc(-c2c3nc(c(-c4ccc(S(=O)(=O)[O-])cc4)c4ccc([nH]4)c(-c4ccc(S(=O)(=O)[O-])cc4)c4nc(c(-c5ccc(S(=O)(=O)[O-])cc5)c5ccc2[nH]5)C=C4)C=C3)cc1
REMARK SMILES IDX 5 1 4 2 3 3 1 4 2 5 29 7 30 8 88 9 31 10 87 11 32 12 33 13
REMARK SMILES IDX 34 14 81 15 35 16 86 17 80 18 82 19 36 20 85 21 79 22 78 23
REMARK SMILES IDX 37 25 67 26 48 27 66 28 49 29 52 30 65 31 83 32 50 33 51 34
REMARK SMILES IDX 64 36 84 37 53 38 38 39 39 40 47 41 40 42 46 43 41 44 42 45
REMARK SMILES IDX 43 46 44 47 45 48 68 49 69 50 77 51 70 52 76 53 71 54 72 55
REMARK SMILES IDX 73 56 74 57 75 58 54 59 55 60 63 61 56 62 62 63 57 64 58 65
REMARK SMILES IDX 59 66 60 67 61 68 6 69 7 70 8 71 9 72 10 74 11 75 20 76
REMARK SMILES IDX 21 77 22 79 23 80 24 81 28 82 25 83 26 84 27 85 12 86 13 87
REMARK SMILES IDX 14 88 19 89 15 90 18 91 16 92 17 93
REMARK H PARENT 3 6 82 24 52 35 8 73 20 78 17 94
REMARK Flexibility Score: inf
ROOT
ATOM      1  C   UNL A   1      33.332  27.087  25.947  1.00  0.00     0.023 C 
ENDROOT
BRANCH   1   2
ATOM      2  C   UNL A   1      34.317  28.071  26.561  1.00  0.00     0.116 C 
BRANCH   2   3
ATOM      3  N   UNL A   1      33.727  29.348  26.943  1.00  0.00    -0.352 N 
ATOM      4  O   UNL A   1      33.695  31.353  28.000  1.00  0.00    -0.269 OA
ATOM      5  C   UNL A   1      34.318  30.350  27.684  1.00  0.00     0.251 C 
ATOM      6  H   UNL A   1      32.807  29.515  26.637  1.00  0.00     0.163 HD
BRANCH   5   7
ATOM      7  C   UNL A   1      35.715  30.150  28.120  1.00  0.00     0.039 A 
ATOM      8  C   UNL A   1      36.755  30.370  27.216  1.00  0.00     0.014 A 
ATOM      9  C   UNL A   1      35.969  29.633  29.391  1.00  0.00     0.014 A 
ATOM     10  C   UNL A   1      38.029  29.922  27.523  1.00  0.00     0.010 A 
ATOM     11  C   UNL A   1      37.276  29.278  29.737  1.00  0.00     0.010 A 
ATOM     12  C   UNL A   1      38.309  29.394  28.795  1.00  0.00    -0.014 A 
BRANCH  12  13
ATOM     13  C   UNL A   1      39.716  29.075  29.136  1.00  0.00     0.031 A 
ATOM     14  C   UNL A   1      40.600  30.056  29.852  1.00  0.00     0.074 A 
ATOM     15  C   UNL A   1      40.171  27.849  28.810  1.00  0.00     0.049 A 
ATOM     16  N   UNL A   1      41.845  29.910  30.225  1.00  0.00    -0.248 NA
ATOM     17  C   UNL A   1      40.026  31.370  30.188  1.00  0.00     0.031 C 
ATOM     18  C   UNL A   1      39.394  26.824  28.103  1.00  0.00     0.029 A 
ATOM     19  N   UNL A   1      41.375  27.243  29.048  1.00  0.00    -0.354 N 
ATOM     20  C   UNL A   1      42.216  31.114  30.811  1.00  0.00     0.074 A 
ATOM     21  C   UNL A   1      41.063  31.987  30.742  1.00  0.00     0.031 C 
ATOM     22  C   UNL A   1      40.121  25.701  28.015  1.00  0.00     0.029 A 
ATOM     23  C   UNL A   1      41.437  25.950  28.586  1.00  0.00     0.049 A 
ATOM     24  H   UNL A   1      42.124  27.690  29.505  1.00  0.00     0.167 HD
ATOM     25  C   UNL A   1      43.412  31.455  31.349  1.00  0.00     0.031 A 
ATOM     26  C   UNL A   1      42.450  25.066  28.589  1.00  0.00     0.031 A 
ATOM     27  C   UNL A   1      44.545  30.568  31.422  1.00  0.00     0.049 A 
ATOM     28  C   UNL A   1      43.762  25.480  29.182  1.00  0.00     0.074 A 
ATOM     29  C   UNL A   1      45.786  30.806  31.989  1.00  0.00     0.029 A 
ATOM     30  N   UNL A   1      44.580  29.279  30.912  1.00  0.00    -0.354 N 
ATOM     31  N   UNL A   1      44.079  26.615  29.757  1.00  0.00    -0.248 NA
ATOM     32  C   UNL A   1      44.854  24.501  29.116  1.00  0.00     0.031 C 
ATOM     33  C   UNL A   1      46.586  29.678  31.778  1.00  0.00     0.029 A 
ATOM     34  C   UNL A   1      45.829  28.720  31.124  1.00  0.00     0.049 A 
ATOM     35  H   UNL A   1      43.827  28.829  30.465  1.00  0.00     0.167 HD
ATOM     36  C   UNL A   1      45.413  26.488  30.122  1.00  0.00     0.074 A 
ATOM     37  C   UNL A   1      45.830  25.155  29.733  1.00  0.00     0.031 C 
ATOM     38  C   UNL A   1      46.224  27.397  30.715  1.00  0.00     0.031 A 
BRANCH  25  39
ATOM     39  C   UNL A   1      43.583  32.854  31.880  1.00  0.00    -0.014 A 
ATOM     40  C   UNL A   1      43.974  33.911  31.040  1.00  0.00     0.010 A 
ATOM     41  C   UNL A   1      43.244  33.133  33.218  1.00  0.00     0.010 A 
ATOM     42  C   UNL A   1      44.033  35.219  31.532  1.00  0.00     0.020 A 
ATOM     43  C   UNL A   1      43.285  34.441  33.708  1.00  0.00     0.020 A 
ATOM     44  C   UNL A   1      43.686  35.477  32.862  1.00  0.00     0.054 A 
BRANCH  44  45
ATOM     45  S   UNL A   1      43.712  37.191  33.457  1.00  0.00     0.124 S 
ATOM     46  O   UNL A   1      42.471  37.262  34.224  1.00  0.00    -0.237 OA
ATOM     47  O   UNL A   1      44.940  37.238  34.246  1.00  0.00    -0.237 OA
ATOM     48  O   UNL A   1      43.732  37.985  32.230  1.00  0.00    -0.744 OA
ENDBRANCH  44  45
ENDBRANCH  25  39
BRANCH  26  49
ATOM     49  C   UNL A   1      42.267  23.732  27.962  1.00  0.00    -0.014 A 
ATOM     50  C   UNL A   1      42.674  23.497  26.638  1.00  0.00     0.010 A 
ATOM     51  C   UNL A   1      41.703  22.678  28.706  1.00  0.00     0.010 A 
ATOM     52  C   UNL A   1      42.501  22.234  26.063  1.00  0.00     0.020 A 
ATOM     53  C   UNL A   1      41.558  21.409  28.145  1.00  0.00     0.020 A 
ATOM     54  C   UNL A   1      41.943  21.199  26.819  1.00  0.00     0.054 A 
BRANCH  54  55
ATOM     55  S   UNL A   1      41.766  19.555  26.074  1.00  0.00     0.124 S 
ATOM     56  O   UNL A   1      42.648  19.654  24.916  1.00  0.00    -0.237 OA
ATOM     57  O   UNL A   1      42.221  18.670  27.143  1.00  0.00    -0.237 OA
ATOM     58  O   UNL A   1      40.338  19.472  25.773  1.00  0.00    -0.744 OA
ENDBRANCH  54  55
ENDBRANCH  26  49
BRANCH  38  59
ATOM     59  C   UNL A   1      47.639  26.968  30.979  1.00  0.00    -0.014 A 
ATOM     60  C   UNL A   1      47.977  26.308  32.174  1.00  0.00     0.010 A 
ATOM     61  C   UNL A   1      48.633  27.209  30.016  1.00  0.00     0.010 A 
ATOM     62  C   UNL A   1      49.298  25.926  32.417  1.00  0.00     0.020 A 
ATOM     63  C   UNL A   1      49.951  26.807  30.245  1.00  0.00     0.020 A 
ATOM     64  C   UNL A   1      50.277  26.183  31.452  1.00  0.00     0.054 A 
BRANCH  64  65
ATOM     65  S   UNL A   1      51.981  25.654  31.775  1.00  0.00     0.124 S 
ATOM     66  O   UNL A   1      52.645  25.988  30.517  1.00  0.00    -0.237 OA
ATOM     67  O   UNL A   1      52.361  26.473  32.924  1.00  0.00    -0.237 OA
ATOM     68  O   UNL A   1      51.851  24.226  32.052  1.00  0.00    -0.744 OA
ENDBRANCH  64  65
ENDBRANCH  38  59
ENDBRANCH  12  13
ENDBRANCH   5   7
ENDBRANCH   2   3
ENDBRANCH   1   2
BRANCH   1  69
ATOM     69  C   UNL A   1      32.086  26.843  26.787  1.00  0.00     0.023 C 
BRANCH  69  70
ATOM     70  C   UNL A   1      30.923  26.202  26.029  1.00  0.00     0.116 C 
BRANCH  70  71
ATOM     71  N   UNL A   1      30.381  25.062  26.744  1.00  0.00    -0.354 N 
ATOM     72  C   UNL A   1      30.611  23.727  26.569  1.00  0.00     0.242 C 
ATOM     73  H   UNL A   1      29.749  25.285  27.466  1.00  0.00     0.163 HD
ATOM     74  O   UNL A   1      30.025  22.929  27.305  1.00  0.00    -0.273 OA
BRANCH  72  75
ATOM     75  C   UNL A   1      31.611  23.235  25.506  1.00  0.00     0.176 C 
BRANCH  75  76
ATOM     76  N   UNL A   1      31.786  21.798  25.756  1.00  0.00    -0.339 N 
ATOM     77  C   UNL A   1      32.935  21.048  25.681  1.00  0.00     0.262 C 
ATOM     78  H   UNL A   1      30.973  21.306  26.013  1.00  0.00     0.164 HD
ATOM     79  O   UNL A   1      32.864  19.834  25.859  1.00  0.00    -0.268 OA
BRANCH  77  80
ATOM     80  C   UNL A   1      34.170  21.744  25.399  1.00  0.00     0.093 A 
ATOM     81  C   UNL A   1      34.867  21.827  24.205  1.00  0.00     0.027 A 
ATOM     82  S   UNL A   1      34.955  22.602  26.654  1.00  0.00    -0.118 S 
ATOM     83  C   UNL A   1      36.097  22.534  24.352  1.00  0.00     0.033 A 
ATOM     84  C   UNL A   1      36.246  22.998  25.634  1.00  0.00     0.094 A 
ATOM     85  Cl  UNL A   1      37.571  23.901  26.247  1.00  0.00    -0.072 Cl
ENDBRANCH  77  80
ENDBRANCH  75  76
BRANCH  75  86
ATOM     86  C   UNL A   1      31.064  23.500  24.085  1.00  0.00     0.070 C 
BRANCH  86  87
ATOM     87  C   UNL A   1      31.797  24.531  23.238  1.00  0.00    -0.045 A 
ATOM     88  C   UNL A   1      31.054  25.490  22.531  1.00  0.00     0.007 A 
ATOM     89  C   UNL A   1      33.193  24.639  23.199  1.00  0.00     0.007 A 
ATOM     90  C   UNL A   1      31.688  26.513  21.813  1.00  0.00     0.046 A 
ATOM     91  C   UNL A   1      33.831  25.667  22.505  1.00  0.00     0.046 A 
ATOM     92  C   UNL A   1      33.075  26.597  21.816  1.00  0.00     0.115 A 
BRANCH  92  93
ATOM     93  O   UNL A   1      33.741  27.582  21.154  1.00  0.00    -0.508 OA
ATOM     94  H   UNL A   1      33.527  27.775  20.262  1.00  0.00     0.293 HD
ENDBRANCH  92  93
ENDBRANCH  86  87
ENDBRANCH  75  86
ENDBRANCH  72  75
ENDBRANCH  70  71
ENDBRANCH  69  70
ENDBRANCH   1  69
TORSDOF 19
ENDMDL
MODEL 3
REMARK VINA RESULT:     -10.6      1.427      2.956
REMARK SMILES O=C(NCCCCNC(=O)[C@H](Cc1ccc(O)cc1)NC(=O)c1ccc(Cl)s1)c1ccc(-c2c3nc(c(-c4ccc(S(=O)(=O)[O-])cc4)c4ccc([nH]4)c(-c4ccc(S(=O)(=O)[O-])cc4)c4nc(c(-c5ccc(S(=O)(=O)[O-])cc5)c5ccc2[nH]5)C=C4)C=C3)cc1
REMARK SMILES IDX 5 1 4 2 3 3 1 4 2 5 29 7 30 8 88 9 31 10 87 11 32 12 33 13
REMARK SMILES IDX 34 14 81 15 35 16 86 17 80 18 82 19 36 20 85 21 79 22 78 23
REMARK SMILES IDX 37 25 67 26 48 27 66 28 49 29 52 30 65 31 83 32 50 33 51 34
REMARK SMILES IDX 64 36 84 37 53 38 38 39 39 40 47 41 40 42 46 43 41 44 42 45
REMARK SMILES IDX 43 46 44 47 45 48 68 49 69 50 77 51 70 52 76 53 71 54 72 55
REMARK SMILES IDX 73 56 74 57 75 58 54 59 55 60 63 61 56 62 62 63 57 64 58 65
REMARK SMILES IDX 59 66 60 67 61 68 6 69 7 70 8 71 9 72 10 74 11 75 20 76
REMARK SMILES IDX 21 77 22 79 23 80 24 81 28 82 25 83 26 84 27 85 12 86 13 87
REMARK SMILES IDX 14 88 19 89 15 90 18 91 16 92 17 93
REMARK H PARENT 3 6 82 24 52 35 8 73 20 78 17 94
REMARK Flexibility Score: inf
ROOT
ATOM      1  C   UNL A   1      34.007  27.947  25.804  1.00  0.00     0.023 C 
ENDROOT
BRANCH   1   2
ATOM      2  C   UNL A   1      33.678  28.208  27.266  1.00  0.00     0.116 C 
BRANCH   2   3
ATOM      3  N   UNL A   1      33.472  29.614  27.591  1.00  0.00    -0.352 N 
ATOM      4  O   UNL A   1      34.097  31.645  28.379  1.00  0.00    -0.269 OA
ATOM      5  C   UNL A   1      34.408  30.502  28.078  1.00  0.00     0.251 C 
ATOM      6  H   UNL A   1      32.566  29.969  27.445  1.00  0.00     0.163 HD
BRANCH   5   7
ATOM      7  C   UNL A   1      35.788  30.012  28.265  1.00  0.00     0.039 A 
ATOM      8  C   UNL A   1      36.157  29.447  29.487  1.00  0.00     0.014 A 
ATOM      9  C   UNL A   1      36.734  30.226  27.261  1.00  0.00     0.014 A 
ATOM     10  C   UNL A   1      37.499  29.244  29.765  1.00  0.00     0.010 A 
ATOM     11  C   UNL A   1      38.075  29.922  27.508  1.00  0.00     0.010 A 
ATOM     12  C   UNL A   1      38.470  29.456  28.771  1.00  0.00    -0.014 A 
BRANCH  12  13
ATOM     13  C   UNL A   1      39.873  29.077  29.061  1.00  0.00     0.031 A 
ATOM     14  C   UNL A   1      40.434  27.743  28.653  1.00  0.00     0.074 A 
ATOM     15  C   UNL A   1      40.649  29.990  29.677  1.00  0.00     0.049 A 
ATOM     16  N   UNL A   1      41.644  27.281  28.828  1.00  0.00    -0.248 NA
ATOM     17  C   UNL A   1      39.528  26.805  27.970  1.00  0.00     0.031 C 
ATOM     18  C   UNL A   1      40.198  31.313  30.124  1.00  0.00     0.029 A 
ATOM     19  N   UNL A   1      41.977  29.966  30.010  1.00  0.00    -0.354 N 
ATOM     20  C   UNL A   1      41.643  25.991  28.309  1.00  0.00     0.074 A 
ATOM     21  C   UNL A   1      40.307  25.741  27.811  1.00  0.00     0.031 C 
ATOM     22  C   UNL A   1      41.241  31.991  30.621  1.00  0.00     0.029 A 
ATOM     23  C   UNL A   1      42.413  31.127  30.601  1.00  0.00     0.049 A 
ATOM     24  H   UNL A   1      42.562  29.191  29.844  1.00  0.00     0.167 HD
ATOM     25  C   UNL A   1      42.665  25.103  28.260  1.00  0.00     0.031 A 
ATOM     26  C   UNL A   1      43.616  31.457  31.102  1.00  0.00     0.031 A 
ATOM     27  C   UNL A   1      43.993  25.374  28.746  1.00  0.00     0.049 A 
ATOM     28  C   UNL A   1      44.720  30.447  31.042  1.00  0.00     0.074 A 
ATOM     29  C   UNL A   1      45.108  24.555  28.700  1.00  0.00     0.029 A 
ATOM     30  N   UNL A   1      44.387  26.550  29.369  1.00  0.00    -0.354 N 
ATOM     31  N   UNL A   1      44.703  29.245  30.518  1.00  0.00    -0.248 NA
ATOM     32  C   UNL A   1      46.000  30.831  31.648  1.00  0.00     0.031 C 
ATOM     33  C   UNL A   1      46.163  25.216  29.339  1.00  0.00     0.029 A 
ATOM     34  C   UNL A   1      45.719  26.465  29.739  1.00  0.00     0.049 A 
ATOM     35  H   UNL A   1      43.805  27.328  29.524  1.00  0.00     0.167 HD
ATOM     36  C   UNL A   1      45.972  28.725  30.734  1.00  0.00     0.074 A 
ATOM     37  C   UNL A   1      46.739  29.756  31.404  1.00  0.00     0.031 C 
ATOM     38  C   UNL A   1      46.456  27.500  30.418  1.00  0.00     0.031 A 
BRANCH  25  39
ATOM     39  C   UNL A   1      42.395  23.736  27.688  1.00  0.00    -0.014 A 
ATOM     40  C   UNL A   1      42.665  23.442  26.341  1.00  0.00     0.010 A 
ATOM     41  C   UNL A   1      41.964  22.702  28.542  1.00  0.00     0.010 A 
ATOM     42  C   UNL A   1      42.499  22.140  25.855  1.00  0.00     0.020 A 
ATOM     43  C   UNL A   1      41.814  21.397  28.064  1.00  0.00     0.020 A 
ATOM     44  C   UNL A   1      42.077  21.125  26.720  1.00  0.00     0.054 A 
BRANCH  44  45
ATOM     45  S   UNL A   1      41.928  19.434  26.077  1.00  0.00     0.124 S 
ATOM     46  O   UNL A   1      42.366  18.639  27.222  1.00  0.00    -0.237 OA
ATOM     47  O   UNL A   1      40.507  19.337  25.754  1.00  0.00    -0.237 OA
ATOM     48  O   UNL A   1      42.828  19.419  24.926  1.00  0.00    -0.744 OA
ENDBRANCH  44  45
ENDBRANCH  25  39
BRANCH  26  49
ATOM     49  C   UNL A   1      43.808  32.780  31.749  1.00  0.00    -0.014 A 
ATOM     50  C   UNL A   1      43.586  32.948  33.126  1.00  0.00     0.010 A 
ATOM     51  C   UNL A   1      44.243  33.879  30.984  1.00  0.00     0.010 A 
ATOM     52  C   UNL A   1      43.778  34.198  33.722  1.00  0.00     0.020 A 
ATOM     53  C   UNL A   1      44.465  35.120  31.582  1.00  0.00     0.020 A 
ATOM     54  C   UNL A   1      44.214  35.276  32.947  1.00  0.00     0.054 A 
BRANCH  54  55
ATOM     55  S   UNL A   1      44.500  36.880  33.742  1.00  0.00     0.124 S 
ATOM     56  O   UNL A   1      43.374  37.665  33.248  1.00  0.00    -0.237 OA
ATOM     57  O   UNL A   1      44.462  36.543  35.163  1.00  0.00    -0.237 OA
ATOM     58  O   UNL A   1      45.813  37.278  33.240  1.00  0.00    -0.744 OA
ENDBRANCH  54  55
ENDBRANCH  26  49
BRANCH  38  59
ATOM     59  C   UNL A   1      47.884  27.221  30.791  1.00  0.00    -0.014 A 
ATOM     60  C   UNL A   1      48.933  27.544  29.911  1.00  0.00     0.010 A 
ATOM     61  C   UNL A   1      48.180  26.650  32.041  1.00  0.00     0.010 A 
ATOM     62  C   UNL A   1      50.255  27.268  30.262  1.00  0.00     0.020 A 
ATOM     63  C   UNL A   1      49.504  26.395  32.405  1.00  0.00     0.020 A 
ATOM     64  C   UNL A   1      50.531  26.690  31.506  1.00  0.00     0.054 A 
BRANCH  64  65
ATOM     65  S   UNL A   1      52.258  26.365  31.953  1.00  0.00     0.124 S 
ATOM     66  O   UNL A   1      52.964  26.756  30.735  1.00  0.00    -0.237 OA
ATOM     67  O   UNL A   1      52.463  27.237  33.107  1.00  0.00    -0.237 OA
ATOM     68  O   UNL A   1      52.273  24.935  32.251  1.00  0.00    -0.744 OA
ENDBRANCH  64  65
ENDBRANCH  38  59
ENDBRANCH  12  13
ENDBRANCH   5   7
ENDBRANCH   2   3
ENDBRANCH   1   2
BRANCH   1  69
ATOM     69  C   UNL A   1      33.325  28.895  24.829  1.00  0.00     0.023 C 
BRANCH  69  70
ATOM     70  C   UNL A   1      32.258  28.244  23.948  1.00  0.00     0.116 C 
BRANCH  70  71
ATOM     71  N   UNL A   1      32.780  27.903  22.638  1.00  0.00    -0.354 N 
ATOM     72  C   UNL A   1      33.172  26.693  22.139  1.00  0.00     0.242 C 
ATOM     73  H   UNL A   1      32.865  28.659  22.013  1.00  0.00     0.163 HD
ATOM     74  O   UNL A   1      33.592  26.645  20.980  1.00  0.00    -0.273 OA
BRANCH  72  75
ATOM     75  C   UNL A   1      33.051  25.415  22.990  1.00  0.00     0.176 C 
BRANCH  75  76
ATOM     76  N   UNL A   1      31.686  24.916  22.773  1.00  0.00    -0.339 N 
ATOM     77  C   UNL A   1      30.927  24.113  23.588  1.00  0.00     0.262 C 
ATOM     78  H   UNL A   1      31.259  25.195  21.931  1.00  0.00     0.164 HD
ATOM     79  O   UNL A   1      29.823  23.742  23.195  1.00  0.00    -0.268 OA
BRANCH  77  80
ATOM     80  C   UNL A   1      31.479  23.755  24.876  1.00  0.00     0.093 A 
ATOM     81  C   UNL A   1      31.516  24.500  26.042  1.00  0.00     0.027 A 
ATOM     82  S   UNL A   1      32.215  22.224  25.076  1.00  0.00    -0.118 S 
ATOM     83  C   UNL A   1      32.231  23.833  27.080  1.00  0.00     0.033 A 
ATOM     84  C   UNL A   1      32.652  22.595  26.668  1.00  0.00     0.094 A 
ATOM     85  Cl  UNL A   1      33.541  21.455  27.595  1.00  0.00    -0.072 Cl
ENDBRANCH  77  80
ENDBRANCH  75  76
BRANCH  75  86
ATOM     86  C   UNL A   1      34.111  24.376  22.557  1.00  0.00     0.070 C 
BRANCH  86  87
ATOM     87  C   UNL A   1      35.077  23.882  23.625  1.00  0.00    -0.045 A 
ATOM     88  C   UNL A   1      35.990  22.865  23.303  1.00  0.00     0.007 A 
ATOM     89  C   UNL A   1      35.173  24.456  24.898  1.00  0.00     0.007 A 
ATOM     90  C   UNL A   1      36.959  22.443  24.224  1.00  0.00     0.046 A 
ATOM     91  C   UNL A   1      36.147  24.057  25.813  1.00  0.00     0.046 A 
ATOM     92  C   UNL A   1      37.033  23.053  25.471  1.00  0.00     0.115 A 
BRANCH  92  93
ATOM     93  O   UNL A   1      37.967  22.697  26.395  1.00  0.00    -0.508 OA
ATOM     94  H   UNL A   1      38.575  22.009  26.205  1.00  0.00     0.293 HD
ENDBRANCH  92  93
ENDBRANCH  86  87
ENDBRANCH  75  86
ENDBRANCH  72  75
ENDBRANCH  70  71
ENDBRANCH  69  70
ENDBRANCH   1  69
TORSDOF 19
ENDMDL
