MODEL 1
REMARK VINA RESULT:      -8.9      0.000      0.000
REMARK SMILES CC(=O)c1ccc(C(F)(F)C(=O)NCCCCNC(=O)c2ccc(-c3c4nc(c(-c5ccc(S(=O)(=O)[O-])cc5)c5ccc([nH]5)c(-c5ccc(S(=O)(=O)[O-])cc5)c5nc(c(-c6ccc(S(=O)(=O)[O-])cc6)c6ccc3[nH]6)C=C5)C=C4)cc2)n1C
REMARK SMILES IDX 16 1 15 2 14 3 13 4 11 5 12 6 8 8 9 9 10 10 7 11 4 12 5 13
REMARK SMILES IDX 81 14 6 15 82 16 2 17 1 18 3 19 17 20 18 21 19 22 20 24
REMARK SMILES IDX 21 25 22 26 80 27 23 28 79 29 24 30 25 31 26 32 73 33 27 34
REMARK SMILES IDX 78 35 72 36 74 37 28 38 77 39 71 40 70 41 29 43 59 44 40 45
REMARK SMILES IDX 58 46 41 47 44 48 57 49 75 50 42 51 43 52 56 54 76 55 45 56
REMARK SMILES IDX 30 57 31 58 39 59 32 60 38 61 33 62 34 63 35 64 36 65 37 66
REMARK SMILES IDX 60 67 61 68 69 69 62 70 68 71 63 72 64 73 65 74 66 75 67 76
REMARK SMILES IDX 46 77 47 78 55 79 48 80 54 81 49 82 50 83 51 84 52 85 53 86
REMARK H PARENT 13 7 18 23 74 42 44 53
REMARK Flexibility Score: inf
ROOT
ATOM      1  C   UNL A   1      35.738  33.402  28.771  1.00  0.00     0.023 C 
ENDROOT
BRANCH   1   2
ATOM      2  C   UNL A   1      37.217  33.284  29.144  1.00  0.00     0.023 C 
BRANCH   2   3
ATOM      3  C   UNL A   1      37.699  34.204  30.262  1.00  0.00     0.116 C 
BRANCH   3   4
ATOM      4  N   UNL A   1      36.673  34.558  31.228  1.00  0.00    -0.350 N 
ATOM      5  C   UNL A   1      36.834  34.721  32.592  1.00  0.00     0.296 C 
ATOM      6  O   UNL A   1      35.942  35.333  33.188  1.00  0.00    -0.268 OA
ATOM      7  H   UNL A   1      35.765  34.696  30.874  1.00  0.00     0.163 HD
BRANCH   5   8
ATOM      8  C   UNL A   1      38.107  34.121  33.264  1.00  0.00     0.364 C 
ATOM      9  F   UNL A   1      38.173  34.574  34.560  1.00  0.00    -0.188 F 
ATOM     10  F   UNL A   1      39.237  34.618  32.667  1.00  0.00    -0.188 F 
BRANCH   8  11
ATOM     11  C   UNL A   1      38.212  32.610  33.292  1.00  0.00     0.098 A 
ATOM     12  C   UNL A   1      38.974  30.476  33.524  1.00  0.00     0.084 A 
ATOM     13  C   UNL A   1      37.662  30.433  33.076  1.00  0.00     0.032 A 
ATOM     14  N   UNL A   1      39.266  31.822  33.747  1.00  0.00    -0.340 N 
ATOM     15  C   UNL A   1      37.188  31.744  32.948  1.00  0.00     0.031 A 
ATOM     16  C   UNL A   1      40.493  32.320  34.338  1.00  0.00     0.150 C 
BRANCH  12  17
ATOM     17  C   UNL A   1      39.793  29.270  33.679  1.00  0.00     0.176 C 
ATOM     18  C   UNL A   1      39.949  28.297  32.544  1.00  0.00     0.095 C 
ATOM     19  O   UNL A   1      40.404  29.044  34.727  1.00  0.00    -0.293 OA
ENDBRANCH  12  17
ENDBRANCH   8  11
ENDBRANCH   5   8
ENDBRANCH   3   4
ENDBRANCH   2   3
ENDBRANCH   1   2
BRANCH   1  20
ATOM     20  C   UNL A   1      34.776  32.515  29.553  1.00  0.00     0.116 C 
BRANCH  20  21
ATOM     21  N   UNL A   1      34.037  31.585  28.715  1.00  0.00    -0.352 N 
ATOM     22  C   UNL A   1      34.475  30.448  28.072  1.00  0.00     0.251 C 
ATOM     23  H   UNL A   1      33.085  31.799  28.589  1.00  0.00     0.163 HD
ATOM     24  O   UNL A   1      33.725  29.854  27.311  1.00  0.00    -0.269 OA
BRANCH  22  25
ATOM     25  C   UNL A   1      35.863  29.969  28.274  1.00  0.00     0.039 A 
ATOM     26  C   UNL A   1      36.786  30.130  27.236  1.00  0.00     0.014 A 
ATOM     27  C   UNL A   1      36.261  29.381  29.477  1.00  0.00     0.014 A 
ATOM     28  C   UNL A   1      38.122  29.776  27.434  1.00  0.00     0.010 A 
ATOM     29  C   UNL A   1      37.609  29.097  29.698  1.00  0.00     0.010 A 
ATOM     30  C   UNL A   1      38.556  29.299  28.683  1.00  0.00    -0.014 A 
BRANCH  30  31
ATOM     31  C   UNL A   1      39.997  29.040  28.952  1.00  0.00     0.031 A 
ATOM     32  C   UNL A   1      40.610  27.708  28.614  1.00  0.00     0.074 A 
ATOM     33  C   UNL A   1      40.738  29.984  29.565  1.00  0.00     0.049 A 
ATOM     34  N   UNL A   1      41.829  27.284  28.829  1.00  0.00    -0.248 NA
ATOM     35  C   UNL A   1      39.735  26.714  27.970  1.00  0.00     0.031 C 
ATOM     36  C   UNL A   1      40.255  31.303  29.982  1.00  0.00     0.029 A 
ATOM     37  N   UNL A   1      42.056  29.980  29.953  1.00  0.00    -0.354 N 
ATOM     38  C   UNL A   1      41.865  25.975  28.363  1.00  0.00     0.074 A 
ATOM     39  C   UNL A   1      40.533  25.658  27.897  1.00  0.00     0.031 C 
ATOM     40  C   UNL A   1      41.264  31.986  30.544  1.00  0.00     0.029 A 
ATOM     41  C   UNL A   1      42.455  31.142  30.573  1.00  0.00     0.049 A 
ATOM     42  H   UNL A   1      42.659  29.216  29.804  1.00  0.00     0.167 HD
ATOM     43  C   UNL A   1      42.915  25.120  28.313  1.00  0.00     0.031 A 
ATOM     44  C   UNL A   1      43.638  31.489  31.116  1.00  0.00     0.031 A 
ATOM     45  C   UNL A   1      44.241  25.439  28.773  1.00  0.00     0.049 A 
ATOM     46  C   UNL A   1      44.781  30.513  31.069  1.00  0.00     0.074 A 
ATOM     47  C   UNL A   1      45.384  24.660  28.710  1.00  0.00     0.029 A 
ATOM     48  N   UNL A   1      44.602  26.627  29.392  1.00  0.00    -0.354 N 
ATOM     49  N   UNL A   1      44.814  29.306  30.555  1.00  0.00    -0.248 NA
ATOM     50  C   UNL A   1      46.051  30.947  31.670  1.00  0.00     0.031 C 
ATOM     51  C   UNL A   1      46.420  25.350  29.347  1.00  0.00     0.029 A 
ATOM     52  C   UNL A   1      45.941  26.588  29.746  1.00  0.00     0.049 A 
ATOM     53  H   UNL A   1      43.997  27.386  29.555  1.00  0.00     0.167 HD
ATOM     54  C   UNL A   1      46.113  28.848  30.747  1.00  0.00     0.074 A 
ATOM     55  C   UNL A   1      46.839  29.913  31.408  1.00  0.00     0.031 C 
ATOM     56  C   UNL A   1      46.653  27.652  30.408  1.00  0.00     0.031 A 
BRANCH  43  57
ATOM     57  C   UNL A   1      42.671  23.743  27.748  1.00  0.00    -0.014 A 
ATOM     58  C   UNL A   1      42.846  23.475  26.378  1.00  0.00     0.010 A 
ATOM     59  C   UNL A   1      42.312  22.689  28.609  1.00  0.00     0.010 A 
ATOM     60  C   UNL A   1      42.627  22.190  25.873  1.00  0.00     0.020 A 
ATOM     61  C   UNL A   1      42.121  21.396  28.114  1.00  0.00     0.020 A 
ATOM     62  C   UNL A   1      42.265  21.158  26.745  1.00  0.00     0.054 A 
BRANCH  62  63
ATOM     63  S   UNL A   1      42.012  19.496  26.064  1.00  0.00     0.124 S 
ATOM     64  O   UNL A   1      42.404  18.649  27.187  1.00  0.00    -0.237 OA
ATOM     65  O   UNL A   1      40.587  19.496  25.745  1.00  0.00    -0.237 OA
ATOM     66  O   UNL A   1      42.907  19.454  24.910  1.00  0.00    -0.744 OA
ENDBRANCH  62  63
ENDBRANCH  43  57
BRANCH  44  67
ATOM     67  C   UNL A   1      43.801  32.825  31.755  1.00  0.00    -0.014 A 
ATOM     68  C   UNL A   1      43.660  32.978  33.146  1.00  0.00     0.010 A 
ATOM     69  C   UNL A   1      44.108  33.954  30.972  1.00  0.00     0.010 A 
ATOM     70  C   UNL A   1      43.803  34.237  33.738  1.00  0.00     0.020 A 
ATOM     71  C   UNL A   1      44.282  35.207  31.564  1.00  0.00     0.020 A 
ATOM     72  C   UNL A   1      44.117  35.343  32.943  1.00  0.00     0.054 A 
BRANCH  72  73
ATOM     73  S   UNL A   1      44.349  36.957  33.741  1.00  0.00     0.124 S 
ATOM     74  O   UNL A   1      45.777  37.186  33.553  1.00  0.00    -0.237 OA
ATOM     75  O   UNL A   1      43.461  37.821  32.965  1.00  0.00    -0.237 OA
ATOM     76  O   UNL A   1      43.926  36.720  35.119  1.00  0.00    -0.744 OA
ENDBRANCH  72  73
ENDBRANCH  44  67
BRANCH  56  77
ATOM     77  C   UNL A   1      48.112  27.434  30.718  1.00  0.00    -0.014 A 
ATOM     78  C   UNL A   1      48.518  26.743  31.873  1.00  0.00     0.010 A 
ATOM     79  C   UNL A   1      49.089  27.876  29.806  1.00  0.00     0.010 A 
ATOM     80  C   UNL A   1      49.875  26.525  32.125  1.00  0.00     0.020 A 
ATOM     81  C   UNL A   1      50.445  27.633  30.039  1.00  0.00     0.020 A 
ATOM     82  C   UNL A   1      50.830  26.968  31.205  1.00  0.00     0.054 A 
BRANCH  82  83
ATOM     83  S   UNL A   1      52.581  26.626  31.531  1.00  0.00     0.124 S 
ATOM     84  O   UNL A   1      53.217  27.099  30.305  1.00  0.00    -0.237 OA
ATOM     85  O   UNL A   1      52.846  27.426  32.725  1.00  0.00    -0.237 OA
ATOM     86  O   UNL A   1      52.621  25.180  31.736  1.00  0.00    -0.744 OA
ENDBRANCH  82  83
ENDBRANCH  56  77
ENDBRANCH  30  31
ENDBRANCH  22  25
ENDBRANCH  20  21
ENDBRANCH   1  20
TORSDOF 16
ENDMDL
MODEL 2
REMARK VINA RESULT:      -8.9      5.038     10.373
REMARK SMILES CC(=O)c1ccc(C(F)(F)C(=O)NCCCCNC(=O)c2ccc(-c3c4nc(c(-c5ccc(S(=O)(=O)[O-])cc5)c5ccc([nH]5)c(-c5ccc(S(=O)(=O)[O-])cc5)c5nc(c(-c6ccc(S(=O)(=O)[O-])cc6)c6ccc3[nH]6)C=C5)C=C4)cc2)n1C
REMARK SMILES IDX 16 1 15 2 14 3 13 4 11 5 12 6 8 8 9 9 10 10 7 11 4 12 5 13
REMARK SMILES IDX 81 14 6 15 82 16 2 17 1 18 3 19 17 20 18 21 19 22 20 24
REMARK SMILES IDX 21 25 22 26 80 27 23 28 79 29 24 30 25 31 26 32 73 33 27 34
REMARK SMILES IDX 78 35 72 36 74 37 28 38 77 39 71 40 70 41 29 43 59 44 40 45
REMARK SMILES IDX 58 46 41 47 44 48 57 49 75 50 42 51 43 52 56 54 76 55 45 56
REMARK SMILES IDX 30 57 31 58 39 59 32 60 38 61 33 62 34 63 35 64 36 65 37 66
REMARK SMILES IDX 60 67 61 68 69 69 62 70 68 71 63 72 64 73 65 74 66 75 67 76
REMARK SMILES IDX 46 77 47 78 55 79 48 80 54 81 49 82 50 83 51 84 52 85 53 86
REMARK H PARENT 13 7 18 23 74 42 44 53
REMARK Flexibility Score: inf
ROOT
ATOM      1  C   UNL A   1      35.788  23.309  26.086  1.00  0.00     0.023 C 
ENDROOT
BRANCH   1   2
ATOM      2  C   UNL A   1      35.506  21.814  26.237  1.00  0.00     0.023 C 
BRANCH   2   3
ATOM      3  C   UNL A   1      34.332  21.443  27.139  1.00  0.00     0.116 C 
BRANCH   3   4
ATOM      4  N   UNL A   1      33.419  20.471  26.560  1.00  0.00    -0.350 N 
ATOM      5  C   UNL A   1      32.382  20.722  25.681  1.00  0.00     0.296 C 
ATOM      6  O   UNL A   1      31.939  19.756  25.054  1.00  0.00    -0.268 OA
ATOM      7  H   UNL A   1      33.554  19.531  26.824  1.00  0.00     0.163 HD
BRANCH   5   8
ATOM      8  C   UNL A   1      31.856  22.185  25.557  1.00  0.00     0.364 C 
ATOM      9  F   UNL A   1      32.181  22.866  26.706  1.00  0.00    -0.188 F 
ATOM     10  F   UNL A   1      30.485  22.195  25.527  1.00  0.00    -0.188 F 
BRANCH   8  11
ATOM     11  C   UNL A   1      32.360  22.992  24.378  1.00  0.00     0.098 A 
ATOM     12  C   UNL A   1      32.728  24.652  22.862  1.00  0.00     0.084 A 
ATOM     13  C   UNL A   1      33.463  23.536  22.487  1.00  0.00     0.032 A 
ATOM     14  N   UNL A   1      32.131  24.333  24.082  1.00  0.00    -0.340 N 
ATOM     15  C   UNL A   1      33.250  22.521  23.427  1.00  0.00     0.031 A 
ATOM     16  C   UNL A   1      31.368  25.254  24.901  1.00  0.00     0.150 C 
BRANCH  12  17
ATOM     17  C   UNL A   1      32.661  25.863  22.041  1.00  0.00     0.176 C 
ATOM     18  C   UNL A   1      31.427  26.720  22.034  1.00  0.00     0.095 C 
ATOM     19  O   UNL A   1      33.627  26.231  21.366  1.00  0.00    -0.293 OA
ENDBRANCH  12  17
ENDBRANCH   8  11
ENDBRANCH   5   8
ENDBRANCH   3   4
ENDBRANCH   2   3
ENDBRANCH   1   2
BRANCH   1  20
ATOM     20  C   UNL A   1      37.023  23.680  25.272  1.00  0.00     0.116 C 
BRANCH  20  21
ATOM     21  N   UNL A   1      38.147  22.786  25.488  1.00  0.00    -0.352 N 
ATOM     22  C   UNL A   1      39.352  23.028  26.112  1.00  0.00     0.251 C 
ATOM     23  H   UNL A   1      38.031  21.873  25.138  1.00  0.00     0.163 HD
ATOM     24  O   UNL A   1      40.228  22.175  26.093  1.00  0.00    -0.269 OA
BRANCH  22  25
ATOM     25  C   UNL A   1      39.598  24.333  26.769  1.00  0.00     0.039 A 
ATOM     26  C   UNL A   1      39.142  24.522  28.077  1.00  0.00     0.014 A 
ATOM     27  C   UNL A   1      40.286  25.359  26.114  1.00  0.00     0.014 A 
ATOM     28  C   UNL A   1      39.445  25.706  28.753  1.00  0.00     0.010 A 
ATOM     29  C   UNL A   1      40.650  26.507  26.816  1.00  0.00     0.010 A 
ATOM     30  C   UNL A   1      40.242  26.691  28.146  1.00  0.00    -0.014 A 
BRANCH  30  31
ATOM     31  C   UNL A   1      40.682  27.899  28.895  1.00  0.00     0.031 A 
ATOM     32  C   UNL A   1      42.025  27.930  29.573  1.00  0.00     0.074 A 
ATOM     33  C   UNL A   1      39.841  28.945  29.023  1.00  0.00     0.049 A 
ATOM     34  N   UNL A   1      42.551  28.871  30.316  1.00  0.00    -0.248 NA
ATOM     35  C   UNL A   1      42.881  26.743  29.415  1.00  0.00     0.031 C 
ATOM     36  C   UNL A   1      38.495  29.025  28.448  1.00  0.00     0.029 A 
ATOM     37  N   UNL A   1      39.987  30.140  29.683  1.00  0.00    -0.354 N 
ATOM     38  C   UNL A   1      43.788  28.386  30.725  1.00  0.00     0.074 A 
ATOM     39  C   UNL A   1      43.915  27.049  30.187  1.00  0.00     0.031 C 
ATOM     40  C   UNL A   1      37.951  30.212  28.761  1.00  0.00     0.029 A 
ATOM     41  C   UNL A   1      38.886  30.961  29.596  1.00  0.00     0.049 A 
ATOM     42  H   UNL A   1      40.805  30.388  30.174  1.00  0.00     0.167 HD
ATOM     43  C   UNL A   1      44.739  29.004  31.467  1.00  0.00     0.031 A 
ATOM     44  C   UNL A   1      38.645  32.171  30.135  1.00  0.00     0.031 A 
ATOM     45  C   UNL A   1      44.612  30.336  31.998  1.00  0.00     0.049 A 
ATOM     46  C   UNL A   1      39.707  32.825  30.976  1.00  0.00     0.074 A 
ATOM     47  C   UNL A   1      45.546  31.068  32.711  1.00  0.00     0.029 A 
ATOM     48  N   UNL A   1      43.482  31.131  31.885  1.00  0.00    -0.354 N 
ATOM     49  N   UNL A   1      40.901  32.380  31.287  1.00  0.00    -0.248 NA
ATOM     50  C   UNL A   1      39.393  34.149  31.533  1.00  0.00     0.031 C 
ATOM     51  C   UNL A   1      44.957  32.281  33.084  1.00  0.00     0.029 A 
ATOM     52  C   UNL A   1      43.682  32.333  32.544  1.00  0.00     0.049 A 
ATOM     53  H   UNL A   1      42.659  30.880  31.406  1.00  0.00     0.167 HD
ATOM     54  C   UNL A   1      41.490  33.380  32.054  1.00  0.00     0.074 A 
ATOM     55  C   UNL A   1      40.528  34.459  32.144  1.00  0.00     0.031 C 
ATOM     56  C   UNL A   1      42.716  33.400  32.632  1.00  0.00     0.031 A 
BRANCH  43  57
ATOM     57  C   UNL A   1      46.004  28.237  31.763  1.00  0.00    -0.014 A 
ATOM     58  C   UNL A   1      47.109  28.290  30.893  1.00  0.00     0.010 A 
ATOM     59  C   UNL A   1      46.108  27.495  32.953  1.00  0.00     0.010 A 
ATOM     60  C   UNL A   1      48.278  27.584  31.189  1.00  0.00     0.020 A 
ATOM     61  C   UNL A   1      47.286  26.811  33.269  1.00  0.00     0.020 A 
ATOM     62  C   UNL A   1      48.358  26.847  32.375  1.00  0.00     0.054 A 
BRANCH  62  63
ATOM     63  S   UNL A   1      49.898  25.961  32.743  1.00  0.00     0.124 S 
ATOM     64  O   UNL A   1      49.447  24.967  33.714  1.00  0.00    -0.237 OA
ATOM     65  O   UNL A   1      50.283  25.434  31.437  1.00  0.00    -0.237 OA
ATOM     66  O   UNL A   1      50.776  26.999  33.278  1.00  0.00    -0.744 OA
ENDBRANCH  62  63
ENDBRANCH  43  57
BRANCH  44  67
ATOM     67  C   UNL A   1      37.337  32.845  29.898  1.00  0.00    -0.014 A 
ATOM     68  C   UNL A   1      36.310  32.777  30.856  1.00  0.00     0.010 A 
ATOM     69  C   UNL A   1      37.116  33.568  28.710  1.00  0.00     0.010 A 
ATOM     70  C   UNL A   1      35.082  33.403  30.622  1.00  0.00     0.020 A 
ATOM     71  C   UNL A   1      35.901  34.221  28.488  1.00  0.00     0.020 A 
ATOM     72  C   UNL A   1      34.886  34.123  29.441  1.00  0.00     0.054 A 
BRANCH  72  73
ATOM     73  S   UNL A   1      33.301  34.969  29.183  1.00  0.00     0.124 S 
ATOM     74  O   UNL A   1      33.730  36.273  28.688  1.00  0.00    -0.237 OA
ATOM     75  O   UNL A   1      32.640  34.107  28.206  1.00  0.00    -0.237 OA
ATOM     76  O   UNL A   1      32.695  34.971  30.513  1.00  0.00    -0.744 OA
ENDBRANCH  72  73
ENDBRANCH  44  67
BRANCH  56  77
ATOM     77  C   UNL A   1      43.106  34.640  33.394  1.00  0.00    -0.014 A 
ATOM     78  C   UNL A   1      42.832  34.771  34.766  1.00  0.00     0.010 A 
ATOM     79  C   UNL A   1      43.813  35.664  32.737  1.00  0.00     0.010 A 
ATOM     80  C   UNL A   1      43.230  35.917  35.461  1.00  0.00     0.020 A 
ATOM     81  C   UNL A   1      44.241  36.797  33.434  1.00  0.00     0.020 A 
ATOM     82  C   UNL A   1      43.935  36.921  34.791  1.00  0.00     0.054 A 
BRANCH  82  83
ATOM     83  S   UNL A   1      44.486  38.373  35.728  1.00  0.00     0.124 S 
ATOM     84  O   UNL A   1      43.878  38.140  37.035  1.00  0.00    -0.237 OA
ATOM     85  O   UNL A   1      45.941  38.251  35.681  1.00  0.00    -0.237 OA
ATOM     86  O   UNL A   1      43.937  39.500  34.977  1.00  0.00    -0.744 OA
ENDBRANCH  82  83
ENDBRANCH  56  77
ENDBRANCH  30  31
ENDBRANCH  22  25
ENDBRANCH  20  21
ENDBRANCH   1  20
TORSDOF 16
ENDMDL
MODEL 3
REMARK VINA RESULT:      -8.9      3.905     10.331
REMARK SMILES CC(=O)c1ccc(C(F)(F)C(=O)NCCCCNC(=O)c2ccc(-c3c4nc(c(-c5ccc(S(=O)(=O)[O-])cc5)c5ccc([nH]5)c(-c5ccc(S(=O)(=O)[O-])cc5)c5nc(c(-c6ccc(S(=O)(=O)[O-])cc6)c6ccc3[nH]6)C=C5)C=C4)cc2)n1C
REMARK SMILES IDX 16 1 15 2 14 3 13 4 11 5 12 6 8 8 9 9 10 10 7 11 4 12 5 13
REMARK SMILES IDX 81 14 6 15 82 16 2 17 1 18 3 19 17 20 18 21 19 22 20 24
REMARK SMILES IDX 21 25 22 26 80 27 23 28 79 29 24 30 25 31 26 32 73 33 27 34
REMARK SMILES IDX 78 35 72 36 74 37 28 38 77 39 71 40 70 41 29 43 59 44 40 45
REMARK SMILES IDX 58 46 41 47 44 48 57 49 75 50 42 51 43 52 56 54 76 55 45 56
REMARK SMILES IDX 30 57 31 58 39 59 32 60 38 61 33 62 34 63 35 64 36 65 37 66
REMARK SMILES IDX 60 67 61 68 69 69 62 70 68 71 63 72 64 73 65 74 66 75 67 76
REMARK SMILES IDX 46 77 47 78 55 79 48 80 54 81 49 82 50 83 51 84 52 85 53 86
REMARK H PARENT 13 7 18 23 74 42 44 53
REMARK Flexibility Score: inf
ROOT
ATOM      1  C   UNL A   1      33.611  28.670  25.417  1.00  0.00     0.023 C 
ENDROOT
BRANCH   1   2
ATOM      2  C   UNL A   1      32.168  28.847  24.944  1.00  0.00     0.023 C 
BRANCH   2   3
ATOM      3  C   UNL A   1      31.490  27.600  24.384  1.00  0.00     0.116 C 
BRANCH   3   4
ATOM      4  N   UNL A   1      30.711  26.855  25.360  1.00  0.00    -0.350 N 
ATOM      5  C   UNL A   1      30.738  25.490  25.581  1.00  0.00     0.296 C 
ATOM      6  O   UNL A   1      30.268  25.090  26.650  1.00  0.00    -0.268 OA
ATOM      7  H   UNL A   1      30.099  27.379  25.926  1.00  0.00     0.163 HD
BRANCH   5   8
ATOM      8  C   UNL A   1      31.343  24.574  24.473  1.00  0.00     0.364 C 
ATOM      9  F   UNL A   1      31.043  25.114  23.245  1.00  0.00    -0.188 F 
ATOM     10  F   UNL A   1      30.719  23.353  24.474  1.00  0.00    -0.188 F 
BRANCH   8  11
ATOM     11  C   UNL A   1      32.839  24.340  24.527  1.00  0.00     0.098 A 
ATOM     12  C   UNL A   1      34.953  23.605  24.103  1.00  0.00     0.084 A 
ATOM     13  C   UNL A   1      34.987  24.446  25.207  1.00  0.00     0.032 A 
ATOM     14  N   UNL A   1      33.639  23.629  23.636  1.00  0.00    -0.340 N 
ATOM     15  C   UNL A   1      33.691  24.910  25.458  1.00  0.00     0.031 A 
ATOM     16  C   UNL A   1      33.176  22.987  22.421  1.00  0.00     0.150 C 
BRANCH  12  17
ATOM     17  C   UNL A   1      36.135  22.881  23.629  1.00  0.00     0.176 C 
ATOM     18  C   UNL A   1      36.764  21.803  24.467  1.00  0.00     0.095 C 
ATOM     19  O   UNL A   1      36.620  23.110  22.517  1.00  0.00    -0.293 OA
ENDBRANCH  12  17
ENDBRANCH   8  11
ENDBRANCH   5   8
ENDBRANCH   3   4
ENDBRANCH   2   3
ENDBRANCH   1   2
BRANCH   1  20
ATOM     20  C   UNL A   1      33.830  28.699  26.926  1.00  0.00     0.116 C 
BRANCH  20  21
ATOM     21  N   UNL A   1      33.754  30.034  27.495  1.00  0.00    -0.352 N 
ATOM     22  C   UNL A   1      34.685  30.722  28.241  1.00  0.00     0.251 C 
ATOM     23  H   UNL A   1      32.914  30.517  27.321  1.00  0.00     0.163 HD
ATOM     24  O   UNL A   1      34.391  31.802  28.734  1.00  0.00    -0.269 OA
BRANCH  22  25
ATOM     25  C   UNL A   1      36.027  30.138  28.476  1.00  0.00     0.039 A 
ATOM     26  C   UNL A   1      36.980  30.215  27.457  1.00  0.00     0.014 A 
ATOM     27  C   UNL A   1      36.352  29.533  29.694  1.00  0.00     0.014 A 
ATOM     28  C   UNL A   1      38.281  29.759  27.688  1.00  0.00     0.010 A 
ATOM     29  C   UNL A   1      37.668  29.148  29.946  1.00  0.00     0.010 A 
ATOM     30  C   UNL A   1      38.650  29.264  28.949  1.00  0.00    -0.014 A 
BRANCH  30  31
ATOM     31  C   UNL A   1      40.059  28.895  29.252  1.00  0.00     0.031 A 
ATOM     32  C   UNL A   1      40.997  29.898  29.867  1.00  0.00     0.074 A 
ATOM     33  C   UNL A   1      40.514  27.673  28.909  1.00  0.00     0.049 A 
ATOM     34  N   UNL A   1      42.269  29.773  30.146  1.00  0.00    -0.248 NA
ATOM     35  C   UNL A   1      40.440  31.222  30.190  1.00  0.00     0.031 C 
ATOM     36  C   UNL A   1      39.719  26.620  28.270  1.00  0.00     0.029 A 
ATOM     37  N   UNL A   1      41.759  27.108  29.041  1.00  0.00    -0.354 N 
ATOM     38  C   UNL A   1      42.669  31.001  30.662  1.00  0.00     0.074 A 
ATOM     39  C   UNL A   1      41.514  31.872  30.614  1.00  0.00     0.031 C 
ATOM     40  C   UNL A   1      40.487  25.535  28.089  1.00  0.00     0.029 A 
ATOM     41  C   UNL A   1      41.841  25.824  28.553  1.00  0.00     0.049 A 
ATOM     42  H   UNL A   1      42.524  27.579  29.447  1.00  0.00     0.167 HD
ATOM     43  C   UNL A   1      43.880  31.365  31.148  1.00  0.00     0.031 A 
ATOM     44  C   UNL A   1      42.885  24.977  28.472  1.00  0.00     0.031 A 
ATOM     45  C   UNL A   1      45.025  30.494  31.199  1.00  0.00     0.049 A 
ATOM     46  C   UNL A   1      44.226  25.414  28.996  1.00  0.00     0.074 A 
ATOM     47  C   UNL A   1      46.279  30.753  31.727  1.00  0.00     0.029 A 
ATOM     48  N   UNL A   1      45.064  29.203  30.695  1.00  0.00    -0.354 N 
ATOM     49  N   UNL A   1      44.563  26.554  29.551  1.00  0.00    -0.248 NA
ATOM     50  C   UNL A   1      45.328  24.446  28.889  1.00  0.00     0.031 C 
ATOM     51  C   UNL A   1      47.093  29.643  31.486  1.00  0.00     0.029 A 
ATOM     52  C   UNL A   1      46.329  28.665  30.870  1.00  0.00     0.049 A 
ATOM     53  H   UNL A   1      44.305  28.736  30.277  1.00  0.00     0.167 HD
ATOM     54  C   UNL A   1      45.908  26.431  29.882  1.00  0.00     0.074 A 
ATOM     55  C   UNL A   1      46.317  25.101  29.483  1.00  0.00     0.031 C 
ATOM     56  C   UNL A   1      46.728  27.340  30.464  1.00  0.00     0.031 A 
BRANCH  43  57
ATOM     57  C   UNL A   1      44.037  32.776  31.655  1.00  0.00    -0.014 A 
ATOM     58  C   UNL A   1      44.496  33.807  30.815  1.00  0.00     0.010 A 
ATOM     59  C   UNL A   1      43.670  33.087  32.978  1.00  0.00     0.010 A 
ATOM     60  C   UNL A   1      44.623  35.112  31.298  1.00  0.00     0.020 A 
ATOM     61  C   UNL A   1      43.766  34.396  33.457  1.00  0.00     0.020 A 
ATOM     62  C   UNL A   1      44.258  35.398  32.618  1.00  0.00     0.054 A 
BRANCH  62  63
ATOM     63  S   UNL A   1      44.410  37.106  33.209  1.00  0.00     0.124 S 
ATOM     64  O   UNL A   1      45.815  37.395  32.936  1.00  0.00    -0.237 OA
ATOM     65  O   UNL A   1      43.448  37.820  32.374  1.00  0.00    -0.237 OA
ATOM     66  O   UNL A   1      44.058  37.016  34.624  1.00  0.00    -0.744 OA
ENDBRANCH  62  63
ENDBRANCH  43  57
BRANCH  44  67
ATOM     67  C   UNL A   1      42.704  23.627  27.868  1.00  0.00    -0.014 A 
ATOM     68  C   UNL A   1      42.370  22.521  28.669  1.00  0.00     0.010 A 
ATOM     69  C   UNL A   1      42.857  23.444  26.480  1.00  0.00     0.010 A 
ATOM     70  C   UNL A   1      42.212  21.255  28.096  1.00  0.00     0.020 A 
ATOM     71  C   UNL A   1      42.669  22.187  25.901  1.00  0.00     0.020 A 
ATOM     72  C   UNL A   1      42.359  21.097  26.716  1.00  0.00     0.054 A 
BRANCH  72  73
ATOM     73  S   UNL A   1      42.099  19.453  25.990  1.00  0.00     0.124 S 
ATOM     74  O   UNL A   1      42.937  19.513  24.797  1.00  0.00    -0.237 OA
ATOM     75  O   UNL A   1      42.567  18.564  27.050  1.00  0.00    -0.237 OA
ATOM     76  O   UNL A   1      40.659  19.414  25.744  1.00  0.00    -0.744 OA
ENDBRANCH  72  73
ENDBRANCH  44  67
BRANCH  56  77
ATOM     77  C   UNL A   1      48.151  26.922  30.734  1.00  0.00    -0.014 A 
ATOM     78  C   UNL A   1      49.174  27.171  29.802  1.00  0.00     0.010 A 
ATOM     79  C   UNL A   1      48.477  26.324  31.965  1.00  0.00     0.010 A 
ATOM     80  C   UNL A   1      50.492  26.803  30.086  1.00  0.00     0.020 A 
ATOM     81  C   UNL A   1      49.798  25.983  32.265  1.00  0.00     0.020 A 
ATOM     82  C   UNL A   1      50.797  26.214  31.316  1.00  0.00     0.054 A 
BRANCH  82  83
ATOM     83  S   UNL A   1      52.523  25.794  31.679  1.00  0.00     0.124 S 
ATOM     84  O   UNL A   1      52.409  24.413  32.142  1.00  0.00    -0.237 OA
ATOM     85  O   UNL A   1      53.174  25.970  30.383  1.00  0.00    -0.237 OA
ATOM     86  O   UNL A   1      52.910  26.763  32.701  1.00  0.00    -0.744 OA
ENDBRANCH  82  83
ENDBRANCH  56  77
ENDBRANCH  30  31
ENDBRANCH  22  25
ENDBRANCH  20  21
ENDBRANCH   1  20
TORSDOF 16
ENDMDL
