MODEL 1
REMARK VINA RESULT:     -11.3      0.000      0.000
REMARK SMILES O=C(NCCCCNC(=O)c1cc2n[nH]cc2cc1[N+](=O)[O-])c1ccc(-c2c3nc(c(-c4ccc(S(=O)(=O)[O-])cc4)c4ccc([nH]4)c(-c4ccc(S(=O)(=O)[O-])cc4)c4nc(c(-c5ccc(S(=O)(=O)[O-])cc5)c5ccc2[nH]5)C=C4)C=C3)cc1
REMARK SMILES IDX 4 1 3 2 1 3 2 4 23 6 24 7 82 8 25 9 81 10 26 11 27 12 28 13
REMARK SMILES IDX 75 14 29 15 80 16 74 17 76 18 30 19 79 20 73 21 72 22 31 24
REMARK SMILES IDX 61 25 42 26 60 27 43 28 46 29 59 30 77 31 44 32 45 33 58 35
REMARK SMILES IDX 78 36 47 37 32 38 33 39 41 40 34 41 40 42 35 43 36 44 37 45
REMARK SMILES IDX 38 46 39 47 62 48 63 49 71 50 64 51 70 52 65 53 66 54 67 55
REMARK SMILES IDX 68 56 69 57 48 58 49 59 57 60 50 61 56 62 51 63 52 64 53 65
REMARK SMILES IDX 54 66 55 67 5 68 6 69 7 70 8 71 9 72 10 74 11 75 12 76 19 77
REMARK SMILES IDX 13 78 18 79 14 80 17 81 15 82 16 83 20 85 21 86 22 87
REMARK H PARENT 3 5 76 23 46 34 8 73 15 84
REMARK Flexibility Score: inf
ROOT
ATOM      1  C   UNL A   1      33.612  28.351  27.222  1.00  0.00     0.116 C 
ENDROOT
BRANCH   1   2
ATOM      2  N   UNL A   1      33.505  29.766  27.542  1.00  0.00    -0.352 N 
ATOM      3  O   UNL A   1      34.132  31.756  28.396  1.00  0.00    -0.269 OA
ATOM      4  C   UNL A   1      34.447  30.613  28.081  1.00  0.00     0.251 C 
ATOM      5  H   UNL A   1      32.633  30.178  27.345  1.00  0.00     0.163 HD
BRANCH   4   6
ATOM      6  C   UNL A   1      35.829  30.132  28.312  1.00  0.00     0.039 A 
ATOM      7  C   UNL A   1      36.215  29.639  29.559  1.00  0.00     0.014 A 
ATOM      8  C   UNL A   1      36.754  30.185  27.265  1.00  0.00     0.014 A 
ATOM      9  C   UNL A   1      37.554  29.355  29.805  1.00  0.00     0.010 A 
ATOM     10  C   UNL A   1      38.086  29.817  27.491  1.00  0.00     0.010 A 
ATOM     11  C   UNL A   1      38.506  29.437  28.773  1.00  0.00    -0.014 A 
BRANCH  11  12
ATOM     12  C   UNL A   1      39.919  29.083  29.068  1.00  0.00     0.031 A 
ATOM     13  C   UNL A   1      40.822  30.024  29.819  1.00  0.00     0.074 A 
ATOM     14  C   UNL A   1      40.368  27.865  28.704  1.00  0.00     0.049 A 
ATOM     15  N   UNL A   1      42.055  29.833  30.219  1.00  0.00    -0.248 NA
ATOM     16  C   UNL A   1      40.281  31.348  30.164  1.00  0.00     0.031 C 
ATOM     17  C   UNL A   1      39.592  26.870  27.957  1.00  0.00     0.029 A 
ATOM     18  N   UNL A   1      41.566  27.243  28.940  1.00  0.00    -0.354 N 
ATOM     19  C   UNL A   1      42.441  31.010  30.849  1.00  0.00     0.074 A 
ATOM     20  C   UNL A   1      41.320  31.921  30.757  1.00  0.00     0.031 C 
ATOM     21  C   UNL A   1      40.311  25.744  27.848  1.00  0.00     0.029 A 
ATOM     22  C   UNL A   1      41.614  25.952  28.471  1.00  0.00     0.049 A 
ATOM     23  H   UNL A   1      42.319  27.678  29.400  1.00  0.00     0.167 HD
ATOM     24  C   UNL A   1      43.618  31.304  31.455  1.00  0.00     0.031 A 
ATOM     25  C   UNL A   1      42.594  25.032  28.532  1.00  0.00     0.031 A 
ATOM     26  C   UNL A   1      44.733  30.398  31.547  1.00  0.00     0.049 A 
ATOM     27  C   UNL A   1      43.881  25.378  29.220  1.00  0.00     0.074 A 
ATOM     28  C   UNL A   1      45.969  30.607  32.137  1.00  0.00     0.029 A 
ATOM     29  N   UNL A   1      44.748  29.106  31.043  1.00  0.00    -0.354 N 
ATOM     30  N   UNL A   1      44.220  26.498  29.812  1.00  0.00    -0.248 NA
ATOM     31  C   UNL A   1      44.916  24.337  29.250  1.00  0.00     0.031 C 
ATOM     32  C   UNL A   1      46.740  29.451  31.965  1.00  0.00     0.029 A 
ATOM     33  C   UNL A   1      45.971  28.509  31.303  1.00  0.00     0.049 A 
ATOM     34  H   UNL A   1      43.999  28.676  30.570  1.00  0.00     0.167 HD
ATOM     35  C   UNL A   1      45.510  26.296  30.284  1.00  0.00     0.074 A 
ATOM     36  C   UNL A   1      45.878  24.938  29.938  1.00  0.00     0.031 C 
ATOM     37  C   UNL A   1      46.323  27.162  30.938  1.00  0.00     0.031 A 
BRANCH  24  38
ATOM     38  C   UNL A   1      43.765  32.675  32.060  1.00  0.00    -0.014 A 
ATOM     39  C   UNL A   1      44.218  33.760  31.290  1.00  0.00     0.010 A 
ATOM     40  C   UNL A   1      43.397  32.893  33.401  1.00  0.00     0.010 A 
ATOM     41  C   UNL A   1      44.330  35.032  31.855  1.00  0.00     0.020 A 
ATOM     42  C   UNL A   1      43.489  34.169  33.965  1.00  0.00     0.020 A 
ATOM     43  C   UNL A   1      43.970  35.228  33.192  1.00  0.00     0.054 A 
BRANCH  43  44
ATOM     44  S   UNL A   1      44.103  36.894  33.899  1.00  0.00     0.124 S 
ATOM     45  O   UNL A   1      44.913  37.582  32.897  1.00  0.00    -0.237 OA
ATOM     46  O   UNL A   1      42.709  37.324  33.980  1.00  0.00    -0.237 OA
ATOM     47  O   UNL A   1      44.757  36.674  35.187  1.00  0.00    -0.744 OA
ENDBRANCH  43  44
ENDBRANCH  24  38
BRANCH  25  48
ATOM     48  C   UNL A   1      42.389  23.698  27.911  1.00  0.00    -0.014 A 
ATOM     49  C   UNL A   1      42.898  23.415  26.632  1.00  0.00     0.010 A 
ATOM     50  C   UNL A   1      41.707  22.691  28.617  1.00  0.00     0.010 A 
ATOM     51  C   UNL A   1      42.714  22.152  26.063  1.00  0.00     0.020 A 
ATOM     52  C   UNL A   1      41.545  21.420  28.063  1.00  0.00     0.020 A 
ATOM     53  C   UNL A   1      42.038  21.162  26.782  1.00  0.00     0.054 A 
BRANCH  53  54
ATOM     54  S   UNL A   1      41.860  19.507  26.062  1.00  0.00     0.124 S 
ATOM     55  O   UNL A   1      42.366  18.655  27.134  1.00  0.00    -0.237 OA
ATOM     56  O   UNL A   1      40.424  19.418  25.808  1.00  0.00    -0.237 OA
ATOM     57  O   UNL A   1      42.692  19.569  24.863  1.00  0.00    -0.744 OA
ENDBRANCH  53  54
ENDBRANCH  25  48
BRANCH  37  58
ATOM     58  C   UNL A   1      47.685  26.655  31.321  1.00  0.00    -0.014 A 
ATOM     59  C   UNL A   1      48.794  26.867  30.482  1.00  0.00     0.010 A 
ATOM     60  C   UNL A   1      47.861  25.972  32.537  1.00  0.00     0.010 A 
ATOM     61  C   UNL A   1      50.050  26.369  30.834  1.00  0.00     0.020 A 
ATOM     62  C   UNL A   1      49.120  25.489  32.901  1.00  0.00     0.020 A 
ATOM     63  C   UNL A   1      50.203  25.674  32.038  1.00  0.00     0.054 A 
BRANCH  63  64
ATOM     64  S   UNL A   1      51.845  25.047  32.487  1.00  0.00     0.124 S 
ATOM     65  O   UNL A   1      51.619  23.606  32.526  1.00  0.00    -0.237 OA
ATOM     66  O   UNL A   1      52.686  25.521  31.390  1.00  0.00    -0.237 OA
ATOM     67  O   UNL A   1      52.111  25.674  33.780  1.00  0.00    -0.744 OA
ENDBRANCH  63  64
ENDBRANCH  37  58
ENDBRANCH  11  12
ENDBRANCH   4   6
ENDBRANCH   1   2
BRANCH   1  68
ATOM     68  C   UNL A   1      33.691  28.077  25.725  1.00  0.00     0.023 C 
BRANCH  68  69
ATOM     69  C   UNL A   1      33.293  29.238  24.816  1.00  0.00     0.023 C 
BRANCH  69  70
ATOM     70  C   UNL A   1      33.387  28.964  23.319  1.00  0.00     0.116 C 
BRANCH  70  71
ATOM     71  N   UNL A   1      32.119  29.136  22.623  1.00  0.00    -0.352 N 
ATOM     72  C   UNL A   1      31.034  28.302  22.568  1.00  0.00     0.258 C 
ATOM     73  H   UNL A   1      32.027  29.976  22.119  1.00  0.00     0.163 HD
ATOM     74  O   UNL A   1      30.056  28.565  21.880  1.00  0.00    -0.269 OA
BRANCH  72  75
ATOM     75  C   UNL A   1      31.069  27.030  23.303  1.00  0.00     0.119 A 
ATOM     76  C   UNL A   1      30.461  27.053  24.581  1.00  0.00     0.052 A 
ATOM     77  C   UNL A   1      31.636  25.848  22.724  1.00  0.00     0.282 A 
ATOM     78  C   UNL A   1      30.407  25.792  25.193  1.00  0.00     0.093 A 
ATOM     79  C   UNL A   1      31.597  24.561  23.312  1.00  0.00     0.098 A 
ATOM     80  N   UNL A   1      29.879  25.427  26.370  1.00  0.00    -0.176 NA
ATOM     81  C   UNL A   1      30.958  24.625  24.543  1.00  0.00     0.026 A 
ATOM     82  N   UNL A   1      30.079  24.098  26.447  1.00  0.00    -0.285 N 
ATOM     83  C   UNL A   1      30.723  23.562  25.367  1.00  0.00     0.114 A 
ATOM     84  H   UNL A   1      29.785  23.558  27.216  1.00  0.00     0.189 HD
BRANCH  77  85
ATOM     85  N   UNL A   1      32.288  25.942  21.430  1.00  0.00     0.063 N 
ATOM     86  O   UNL A   1      33.524  26.006  21.437  1.00  0.00    -0.258 OA
ATOM     87  O   UNL A   1      31.565  25.994  20.429  1.00  0.00    -0.258 OA
ENDBRANCH  77  85
ENDBRANCH  72  75
ENDBRANCH  70  71
ENDBRANCH  69  70
ENDBRANCH  68  69
ENDBRANCH   1  68
TORSDOF 15
ENDMDL
MODEL 2
REMARK VINA RESULT:     -11.2      0.962      8.452
REMARK SMILES O=C(NCCCCNC(=O)c1cc2n[nH]cc2cc1[N+](=O)[O-])c1ccc(-c2c3nc(c(-c4ccc(S(=O)(=O)[O-])cc4)c4ccc([nH]4)c(-c4ccc(S(=O)(=O)[O-])cc4)c4nc(c(-c5ccc(S(=O)(=O)[O-])cc5)c5ccc2[nH]5)C=C4)C=C3)cc1
REMARK SMILES IDX 4 1 3 2 1 3 2 4 23 6 24 7 82 8 25 9 81 10 26 11 27 12 28 13
REMARK SMILES IDX 75 14 29 15 80 16 74 17 76 18 30 19 79 20 73 21 72 22 31 24
REMARK SMILES IDX 61 25 42 26 60 27 43 28 46 29 59 30 77 31 44 32 45 33 58 35
REMARK SMILES IDX 78 36 47 37 32 38 33 39 41 40 34 41 40 42 35 43 36 44 37 45
REMARK SMILES IDX 38 46 39 47 62 48 63 49 71 50 64 51 70 52 65 53 66 54 67 55
REMARK SMILES IDX 68 56 69 57 48 58 49 59 57 60 50 61 56 62 51 63 52 64 53 65
REMARK SMILES IDX 54 66 55 67 5 68 6 69 7 70 8 71 9 72 10 74 11 75 12 76 19 77
REMARK SMILES IDX 13 78 18 79 14 80 17 81 15 82 16 83 20 85 21 86 22 87
REMARK H PARENT 3 5 76 23 46 34 8 73 15 84
REMARK Flexibility Score: inf
ROOT
ATOM      1  C   UNL A   1      33.538  28.246  27.133  1.00  0.00     0.116 C 
ENDROOT
BRANCH   1   2
ATOM      2  N   UNL A   1      33.376  29.641  27.509  1.00  0.00    -0.352 N 
ATOM      3  O   UNL A   1      33.922  31.617  28.448  1.00  0.00    -0.269 OA
ATOM      4  C   UNL A   1      34.282  30.500  28.089  1.00  0.00     0.251 C 
ATOM      5  H   UNL A   1      32.490  30.029  27.322  1.00  0.00     0.163 HD
BRANCH   4   6
ATOM      6  C   UNL A   1      35.679  30.062  28.311  1.00  0.00     0.039 A 
ATOM      7  C   UNL A   1      36.095  29.605  29.562  1.00  0.00     0.014 A 
ATOM      8  C   UNL A   1      36.589  30.119  27.250  1.00  0.00     0.014 A 
ATOM      9  C   UNL A   1      37.445  29.363  29.795  1.00  0.00     0.010 A 
ATOM     10  C   UNL A   1      37.933  29.791  27.465  1.00  0.00     0.010 A 
ATOM     11  C   UNL A   1      38.380  29.449  28.749  1.00  0.00    -0.014 A 
BRANCH  11  12
ATOM     12  C   UNL A   1      39.806  29.140  29.031  1.00  0.00     0.031 A 
ATOM     13  C   UNL A   1      40.404  27.806  28.674  1.00  0.00     0.074 A 
ATOM     14  C   UNL A   1      40.583  30.107  29.560  1.00  0.00     0.049 A 
ATOM     15  N   UNL A   1      41.648  27.408  28.787  1.00  0.00    -0.248 NA
ATOM     16  C   UNL A   1      39.498  26.785  28.125  1.00  0.00     0.031 C 
ATOM     17  C   UNL A   1      40.116  31.437  29.964  1.00  0.00     0.029 A 
ATOM     18  N   UNL A   1      41.929  30.136  29.818  1.00  0.00    -0.354 N 
ATOM     19  C   UNL A   1      41.672  26.093  28.338  1.00  0.00     0.074 A 
ATOM     20  C   UNL A   1      40.314  25.750  27.973  1.00  0.00     0.031 C 
ATOM     21  C   UNL A   1      41.165  32.170  30.361  1.00  0.00     0.029 A 
ATOM     22  C   UNL A   1      42.370  31.350  30.289  1.00  0.00     0.049 A 
ATOM     23  H   UNL A   1      42.522  29.364  29.679  1.00  0.00     0.167 HD
ATOM     24  C   UNL A   1      42.729  25.251  28.231  1.00  0.00     0.031 A 
ATOM     25  C   UNL A   1      43.605  31.764  30.627  1.00  0.00     0.031 A 
ATOM     26  C   UNL A   1      44.081  25.592  28.594  1.00  0.00     0.049 A 
ATOM     27  C   UNL A   1      44.759  30.816  30.487  1.00  0.00     0.074 A 
ATOM     28  C   UNL A   1      45.217  24.803  28.525  1.00  0.00     0.029 A 
ATOM     29  N   UNL A   1      44.481  26.825  29.084  1.00  0.00    -0.354 N 
ATOM     30  N   UNL A   1      44.756  29.578  30.055  1.00  0.00    -0.248 NA
ATOM     31  C   UNL A   1      46.081  31.321  30.878  1.00  0.00     0.031 C 
ATOM     32  C   UNL A   1      46.301  25.552  29.002  1.00  0.00     0.029 A 
ATOM     33  C   UNL A   1      45.845  26.818  29.328  1.00  0.00     0.049 A 
ATOM     34  H   UNL A   1      43.885  27.593  29.236  1.00  0.00     0.167 HD
ATOM     35  C   UNL A   1      46.077  29.155  30.124  1.00  0.00     0.074 A 
ATOM     36  C   UNL A   1      46.854  30.278  30.607  1.00  0.00     0.031 C 
ATOM     37  C   UNL A   1      46.599  27.941  29.823  1.00  0.00     0.031 A 
BRANCH  24  38
ATOM     38  C   UNL A   1      42.463  23.864  27.709  1.00  0.00    -0.014 A 
ATOM     39  C   UNL A   1      42.598  23.569  26.341  1.00  0.00     0.010 A 
ATOM     40  C   UNL A   1      42.126  22.830  28.602  1.00  0.00     0.010 A 
ATOM     41  C   UNL A   1      42.371  22.273  25.870  1.00  0.00     0.020 A 
ATOM     42  C   UNL A   1      41.917  21.528  28.137  1.00  0.00     0.020 A 
ATOM     43  C   UNL A   1      42.025  21.262  26.771  1.00  0.00     0.054 A 
BRANCH  43  44
ATOM     44  S   UNL A   1      41.756  19.581  26.139  1.00  0.00     0.124 S 
ATOM     45  O   UNL A   1      42.657  19.545  24.991  1.00  0.00    -0.237 OA
ATOM     46  O   UNL A   1      42.149  18.744  27.270  1.00  0.00    -0.237 OA
ATOM     47  O   UNL A   1      40.332  19.556  25.816  1.00  0.00    -0.744 OA
ENDBRANCH  43  44
ENDBRANCH  24  38
BRANCH  25  48
ATOM     48  C   UNL A   1      43.801  33.144  31.142  1.00  0.00    -0.014 A 
ATOM     49  C   UNL A   1      44.098  34.202  30.266  1.00  0.00     0.010 A 
ATOM     50  C   UNL A   1      43.660  33.408  32.516  1.00  0.00     0.010 A 
ATOM     51  C   UNL A   1      44.264  35.499  30.759  1.00  0.00     0.020 A 
ATOM     52  C   UNL A   1      43.799  34.707  33.008  1.00  0.00     0.020 A 
ATOM     53  C   UNL A   1      44.114  35.744  32.127  1.00  0.00     0.054 A 
BRANCH  53  54
ATOM     54  S   UNL A   1      44.270  37.441  32.748  1.00  0.00     0.124 S 
ATOM     55  O   UNL A   1      43.394  37.416  33.915  1.00  0.00    -0.237 OA
ATOM     56  O   UNL A   1      45.699  37.551  33.032  1.00  0.00    -0.237 OA
ATOM     57  O   UNL A   1      43.802  38.254  31.628  1.00  0.00    -0.744 OA
ENDBRANCH  53  54
ENDBRANCH  25  48
BRANCH  37  58
ATOM     58  C   UNL A   1      48.081  27.776  30.007  1.00  0.00    -0.014 A 
ATOM     59  C   UNL A   1      48.605  27.261  31.206  1.00  0.00     0.010 A 
ATOM     60  C   UNL A   1      48.959  28.127  28.965  1.00  0.00     0.010 A 
ATOM     61  C   UNL A   1      49.985  27.137  31.377  1.00  0.00     0.020 A 
ATOM     62  C   UNL A   1      50.339  27.986  29.126  1.00  0.00     0.020 A 
ATOM     63  C   UNL A   1      50.845  27.509  30.338  1.00  0.00     0.054 A 
BRANCH  63  64
ATOM     64  S   UNL A   1      52.634  27.327  30.572  1.00  0.00     0.124 S 
ATOM     65  O   UNL A   1      53.120  28.666  30.250  1.00  0.00    -0.237 OA
ATOM     66  O   UNL A   1      52.742  26.941  31.977  1.00  0.00    -0.237 OA
ATOM     67  O   UNL A   1      53.000  26.283  29.617  1.00  0.00    -0.744 OA
ENDBRANCH  63  64
ENDBRANCH  37  58
ENDBRANCH  11  12
ENDBRANCH   4   6
ENDBRANCH   1   2
BRANCH   1  68
ATOM     68  C   UNL A   1      33.830  28.052  25.649  1.00  0.00     0.023 C 
BRANCH  68  69
ATOM     69  C   UNL A   1      33.389  29.192  24.732  1.00  0.00     0.023 C 
BRANCH  69  70
ATOM     70  C   UNL A   1      33.443  28.891  23.238  1.00  0.00     0.116 C 
BRANCH  70  71
ATOM     71  N   UNL A   1      32.163  29.083  22.569  1.00  0.00    -0.352 N 
ATOM     72  C   UNL A   1      31.061  28.271  22.545  1.00  0.00     0.258 C 
ATOM     73  H   UNL A   1      32.078  29.920  22.058  1.00  0.00     0.163 HD
ATOM     74  O   UNL A   1      30.074  28.548  21.876  1.00  0.00    -0.269 OA
BRANCH  72  75
ATOM     75  C   UNL A   1      31.086  27.005  23.292  1.00  0.00     0.119 A 
ATOM     76  C   UNL A   1      30.461  27.040  24.561  1.00  0.00     0.052 A 
ATOM     77  C   UNL A   1      31.661  25.818  22.731  1.00  0.00     0.282 A 
ATOM     78  C   UNL A   1      30.399  25.784  25.183  1.00  0.00     0.093 A 
ATOM     79  C   UNL A   1      31.614  24.537  23.329  1.00  0.00     0.098 A 
ATOM     80  N   UNL A   1      29.856  25.429  26.356  1.00  0.00    -0.176 NA
ATOM     81  C   UNL A   1      30.958  24.612  24.551  1.00  0.00     0.026 A 
ATOM     82  N   UNL A   1      30.055  24.101  26.447  1.00  0.00    -0.285 N 
ATOM     83  C   UNL A   1      30.713  23.556  25.381  1.00  0.00     0.114 A 
ATOM     84  H   UNL A   1      29.751  23.567  27.217  1.00  0.00     0.189 HD
BRANCH  77  85
ATOM     85  N   UNL A   1      32.329  25.901  21.444  1.00  0.00     0.063 N 
ATOM     86  O   UNL A   1      31.602  25.909  20.442  1.00  0.00    -0.258 OA
ATOM     87  O   UNL A   1      33.565  25.912  21.442  1.00  0.00    -0.258 OA
ENDBRANCH  77  85
ENDBRANCH  72  75
ENDBRANCH  70  71
ENDBRANCH  69  70
ENDBRANCH  68  69
ENDBRANCH   1  68
TORSDOF 15
ENDMDL
MODEL 3
REMARK VINA RESULT:     -10.8      3.253      6.182
REMARK SMILES O=C(NCCCCNC(=O)c1cc2n[nH]cc2cc1[N+](=O)[O-])c1ccc(-c2c3nc(c(-c4ccc(S(=O)(=O)[O-])cc4)c4ccc([nH]4)c(-c4ccc(S(=O)(=O)[O-])cc4)c4nc(c(-c5ccc(S(=O)(=O)[O-])cc5)c5ccc2[nH]5)C=C4)C=C3)cc1
REMARK SMILES IDX 4 1 3 2 1 3 2 4 23 6 24 7 82 8 25 9 81 10 26 11 27 12 28 13
REMARK SMILES IDX 75 14 29 15 80 16 74 17 76 18 30 19 79 20 73 21 72 22 31 24
REMARK SMILES IDX 61 25 42 26 60 27 43 28 46 29 59 30 77 31 44 32 45 33 58 35
REMARK SMILES IDX 78 36 47 37 32 38 33 39 41 40 34 41 40 42 35 43 36 44 37 45
REMARK SMILES IDX 38 46 39 47 62 48 63 49 71 50 64 51 70 52 65 53 66 54 67 55
REMARK SMILES IDX 68 56 69 57 48 58 49 59 57 60 50 61 56 62 51 63 52 64 53 65
REMARK SMILES IDX 54 66 55 67 5 68 6 69 7 70 8 71 9 72 10 74 11 75 12 76 19 77
REMARK SMILES IDX 13 78 18 79 14 80 17 81 15 82 16 83 20 85 21 86 22 87
REMARK H PARENT 3 5 76 23 46 34 8 73 15 84
REMARK Flexibility Score: inf
ROOT
ATOM      1  C   UNL A   1      34.738  32.878  28.080  1.00  0.00     0.116 C 
ENDROOT
BRANCH   1   2
ATOM      2  N   UNL A   1      33.880  31.723  27.869  1.00  0.00    -0.352 N 
ATOM      3  O   UNL A   1      33.359  29.564  27.484  1.00  0.00    -0.269 OA
ATOM      4  C   UNL A   1      34.213  30.390  27.791  1.00  0.00     0.251 C 
ATOM      5  H   UNL A   1      32.921  31.924  27.769  1.00  0.00     0.163 HD
BRANCH   4   6
ATOM      6  C   UNL A   1      35.608  29.960  28.040  1.00  0.00     0.039 A 
ATOM      7  C   UNL A   1      35.996  29.486  29.293  1.00  0.00     0.014 A 
ATOM      8  C   UNL A   1      36.543  30.042  27.004  1.00  0.00     0.014 A 
ATOM      9  C   UNL A   1      37.342  29.251  29.556  1.00  0.00     0.010 A 
ATOM     10  C   UNL A   1      37.884  29.722  27.246  1.00  0.00     0.010 A 
ATOM     11  C   UNL A   1      38.302  29.363  28.535  1.00  0.00    -0.014 A 
BRANCH  11  12
ATOM     12  C   UNL A   1      39.723  29.061  28.848  1.00  0.00     0.031 A 
ATOM     13  C   UNL A   1      40.590  30.046  29.586  1.00  0.00     0.074 A 
ATOM     14  C   UNL A   1      40.214  27.851  28.512  1.00  0.00     0.049 A 
ATOM     15  N   UNL A   1      41.825  29.903  30.000  1.00  0.00    -0.248 NA
ATOM     16  C   UNL A   1      40.003  31.358  29.900  1.00  0.00     0.031 C 
ATOM     17  C   UNL A   1      39.478  26.817  27.779  1.00  0.00     0.029 A 
ATOM     18  N   UNL A   1      41.430  27.273  28.769  1.00  0.00    -0.354 N 
ATOM     19  C   UNL A   1      42.168  31.104  30.608  1.00  0.00     0.074 A 
ATOM     20  C   UNL A   1      41.018  31.977  30.489  1.00  0.00     0.031 C 
ATOM     21  C   UNL A   1      40.233  25.712  27.699  1.00  0.00     0.029 A 
ATOM     22  C   UNL A   1      41.523  25.975  28.327  1.00  0.00     0.049 A 
ATOM     23  H   UNL A   1      42.165  27.741  29.226  1.00  0.00     0.167 HD
ATOM     24  C   UNL A   1      43.329  31.448  31.217  1.00  0.00     0.031 A 
ATOM     25  C   UNL A   1      42.532  25.088  28.415  1.00  0.00     0.031 A 
ATOM     26  C   UNL A   1      44.472  30.580  31.336  1.00  0.00     0.049 A 
ATOM     27  C   UNL A   1      43.802  25.490  29.105  1.00  0.00     0.074 A 
ATOM     28  C   UNL A   1      45.695  30.842  31.931  1.00  0.00     0.029 A 
ATOM     29  N   UNL A   1      44.532  29.280  30.859  1.00  0.00    -0.354 N 
ATOM     30  N   UNL A   1      44.100  26.632  29.677  1.00  0.00    -0.248 NA
ATOM     31  C   UNL A   1      44.869  24.484  29.164  1.00  0.00     0.031 C 
ATOM     32  C   UNL A   1      46.505  29.708  31.788  1.00  0.00     0.029 A 
ATOM     33  C   UNL A   1      45.772  28.728  31.140  1.00  0.00     0.049 A 
ATOM     34  H   UNL A   1      43.802  28.817  30.389  1.00  0.00     0.167 HD
ATOM     35  C   UNL A   1      45.392  26.482  30.162  1.00  0.00     0.074 A 
ATOM     36  C   UNL A   1      45.806  25.129  29.847  1.00  0.00     0.031 C 
ATOM     37  C   UNL A   1      46.171  27.386  30.805  1.00  0.00     0.031 A 
BRANCH  24  38
ATOM     38  C   UNL A   1      43.427  32.835  31.795  1.00  0.00    -0.014 A 
ATOM     39  C   UNL A   1      43.009  33.100  33.111  1.00  0.00     0.010 A 
ATOM     40  C   UNL A   1      43.993  33.874  31.034  1.00  0.00     0.010 A 
ATOM     41  C   UNL A   1      43.125  34.385  33.645  1.00  0.00     0.020 A 
ATOM     42  C   UNL A   1      44.130  35.157  31.572  1.00  0.00     0.020 A 
ATOM     43  C   UNL A   1      43.680  35.408  32.870  1.00  0.00     0.054 A 
BRANCH  43  44
ATOM     44  S   UNL A   1      43.841  37.065  33.594  1.00  0.00     0.124 S 
ATOM     45  O   UNL A   1      45.134  36.973  34.267  1.00  0.00    -0.237 OA
ATOM     46  O   UNL A   1      43.807  37.935  32.421  1.00  0.00    -0.237 OA
ATOM     47  O   UNL A   1      42.683  37.172  34.477  1.00  0.00    -0.744 OA
ENDBRANCH  43  44
ENDBRANCH  24  38
BRANCH  25  48
ATOM     48  C   UNL A   1      42.376  23.736  27.819  1.00  0.00    -0.014 A 
ATOM     49  C   UNL A   1      42.736  23.494  26.482  1.00  0.00     0.010 A 
ATOM     50  C   UNL A   1      41.891  22.675  28.604  1.00  0.00     0.010 A 
ATOM     51  C   UNL A   1      42.600  22.214  25.937  1.00  0.00     0.020 A 
ATOM     52  C   UNL A   1      41.780  21.390  28.070  1.00  0.00     0.020 A 
ATOM     53  C   UNL A   1      42.123  21.170  26.734  1.00  0.00     0.054 A 
BRANCH  53  54
ATOM     54  S   UNL A   1      42.010  19.500  26.034  1.00  0.00     0.124 S 
ATOM     55  O   UNL A   1      40.573  19.361  25.818  1.00  0.00    -0.237 OA
ATOM     56  O   UNL A   1      42.826  19.601  24.827  1.00  0.00    -0.237 OA
ATOM     57  O   UNL A   1      42.571  18.655  27.085  1.00  0.00    -0.744 OA
ENDBRANCH  53  54
ENDBRANCH  25  48
BRANCH  37  58
ATOM     58  C   UNL A   1      47.545  26.932  31.208  1.00  0.00    -0.014 A 
ATOM     59  C   UNL A   1      48.648  27.133  30.359  1.00  0.00     0.010 A 
ATOM     60  C   UNL A   1      47.739  26.309  32.454  1.00  0.00     0.010 A 
ATOM     61  C   UNL A   1      49.916  26.683  30.732  1.00  0.00     0.020 A 
ATOM     62  C   UNL A   1      49.009  25.874  32.838  1.00  0.00     0.020 A 
ATOM     63  C   UNL A   1      50.087  26.048  31.966  1.00  0.00     0.054 A 
BRANCH  63  64
ATOM     64  S   UNL A   1      51.745  25.484  32.440  1.00  0.00     0.124 S 
ATOM     65  O   UNL A   1      52.066  26.382  33.545  1.00  0.00    -0.237 OA
ATOM     66  O   UNL A   1      51.521  24.088  32.809  1.00  0.00    -0.237 OA
ATOM     67  O   UNL A   1      52.534  25.679  31.225  1.00  0.00    -0.744 OA
ENDBRANCH  63  64
ENDBRANCH  37  58
ENDBRANCH  11  12
ENDBRANCH   4   6
ENDBRANCH   1   2
BRANCH   1  68
ATOM     68  C   UNL A   1      34.725  33.384  29.518  1.00  0.00     0.023 C 
BRANCH  68  69
ATOM     69  C   UNL A   1      35.667  32.667  30.483  1.00  0.00     0.023 C 
BRANCH  69  70
ATOM     70  C   UNL A   1      36.594  33.570  31.290  1.00  0.00     0.116 C 
BRANCH  70  71
ATOM     71  N   UNL A   1      36.163  33.747  32.670  1.00  0.00    -0.352 N 
ATOM     72  C   UNL A   1      36.502  33.034  33.788  1.00  0.00     0.258 C 
ATOM     73  H   UNL A   1      35.535  34.490  32.821  1.00  0.00     0.163 HD
ATOM     74  O   UNL A   1      35.998  33.272  34.879  1.00  0.00    -0.269 OA
BRANCH  72  75
ATOM     75  C   UNL A   1      37.447  31.915  33.667  1.00  0.00     0.119 A 
ATOM     76  C   UNL A   1      36.859  30.650  33.426  1.00  0.00     0.052 A 
ATOM     77  C   UNL A   1      38.863  32.122  33.737  1.00  0.00     0.282 A 
ATOM     78  C   UNL A   1      37.800  29.636  33.194  1.00  0.00     0.093 A 
ATOM     79  C   UNL A   1      39.839  31.123  33.506  1.00  0.00     0.098 A 
ATOM     80  N   UNL A   1      37.616  28.341  32.899  1.00  0.00    -0.176 NA
ATOM     81  C   UNL A   1      39.217  29.912  33.235  1.00  0.00     0.026 A 
ATOM     82  N   UNL A   1      38.855  27.836  32.752  1.00  0.00    -0.285 N 
ATOM     83  C   UNL A   1      39.859  28.744  32.940  1.00  0.00     0.114 A 
ATOM     84  H   UNL A   1      39.023  26.892  32.527  1.00  0.00     0.189 HD
BRANCH  77  85
ATOM     85  N   UNL A   1      39.365  33.450  34.045  1.00  0.00     0.063 N 
ATOM     86  O   UNL A   1      39.427  33.753  35.244  1.00  0.00    -0.258 OA
ATOM     87  O   UNL A   1      39.650  34.188  33.096  1.00  0.00    -0.258 OA
ENDBRANCH  77  85
ENDBRANCH  72  75
ENDBRANCH  70  71
ENDBRANCH  69  70
ENDBRANCH  68  69
ENDBRANCH   1  68
TORSDOF 15
ENDMDL
