MODEL 1
REMARK VINA RESULT:     -11.6      0.000      0.000
REMARK SMILES NC(=O)c1ccc(NC(=O)Cc2ccccc2C(=O)NCCCCNC(=O)c2ccc(-c3c4nc(c(-c5ccc(S(=O)(=O)[O-])cc5)c5ccc([nH]5)c(-c5ccc(S(=O)(=O)[O-])cc5)c5nc(c(-c6ccc(S(=O)(=O)[O-])cc6)c6ccc3[nH]6)C=C5)C=C4)cc2)cc1
REMARK SMILES IDX 22 1 21 2 20 3 18 4 19 5 17 7 12 8 13 9 14 10 16 11 15 12
REMARK SMILES IDX 11 13 9 14 8 15 10 17 7 18 4 19 5 20 89 21 6 22 88 23 2 24
REMARK SMILES IDX 1 25 3 28 23 29 24 30 25 31 26 32 27 34 28 35 29 36 87 37
REMARK SMILES IDX 30 38 86 39 31 40 32 41 33 42 80 43 34 44 85 45 79 46 81 47
REMARK SMILES IDX 35 48 84 49 78 50 77 51 36 53 66 54 47 55 65 56 48 57 51 58
REMARK SMILES IDX 64 59 82 60 49 61 50 62 63 64 83 65 52 66 37 67 38 68 46 69
REMARK SMILES IDX 39 70 45 71 40 72 41 73 42 74 43 75 44 76 67 77 68 78 76 79
REMARK SMILES IDX 69 80 75 81 70 82 71 83 72 84 73 85 74 86 53 87 54 88 62 89
REMARK SMILES IDX 55 90 61 91 56 92 57 93 58 94 59 95 60 96
REMARK H PARENT 20 6 8 16 1 26 1 27 25 33 81 52 51 63
REMARK Flexibility Score: inf
ROOT
ATOM      1  C   UNL A   1      31.521  27.247  26.544  1.00  0.00     0.023 C 
ENDROOT
BRANCH   1   2
ATOM      2  C   UNL A   1      32.351  25.957  26.609  1.00  0.00     0.116 C 
BRANCH   2   3
ATOM      3  N   UNL A   1      31.493  24.840  26.980  1.00  0.00    -0.352 N 
ATOM      4  C   UNL A   1      31.036  23.640  26.514  1.00  0.00     0.251 C 
ATOM      5  O   UNL A   1      30.159  23.152  27.242  1.00  0.00    -0.269 OA
ATOM      6  H   UNL A   1      31.111  25.007  27.871  1.00  0.00     0.163 HD
BRANCH   4   7
ATOM      7  C   UNL A   1      31.483  22.801  25.337  1.00  0.00     0.043 A 
ATOM      8  C   UNL A   1      31.468  23.041  23.942  1.00  0.00    -0.026 A 
ATOM      9  C   UNL A   1      31.888  22.013  23.056  1.00  0.00     0.005 A 
ATOM     10  C   UNL A   1      32.381  20.798  23.515  1.00  0.00     0.000 A 
ATOM     11  C   UNL A   1      32.033  21.562  25.762  1.00  0.00     0.014 A 
ATOM     12  C   UNL A   1      32.478  20.580  24.875  1.00  0.00     0.001 A 
BRANCH   8  13
ATOM     13  C   UNL A   1      30.990  24.287  23.262  1.00  0.00     0.136 C 
BRANCH  13  14
ATOM     14  C   UNL A   1      32.018  25.313  22.784  1.00  0.00     0.228 C 
ATOM     15  N   UNL A   1      33.369  25.325  22.954  1.00  0.00    -0.326 N 
ATOM     16  H   UNL A   1      33.761  26.147  22.580  1.00  0.00     0.169 HD
ATOM     17  O   UNL A   1      31.578  26.315  22.190  1.00  0.00    -0.274 OA
BRANCH  15  18
ATOM     18  C   UNL A   1      34.368  24.503  23.508  1.00  0.00     0.041 A 
ATOM     19  C   UNL A   1      36.426  22.982  24.725  1.00  0.00     0.039 A 
ATOM     20  C   UNL A   1      36.046  22.736  23.414  1.00  0.00     0.016 A 
ATOM     21  C   UNL A   1      35.768  23.976  25.451  1.00  0.00     0.016 A 
ATOM     22  C   UNL A   1      35.013  23.481  22.841  1.00  0.00     0.027 A 
ATOM     23  C   UNL A   1      34.749  24.733  24.839  1.00  0.00     0.027 A 
BRANCH  19  24
ATOM     24  C   UNL A   1      37.535  22.170  25.275  1.00  0.00     0.248 C 
ATOM     25  N   UNL A   1      38.590  22.847  25.808  1.00  0.00    -0.366 N 
ATOM     26  H   UNL A   1      39.353  22.352  26.187  1.00  0.00     0.159 HD
ATOM     27  H   UNL A   1      38.591  23.832  25.813  1.00  0.00     0.159 HD
ATOM     28  O   UNL A   1      37.479  20.947  25.298  1.00  0.00    -0.270 OA
ENDBRANCH  19  24
ENDBRANCH  15  18
ENDBRANCH  13  14
ENDBRANCH   8  13
ENDBRANCH   4   7
ENDBRANCH   2   3
ENDBRANCH   1   2
BRANCH   1  29
ATOM     29  C   UNL A   1      32.347  28.478  26.190  1.00  0.00     0.023 C 
BRANCH  29  30
ATOM     30  C   UNL A   1      33.454  28.782  27.191  1.00  0.00     0.116 C 
BRANCH  30  31
ATOM     31  N   UNL A   1      33.417  30.154  27.681  1.00  0.00    -0.352 N 
ATOM     32  C   UNL A   1      34.413  30.857  28.323  1.00  0.00     0.251 C 
ATOM     33  H   UNL A   1      32.573  30.640  27.535  1.00  0.00     0.163 HD
ATOM     34  O   UNL A   1      34.201  31.969  28.781  1.00  0.00    -0.269 OA
BRANCH  32  35
ATOM     35  C   UNL A   1      35.735  30.216  28.484  1.00  0.00     0.039 A 
ATOM     36  C   UNL A   1      36.647  30.272  27.429  1.00  0.00     0.014 A 
ATOM     37  C   UNL A   1      36.097  29.651  29.710  1.00  0.00     0.014 A 
ATOM     38  C   UNL A   1      37.957  29.837  27.634  1.00  0.00     0.010 A 
ATOM     39  C   UNL A   1      37.421  29.290  29.934  1.00  0.00     0.010 A 
ATOM     40  C   UNL A   1      38.366  29.388  28.901  1.00  0.00    -0.014 A 
BRANCH  40  41
ATOM     41  C   UNL A   1      39.784  29.041  29.169  1.00  0.00     0.031 A 
ATOM     42  C   UNL A   1      40.706  30.052  29.792  1.00  0.00     0.074 A 
ATOM     43  C   UNL A   1      40.256  27.835  28.793  1.00  0.00     0.049 A 
ATOM     44  N   UNL A   1      41.979  29.941  30.076  1.00  0.00    -0.248 NA
ATOM     45  C   UNL A   1      40.132  31.370  30.109  1.00  0.00     0.031 C 
ATOM     46  C   UNL A   1      39.479  26.790  28.121  1.00  0.00     0.029 A 
ATOM     47  N   UNL A   1      41.508  27.285  28.918  1.00  0.00    -0.354 N 
ATOM     48  C   UNL A   1      42.359  31.174  30.590  1.00  0.00     0.074 A 
ATOM     49  C   UNL A   1      41.199  32.035  30.527  1.00  0.00     0.031 C 
ATOM     50  C   UNL A   1      40.261  25.715  27.927  1.00  0.00     0.029 A 
ATOM     51  C   UNL A   1      41.599  26.002  28.430  1.00  0.00     0.049 A 
ATOM     52  H   UNL A   1      42.268  27.764  29.321  1.00  0.00     0.167 HD
ATOM     53  C   UNL A   1      43.560  31.551  31.091  1.00  0.00     0.031 A 
ATOM     54  C   UNL A   1      42.643  25.151  28.395  1.00  0.00     0.031 A 
ATOM     55  C   UNL A   1      44.707  30.688  31.169  1.00  0.00     0.049 A 
ATOM     56  C   UNL A   1      43.960  25.584  28.979  1.00  0.00     0.074 A 
ATOM     57  C   UNL A   1      45.950  30.954  31.717  1.00  0.00     0.029 A 
ATOM     58  N   UNL A   1      44.754  29.389  30.685  1.00  0.00    -0.354 N 
ATOM     59  N   UNL A   1      44.278  26.731  29.530  1.00  0.00    -0.248 NA
ATOM     60  C   UNL A   1      45.051  24.601  28.951  1.00  0.00     0.031 C 
ATOM     61  C   UNL A   1      46.761  29.828  31.528  1.00  0.00     0.029 A 
ATOM     62  C   UNL A   1      46.008  28.846  30.905  1.00  0.00     0.049 A 
ATOM     63  H   UNL A   1      44.004  28.922  30.248  1.00  0.00     0.167 HD
ATOM     64  C   UNL A   1      45.603  26.601  29.932  1.00  0.00     0.074 A 
ATOM     65  C   UNL A   1      46.017  25.257  29.579  1.00  0.00     0.031 C 
ATOM     66  C   UNL A   1      46.404  27.511  30.538  1.00  0.00     0.031 A 
BRANCH  53  67
ATOM     67  C   UNL A   1      43.684  32.963  31.596  1.00  0.00    -0.014 A 
ATOM     68  C   UNL A   1      44.009  34.017  30.724  1.00  0.00     0.010 A 
ATOM     69  C   UNL A   1      43.451  33.246  32.954  1.00  0.00     0.010 A 
ATOM     70  C   UNL A   1      44.148  35.321  31.208  1.00  0.00     0.020 A 
ATOM     71  C   UNL A   1      43.561  34.553  33.437  1.00  0.00     0.020 A 
ATOM     72  C   UNL A   1      43.929  35.579  32.565  1.00  0.00     0.054 A 
BRANCH  72  73
ATOM     73  S   UNL A   1      44.106  37.281  33.165  1.00  0.00     0.124 S 
ATOM     74  O   UNL A   1      42.861  37.469  33.906  1.00  0.00    -0.237 OA
ATOM     75  O   UNL A   1      45.317  37.212  33.979  1.00  0.00    -0.237 OA
ATOM     76  O   UNL A   1      44.226  38.069  31.940  1.00  0.00    -0.744 OA
ENDBRANCH  72  73
ENDBRANCH  53  67
BRANCH  54  77
ATOM     77  C   UNL A   1      42.475  23.791  27.815  1.00  0.00    -0.014 A 
ATOM     78  C   UNL A   1      42.230  22.688  28.651  1.00  0.00     0.010 A 
ATOM     79  C   UNL A   1      42.545  23.595  26.424  1.00  0.00     0.010 A 
ATOM     80  C   UNL A   1      42.075  21.408  28.108  1.00  0.00     0.020 A 
ATOM     81  C   UNL A   1      42.368  22.321  25.876  1.00  0.00     0.020 A 
ATOM     82  C   UNL A   1      42.145  21.234  26.724  1.00  0.00     0.054 A 
BRANCH  82  83
ATOM     83  S   UNL A   1      41.887  19.574  26.036  1.00  0.00     0.124 S 
ATOM     84  O   UNL A   1      42.768  19.587  24.874  1.00  0.00    -0.237 OA
ATOM     85  O   UNL A   1      42.300  18.707  27.137  1.00  0.00    -0.237 OA
ATOM     86  O   UNL A   1      40.456  19.549  25.739  1.00  0.00    -0.744 OA
ENDBRANCH  82  83
ENDBRANCH  54  77
BRANCH  66  87
ATOM     87  C   UNL A   1      47.805  27.075  30.875  1.00  0.00    -0.014 A 
ATOM     88  C   UNL A   1      48.050  26.151  31.905  1.00  0.00     0.010 A 
ATOM     89  C   UNL A   1      48.887  27.571  30.124  1.00  0.00     0.010 A 
ATOM     90  C   UNL A   1      49.356  25.758  32.204  1.00  0.00     0.020 A 
ATOM     91  C   UNL A   1      50.192  27.160  30.402  1.00  0.00     0.020 A 
ATOM     92  C   UNL A   1      50.420  26.269  31.454  1.00  0.00     0.054 A 
BRANCH  92  93
ATOM     93  S   UNL A   1      52.106  25.723  31.841  1.00  0.00     0.124 S 
ATOM     94  O   UNL A   1      52.776  25.872  30.552  1.00  0.00    -0.237 OA
ATOM     95  O   UNL A   1      52.521  26.666  32.878  1.00  0.00    -0.237 OA
ATOM     96  O   UNL A   1      51.927  24.346  32.296  1.00  0.00    -0.744 OA
ENDBRANCH  92  93
ENDBRANCH  66  87
ENDBRANCH  40  41
ENDBRANCH  32  35
ENDBRANCH  30  31
ENDBRANCH  29  30
ENDBRANCH   1  29
TORSDOF 18
ENDMDL
MODEL 2
REMARK VINA RESULT:     -11.4      2.468      3.064
REMARK SMILES NC(=O)c1ccc(NC(=O)Cc2ccccc2C(=O)NCCCCNC(=O)c2ccc(-c3c4nc(c(-c5ccc(S(=O)(=O)[O-])cc5)c5ccc([nH]5)c(-c5ccc(S(=O)(=O)[O-])cc5)c5nc(c(-c6ccc(S(=O)(=O)[O-])cc6)c6ccc3[nH]6)C=C5)C=C4)cc2)cc1
REMARK SMILES IDX 22 1 21 2 20 3 18 4 19 5 17 7 12 8 13 9 14 10 16 11 15 12
REMARK SMILES IDX 11 13 9 14 8 15 10 17 7 18 4 19 5 20 89 21 6 22 88 23 2 24
REMARK SMILES IDX 1 25 3 28 23 29 24 30 25 31 26 32 27 34 28 35 29 36 87 37
REMARK SMILES IDX 30 38 86 39 31 40 32 41 33 42 80 43 34 44 85 45 79 46 81 47
REMARK SMILES IDX 35 48 84 49 78 50 77 51 36 53 66 54 47 55 65 56 48 57 51 58
REMARK SMILES IDX 64 59 82 60 49 61 50 62 63 64 83 65 52 66 37 67 38 68 46 69
REMARK SMILES IDX 39 70 45 71 40 72 41 73 42 74 43 75 44 76 67 77 68 78 76 79
REMARK SMILES IDX 69 80 75 81 70 82 71 83 72 84 73 85 74 86 53 87 54 88 62 89
REMARK SMILES IDX 55 90 61 91 56 92 57 93 58 94 59 95 60 96
REMARK H PARENT 20 6 8 16 1 26 1 27 25 33 81 52 51 63
REMARK Flexibility Score: inf
ROOT
ATOM      1  C   UNL A   1      31.765  27.689  26.581  1.00  0.00     0.023 C 
ENDROOT
BRANCH   1   2
ATOM      2  C   UNL A   1      31.162  26.592  25.693  1.00  0.00     0.116 C 
BRANCH   2   3
ATOM      3  N   UNL A   1      30.917  25.396  26.488  1.00  0.00    -0.352 N 
ATOM      4  C   UNL A   1      30.873  24.035  26.388  1.00  0.00     0.251 C 
ATOM      5  O   UNL A   1      30.447  23.499  27.421  1.00  0.00    -0.269 OA
ATOM      6  H   UNL A   1      30.713  25.660  27.414  1.00  0.00     0.163 HD
BRANCH   4   7
ATOM      7  C   UNL A   1      31.332  23.109  25.284  1.00  0.00     0.043 A 
ATOM      8  C   UNL A   1      31.334  23.242  23.874  1.00  0.00    -0.026 A 
ATOM      9  C   UNL A   1      31.763  22.149  23.075  1.00  0.00     0.005 A 
ATOM     10  C   UNL A   1      32.250  20.972  23.631  1.00  0.00     0.000 A 
ATOM     11  C   UNL A   1      31.876  21.906  25.809  1.00  0.00     0.014 A 
ATOM     12  C   UNL A   1      32.330  20.858  25.005  1.00  0.00     0.001 A 
BRANCH   8  13
ATOM     13  C   UNL A   1      30.865  24.432  23.096  1.00  0.00     0.136 C 
BRANCH  13  14
ATOM     14  C   UNL A   1      31.896  25.444  22.595  1.00  0.00     0.228 C 
ATOM     15  N   UNL A   1      33.242  25.480  22.801  1.00  0.00    -0.326 N 
ATOM     16  H   UNL A   1      33.636  26.287  22.397  1.00  0.00     0.169 HD
ATOM     17  O   UNL A   1      31.462  26.410  21.941  1.00  0.00    -0.274 OA
BRANCH  15  18
ATOM     18  C   UNL A   1      34.233  24.697  23.422  1.00  0.00     0.041 A 
ATOM     19  C   UNL A   1      36.270  23.261  24.769  1.00  0.00     0.039 A 
ATOM     20  C   UNL A   1      35.938  22.955  23.458  1.00  0.00     0.016 A 
ATOM     21  C   UNL A   1      35.573  24.273  25.431  1.00  0.00     0.016 A 
ATOM     22  C   UNL A   1      34.915  23.659  22.820  1.00  0.00     0.027 A 
ATOM     23  C   UNL A   1      34.565  24.988  24.754  1.00  0.00     0.027 A 
BRANCH  19  24
ATOM     24  C   UNL A   1      37.371  22.490  25.390  1.00  0.00     0.248 C 
ATOM     25  N   UNL A   1      37.858  22.954  26.575  1.00  0.00    -0.366 N 
ATOM     26  H   UNL A   1      38.591  22.476  27.027  1.00  0.00     0.159 HD
ATOM     27  H   UNL A   1      37.478  23.769  26.977  1.00  0.00     0.159 HD
ATOM     28  O   UNL A   1      37.786  21.454  24.887  1.00  0.00    -0.270 OA
ENDBRANCH  19  24
ENDBRANCH  15  18
ENDBRANCH  13  14
ENDBRANCH   8  13
ENDBRANCH   4   7
ENDBRANCH   2   3
ENDBRANCH   1   2
BRANCH   1  29
ATOM     29  C   UNL A   1      33.285  27.613  26.685  1.00  0.00     0.023 C 
BRANCH  29  30
ATOM     30  C   UNL A   1      34.007  28.716  25.923  1.00  0.00     0.116 C 
BRANCH  30  31
ATOM     31  N   UNL A   1      33.740  30.045  26.458  1.00  0.00    -0.352 N 
ATOM     32  C   UNL A   1      34.441  30.731  27.426  1.00  0.00     0.251 C 
ATOM     33  H   UNL A   1      32.961  30.513  26.079  1.00  0.00     0.163 HD
ATOM     34  O   UNL A   1      34.033  31.798  27.859  1.00  0.00    -0.269 OA
BRANCH  32  35
ATOM     35  C   UNL A   1      35.677  30.124  27.963  1.00  0.00     0.039 A 
ATOM     36  C   UNL A   1      36.885  30.351  27.301  1.00  0.00     0.014 A 
ATOM     37  C   UNL A   1      35.647  29.418  29.169  1.00  0.00     0.014 A 
ATOM     38  C   UNL A   1      38.079  29.941  27.897  1.00  0.00     0.010 A 
ATOM     39  C   UNL A   1      36.841  29.081  29.796  1.00  0.00     0.010 A 
ATOM     40  C   UNL A   1      38.070  29.347  29.170  1.00  0.00    -0.014 A 
BRANCH  40  41
ATOM     41  C   UNL A   1      39.336  29.021  29.872  1.00  0.00     0.031 A 
ATOM     42  C   UNL A   1      39.741  29.790  31.098  1.00  0.00     0.074 A 
ATOM     43  C   UNL A   1      40.152  28.074  29.366  1.00  0.00     0.049 A 
ATOM     44  N   UNL A   1      40.820  29.667  31.828  1.00  0.00    -0.248 NA
ATOM     45  C   UNL A   1      38.830  30.856  31.547  1.00  0.00     0.031 C 
ATOM     46  C   UNL A   1      39.903  27.302  28.145  1.00  0.00     0.029 A 
ATOM     47  N   UNL A   1      41.361  27.602  29.814  1.00  0.00    -0.354 N 
ATOM     48  C   UNL A   1      40.725  30.646  32.810  1.00  0.00     0.074 A 
ATOM     49  C   UNL A   1      39.512  31.389  32.550  1.00  0.00     0.031 C 
ATOM     50  C   UNL A   1      40.908  26.430  27.963  1.00  0.00     0.029 A 
ATOM     51  C   UNL A   1      41.886  26.600  29.032  1.00  0.00     0.049 A 
ATOM     52  H   UNL A   1      41.808  27.948  30.619  1.00  0.00     0.167 HD
ATOM     53  C   UNL A   1      41.560  30.890  33.848  1.00  0.00     0.031 A 
ATOM     54  C   UNL A   1      43.026  25.893  29.163  1.00  0.00     0.031 A 
ATOM     55  C   UNL A   1      42.756  30.138  34.115  1.00  0.00     0.049 A 
ATOM     56  C   UNL A   1      43.924  26.166  30.338  1.00  0.00     0.074 A 
ATOM     57  C   UNL A   1      43.635  30.265  35.177  1.00  0.00     0.029 A 
ATOM     58  N   UNL A   1      43.243  29.116  33.313  1.00  0.00    -0.354 N 
ATOM     59  N   UNL A   1      43.778  27.047  31.299  1.00  0.00    -0.248 NA
ATOM     60  C   UNL A   1      45.132  25.339  30.454  1.00  0.00     0.031 C 
ATOM     61  C   UNL A   1      44.675  29.346  34.995  1.00  0.00     0.029 A 
ATOM     62  C   UNL A   1      44.418  28.615  33.846  1.00  0.00     0.049 A 
ATOM     63  H   UNL A   1      42.815  28.795  32.486  1.00  0.00     0.167 HD
ATOM     64  C   UNL A   1      44.867  26.867  32.145  1.00  0.00     0.074 A 
ATOM     65  C   UNL A   1      45.650  25.780  31.591  1.00  0.00     0.031 C 
ATOM     66  C   UNL A   1      45.189  27.540  33.276  1.00  0.00     0.031 A 
BRANCH  53  67
ATOM     67  C   UNL A   1      41.197  32.021  34.773  1.00  0.00    -0.014 A 
ATOM     68  C   UNL A   1      40.443  31.789  35.938  1.00  0.00     0.010 A 
ATOM     69  C   UNL A   1      41.633  33.327  34.489  1.00  0.00     0.010 A 
ATOM     70  C   UNL A   1      40.089  32.850  36.775  1.00  0.00     0.020 A 
ATOM     71  C   UNL A   1      41.305  34.387  35.339  1.00  0.00     0.020 A 
ATOM     72  C   UNL A   1      40.518  34.145  36.466  1.00  0.00     0.054 A 
BRANCH  72  73
ATOM     73  S   UNL A   1      40.053  35.502  37.575  1.00  0.00     0.124 S 
ATOM     74  O   UNL A   1      39.863  36.605  36.637  1.00  0.00    -0.237 OA
ATOM     75  O   UNL A   1      38.836  34.999  38.208  1.00  0.00    -0.237 OA
ATOM     76  O   UNL A   1      41.205  35.632  38.464  1.00  0.00    -0.744 OA
ENDBRANCH  72  73
ENDBRANCH  53  67
BRANCH  54  77
ATOM     77  C   UNL A   1      43.364  24.835  28.173  1.00  0.00    -0.014 A 
ATOM     78  C   UNL A   1      44.129  25.146  27.035  1.00  0.00     0.010 A 
ATOM     79  C   UNL A   1      42.937  23.510  28.369  1.00  0.00     0.010 A 
ATOM     80  C   UNL A   1      44.446  24.155  26.101  1.00  0.00     0.020 A 
ATOM     81  C   UNL A   1      43.272  22.511  27.450  1.00  0.00     0.020 A 
ATOM     82  C   UNL A   1      44.016  22.843  26.316  1.00  0.00     0.054 A 
BRANCH  82  83
ATOM     83  S   UNL A   1      44.484  21.561  25.120  1.00  0.00     0.124 S 
ATOM     84  O   UNL A   1      43.483  20.531  25.373  1.00  0.00    -0.237 OA
ATOM     85  O   UNL A   1      44.367  22.260  23.843  1.00  0.00    -0.237 OA
ATOM     86  O   UNL A   1      45.850  21.217  25.509  1.00  0.00    -0.744 OA
ENDBRANCH  82  83
ENDBRANCH  54  77
BRANCH  66  87
ATOM     87  C   UNL A   1      46.434  27.106  34.002  1.00  0.00    -0.014 A 
ATOM     88  C   UNL A   1      47.677  27.702  33.731  1.00  0.00     0.010 A 
ATOM     89  C   UNL A   1      46.349  26.111  34.993  1.00  0.00     0.010 A 
ATOM     90  C   UNL A   1      48.822  27.286  34.414  1.00  0.00     0.020 A 
ATOM     91  C   UNL A   1      47.488  25.711  35.697  1.00  0.00     0.020 A 
ATOM     92  C   UNL A   1      48.721  26.288  35.389  1.00  0.00     0.054 A 
BRANCH  92  93
ATOM     93  S   UNL A   1      50.216  25.784  36.282  1.00  0.00     0.124 S 
ATOM     94  O   UNL A   1      49.960  24.367  36.526  1.00  0.00    -0.237 OA
ATOM     95  O   UNL A   1      51.280  26.074  35.323  1.00  0.00    -0.237 OA
ATOM     96  O   UNL A   1      50.211  26.633  37.472  1.00  0.00    -0.744 OA
ENDBRANCH  92  93
ENDBRANCH  66  87
ENDBRANCH  40  41
ENDBRANCH  32  35
ENDBRANCH  30  31
ENDBRANCH  29  30
ENDBRANCH   1  29
TORSDOF 18
ENDMDL
MODEL 3
REMARK VINA RESULT:     -11.2      2.743      9.393
REMARK SMILES NC(=O)c1ccc(NC(=O)Cc2ccccc2C(=O)NCCCCNC(=O)c2ccc(-c3c4nc(c(-c5ccc(S(=O)(=O)[O-])cc5)c5ccc([nH]5)c(-c5ccc(S(=O)(=O)[O-])cc5)c5nc(c(-c6ccc(S(=O)(=O)[O-])cc6)c6ccc3[nH]6)C=C5)C=C4)cc2)cc1
REMARK SMILES IDX 22 1 21 2 20 3 18 4 19 5 17 7 12 8 13 9 14 10 16 11 15 12
REMARK SMILES IDX 11 13 9 14 8 15 10 17 7 18 4 19 5 20 89 21 6 22 88 23 2 24
REMARK SMILES IDX 1 25 3 28 23 29 24 30 25 31 26 32 27 34 28 35 29 36 87 37
REMARK SMILES IDX 30 38 86 39 31 40 32 41 33 42 80 43 34 44 85 45 79 46 81 47
REMARK SMILES IDX 35 48 84 49 78 50 77 51 36 53 66 54 47 55 65 56 48 57 51 58
REMARK SMILES IDX 64 59 82 60 49 61 50 62 63 64 83 65 52 66 37 67 38 68 46 69
REMARK SMILES IDX 39 70 45 71 40 72 41 73 42 74 43 75 44 76 67 77 68 78 76 79
REMARK SMILES IDX 69 80 75 81 70 82 71 83 72 84 73 85 74 86 53 87 54 88 62 89
REMARK SMILES IDX 55 90 61 91 56 92 57 93 58 94 59 95 60 96
REMARK H PARENT 20 6 8 16 1 26 1 27 25 33 81 52 51 63
REMARK Flexibility Score: inf
ROOT
ATOM      1  C   UNL A   1      34.898  23.336  24.566  1.00  0.00     0.023 C 
ENDROOT
BRANCH   1   2
ATOM      2  C   UNL A   1      34.761  24.215  25.818  1.00  0.00     0.116 C 
BRANCH   2   3
ATOM      3  N   UNL A   1      33.351  24.451  26.099  1.00  0.00    -0.352 N 
ATOM      4  C   UNL A   1      32.443  25.460  26.243  1.00  0.00     0.251 C 
ATOM      5  O   UNL A   1      31.344  25.054  26.647  1.00  0.00    -0.269 OA
ATOM      6  H   UNL A   1      32.900  23.587  26.232  1.00  0.00     0.163 HD
BRANCH   4   7
ATOM      7  C   UNL A   1      32.540  26.933  25.912  1.00  0.00     0.043 A 
ATOM      8  C   UNL A   1      33.246  27.634  24.905  1.00  0.00    -0.026 A 
ATOM      9  C   UNL A   1      33.209  29.053  24.890  1.00  0.00     0.005 A 
ATOM     10  C   UNL A   1      32.444  29.782  25.793  1.00  0.00     0.000 A 
ATOM     11  C   UNL A   1      31.740  27.716  26.787  1.00  0.00     0.014 A 
ATOM     12  C   UNL A   1      31.685  29.110  26.731  1.00  0.00     0.001 A 
BRANCH   8  13
ATOM     13  C   UNL A   1      34.107  27.026  23.841  1.00  0.00     0.136 C 
BRANCH  13  14
ATOM     14  C   UNL A   1      33.444  26.451  22.588  1.00  0.00     0.228 C 
ATOM     15  N   UNL A   1      32.188  26.655  22.106  1.00  0.00    -0.326 N 
ATOM     16  H   UNL A   1      32.026  26.104  21.306  1.00  0.00     0.169 HD
ATOM     17  O   UNL A   1      34.113  25.640  21.921  1.00  0.00    -0.274 OA
BRANCH  15  18
ATOM     18  C   UNL A   1      31.053  27.427  22.417  1.00  0.00     0.041 A 
ATOM     19  C   UNL A   1      28.674  28.832  23.048  1.00  0.00     0.039 A 
ATOM     20  C   UNL A   1      29.671  29.432  22.292  1.00  0.00     0.016 A 
ATOM     21  C   UNL A   1      28.863  27.531  23.517  1.00  0.00     0.016 A 
ATOM     22  C   UNL A   1      30.845  28.730  22.013  1.00  0.00     0.027 A 
ATOM     23  C   UNL A   1      30.046  26.834  23.195  1.00  0.00     0.027 A 
BRANCH  19  24
ATOM     24  C   UNL A   1      27.446  29.619  23.302  1.00  0.00     0.248 C 
ATOM     25  N   UNL A   1      27.595  30.966  23.445  1.00  0.00    -0.366 N 
ATOM     26  H   UNL A   1      26.808  31.533  23.615  1.00  0.00     0.159 HD
ATOM     27  H   UNL A   1      28.490  31.372  23.379  1.00  0.00     0.159 HD
ATOM     28  O   UNL A   1      26.343  29.089  23.328  1.00  0.00    -0.270 OA
ENDBRANCH  19  24
ENDBRANCH  15  18
ENDBRANCH  13  14
ENDBRANCH   8  13
ENDBRANCH   4   7
ENDBRANCH   2   3
ENDBRANCH   1   2
BRANCH   1  29
ATOM     29  C   UNL A   1      36.318  22.828  24.338  1.00  0.00     0.023 C 
BRANCH  29  30
ATOM     30  C   UNL A   1      37.356  23.488  25.236  1.00  0.00     0.116 C 
BRANCH  30  31
ATOM     31  N   UNL A   1      38.495  22.624  25.519  1.00  0.00    -0.352 N 
ATOM     32  C   UNL A   1      39.655  22.937  26.194  1.00  0.00     0.251 C 
ATOM     33  H   UNL A   1      38.426  21.700  25.187  1.00  0.00     0.163 HD
ATOM     34  O   UNL A   1      40.578  22.140  26.258  1.00  0.00    -0.269 OA
BRANCH  32  35
ATOM     35  C   UNL A   1      39.776  24.279  26.801  1.00  0.00     0.039 A 
ATOM     36  C   UNL A   1      39.274  24.487  28.087  1.00  0.00     0.014 A 
ATOM     37  C   UNL A   1      40.470  25.292  26.134  1.00  0.00     0.014 A 
ATOM     38  C   UNL A   1      39.547  25.689  28.741  1.00  0.00     0.010 A 
ATOM     39  C   UNL A   1      40.804  26.457  26.816  1.00  0.00     0.010 A 
ATOM     40  C   UNL A   1      40.354  26.664  28.129  1.00  0.00    -0.014 A 
BRANCH  40  41
ATOM     41  C   UNL A   1      40.756  27.892  28.858  1.00  0.00     0.031 A 
ATOM     42  C   UNL A   1      42.114  27.981  29.498  1.00  0.00     0.074 A 
ATOM     43  C   UNL A   1      39.874  28.902  28.998  1.00  0.00     0.049 A 
ATOM     44  N   UNL A   1      42.632  28.959  30.197  1.00  0.00    -0.248 NA
ATOM     45  C   UNL A   1      42.994  26.809  29.360  1.00  0.00     0.031 C 
ATOM     46  C   UNL A   1      38.503  28.910  28.480  1.00  0.00     0.029 A 
ATOM     47  N   UNL A   1      39.997  30.118  29.623  1.00  0.00    -0.354 N 
ATOM     48  C   UNL A   1      43.888  28.515  30.592  1.00  0.00     0.074 A 
ATOM     49  C   UNL A   1      44.031  27.161  30.105  1.00  0.00     0.031 C 
ATOM     50  C   UNL A   1      37.927  30.086  28.777  1.00  0.00     0.029 A 
ATOM     51  C   UNL A   1      38.871  30.903  29.531  1.00  0.00     0.049 A 
ATOM     52  H   UNL A   1      40.815  30.401  30.092  1.00  0.00     0.167 HD
ATOM     53  C   UNL A   1      44.845  29.182  31.281  1.00  0.00     0.031 A 
ATOM     54  C   UNL A   1      38.628  32.143  29.998  1.00  0.00     0.031 A 
ATOM     55  C   UNL A   1      44.707  30.534  31.750  1.00  0.00     0.049 A 
ATOM     56  C   UNL A   1      39.716  32.872  30.739  1.00  0.00     0.074 A 
ATOM     57  C   UNL A   1      45.642  31.320  32.400  1.00  0.00     0.029 A 
ATOM     58  N   UNL A   1      43.560  31.303  31.617  1.00  0.00    -0.354 N 
ATOM     59  N   UNL A   1      40.925  32.462  31.038  1.00  0.00    -0.248 NA
ATOM     60  C   UNL A   1      39.410  34.236  31.189  1.00  0.00     0.031 C 
ATOM     61  C   UNL A   1      45.047  32.551  32.698  1.00  0.00     0.029 A 
ATOM     62  C   UNL A   1      43.758  32.548  32.189  1.00  0.00     0.049 A 
ATOM     63  H   UNL A   1      42.729  31.007  31.181  1.00  0.00     0.167 HD
ATOM     64  C   UNL A   1      41.532  33.525  31.697  1.00  0.00     0.074 A 
ATOM     65  C   UNL A   1      40.562  34.602  31.732  1.00  0.00     0.031 C 
ATOM     66  C   UNL A   1      42.778  33.604  32.224  1.00  0.00     0.031 A 
BRANCH  53  67
ATOM     67  C   UNL A   1      46.129  28.448  31.562  1.00  0.00    -0.014 A 
ATOM     68  C   UNL A   1      47.225  28.547  30.687  1.00  0.00     0.010 A 
ATOM     69  C   UNL A   1      46.251  27.669  32.726  1.00  0.00     0.010 A 
ATOM     70  C   UNL A   1      48.403  27.840  30.943  1.00  0.00     0.020 A 
ATOM     71  C   UNL A   1      47.437  26.982  33.001  1.00  0.00     0.020 A 
ATOM     72  C   UNL A   1      48.499  27.056  32.097  1.00  0.00     0.054 A 
BRANCH  72  73
ATOM     73  S   UNL A   1      50.042  26.157  32.412  1.00  0.00     0.124 S 
ATOM     74  O   UNL A   1      50.103  26.166  33.871  1.00  0.00    -0.237 OA
ATOM     75  O   UNL A   1      49.787  24.855  31.802  1.00  0.00    -0.237 OA
ATOM     76  O   UNL A   1      51.056  26.968  31.742  1.00  0.00    -0.744 OA
ENDBRANCH  72  73
ENDBRANCH  53  67
BRANCH  54  77
ATOM     77  C   UNL A   1      37.310  32.787  29.749  1.00  0.00    -0.014 A 
ATOM     78  C   UNL A   1      36.302  32.743  30.727  1.00  0.00     0.010 A 
ATOM     79  C   UNL A   1      37.062  33.460  28.539  1.00  0.00     0.010 A 
ATOM     80  C   UNL A   1      35.061  33.345  30.494  1.00  0.00     0.020 A 
ATOM     81  C   UNL A   1      35.831  34.084  28.312  1.00  0.00     0.020 A 
ATOM     82  C   UNL A   1      34.835  34.012  29.287  1.00  0.00     0.054 A 
BRANCH  82  83
ATOM     83  S   UNL A   1      33.238  34.834  29.027  1.00  0.00     0.124 S 
ATOM     84  O   UNL A   1      32.620  34.720  30.343  1.00  0.00    -0.237 OA
ATOM     85  O   UNL A   1      33.636  36.181  28.627  1.00  0.00    -0.237 OA
ATOM     86  O   UNL A   1      32.615  34.038  27.971  1.00  0.00    -0.744 OA
ENDBRANCH  82  83
ENDBRANCH  54  77
BRANCH  66  87
ATOM     87  C   UNL A   1      43.169  34.906  32.868  1.00  0.00    -0.014 A 
ATOM     88  C   UNL A   1      43.735  35.948  32.114  1.00  0.00     0.010 A 
ATOM     89  C   UNL A   1      42.934  35.101  34.241  1.00  0.00     0.010 A 
ATOM     90  C   UNL A   1      44.092  37.150  32.728  1.00  0.00     0.020 A 
ATOM     91  C   UNL A   1      43.265  36.311  34.854  1.00  0.00     0.020 A 
ATOM     92  C   UNL A   1      43.860  37.323  34.096  1.00  0.00     0.054 A 
BRANCH  92  93
ATOM     93  S   UNL A   1      44.306  38.902  34.868  1.00  0.00     0.124 S 
ATOM     94  O   UNL A   1      45.716  39.027  34.509  1.00  0.00    -0.237 OA
ATOM     95  O   UNL A   1      43.404  39.847  34.213  1.00  0.00    -0.237 OA
ATOM     96  O   UNL A   1      44.041  38.680  36.288  1.00  0.00    -0.744 OA
ENDBRANCH  92  93
ENDBRANCH  66  87
ENDBRANCH  40  41
ENDBRANCH  32  35
ENDBRANCH  30  31
ENDBRANCH  29  30
ENDBRANCH   1  29
TORSDOF 18
ENDMDL
