MODEL 1
REMARK VINA RESULT:     -12.1      0.000      0.000
REMARK SMILES O=C(NCCCCNC(=O)[C@H]1[C@@H](C(=O)Nc2ccccc2-c2ccccc2)[C@@H]2C=C[C@H]1O2)c1ccc(-c2c3nc(c(-c4ccc(S(=O)(=O)[O-])cc4)c4ccc([nH]4)c(-c4ccc(S(=O)(=O)[O-])cc4)c4nc(c(-c5ccc(S(=O)(=O)[O-])cc5)c5ccc2[nH]5)C=C4)C=C3)cc1
REMARK SMILES IDX 5 1 4 2 3 3 1 4 2 5 33 7 34 8 92 9 35 10 91 11 36 12 37 13
REMARK SMILES IDX 38 14 85 15 39 16 90 17 84 18 86 19 40 20 89 21 83 22 82 23
REMARK SMILES IDX 41 25 71 26 52 27 70 28 53 29 56 30 69 31 87 32 54 33 55 34
REMARK SMILES IDX 68 36 88 37 57 38 42 39 43 40 51 41 44 42 50 43 45 44 46 45
REMARK SMILES IDX 47 46 48 47 49 48 72 49 73 50 81 51 74 52 80 53 75 54 76 55
REMARK SMILES IDX 77 56 78 57 79 58 58 59 59 60 67 61 60 62 66 63 61 64 62 65
REMARK SMILES IDX 63 66 64 67 65 68 6 69 7 70 8 71 9 72 10 74 11 75 12 76
REMARK SMILES IDX 31 77 28 78 30 79 32 80 29 81 13 82 14 83 15 84 16 86 17 87
REMARK SMILES IDX 21 88 18 89 20 90 19 91 22 92 23 93 27 94 24 95 26 96 25 97
REMARK H PARENT 3 6 86 24 56 35 8 73 15 85
REMARK Flexibility Score: inf
ROOT
ATOM      1  C   UNL A   1      33.260  27.703  25.295  1.00  0.00     0.023 C 
ENDROOT
BRANCH   1   2
ATOM      2  C   UNL A   1      34.118  28.236  26.431  1.00  0.00     0.116 C 
BRANCH   2   3
ATOM      3  N   UNL A   1      33.721  29.574  26.840  1.00  0.00    -0.352 N 
ATOM      4  O   UNL A   1      33.801  31.455  28.077  1.00  0.00    -0.269 OA
ATOM      5  C   UNL A   1      34.365  30.442  27.687  1.00  0.00     0.251 C 
ATOM      6  H   UNL A   1      32.876  29.901  26.457  1.00  0.00     0.163 HD
BRANCH   5   7
ATOM      7  C   UNL A   1      35.736  30.122  28.132  1.00  0.00     0.039 A 
ATOM      8  C   UNL A   1      36.817  30.283  27.260  1.00  0.00     0.014 A 
ATOM      9  C   UNL A   1      35.931  29.641  29.427  1.00  0.00     0.014 A 
ATOM     10  C   UNL A   1      38.080  29.848  27.640  1.00  0.00     0.010 A 
ATOM     11  C   UNL A   1      37.215  29.280  29.834  1.00  0.00     0.010 A 
ATOM     12  C   UNL A   1      38.294  29.359  28.937  1.00  0.00    -0.014 A 
BRANCH  12  13
ATOM     13  C   UNL A   1      39.659  28.991  29.381  1.00  0.00     0.031 A 
ATOM     14  C   UNL A   1      40.522  29.980  30.110  1.00  0.00     0.074 A 
ATOM     15  C   UNL A   1      40.132  27.768  29.074  1.00  0.00     0.049 A 
ATOM     16  N   UNL A   1      41.774  29.869  30.470  1.00  0.00    -0.248 NA
ATOM     17  C   UNL A   1      39.901  31.264  30.469  1.00  0.00     0.031 C 
ATOM     18  C   UNL A   1      39.379  26.725  28.375  1.00  0.00     0.029 A 
ATOM     19  N   UNL A   1      41.362  27.204  29.290  1.00  0.00    -0.354 N 
ATOM     20  C   UNL A   1      42.103  31.078  31.071  1.00  0.00     0.074 A 
ATOM     21  C   UNL A   1      40.923  31.915  31.007  1.00  0.00     0.031 C 
ATOM     22  C   UNL A   1      40.161  25.647  28.223  1.00  0.00     0.029 A 
ATOM     23  C   UNL A   1      41.488  25.949  28.747  1.00  0.00     0.049 A 
ATOM     24  H   UNL A   1      42.084  27.654  29.786  1.00  0.00     0.167 HD
ATOM     25  C   UNL A   1      43.285  31.455  31.619  1.00  0.00     0.031 A 
ATOM     26  C   UNL A   1      42.561  25.142  28.637  1.00  0.00     0.031 A 
ATOM     27  C   UNL A   1      44.455  30.615  31.654  1.00  0.00     0.049 A 
ATOM     28  C   UNL A   1      43.874  25.595  29.203  1.00  0.00     0.074 A 
ATOM     29  C   UNL A   1      45.692  30.887  32.213  1.00  0.00     0.029 A 
ATOM     30  N   UNL A   1      44.541  29.349  31.091  1.00  0.00    -0.354 N 
ATOM     31  N   UNL A   1      44.161  26.727  29.800  1.00  0.00    -0.248 NA
ATOM     32  C   UNL A   1      45.004  24.665  29.090  1.00  0.00     0.031 C 
ATOM     33  C   UNL A   1      46.543  29.814  31.930  1.00  0.00     0.029 A 
ATOM     34  C   UNL A   1      45.817  28.839  31.263  1.00  0.00     0.049 A 
ATOM     35  H   UNL A   1      43.802  28.882  30.637  1.00  0.00     0.167 HD
ATOM     36  C   UNL A   1      45.499  26.635  30.163  1.00  0.00     0.074 A 
ATOM     37  C   UNL A   1      45.963  25.336  29.716  1.00  0.00     0.031 C 
ATOM     38  C   UNL A   1      46.266  27.541  30.817  1.00  0.00     0.031 A 
BRANCH  25  39
ATOM     39  C   UNL A   1      43.381  32.856  32.167  1.00  0.00    -0.014 A 
ATOM     40  C   UNL A   1      43.072  33.147  33.509  1.00  0.00     0.010 A 
ATOM     41  C   UNL A   1      43.791  33.903  31.321  1.00  0.00     0.010 A 
ATOM     42  C   UNL A   1      43.101  34.466  33.972  1.00  0.00     0.020 A 
ATOM     43  C   UNL A   1      43.856  35.219  31.790  1.00  0.00     0.020 A 
ATOM     44  C   UNL A   1      43.481  35.495  33.106  1.00  0.00     0.054 A 
BRANCH  44  45
ATOM     45  S   UNL A   1      43.476  37.201  33.722  1.00  0.00     0.124 S 
ATOM     46  O   UNL A   1      42.157  37.291  34.343  1.00  0.00    -0.237 OA
ATOM     47  O   UNL A   1      44.606  37.212  34.647  1.00  0.00    -0.237 OA
ATOM     48  O   UNL A   1      43.652  38.007  32.517  1.00  0.00    -0.744 OA
ENDBRANCH  44  45
ENDBRANCH  25  39
BRANCH  26  49
ATOM     49  C   UNL A   1      42.409  23.838  27.938  1.00  0.00    -0.014 A 
ATOM     50  C   UNL A   1      42.765  23.706  26.586  1.00  0.00     0.010 A 
ATOM     51  C   UNL A   1      41.998  22.698  28.655  1.00  0.00     0.010 A 
ATOM     52  C   UNL A   1      42.724  22.453  25.967  1.00  0.00     0.020 A 
ATOM     53  C   UNL A   1      41.985  21.441  28.048  1.00  0.00     0.020 A 
ATOM     54  C   UNL A   1      42.347  21.327  26.705  1.00  0.00     0.054 A 
BRANCH  54  55
ATOM     55  S   UNL A   1      42.405  19.699  25.906  1.00  0.00     0.124 S 
ATOM     56  O   UNL A   1      43.406  19.907  24.866  1.00  0.00    -0.237 OA
ATOM     57  O   UNL A   1      42.805  18.825  27.005  1.00  0.00    -0.237 OA
ATOM     58  O   UNL A   1      41.037  19.501  25.430  1.00  0.00    -0.744 OA
ENDBRANCH  54  55
ENDBRANCH  26  49
BRANCH  38  59
ATOM     59  C   UNL A   1      47.682  27.154  31.148  1.00  0.00    -0.014 A 
ATOM     60  C   UNL A   1      47.987  26.370  32.273  1.00  0.00     0.010 A 
ATOM     61  C   UNL A   1      48.710  27.493  30.247  1.00  0.00     0.010 A 
ATOM     62  C   UNL A   1      49.297  25.931  32.491  1.00  0.00     0.020 A 
ATOM     63  C   UNL A   1      50.013  27.034  30.447  1.00  0.00     0.020 A 
ATOM     64  C   UNL A   1      50.299  26.257  31.570  1.00  0.00     0.054 A 
BRANCH  64  65
ATOM     65  S   UNL A   1      51.968  25.591  31.823  1.00  0.00     0.124 S 
ATOM     66  O   UNL A   1      51.699  24.176  32.060  1.00  0.00    -0.237 OA
ATOM     67  O   UNL A   1      52.629  25.902  30.557  1.00  0.00    -0.237 OA
ATOM     68  O   UNL A   1      52.467  26.333  32.978  1.00  0.00    -0.744 OA
ENDBRANCH  64  65
ENDBRANCH  38  59
ENDBRANCH  12  13
ENDBRANCH   5   7
ENDBRANCH   2   3
ENDBRANCH   1   2
BRANCH   1  69
ATOM     69  C   UNL A   1      31.783  28.080  25.386  1.00  0.00     0.023 C 
BRANCH  69  70
ATOM     70  C   UNL A   1      30.821  26.917  25.162  1.00  0.00     0.116 C 
BRANCH  70  71
ATOM     71  N   UNL A   1      30.937  25.908  26.195  1.00  0.00    -0.356 N 
ATOM     72  C   UNL A   1      31.617  24.724  26.186  1.00  0.00     0.227 C 
ATOM     73  H   UNL A   1      30.452  26.105  27.029  1.00  0.00     0.163 HD
ATOM     74  O   UNL A   1      31.879  24.240  27.287  1.00  0.00    -0.275 OA
BRANCH  72  75
ATOM     75  C   UNL A   1      32.223  24.224  24.892  1.00  0.00     0.127 C 
ATOM     76  C   UNL A   1      32.328  22.696  24.646  1.00  0.00     0.127 C 
ATOM     77  C   UNL A   1      31.570  24.669  23.572  1.00  0.00     0.155 C 
ATOM     78  C   UNL A   1      31.863  22.559  23.195  1.00  0.00     0.155 C 
ATOM     79  C   UNL A   1      32.630  24.587  22.501  1.00  0.00     0.004 C 
ATOM     80  O   UNL A   1      30.783  23.518  23.190  1.00  0.00    -0.365 OA
ATOM     81  C   UNL A   1      32.822  23.278  22.282  1.00  0.00     0.004 C 
BRANCH  76  82
ATOM     82  C   UNL A   1      31.551  21.728  25.494  1.00  0.00     0.231 C 
ATOM     83  O   UNL A   1      30.386  21.955  25.839  1.00  0.00    -0.274 OA
ATOM     84  N   UNL A   1      31.997  20.463  25.752  1.00  0.00    -0.325 N 
ATOM     85  H   UNL A   1      31.406  19.988  26.381  1.00  0.00     0.169 HD
BRANCH  84  86
ATOM     86  C   UNL A   1      33.089  19.657  25.349  1.00  0.00     0.049 A 
ATOM     87  C   UNL A   1      32.721  18.297  25.232  1.00  0.00     0.027 A 
ATOM     88  C   UNL A   1      34.429  20.021  25.062  1.00  0.00     0.005 A 
ATOM     89  C   UNL A   1      33.596  17.328  24.747  1.00  0.00     0.002 A 
ATOM     90  C   UNL A   1      35.294  19.011  24.569  1.00  0.00     0.011 A 
ATOM     91  C   UNL A   1      34.883  17.689  24.396  1.00  0.00     0.001 A 
BRANCH  88  92
ATOM     92  C   UNL A   1      35.047  21.342  25.307  1.00  0.00    -0.016 A 
ATOM     93  C   UNL A   1      35.658  22.050  24.247  1.00  0.00     0.009 A 
ATOM     94  C   UNL A   1      34.968  21.972  26.559  1.00  0.00     0.009 A 
ATOM     95  C   UNL A   1      36.089  23.369  24.412  1.00  0.00     0.001 A 
ATOM     96  C   UNL A   1      35.408  23.290  26.725  1.00  0.00     0.001 A 
ATOM     97  C   UNL A   1      35.952  23.991  25.649  1.00  0.00     0.000 A 
ENDBRANCH  88  92
ENDBRANCH  84  86
ENDBRANCH  76  82
ENDBRANCH  72  75
ENDBRANCH  70  71
ENDBRANCH  69  70
ENDBRANCH   1  69
TORSDOF 17
ENDMDL
MODEL 2
REMARK VINA RESULT:     -12.0      1.141      2.561
REMARK SMILES O=C(NCCCCNC(=O)[C@H]1[C@@H](C(=O)Nc2ccccc2-c2ccccc2)[C@@H]2C=C[C@H]1O2)c1ccc(-c2c3nc(c(-c4ccc(S(=O)(=O)[O-])cc4)c4ccc([nH]4)c(-c4ccc(S(=O)(=O)[O-])cc4)c4nc(c(-c5ccc(S(=O)(=O)[O-])cc5)c5ccc2[nH]5)C=C4)C=C3)cc1
REMARK SMILES IDX 5 1 4 2 3 3 1 4 2 5 33 7 34 8 92 9 35 10 91 11 36 12 37 13
REMARK SMILES IDX 38 14 85 15 39 16 90 17 84 18 86 19 40 20 89 21 83 22 82 23
REMARK SMILES IDX 41 25 71 26 52 27 70 28 53 29 56 30 69 31 87 32 54 33 55 34
REMARK SMILES IDX 68 36 88 37 57 38 42 39 43 40 51 41 44 42 50 43 45 44 46 45
REMARK SMILES IDX 47 46 48 47 49 48 72 49 73 50 81 51 74 52 80 53 75 54 76 55
REMARK SMILES IDX 77 56 78 57 79 58 58 59 59 60 67 61 60 62 66 63 61 64 62 65
REMARK SMILES IDX 63 66 64 67 65 68 6 69 7 70 8 71 9 72 10 74 11 75 12 76
REMARK SMILES IDX 31 77 28 78 30 79 32 80 29 81 13 82 14 83 15 84 16 86 17 87
REMARK SMILES IDX 21 88 18 89 20 90 19 91 22 92 23 93 27 94 24 95 26 96 25 97
REMARK H PARENT 3 6 86 24 56 35 8 73 15 85
REMARK Flexibility Score: inf
ROOT
ATOM      1  C   UNL A   1      32.661  27.065  27.223  1.00  0.00     0.023 C 
ENDROOT
BRANCH   1   2
ATOM      2  C   UNL A   1      33.658  27.987  26.538  1.00  0.00     0.116 C 
BRANCH   2   3
ATOM      3  N   UNL A   1      33.341  29.391  26.747  1.00  0.00    -0.352 N 
ATOM      4  O   UNL A   1      33.566  31.435  27.667  1.00  0.00    -0.269 OA
ATOM      5  C   UNL A   1      34.064  30.346  27.418  1.00  0.00     0.251 C 
ATOM      6  H   UNL A   1      32.492  29.697  26.355  1.00  0.00     0.163 HD
BRANCH   5   7
ATOM      7  C   UNL A   1      35.441  30.029  27.847  1.00  0.00     0.039 A 
ATOM      8  C   UNL A   1      36.498  30.095  26.933  1.00  0.00     0.014 A 
ATOM      9  C   UNL A   1      35.666  29.648  29.169  1.00  0.00     0.014 A 
ATOM     10  C   UNL A   1      37.763  29.662  27.311  1.00  0.00     0.010 A 
ATOM     11  C   UNL A   1      36.953  29.289  29.567  1.00  0.00     0.010 A 
ATOM     12  C   UNL A   1      38.006  29.271  28.636  1.00  0.00    -0.014 A 
BRANCH  12  13
ATOM     13  C   UNL A   1      39.375  28.907  29.068  1.00  0.00     0.031 A 
ATOM     14  C   UNL A   1      40.265  29.916  29.734  1.00  0.00     0.074 A 
ATOM     15  C   UNL A   1      39.828  27.666  28.806  1.00  0.00     0.049 A 
ATOM     16  N   UNL A   1      41.522  29.807  30.074  1.00  0.00    -0.248 NA
ATOM     17  C   UNL A   1      39.665  31.223  30.048  1.00  0.00     0.031 C 
ATOM     18  C   UNL A   1      39.049  26.602  28.170  1.00  0.00     0.029 A 
ATOM     19  N   UNL A   1      41.057  27.097  29.023  1.00  0.00    -0.354 N 
ATOM     20  C   UNL A   1      41.877  31.037  30.613  1.00  0.00     0.074 A 
ATOM     21  C   UNL A   1      40.705  31.884  30.536  1.00  0.00     0.031 C 
ATOM     22  C   UNL A   1      39.816  25.509  28.051  1.00  0.00     0.029 A 
ATOM     23  C   UNL A   1      41.157  25.818  28.534  1.00  0.00     0.049 A 
ATOM     24  H   UNL A   1      41.793  27.560  29.483  1.00  0.00     0.167 HD
ATOM     25  C   UNL A   1      43.075  31.424  31.120  1.00  0.00     0.031 A 
ATOM     26  C   UNL A   1      42.218  24.994  28.439  1.00  0.00     0.031 A 
ATOM     27  C   UNL A   1      44.236  30.573  31.168  1.00  0.00     0.049 A 
ATOM     28  C   UNL A   1      43.547  25.456  28.957  1.00  0.00     0.074 A 
ATOM     29  C   UNL A   1      45.487  30.854  31.690  1.00  0.00     0.029 A 
ATOM     30  N   UNL A   1      44.295  29.281  30.661  1.00  0.00    -0.354 N 
ATOM     31  N   UNL A   1      43.860  26.609  29.497  1.00  0.00    -0.248 NA
ATOM     32  C   UNL A   1      44.664  24.508  28.862  1.00  0.00     0.031 C 
ATOM     33  C   UNL A   1      46.319  29.759  31.438  1.00  0.00     0.029 A 
ATOM     34  C   UNL A   1      45.569  28.764  30.830  1.00  0.00     0.049 A 
ATOM     35  H   UNL A   1      43.542  28.804  30.244  1.00  0.00     0.167 HD
ATOM     36  C   UNL A   1      45.204  26.517  29.836  1.00  0.00     0.074 A 
ATOM     37  C   UNL A   1      45.644  25.195  29.438  1.00  0.00     0.031 C 
ATOM     38  C   UNL A   1      45.994  27.443  30.434  1.00  0.00     0.031 A 
BRANCH  25  39
ATOM     39  C   UNL A   1      43.198  32.847  31.603  1.00  0.00    -0.014 A 
ATOM     40  C   UNL A   1      43.649  33.877  30.758  1.00  0.00     0.010 A 
ATOM     41  C   UNL A   1      42.852  33.158  32.931  1.00  0.00     0.010 A 
ATOM     42  C   UNL A   1      43.821  35.174  31.252  1.00  0.00     0.020 A 
ATOM     43  C   UNL A   1      42.989  34.462  33.419  1.00  0.00     0.020 A 
ATOM     44  C   UNL A   1      43.502  35.455  32.583  1.00  0.00     0.054 A 
BRANCH  44  45
ATOM     45  S   UNL A   1      43.768  37.137  33.208  1.00  0.00     0.124 S 
ATOM     46  O   UNL A   1      43.740  37.921  31.976  1.00  0.00    -0.237 OA
ATOM     47  O   UNL A   1      42.629  37.331  34.101  1.00  0.00    -0.237 OA
ATOM     48  O   UNL A   1      45.068  37.062  33.868  1.00  0.00    -0.744 OA
ENDBRANCH  44  45
ENDBRANCH  25  39
BRANCH  26  49
ATOM     49  C   UNL A   1      42.037  23.662  27.802  1.00  0.00    -0.014 A 
ATOM     50  C   UNL A   1      42.488  23.428  26.492  1.00  0.00     0.010 A 
ATOM     51  C   UNL A   1      41.500  22.593  28.544  1.00  0.00     0.010 A 
ATOM     52  C   UNL A   1      42.414  22.146  25.941  1.00  0.00     0.020 A 
ATOM     53  C   UNL A   1      41.452  21.305  28.007  1.00  0.00     0.020 A 
ATOM     54  C   UNL A   1      41.909  21.090  26.706  1.00  0.00     0.054 A 
BRANCH  54  55
ATOM     55  S   UNL A   1      41.923  19.417  26.004  1.00  0.00     0.124 S 
ATOM     56  O   UNL A   1      42.449  18.628  27.112  1.00  0.00    -0.237 OA
ATOM     57  O   UNL A   1      40.515  19.200  25.684  1.00  0.00    -0.237 OA
ATOM     58  O   UNL A   1      42.805  19.538  24.845  1.00  0.00    -0.744 OA
ENDBRANCH  54  55
ENDBRANCH  26  49
BRANCH  38  59
ATOM     59  C   UNL A   1      47.413  27.054  30.752  1.00  0.00    -0.014 A 
ATOM     60  C   UNL A   1      48.471  27.352  29.878  1.00  0.00     0.010 A 
ATOM     61  C   UNL A   1      47.698  26.478  32.005  1.00  0.00     0.010 A 
ATOM     62  C   UNL A   1      49.792  27.080  30.251  1.00  0.00     0.020 A 
ATOM     63  C   UNL A   1      49.016  26.231  32.393  1.00  0.00     0.020 A 
ATOM     64  C   UNL A   1      50.055  26.532  31.511  1.00  0.00     0.054 A 
BRANCH  64  65
ATOM     65  S   UNL A   1      51.782  26.283  32.012  1.00  0.00     0.124 S 
ATOM     66  O   UNL A   1      51.799  26.872  33.348  1.00  0.00    -0.237 OA
ATOM     67  O   UNL A   1      51.920  24.829  31.964  1.00  0.00    -0.237 OA
ATOM     68  O   UNL A   1      52.545  27.009  31.000  1.00  0.00    -0.744 OA
ENDBRANCH  64  65
ENDBRANCH  38  59
ENDBRANCH  12  13
ENDBRANCH   5   7
ENDBRANCH   2   3
ENDBRANCH   1   2
BRANCH   1  69
ATOM     69  C   UNL A   1      31.566  26.522  26.308  1.00  0.00     0.023 C 
BRANCH  69  70
ATOM     70  C   UNL A   1      31.346  25.016  26.416  1.00  0.00     0.116 C 
BRANCH  70  71
ATOM     71  N   UNL A   1      30.649  24.483  25.263  1.00  0.00    -0.356 N 
ATOM     72  C   UNL A   1      30.903  24.659  23.932  1.00  0.00     0.227 C 
ATOM     73  H   UNL A   1      29.877  23.909  25.468  1.00  0.00     0.163 HD
ATOM     74  O   UNL A   1      30.429  23.815  23.172  1.00  0.00    -0.275 OA
BRANCH  72  75
ATOM     75  C   UNL A   1      31.932  25.683  23.500  1.00  0.00     0.127 C 
ATOM     76  C   UNL A   1      33.212  25.206  22.767  1.00  0.00     0.127 C 
ATOM     77  C   UNL A   1      31.476  26.806  22.552  1.00  0.00     0.155 C 
ATOM     78  C   UNL A   1      33.343  26.221  21.629  1.00  0.00     0.155 C 
ATOM     79  C   UNL A   1      32.416  27.968  22.755  1.00  0.00     0.004 C 
ATOM     80  O   UNL A   1      31.953  26.361  21.262  1.00  0.00    -0.365 OA
ATOM     81  C   UNL A   1      33.577  27.597  22.198  1.00  0.00     0.004 C 
BRANCH  76  82
ATOM     82  C   UNL A   1      33.292  23.821  22.186  1.00  0.00     0.231 C 
ATOM     83  O   UNL A   1      33.302  23.627  20.965  1.00  0.00    -0.274 OA
ATOM     84  N   UNL A   1      33.572  22.724  22.951  1.00  0.00    -0.325 N 
ATOM     85  H   UNL A   1      33.513  21.891  22.430  1.00  0.00     0.169 HD
BRANCH  84  86
ATOM     86  C   UNL A   1      33.925  22.476  24.300  1.00  0.00     0.049 A 
ATOM     87  C   UNL A   1      34.382  23.649  24.945  1.00  0.00     0.027 A 
ATOM     88  C   UNL A   1      33.878  21.271  25.044  1.00  0.00     0.005 A 
ATOM     89  C   UNL A   1      34.685  23.680  26.304  1.00  0.00     0.002 A 
ATOM     90  C   UNL A   1      34.191  21.337  26.426  1.00  0.00     0.011 A 
ATOM     91  C   UNL A   1      34.571  22.524  27.053  1.00  0.00     0.001 A 
BRANCH  88  92
ATOM     92  C   UNL A   1      33.614  19.920  24.503  1.00  0.00    -0.016 A 
ATOM     93  C   UNL A   1      32.464  19.679  23.717  1.00  0.00     0.009 A 
ATOM     94  C   UNL A   1      34.530  18.868  24.669  1.00  0.00     0.009 A 
ATOM     95  C   UNL A   1      32.286  18.464  23.050  1.00  0.00     0.001 A 
ATOM     96  C   UNL A   1      34.344  17.649  24.008  1.00  0.00     0.001 A 
ATOM     97  C   UNL A   1      33.233  17.454  23.187  1.00  0.00     0.000 A 
ENDBRANCH  88  92
ENDBRANCH  84  86
ENDBRANCH  76  82
ENDBRANCH  72  75
ENDBRANCH  70  71
ENDBRANCH  69  70
ENDBRANCH   1  69
TORSDOF 17
ENDMDL
MODEL 3
REMARK VINA RESULT:     -12.0      1.294      2.147
REMARK SMILES O=C(NCCCCNC(=O)[C@H]1[C@@H](C(=O)Nc2ccccc2-c2ccccc2)[C@@H]2C=C[C@H]1O2)c1ccc(-c2c3nc(c(-c4ccc(S(=O)(=O)[O-])cc4)c4ccc([nH]4)c(-c4ccc(S(=O)(=O)[O-])cc4)c4nc(c(-c5ccc(S(=O)(=O)[O-])cc5)c5ccc2[nH]5)C=C4)C=C3)cc1
REMARK SMILES IDX 5 1 4 2 3 3 1 4 2 5 33 7 34 8 92 9 35 10 91 11 36 12 37 13
REMARK SMILES IDX 38 14 85 15 39 16 90 17 84 18 86 19 40 20 89 21 83 22 82 23
REMARK SMILES IDX 41 25 71 26 52 27 70 28 53 29 56 30 69 31 87 32 54 33 55 34
REMARK SMILES IDX 68 36 88 37 57 38 42 39 43 40 51 41 44 42 50 43 45 44 46 45
REMARK SMILES IDX 47 46 48 47 49 48 72 49 73 50 81 51 74 52 80 53 75 54 76 55
REMARK SMILES IDX 77 56 78 57 79 58 58 59 59 60 67 61 60 62 66 63 61 64 62 65
REMARK SMILES IDX 63 66 64 67 65 68 6 69 7 70 8 71 9 72 10 74 11 75 12 76
REMARK SMILES IDX 31 77 28 78 30 79 32 80 29 81 13 82 14 83 15 84 16 86 17 87
REMARK SMILES IDX 21 88 18 89 20 90 19 91 22 92 23 93 27 94 24 95 26 96 25 97
REMARK H PARENT 3 6 86 24 56 35 8 73 15 85
REMARK Flexibility Score: inf
ROOT
ATOM      1  C   UNL A   1      33.916  28.312  25.032  1.00  0.00     0.023 C 
ENDROOT
BRANCH   1   2
ATOM      2  C   UNL A   1      34.280  28.419  26.504  1.00  0.00     0.116 C 
BRANCH   2   3
ATOM      3  N   UNL A   1      33.897  29.702  27.072  1.00  0.00    -0.352 N 
ATOM      4  O   UNL A   1      34.031  31.443  28.496  1.00  0.00    -0.269 OA
ATOM      5  C   UNL A   1      34.579  30.484  27.972  1.00  0.00     0.251 C 
ATOM      6  H   UNL A   1      33.029  30.058  26.771  1.00  0.00     0.163 HD
BRANCH   5   7
ATOM      7  C   UNL A   1      35.974  30.135  28.307  1.00  0.00     0.039 A 
ATOM      8  C   UNL A   1      36.985  30.271  27.351  1.00  0.00     0.014 A 
ATOM      9  C   UNL A   1      36.262  29.652  29.584  1.00  0.00     0.014 A 
ATOM     10  C   UNL A   1      38.266  29.810  27.632  1.00  0.00     0.010 A 
ATOM     11  C   UNL A   1      37.565  29.264  29.890  1.00  0.00     0.010 A 
ATOM     12  C   UNL A   1      38.572  29.318  28.909  1.00  0.00    -0.014 A 
BRANCH  12  13
ATOM     13  C   UNL A   1      39.959  28.922  29.244  1.00  0.00     0.031 A 
ATOM     14  C   UNL A   1      40.914  29.908  29.853  1.00  0.00     0.074 A 
ATOM     15  C   UNL A   1      40.366  27.673  28.946  1.00  0.00     0.049 A 
ATOM     16  N   UNL A   1      42.189  29.769  30.104  1.00  0.00    -0.248 NA
ATOM     17  C   UNL A   1      40.366  31.224  30.213  1.00  0.00     0.031 C 
ATOM     18  C   UNL A   1      39.521  26.630  28.360  1.00  0.00     0.029 A 
ATOM     19  N   UNL A   1      41.593  27.076  29.075  1.00  0.00    -0.354 N 
ATOM     20  C   UNL A   1      42.607  30.988  30.624  1.00  0.00     0.074 A 
ATOM     21  C   UNL A   1      41.452  31.861  30.631  1.00  0.00     0.031 C 
ATOM     22  C   UNL A   1      40.254  25.522  28.183  1.00  0.00     0.029 A 
ATOM     23  C   UNL A   1      41.632  25.798  28.574  1.00  0.00     0.049 A 
ATOM     24  H   UNL A   1      42.370  27.520  29.486  1.00  0.00     0.167 HD
ATOM     25  C   UNL A   1      43.845  31.345  31.049  1.00  0.00     0.031 A 
ATOM     26  C   UNL A   1      42.665  24.952  28.402  1.00  0.00     0.031 A 
ATOM     27  C   UNL A   1      44.988  30.469  31.013  1.00  0.00     0.049 A 
ATOM     28  C   UNL A   1      44.037  25.383  28.829  1.00  0.00     0.074 A 
ATOM     29  C   UNL A   1      46.277  30.720  31.449  1.00  0.00     0.029 A 
ATOM     30  N   UNL A   1      44.984  29.180  30.497  1.00  0.00    -0.354 N 
ATOM     31  N   UNL A   1      44.411  26.525  29.353  1.00  0.00    -0.248 NA
ATOM     32  C   UNL A   1      45.123  24.411  28.654  1.00  0.00     0.031 C 
ATOM     33  C   UNL A   1      47.067  29.609  31.135  1.00  0.00     0.029 A 
ATOM     34  C   UNL A   1      46.254  28.634  30.575  1.00  0.00     0.049 A 
ATOM     35  H   UNL A   1      44.194  28.722  30.130  1.00  0.00     0.167 HD
ATOM     36  C   UNL A   1      45.773  26.402  29.598  1.00  0.00     0.074 A 
ATOM     37  C   UNL A   1      46.155  25.073  29.164  1.00  0.00     0.031 C 
ATOM     38  C   UNL A   1      46.622  27.307  30.144  1.00  0.00     0.031 A 
BRANCH  25  39
ATOM     39  C   UNL A   1      44.032  32.762  31.529  1.00  0.00    -0.014 A 
ATOM     40  C   UNL A   1      44.384  33.801  30.647  1.00  0.00     0.010 A 
ATOM     41  C   UNL A   1      43.850  33.060  32.892  1.00  0.00     0.010 A 
ATOM     42  C   UNL A   1      44.620  35.091  31.131  1.00  0.00     0.020 A 
ATOM     43  C   UNL A   1      44.051  34.357  33.375  1.00  0.00     0.020 A 
ATOM     44  C   UNL A   1      44.464  35.358  32.494  1.00  0.00     0.054 A 
BRANCH  44  45
ATOM     45  S   UNL A   1      44.812  37.031  33.101  1.00  0.00     0.124 S 
ATOM     46  O   UNL A   1      44.009  37.850  32.196  1.00  0.00    -0.237 OA
ATOM     47  O   UNL A   1      44.339  36.976  34.482  1.00  0.00    -0.237 OA
ATOM     48  O   UNL A   1      46.257  37.166  32.945  1.00  0.00    -0.744 OA
ENDBRANCH  44  45
ENDBRANCH  25  39
BRANCH  26  49
ATOM     49  C   UNL A   1      42.412  23.629  27.772  1.00  0.00    -0.014 A 
ATOM     50  C   UNL A   1      42.816  23.376  26.451  1.00  0.00     0.010 A 
ATOM     51  C   UNL A   1      41.850  22.584  28.531  1.00  0.00     0.010 A 
ATOM     52  C   UNL A   1      42.675  22.097  25.905  1.00  0.00     0.020 A 
ATOM     53  C   UNL A   1      41.735  21.298  27.998  1.00  0.00     0.020 A 
ATOM     54  C   UNL A   1      42.147  21.064  26.685  1.00  0.00     0.054 A 
BRANCH  54  55
ATOM     55  S   UNL A   1      42.073  19.391  25.986  1.00  0.00     0.124 S 
ATOM     56  O   UNL A   1      42.640  18.587  27.063  1.00  0.00    -0.237 OA
ATOM     57  O   UNL A   1      40.642  19.214  25.750  1.00  0.00    -0.237 OA
ATOM     58  O   UNL A   1      42.887  19.487  24.777  1.00  0.00    -0.744 OA
ENDBRANCH  54  55
ENDBRANCH  26  49
BRANCH  38  59
ATOM     59  C   UNL A   1      48.051  26.885  30.362  1.00  0.00    -0.014 A 
ATOM     60  C   UNL A   1      49.074  27.268  29.479  1.00  0.00     0.010 A 
ATOM     61  C   UNL A   1      48.384  26.185  31.538  1.00  0.00     0.010 A 
ATOM     62  C   UNL A   1      50.407  26.958  29.767  1.00  0.00     0.020 A 
ATOM     63  C   UNL A   1      49.715  25.899  31.844  1.00  0.00     0.020 A 
ATOM     64  C   UNL A   1      50.719  26.285  30.954  1.00  0.00     0.054 A 
BRANCH  64  65
ATOM     65  S   UNL A   1      52.463  25.984  31.355  1.00  0.00     0.124 S 
ATOM     66  O   UNL A   1      53.083  25.980  30.033  1.00  0.00    -0.237 OA
ATOM     67  O   UNL A   1      52.796  27.127  32.202  1.00  0.00    -0.237 OA
ATOM     68  O   UNL A   1      52.445  24.694  32.039  1.00  0.00    -0.744 OA
ENDBRANCH  64  65
ENDBRANCH  38  59
ENDBRANCH  12  13
ENDBRANCH   5   7
ENDBRANCH   2   3
ENDBRANCH   1   2
BRANCH   1  69
ATOM     69  C   UNL A   1      32.886  29.334  24.557  1.00  0.00     0.023 C 
BRANCH  69  70
ATOM     70  C   UNL A   1      31.531  28.736  24.187  1.00  0.00     0.116 C 
BRANCH  70  71
ATOM     71  N   UNL A   1      31.563  28.065  22.904  1.00  0.00    -0.356 N 
ATOM     72  C   UNL A   1      31.212  26.786  22.580  1.00  0.00     0.227 C 
ATOM     73  H   UNL A   1      31.885  28.614  22.153  1.00  0.00     0.163 HD
ATOM     74  O   UNL A   1      30.962  26.575  21.393  1.00  0.00    -0.275 OA
BRANCH  72  75
ATOM     75  C   UNL A   1      30.902  25.797  23.684  1.00  0.00     0.127 C 
ATOM     76  C   UNL A   1      31.847  24.588  23.904  1.00  0.00     0.127 C 
ATOM     77  C   UNL A   1      30.803  26.333  25.123  1.00  0.00     0.155 C 
ATOM     78  C   UNL A   1      31.999  24.556  25.426  1.00  0.00     0.155 C 
ATOM     79  C   UNL A   1      29.928  25.376  25.894  1.00  0.00     0.004 C 
ATOM     80  O   UNL A   1      32.080  25.973  25.697  1.00  0.00    -0.365 OA
ATOM     81  C   UNL A   1      30.665  24.269  26.066  1.00  0.00     0.004 C 
BRANCH  76  82
ATOM     82  C   UNL A   1      33.217  24.562  23.285  1.00  0.00     0.231 C 
ATOM     83  O   UNL A   1      33.787  25.597  22.921  1.00  0.00    -0.274 OA
ATOM     84  N   UNL A   1      33.995  23.439  23.280  1.00  0.00    -0.325 N 
ATOM     85  H   UNL A   1      34.827  23.573  22.771  1.00  0.00     0.169 HD
BRANCH  84  86
ATOM     86  C   UNL A   1      33.914  22.132  23.818  1.00  0.00     0.049 A 
ATOM     87  C   UNL A   1      32.701  21.495  23.464  1.00  0.00     0.027 A 
ATOM     88  C   UNL A   1      34.841  21.420  24.620  1.00  0.00     0.005 A 
ATOM     89  C   UNL A   1      32.438  20.166  23.786  1.00  0.00     0.002 A 
ATOM     90  C   UNL A   1      34.544  20.068  24.928  1.00  0.00     0.011 A 
ATOM     91  C   UNL A   1      33.371  19.442  24.504  1.00  0.00     0.001 A 
BRANCH  88  92
ATOM     92  C   UNL A   1      36.062  21.974  25.244  1.00  0.00    -0.016 A 
ATOM     93  C   UNL A   1      37.268  21.237  25.227  1.00  0.00     0.009 A 
ATOM     94  C   UNL A   1      36.090  23.270  25.784  1.00  0.00     0.009 A 
ATOM     95  C   UNL A   1      38.471  21.810  25.650  1.00  0.00     0.001 A 
ATOM     96  C   UNL A   1      37.294  23.838  26.215  1.00  0.00     0.001 A 
ATOM     97  C   UNL A   1      38.483  23.115  26.132  1.00  0.00     0.000 A 
ENDBRANCH  88  92
ENDBRANCH  84  86
ENDBRANCH  76  82
ENDBRANCH  72  75
ENDBRANCH  70  71
ENDBRANCH  69  70
ENDBRANCH   1  69
TORSDOF 17
ENDMDL
