MODEL 1
REMARK VINA RESULT:     -13.0      0.000      0.000
REMARK SMILES CC(=O)Nc1ccc(/C=C2/CCc3oc(C(=O)NCCCCNC(=O)c4ccc(-c5c6nc(c(-c7ccc(S(=O)(=O)[O-])cc7)c7ccc([nH]7)c(-c7ccc(S(=O)(=O)[O-])cc7)c7nc(c(-c8ccc(S(=O)(=O)[O-])cc8)c8ccc5[nH]8)C=C7)C=C6)cc4)c(C)c3C2=O)cc1
REMARK SMILES IDX 21 1 20 2 19 3 18 4 16 5 17 6 15 8 9 9 10 10 11 11 89 12
REMARK SMILES IDX 12 13 88 14 90 15 13 16 86 17 14 18 87 19 8 20 5 21 6 22
REMARK SMILES IDX 92 23 7 24 91 25 4 26 1 27 2 28 3 29 22 31 23 32 24 33 25 35
REMARK SMILES IDX 26 36 27 37 85 38 28 39 84 40 29 41 30 42 31 43 78 44 32 45
REMARK SMILES IDX 83 46 77 47 79 48 33 49 82 50 76 51 75 52 34 54 64 55 45 56
REMARK SMILES IDX 63 57 46 58 49 59 62 60 80 61 47 62 48 63 61 65 81 66 50 67
REMARK SMILES IDX 35 68 36 69 44 70 37 71 43 72 38 73 39 74 40 75 41 76 42 77
REMARK SMILES IDX 65 78 66 79 74 80 67 81 73 82 68 83 69 84 70 85 71 86 72 87
REMARK SMILES IDX 51 88 52 89 60 90 53 91 59 92 54 93 55 94 56 95 57 96 58 97
REMARK H PARENT 18 7 4 30 23 34 79 53 49 64
REMARK Flexibility Score: inf
ROOT
ATOM      1  C   UNL A   1      39.643  19.591  26.070  1.00  0.00     0.023 C 
ENDROOT
BRANCH   1   2
ATOM      2  C   UNL A   1      38.681  20.027  24.953  1.00  0.00     0.023 C 
BRANCH   2   3
ATOM      3  C   UNL A   1      37.512  20.910  25.404  1.00  0.00     0.116 C 
BRANCH   3   4
ATOM      4  N   UNL A   1      37.947  22.229  25.834  1.00  0.00    -0.349 N 
ATOM      5  C   UNL A   1      37.260  23.398  26.084  1.00  0.00     0.287 C 
ATOM      6  O   UNL A   1      37.955  24.357  26.427  1.00  0.00    -0.266 OA
ATOM      7  H   UNL A   1      38.919  22.301  25.974  1.00  0.00     0.163 HD
BRANCH   5   8
ATOM      8  C   UNL A   1      35.813  23.493  25.935  1.00  0.00     0.195 A 
ATOM      9  C   UNL A   1      30.375  25.130  25.711  1.00  0.00     0.016 C 
ATOM     10  C   UNL A   1      31.274  24.126  25.664  1.00  0.00     0.001 C 
ATOM     11  C   UNL A   1      31.311  23.039  26.734  1.00  0.00     0.048 C 
ATOM     12  C   UNL A   1      32.382  23.994  24.646  1.00  0.00     0.192 C 
ATOM     13  C   UNL A   1      32.624  23.090  27.538  1.00  0.00     0.081 C 
ATOM     14  C   UNL A   1      33.662  23.772  25.295  1.00  0.00     0.067 A 
ATOM     15  O   UNL A   1      32.204  23.979  23.445  1.00  0.00    -0.289 OA
ATOM     16  C   UNL A   1      33.732  23.336  26.592  1.00  0.00     0.116 A 
ATOM     17  C   UNL A   1      35.016  23.919  24.862  1.00  0.00     0.012 A 
ATOM     18  O   UNL A   1      35.000  23.136  26.979  1.00  0.00    -0.455 OA
ATOM     19  C   UNL A   1      35.443  24.455  23.541  1.00  0.00     0.049 C 
BRANCH   9  20
ATOM     20  C   UNL A   1      30.207  26.369  24.918  1.00  0.00    -0.025 A 
ATOM     21  C   UNL A   1      30.127  28.773  23.411  1.00  0.00     0.041 A 
ATOM     22  C   UNL A   1      29.206  27.758  23.180  1.00  0.00     0.027 A 
ATOM     23  C   UNL A   1      31.060  28.613  24.431  1.00  0.00     0.027 A 
ATOM     24  C   UNL A   1      29.272  26.559  23.899  1.00  0.00     0.010 A 
ATOM     25  C   UNL A   1      31.091  27.429  25.180  1.00  0.00     0.010 A 
BRANCH  21  26
ATOM     26  N   UNL A   1      30.023  29.927  22.622  1.00  0.00    -0.326 N 
ATOM     27  C   UNL A   1      27.907  30.842  23.536  1.00  0.00     0.114 C 
ATOM     28  C   UNL A   1      29.002  30.825  22.503  1.00  0.00     0.221 C 
ATOM     29  O   UNL A   1      29.032  31.656  21.594  1.00  0.00    -0.275 OA
ATOM     30  H   UNL A   1      30.811  30.119  22.065  1.00  0.00     0.169 HD
ENDBRANCH  21  26
ENDBRANCH   9  20
ENDBRANCH   5   8
ENDBRANCH   3   4
ENDBRANCH   2   3
ENDBRANCH   1   2
BRANCH   1  31
ATOM     31  C   UNL A   1      40.547  20.697  26.609  1.00  0.00     0.116 C 
BRANCH  31  32
ATOM     32  N   UNL A   1      41.750  20.907  25.802  1.00  0.00    -0.352 N 
ATOM     33  C   UNL A   1      42.404  22.102  25.549  1.00  0.00     0.251 C 
ATOM     34  H   UNL A   1      42.141  20.103  25.388  1.00  0.00     0.163 HD
ATOM     35  O   UNL A   1      43.142  22.221  24.579  1.00  0.00    -0.269 OA
BRANCH  33  36
ATOM     36  C   UNL A   1      42.195  23.226  26.478  1.00  0.00     0.039 A 
ATOM     37  C   UNL A   1      42.813  23.273  27.731  1.00  0.00     0.014 A 
ATOM     38  C   UNL A   1      41.393  24.275  26.040  1.00  0.00     0.014 A 
ATOM     39  C   UNL A   1      42.697  24.433  28.497  1.00  0.00     0.010 A 
ATOM     40  C   UNL A   1      41.403  25.465  26.724  1.00  0.00     0.010 A 
ATOM     41  C   UNL A   1      42.009  25.539  27.975  1.00  0.00    -0.014 A 
BRANCH  41  42
ATOM     42  C   UNL A   1      41.998  26.824  28.672  1.00  0.00     0.031 A 
ATOM     43  C   UNL A   1      43.152  27.721  28.379  1.00  0.00     0.074 A 
ATOM     44  C   UNL A   1      40.904  27.286  29.318  1.00  0.00     0.049 A 
ATOM     45  N   UNL A   1      44.074  28.122  29.190  1.00  0.00    -0.248 NA
ATOM     46  C   UNL A   1      43.371  28.137  26.983  1.00  0.00     0.031 C 
ATOM     47  C   UNL A   1      39.575  26.665  29.400  1.00  0.00     0.029 A 
ATOM     48  N   UNL A   1      40.703  28.492  29.914  1.00  0.00    -0.354 N 
ATOM     49  C   UNL A   1      44.867  29.012  28.468  1.00  0.00     0.074 A 
ATOM     50  C   UNL A   1      44.503  28.837  27.084  1.00  0.00     0.031 C 
ATOM     51  C   UNL A   1      38.663  27.594  29.759  1.00  0.00     0.029 A 
ATOM     52  C   UNL A   1      39.365  28.813  30.115  1.00  0.00     0.049 A 
ATOM     53  H   UNL A   1      41.441  29.088  30.180  1.00  0.00     0.167 HD
ATOM     54  C   UNL A   1      45.588  29.994  29.080  1.00  0.00     0.031 A 
ATOM     55  C   UNL A   1      38.856  30.004  30.513  1.00  0.00     0.031 A 
ATOM     56  C   UNL A   1      45.645  29.800  30.506  1.00  0.00     0.049 A 
ATOM     57  C   UNL A   1      39.962  30.753  31.158  1.00  0.00     0.074 A 
ATOM     58  C   UNL A   1      46.112  28.804  31.338  1.00  0.00     0.029 A 
ATOM     59  N   UNL A   1      44.791  30.566  31.268  1.00  0.00    -0.354 N 
ATOM     60  N   UNL A   1      40.540  30.368  32.262  1.00  0.00    -0.248 NA
ATOM     61  C   UNL A   1      40.733  31.678  30.343  1.00  0.00     0.031 C 
ATOM     62  C   UNL A   1      45.159  28.735  32.394  1.00  0.00     0.029 A 
ATOM     63  C   UNL A   1      44.209  29.740  32.191  1.00  0.00     0.049 A 
ATOM     64  H   UNL A   1      44.630  31.532  31.166  1.00  0.00     0.167 HD
ATOM     65  C   UNL A   1      41.887  30.641  32.072  1.00  0.00     0.074 A 
ATOM     66  C   UNL A   1      41.929  31.542  30.922  1.00  0.00     0.031 C 
ATOM     67  C   UNL A   1      42.854  29.894  32.683  1.00  0.00     0.031 A 
BRANCH  54  68
ATOM     68  C   UNL A   1      45.896  31.340  28.463  1.00  0.00    -0.014 A 
ATOM     69  C   UNL A   1      44.826  32.211  28.163  1.00  0.00     0.010 A 
ATOM     70  C   UNL A   1      47.151  31.661  27.909  1.00  0.00     0.010 A 
ATOM     71  C   UNL A   1      44.988  33.292  27.287  1.00  0.00     0.020 A 
ATOM     72  C   UNL A   1      47.334  32.764  27.070  1.00  0.00     0.020 A 
ATOM     73  C   UNL A   1      46.240  33.550  26.732  1.00  0.00     0.054 A 
BRANCH  73  74
ATOM     74  S   UNL A   1      46.417  34.871  25.508  1.00  0.00     0.124 S 
ATOM     75  O   UNL A   1      45.469  34.454  24.480  1.00  0.00    -0.237 OA
ATOM     76  O   UNL A   1      46.041  36.055  26.275  1.00  0.00    -0.237 OA
ATOM     77  O   UNL A   1      47.826  34.800  25.130  1.00  0.00    -0.744 OA
ENDBRANCH  73  74
ENDBRANCH  54  68
BRANCH  55  78
ATOM     78  C   UNL A   1      37.571  30.625  30.110  1.00  0.00    -0.014 A 
ATOM     79  C   UNL A   1      36.760  31.305  31.037  1.00  0.00     0.010 A 
ATOM     80  C   UNL A   1      37.264  30.774  28.740  1.00  0.00     0.010 A 
ATOM     81  C   UNL A   1      35.711  32.139  30.606  1.00  0.00     0.020 A 
ATOM     82  C   UNL A   1      36.220  31.598  28.303  1.00  0.00     0.020 A 
ATOM     83  C   UNL A   1      35.460  32.294  29.240  1.00  0.00     0.054 A 
BRANCH  83  84
ATOM     84  S   UNL A   1      34.209  33.492  28.687  1.00  0.00     0.124 S 
ATOM     85  O   UNL A   1      35.024  34.513  28.035  1.00  0.00    -0.237 OA
ATOM     86  O   UNL A   1      33.371  32.691  27.800  1.00  0.00    -0.237 OA
ATOM     87  O   UNL A   1      33.564  33.915  29.929  1.00  0.00    -0.744 OA
ENDBRANCH  83  84
ENDBRANCH  55  78
BRANCH  67  88
ATOM     88  C   UNL A   1      42.457  28.972  33.814  1.00  0.00    -0.014 A 
ATOM     89  C   UNL A   1      41.654  27.826  33.653  1.00  0.00     0.010 A 
ATOM     90  C   UNL A   1      43.080  29.185  35.057  1.00  0.00     0.010 A 
ATOM     91  C   UNL A   1      41.471  26.925  34.715  1.00  0.00     0.020 A 
ATOM     92  C   UNL A   1      42.916  28.283  36.111  1.00  0.00     0.020 A 
ATOM     93  C   UNL A   1      42.108  27.161  35.938  1.00  0.00     0.054 A 
BRANCH  93  94
ATOM     94  S   UNL A   1      41.925  25.962  37.289  1.00  0.00     0.124 S 
ATOM     95  O   UNL A   1      42.856  26.470  38.292  1.00  0.00    -0.237 OA
ATOM     96  O   UNL A   1      40.509  26.071  37.633  1.00  0.00    -0.237 OA
ATOM     97  O   UNL A   1      42.308  24.689  36.679  1.00  0.00    -0.744 OA
ENDBRANCH  93  94
ENDBRANCH  67  88
ENDBRANCH  41  42
ENDBRANCH  33  36
ENDBRANCH  31  32
ENDBRANCH   1  31
TORSDOF 16
ENDMDL
MODEL 2
REMARK VINA RESULT:     -12.6      2.509      9.693
REMARK SMILES CC(=O)Nc1ccc(/C=C2/CCc3oc(C(=O)NCCCCNC(=O)c4ccc(-c5c6nc(c(-c7ccc(S(=O)(=O)[O-])cc7)c7ccc([nH]7)c(-c7ccc(S(=O)(=O)[O-])cc7)c7nc(c(-c8ccc(S(=O)(=O)[O-])cc8)c8ccc5[nH]8)C=C7)C=C6)cc4)c(C)c3C2=O)cc1
REMARK SMILES IDX 21 1 20 2 19 3 18 4 16 5 17 6 15 8 9 9 10 10 11 11 89 12
REMARK SMILES IDX 12 13 88 14 90 15 13 16 86 17 14 18 87 19 8 20 5 21 6 22
REMARK SMILES IDX 92 23 7 24 91 25 4 26 1 27 2 28 3 29 22 31 23 32 24 33 25 35
REMARK SMILES IDX 26 36 27 37 85 38 28 39 84 40 29 41 30 42 31 43 78 44 32 45
REMARK SMILES IDX 83 46 77 47 79 48 33 49 82 50 76 51 75 52 34 54 64 55 45 56
REMARK SMILES IDX 63 57 46 58 49 59 62 60 80 61 47 62 48 63 61 65 81 66 50 67
REMARK SMILES IDX 35 68 36 69 44 70 37 71 43 72 38 73 39 74 40 75 41 76 42 77
REMARK SMILES IDX 65 78 66 79 74 80 67 81 73 82 68 83 69 84 70 85 71 86 72 87
REMARK SMILES IDX 51 88 52 89 60 90 53 91 59 92 54 93 55 94 56 95 57 96 58 97
REMARK H PARENT 18 7 4 30 23 34 79 53 49 64
REMARK Flexibility Score: inf
ROOT
ATOM      1  C   UNL A   1      32.628  29.140  27.153  1.00  0.00     0.023 C 
ENDROOT
BRANCH   1   2
ATOM      2  C   UNL A   1      31.770  30.006  26.216  1.00  0.00     0.023 C 
BRANCH   2   3
ATOM      3  C   UNL A   1      31.861  29.648  24.729  1.00  0.00     0.116 C 
BRANCH   3   4
ATOM      4  N   UNL A   1      30.560  29.367  24.145  1.00  0.00    -0.349 N 
ATOM      5  C   UNL A   1      30.052  28.260  23.498  1.00  0.00     0.287 C 
ATOM      6  O   UNL A   1      28.886  28.365  23.108  1.00  0.00    -0.266 OA
ATOM      7  H   UNL A   1      29.918  30.108  24.229  1.00  0.00     0.163 HD
BRANCH   5   8
ATOM      8  C   UNL A   1      30.846  27.059  23.277  1.00  0.00     0.195 A 
ATOM      9  C   UNL A   1      34.961  23.179  22.712  1.00  0.00     0.016 C 
ATOM     10  C   UNL A   1      33.661  23.503  22.562  1.00  0.00     0.001 C 
ATOM     11  C   UNL A   1      33.018  23.594  21.180  1.00  0.00     0.048 C 
ATOM     12  C   UNL A   1      32.725  23.897  23.679  1.00  0.00     0.192 C 
ATOM     13  C   UNL A   1      32.573  25.034  20.864  1.00  0.00     0.081 C 
ATOM     14  C   UNL A   1      32.037  25.138  23.369  1.00  0.00     0.067 A 
ATOM     15  O   UNL A   1      32.509  23.213  24.659  1.00  0.00    -0.289 OA
ATOM     16  C   UNL A   1      31.964  25.605  22.083  1.00  0.00     0.116 A 
ATOM     17  C   UNL A   1      31.344  26.098  24.170  1.00  0.00     0.012 A 
ATOM     18  O   UNL A   1      31.236  26.728  22.005  1.00  0.00    -0.455 OA
ATOM     19  C   UNL A   1      31.235  26.062  25.654  1.00  0.00     0.049 C 
BRANCH   9  20
ATOM     20  C   UNL A   1      35.866  23.163  23.884  1.00  0.00    -0.025 A 
ATOM     21  C   UNL A   1      37.781  23.067  25.977  1.00  0.00     0.041 A 
ATOM     22  C   UNL A   1      36.728  23.974  26.017  1.00  0.00     0.027 A 
ATOM     23  C   UNL A   1      37.854  22.170  24.916  1.00  0.00     0.027 A 
ATOM     24  C   UNL A   1      35.808  24.044  24.965  1.00  0.00     0.010 A 
ATOM     25  C   UNL A   1      36.901  22.213  23.888  1.00  0.00     0.010 A 
BRANCH  21  26
ATOM     26  N   UNL A   1      38.686  23.086  27.047  1.00  0.00    -0.326 N 
ATOM     27  C   UNL A   1      39.734  25.298  26.640  1.00  0.00     0.114 C 
ATOM     28  C   UNL A   1      39.692  23.963  27.336  1.00  0.00     0.221 C 
ATOM     29  O   UNL A   1      40.506  23.679  28.216  1.00  0.00    -0.275 OA
ATOM     30  H   UNL A   1      38.581  22.350  27.690  1.00  0.00     0.169 HD
ENDBRANCH  21  26
ENDBRANCH   9  20
ENDBRANCH   5   8
ENDBRANCH   3   4
ENDBRANCH   2   3
ENDBRANCH   1   2
BRANCH   1  31
ATOM     31  C   UNL A   1      34.095  29.552  27.247  1.00  0.00     0.116 C 
BRANCH  31  32
ATOM     32  N   UNL A   1      34.293  31.002  27.216  1.00  0.00    -0.352 N 
ATOM     33  C   UNL A   1      35.272  31.738  27.862  1.00  0.00     0.251 C 
ATOM     34  H   UNL A   1      33.653  31.516  26.672  1.00  0.00     0.163 HD
ATOM     35  O   UNL A   1      35.119  32.934  28.080  1.00  0.00    -0.269 OA
BRANCH  33  36
ATOM     36  C   UNL A   1      36.509  31.051  28.276  1.00  0.00     0.039 A 
ATOM     37  C   UNL A   1      36.904  29.836  27.708  1.00  0.00     0.014 A 
ATOM     38  C   UNL A   1      37.304  31.685  29.225  1.00  0.00     0.014 A 
ATOM     39  C   UNL A   1      38.157  29.317  28.032  1.00  0.00     0.010 A 
ATOM     40  C   UNL A   1      38.590  31.253  29.428  1.00  0.00     0.010 A 
ATOM     41  C   UNL A   1      39.009  30.045  28.876  1.00  0.00    -0.014 A 
BRANCH  41  42
ATOM     42  C   UNL A   1      40.387  29.618  29.115  1.00  0.00     0.031 A 
ATOM     43  C   UNL A   1      40.724  29.308  30.533  1.00  0.00     0.074 A 
ATOM     44  C   UNL A   1      41.219  29.267  28.110  1.00  0.00     0.049 A 
ATOM     45  N   UNL A   1      41.556  29.923  31.307  1.00  0.00    -0.248 NA
ATOM     46  C   UNL A   1      39.958  28.248  31.213  1.00  0.00     0.031 C 
ATOM     47  C   UNL A   1      40.918  29.191  26.674  1.00  0.00     0.029 A 
ATOM     48  N   UNL A   1      42.477  28.753  28.174  1.00  0.00    -0.354 N 
ATOM     49  C   UNL A   1      41.584  29.202  32.499  1.00  0.00     0.074 A 
ATOM     50  C   UNL A   1      40.456  28.306  32.450  1.00  0.00     0.031 C 
ATOM     51  C   UNL A   1      41.843  28.425  26.057  1.00  0.00     0.029 A 
ATOM     52  C   UNL A   1      42.895  28.120  27.009  1.00  0.00     0.049 A 
ATOM     53  H   UNL A   1      43.043  28.823  28.977  1.00  0.00     0.167 HD
ATOM     54  C   UNL A   1      42.667  29.223  33.328  1.00  0.00     0.031 A 
ATOM     55  C   UNL A   1      44.009  27.367  26.837  1.00  0.00     0.031 A 
ATOM     56  C   UNL A   1      43.592  30.265  32.965  1.00  0.00     0.049 A 
ATOM     57  C   UNL A   1      44.943  27.721  27.932  1.00  0.00     0.074 A 
ATOM     58  C   UNL A   1      43.523  31.639  32.861  1.00  0.00     0.029 A 
ATOM     59  N   UNL A   1      44.704  29.882  32.250  1.00  0.00    -0.354 N 
ATOM     60  N   UNL A   1      45.481  28.902  28.062  1.00  0.00    -0.248 NA
ATOM     61  C   UNL A   1      44.928  26.910  29.139  1.00  0.00     0.031 C 
ATOM     62  C   UNL A   1      44.299  31.955  31.709  1.00  0.00     0.029 A 
ATOM     63  C   UNL A   1      44.859  30.772  31.221  1.00  0.00     0.049 A 
ATOM     64  H   UNL A   1      45.283  29.109  32.444  1.00  0.00     0.167 HD
ATOM     65  C   UNL A   1      45.469  29.151  29.428  1.00  0.00     0.074 A 
ATOM     66  C   UNL A   1      45.217  27.850  30.044  1.00  0.00     0.031 C 
ATOM     67  C   UNL A   1      45.382  30.425  29.915  1.00  0.00     0.031 A 
BRANCH  54  68
ATOM     68  C   UNL A   1      43.098  28.066  34.201  1.00  0.00    -0.014 A 
ATOM     69  C   UNL A   1      43.839  28.338  35.372  1.00  0.00     0.010 A 
ATOM     70  C   UNL A   1      43.054  26.724  33.775  1.00  0.00     0.010 A 
ATOM     71  C   UNL A   1      44.565  27.334  36.027  1.00  0.00     0.020 A 
ATOM     72  C   UNL A   1      43.737  25.707  34.446  1.00  0.00     0.020 A 
ATOM     73  C   UNL A   1      44.522  26.026  35.546  1.00  0.00     0.054 A 
BRANCH  73  74
ATOM     74  S   UNL A   1      45.556  24.759  36.321  1.00  0.00     0.124 S 
ATOM     75  O   UNL A   1      44.592  24.063  37.168  1.00  0.00    -0.237 OA
ATOM     76  O   UNL A   1      46.045  24.010  35.167  1.00  0.00    -0.237 OA
ATOM     77  O   UNL A   1      46.572  25.534  37.031  1.00  0.00    -0.744 OA
ENDBRANCH  73  74
ENDBRANCH  54  68
BRANCH  55  78
ATOM     78  C   UNL A   1      44.178  26.178  25.967  1.00  0.00    -0.014 A 
ATOM     79  C   UNL A   1      45.446  25.769  25.518  1.00  0.00     0.010 A 
ATOM     80  C   UNL A   1      43.101  25.282  25.789  1.00  0.00     0.010 A 
ATOM     81  C   UNL A   1      45.639  24.494  24.955  1.00  0.00     0.020 A 
ATOM     82  C   UNL A   1      43.283  24.013  25.225  1.00  0.00     0.020 A 
ATOM     83  C   UNL A   1      44.558  23.617  24.829  1.00  0.00     0.054 A 
BRANCH  83  84
ATOM     84  S   UNL A   1      44.843  21.918  24.248  1.00  0.00     0.124 S 
ATOM     85  O   UNL A   1      43.925  21.147  25.080  1.00  0.00    -0.237 OA
ATOM     86  O   UNL A   1      44.493  22.003  22.833  1.00  0.00    -0.237 OA
ATOM     87  O   UNL A   1      46.262  21.694  24.519  1.00  0.00    -0.744 OA
ENDBRANCH  83  84
ENDBRANCH  55  78
BRANCH  67  88
ATOM     88  C   UNL A   1      45.620  31.583  28.973  1.00  0.00    -0.014 A 
ATOM     89  C   UNL A   1      46.854  32.248  28.836  1.00  0.00     0.010 A 
ATOM     90  C   UNL A   1      44.592  31.884  28.061  1.00  0.00     0.010 A 
ATOM     91  C   UNL A   1      47.046  33.198  27.819  1.00  0.00     0.020 A 
ATOM     92  C   UNL A   1      44.783  32.814  27.037  1.00  0.00     0.020 A 
ATOM     93  C   UNL A   1      46.007  33.471  26.924  1.00  0.00     0.054 A 
BRANCH  93  94
ATOM     94  S   UNL A   1      46.277  34.650  25.570  1.00  0.00     0.124 S 
ATOM     95  O   UNL A   1      45.990  35.933  26.205  1.00  0.00    -0.237 OA
ATOM     96  O   UNL A   1      47.676  34.423  25.214  1.00  0.00    -0.237 OA
ATOM     97  O   UNL A   1      45.313  34.236  24.550  1.00  0.00    -0.744 OA
ENDBRANCH  93  94
ENDBRANCH  67  88
ENDBRANCH  41  42
ENDBRANCH  33  36
ENDBRANCH  31  32
ENDBRANCH   1  31
TORSDOF 16
ENDMDL
MODEL 3
REMARK VINA RESULT:     -12.3      2.984      9.588
REMARK SMILES CC(=O)Nc1ccc(/C=C2/CCc3oc(C(=O)NCCCCNC(=O)c4ccc(-c5c6nc(c(-c7ccc(S(=O)(=O)[O-])cc7)c7ccc([nH]7)c(-c7ccc(S(=O)(=O)[O-])cc7)c7nc(c(-c8ccc(S(=O)(=O)[O-])cc8)c8ccc5[nH]8)C=C7)C=C6)cc4)c(C)c3C2=O)cc1
REMARK SMILES IDX 21 1 20 2 19 3 18 4 16 5 17 6 15 8 9 9 10 10 11 11 89 12
REMARK SMILES IDX 12 13 88 14 90 15 13 16 86 17 14 18 87 19 8 20 5 21 6 22
REMARK SMILES IDX 92 23 7 24 91 25 4 26 1 27 2 28 3 29 22 31 23 32 24 33 25 35
REMARK SMILES IDX 26 36 27 37 85 38 28 39 84 40 29 41 30 42 31 43 78 44 32 45
REMARK SMILES IDX 83 46 77 47 79 48 33 49 82 50 76 51 75 52 34 54 64 55 45 56
REMARK SMILES IDX 63 57 46 58 49 59 62 60 80 61 47 62 48 63 61 65 81 66 50 67
REMARK SMILES IDX 35 68 36 69 44 70 37 71 43 72 38 73 39 74 40 75 41 76 42 77
REMARK SMILES IDX 65 78 66 79 74 80 67 81 73 82 68 83 69 84 70 85 71 86 72 87
REMARK SMILES IDX 51 88 52 89 60 90 53 91 59 92 54 93 55 94 56 95 57 96 58 97
REMARK H PARENT 18 7 4 30 23 34 79 53 49 64
REMARK Flexibility Score: inf
ROOT
ATOM      1  C   UNL A   1      35.070  30.345  28.542  1.00  0.00     0.023 C 
ENDROOT
BRANCH   1   2
ATOM      2  C   UNL A   1      34.848  29.771  27.133  1.00  0.00     0.023 C 
BRANCH   2   3
ATOM      3  C   UNL A   1      33.439  29.967  26.562  1.00  0.00     0.116 C 
BRANCH   3   4
ATOM      4  N   UNL A   1      32.415  29.342  27.384  1.00  0.00    -0.349 N 
ATOM      5  C   UNL A   1      31.660  28.200  27.218  1.00  0.00     0.287 C 
ATOM      6  O   UNL A   1      30.854  27.963  28.122  1.00  0.00    -0.266 OA
ATOM      7  H   UNL A   1      32.226  29.827  28.219  1.00  0.00     0.163 HD
BRANCH   5   8
ATOM      8  C   UNL A   1      31.796  27.345  26.047  1.00  0.00     0.195 A 
ATOM      9  C   UNL A   1      33.157  23.328  22.263  1.00  0.00     0.016 C 
ATOM     10  C   UNL A   1      32.541  24.499  22.522  1.00  0.00     0.001 C 
ATOM     11  C   UNL A   1      33.015  25.805  21.892  1.00  0.00     0.048 C 
ATOM     12  C   UNL A   1      31.406  24.689  23.501  1.00  0.00     0.192 C 
ATOM     13  C   UNL A   1      33.545  26.781  22.959  1.00  0.00     0.081 C 
ATOM     14  C   UNL A   1      31.685  25.781  24.416  1.00  0.00     0.067 A 
ATOM     15  O   UNL A   1      30.361  24.072  23.460  1.00  0.00    -0.289 OA
ATOM     16  C   UNL A   1      32.637  26.723  24.125  1.00  0.00     0.116 A 
ATOM     17  C   UNL A   1      31.152  26.150  25.689  1.00  0.00     0.012 A 
ATOM     18  O   UNL A   1      32.696  27.675  25.067  1.00  0.00    -0.455 OA
ATOM     19  C   UNL A   1      30.145  25.370  26.458  1.00  0.00     0.049 C 
BRANCH   9  20
ATOM     20  C   UNL A   1      33.017  21.968  22.831  1.00  0.00    -0.025 A 
ATOM     21  C   UNL A   1      32.776  19.461  24.141  1.00  0.00     0.041 A 
ATOM     22  C   UNL A   1      32.084  19.717  22.963  1.00  0.00     0.027 A 
ATOM     23  C   UNL A   1      33.631  20.438  24.643  1.00  0.00     0.027 A 
ATOM     24  C   UNL A   1      32.176  20.967  22.341  1.00  0.00     0.010 A 
ATOM     25  C   UNL A   1      33.756  21.671  23.989  1.00  0.00     0.010 A 
BRANCH  21  26
ATOM     26  N   UNL A   1      32.600  18.201  24.728  1.00  0.00    -0.326 N 
ATOM     27  C   UNL A   1      34.114  16.874  23.279  1.00  0.00     0.114 C 
ATOM     28  C   UNL A   1      33.036  16.971  24.325  1.00  0.00     0.221 C 
ATOM     29  O   UNL A   1      32.592  15.964  24.877  1.00  0.00    -0.275 OA
ATOM     30  H   UNL A   1      32.080  18.203  25.563  1.00  0.00     0.169 HD
ENDBRANCH  21  26
ENDBRANCH   9  20
ENDBRANCH   5   8
ENDBRANCH   3   4
ENDBRANCH   2   3
ENDBRANCH   1   2
BRANCH   1  31
ATOM     31  C   UNL A   1      35.088  31.869  28.620  1.00  0.00     0.116 C 
BRANCH  31  32
ATOM     32  N   UNL A   1      34.661  32.388  29.921  1.00  0.00    -0.352 N 
ATOM     33  C   UNL A   1      35.096  31.995  31.175  1.00  0.00     0.251 C 
ATOM     34  H   UNL A   1      33.983  33.101  29.902  1.00  0.00     0.163 HD
ATOM     35  O   UNL A   1      34.416  32.207  32.171  1.00  0.00    -0.269 OA
BRANCH  33  36
ATOM     36  C   UNL A   1      36.402  31.319  31.285  1.00  0.00     0.039 A 
ATOM     37  C   UNL A   1      36.505  29.946  31.527  1.00  0.00     0.014 A 
ATOM     38  C   UNL A   1      37.540  32.095  31.087  1.00  0.00     0.014 A 
ATOM     39  C   UNL A   1      37.762  29.344  31.467  1.00  0.00     0.010 A 
ATOM     40  C   UNL A   1      38.749  31.481  30.882  1.00  0.00     0.010 A 
ATOM     41  C   UNL A   1      38.881  30.115  31.118  1.00  0.00    -0.014 A 
BRANCH  41  42
ATOM     42  C   UNL A   1      40.186  29.498  30.888  1.00  0.00     0.031 A 
ATOM     43  C   UNL A   1      41.046  29.351  32.097  1.00  0.00     0.074 A 
ATOM     44  C   UNL A   1      40.492  28.861  29.736  1.00  0.00     0.049 A 
ATOM     45  N   UNL A   1      42.179  29.922  32.342  1.00  0.00    -0.248 NA
ATOM     46  C   UNL A   1      40.530  28.554  33.224  1.00  0.00     0.031 C 
ATOM     47  C   UNL A   1      39.619  28.622  28.578  1.00  0.00     0.029 A 
ATOM     48  N   UNL A   1      41.607  28.153  29.414  1.00  0.00    -0.354 N 
ATOM     49  C   UNL A   1      42.626  29.395  33.552  1.00  0.00     0.074 A 
ATOM     50  C   UNL A   1      41.497  28.711  34.130  1.00  0.00     0.031 C 
ATOM     51  C   UNL A   1      40.128  27.624  27.826  1.00  0.00     0.029 A 
ATOM     52  C   UNL A   1      41.444  27.289  28.337  1.00  0.00     0.049 A 
ATOM     53  H   UNL A   1      42.459  28.244  29.902  1.00  0.00     0.167 HD
ATOM     54  C   UNL A   1      43.951  29.354  33.873  1.00  0.00     0.031 A 
ATOM     55  C   UNL A   1      42.309  26.338  27.908  1.00  0.00     0.031 A 
ATOM     56  C   UNL A   1      44.740  30.153  32.973  1.00  0.00     0.049 A 
ATOM     57  C   UNL A   1      43.642  26.686  28.457  1.00  0.00     0.074 A 
ATOM     58  C   UNL A   1      44.768  31.487  32.621  1.00  0.00     0.029 A 
ATOM     59  N   UNL A   1      45.416  29.481  31.980  1.00  0.00    -0.354 N 
ATOM     60  N   UNL A   1      44.297  27.762  28.120  1.00  0.00    -0.248 NA
ATOM     61  C   UNL A   1      44.047  26.080  29.716  1.00  0.00     0.031 C 
ATOM     62  C   UNL A   1      45.026  31.487  31.219  1.00  0.00     0.029 A 
ATOM     63  C   UNL A   1      45.218  30.165  30.811  1.00  0.00     0.049 A 
ATOM     64  H   UNL A   1      45.945  28.658  32.091  1.00  0.00     0.167 HD
ATOM     65  C   UNL A   1      44.873  28.212  29.300  1.00  0.00     0.074 A 
ATOM     66  C   UNL A   1      44.773  27.081  30.221  1.00  0.00     0.031 C 
ATOM     67  C   UNL A   1      45.119  29.540  29.506  1.00  0.00     0.031 A 
BRANCH  54  68
ATOM     68  C   UNL A   1      44.590  28.285  34.731  1.00  0.00    -0.014 A 
ATOM     69  C   UNL A   1      44.619  26.957  34.253  1.00  0.00     0.010 A 
ATOM     70  C   UNL A   1      44.899  28.476  36.092  1.00  0.00     0.010 A 
ATOM     71  C   UNL A   1      44.860  25.876  35.111  1.00  0.00     0.020 A 
ATOM     72  C   UNL A   1      45.186  27.410  36.948  1.00  0.00     0.020 A 
ATOM     73  C   UNL A   1      45.125  26.111  36.460  1.00  0.00     0.054 A 
BRANCH  73  74
ATOM     74  S   UNL A   1      45.314  24.708  37.587  1.00  0.00     0.124 S 
ATOM     75  O   UNL A   1      46.665  24.916  38.098  1.00  0.00    -0.237 OA
ATOM     76  O   UNL A   1      44.232  24.931  38.543  1.00  0.00    -0.237 OA
ATOM     77  O   UNL A   1      45.142  23.546  36.718  1.00  0.00    -0.744 OA
ENDBRANCH  73  74
ENDBRANCH  54  68
BRANCH  55  78
ATOM     78  C   UNL A   1      41.988  25.019  27.308  1.00  0.00    -0.014 A 
ATOM     79  C   UNL A   1      42.948  24.286  26.588  1.00  0.00     0.010 A 
ATOM     80  C   UNL A   1      40.795  24.357  27.671  1.00  0.00     0.010 A 
ATOM     81  C   UNL A   1      42.741  22.927  26.284  1.00  0.00     0.020 A 
ATOM     82  C   UNL A   1      40.580  23.007  27.368  1.00  0.00     0.020 A 
ATOM     83  C   UNL A   1      41.565  22.292  26.692  1.00  0.00     0.054 A 
BRANCH  83  84
ATOM     84  S   UNL A   1      41.376  20.502  26.435  1.00  0.00     0.124 S 
ATOM     85  O   UNL A   1      39.975  20.391  26.038  1.00  0.00    -0.237 OA
ATOM     86  O   UNL A   1      42.353  20.227  25.386  1.00  0.00    -0.237 OA
ATOM     87  O   UNL A   1      41.697  19.930  27.741  1.00  0.00    -0.744 OA
ENDBRANCH  83  84
ENDBRANCH  55  78
BRANCH  67  88
ATOM     88  C   UNL A   1      45.058  30.484  28.328  1.00  0.00    -0.014 A 
ATOM     89  C   UNL A   1      43.861  30.907  27.717  1.00  0.00     0.010 A 
ATOM     90  C   UNL A   1      46.261  31.105  27.946  1.00  0.00     0.010 A 
ATOM     91  C   UNL A   1      43.874  31.918  26.741  1.00  0.00     0.020 A 
ATOM     92  C   UNL A   1      46.278  32.122  26.990  1.00  0.00     0.020 A 
ATOM     93  C   UNL A   1      45.086  32.520  26.387  1.00  0.00     0.054 A 
BRANCH  93  94
ATOM     94  S   UNL A   1      45.094  33.871  25.174  1.00  0.00     0.124 S 
ATOM     95  O   UNL A   1      46.508  34.223  25.100  1.00  0.00    -0.237 OA
ATOM     96  O   UNL A   1      44.538  33.240  23.979  1.00  0.00    -0.237 OA
ATOM     97  O   UNL A   1      44.235  34.889  25.781  1.00  0.00    -0.744 OA
ENDBRANCH  93  94
ENDBRANCH  67  88
ENDBRANCH  41  42
ENDBRANCH  33  36
ENDBRANCH  31  32
ENDBRANCH   1  31
TORSDOF 16
ENDMDL
