MODEL 1
REMARK VINA RESULT:     -13.0      0.000      0.000
REMARK SMILES O=C(NCCCCNC(=O)[C@@H](Cc1ccccc1)/N=C1\C(=O)c2ccccc2C(=O)[C@H]1Cl)c1ccc(-c2c3nc(c(-c4ccc(S(=O)(=O)[O-])cc4)c4ccc([nH]4)c(-c4ccc(S(=O)(=O)[O-])cc4)c4nc(c(-c5ccc(S(=O)(=O)[O-])cc5)c5ccc2[nH]5)C=C4)C=C3)cc1
REMARK SMILES IDX 5 1 4 2 3 3 1 4 2 5 33 7 34 8 92 9 35 10 91 11 36 12 37 13
REMARK SMILES IDX 38 14 85 15 39 16 90 17 84 18 86 19 40 20 89 21 83 22 82 23
REMARK SMILES IDX 41 25 71 26 52 27 70 28 53 29 56 30 69 31 87 32 54 33 55 34
REMARK SMILES IDX 68 36 88 37 57 38 42 39 43 40 51 41 44 42 50 43 45 44 46 45
REMARK SMILES IDX 47 46 48 47 49 48 72 49 73 50 81 51 74 52 80 53 75 54 76 55
REMARK SMILES IDX 77 56 78 57 79 58 58 59 59 60 67 61 60 62 66 63 61 64 62 65
REMARK SMILES IDX 63 66 64 67 65 68 6 69 7 70 8 71 9 72 10 74 11 75 12 76
REMARK SMILES IDX 13 77 14 78 18 79 15 80 17 81 16 82 19 83 20 84 21 85 31 86
REMARK SMILES IDX 22 87 23 88 29 89 32 90 24 91 28 92 30 93 25 94 27 95 26 96
REMARK H PARENT 3 6 86 24 56 35 8 73
REMARK Flexibility Score: inf
ROOT
ATOM      1  C   UNL A   1      37.386  23.751  26.052  1.00  0.00     0.023 C 
ENDROOT
BRANCH   1   2
ATOM      2  C   UNL A   1      38.656  24.093  26.838  1.00  0.00     0.116 C 
BRANCH   2   3
ATOM      3  N   UNL A   1      39.775  24.656  26.090  1.00  0.00    -0.352 N 
ATOM      4  O   UNL A   1      41.413  26.187  25.676  1.00  0.00    -0.269 OA
ATOM      5  C   UNL A   1      40.442  25.847  26.343  1.00  0.00     0.251 C 
ATOM      6  H   UNL A   1      40.094  24.133  25.320  1.00  0.00     0.163 HD
BRANCH   5   7
ATOM      7  C   UNL A   1      39.929  26.735  27.414  1.00  0.00     0.039 A 
ATOM      8  C   UNL A   1      40.167  28.107  27.356  1.00  0.00     0.014 A 
ATOM      9  C   UNL A   1      39.366  26.166  28.561  1.00  0.00     0.014 A 
ATOM     10  C   UNL A   1      40.108  28.853  28.527  1.00  0.00     0.010 A 
ATOM     11  C   UNL A   1      39.202  26.948  29.709  1.00  0.00     0.010 A 
ATOM     12  C   UNL A   1      39.664  28.274  29.730  1.00  0.00    -0.014 A 
BRANCH  12  13
ATOM     13  C   UNL A   1      39.773  29.048  31.000  1.00  0.00     0.031 A 
ATOM     14  C   UNL A   1      40.959  28.862  31.921  1.00  0.00     0.074 A 
ATOM     15  C   UNL A   1      38.846  29.984  31.289  1.00  0.00     0.049 A 
ATOM     16  N   UNL A   1      41.211  29.439  33.070  1.00  0.00    -0.248 NA
ATOM     17  C   UNL A   1      41.994  27.901  31.503  1.00  0.00     0.031 C 
ATOM     18  C   UNL A   1      37.669  30.285  30.470  1.00  0.00     0.029 A 
ATOM     19  N   UNL A   1      38.762  30.874  32.329  1.00  0.00    -0.354 N 
ATOM     20  C   UNL A   1      42.402  28.882  33.530  1.00  0.00     0.074 A 
ATOM     21  C   UNL A   1      42.821  27.914  32.542  1.00  0.00     0.031 C 
ATOM     22  C   UNL A   1      37.017  31.327  31.004  1.00  0.00     0.029 A 
ATOM     23  C   UNL A   1      37.679  31.716  32.245  1.00  0.00     0.049 A 
ATOM     24  H   UNL A   1      39.415  30.907  33.066  1.00  0.00     0.167 HD
ATOM     25  C   UNL A   1      43.084  29.152  34.670  1.00  0.00     0.031 A 
ATOM     26  C   UNL A   1      37.243  32.677  33.081  1.00  0.00     0.031 A 
ATOM     27  C   UNL A   1      42.682  30.141  35.638  1.00  0.00     0.049 A 
ATOM     28  C   UNL A   1      38.008  32.949  34.342  1.00  0.00     0.074 A 
ATOM     29  C   UNL A   1      43.313  30.498  36.817  1.00  0.00     0.029 A 
ATOM     30  N   UNL A   1      41.554  30.938  35.532  1.00  0.00    -0.354 N 
ATOM     31  N   UNL A   1      39.113  32.386  34.769  1.00  0.00    -0.248 NA
ATOM     32  C   UNL A   1      37.462  33.976  35.239  1.00  0.00     0.031 C 
ATOM     33  C   UNL A   1      42.542  31.484  37.444  1.00  0.00     0.029 A 
ATOM     34  C   UNL A   1      41.459  31.774  36.632  1.00  0.00     0.049 A 
ATOM     35  H   UNL A   1      40.913  30.913  34.784  1.00  0.00     0.167 HD
ATOM     36  C   UNL A   1      39.395  32.991  35.987  1.00  0.00     0.074 A 
ATOM     37  C   UNL A   1      38.362  33.981  36.213  1.00  0.00     0.031 C 
ATOM     38  C   UNL A   1      40.415  32.743  36.845  1.00  0.00     0.031 A 
BRANCH  25  39
ATOM     39  C   UNL A   1      44.321  28.339  34.961  1.00  0.00    -0.014 A 
ATOM     40  C   UNL A   1      45.593  28.750  34.521  1.00  0.00     0.010 A 
ATOM     41  C   UNL A   1      44.214  27.170  35.738  1.00  0.00     0.010 A 
ATOM     42  C   UNL A   1      46.726  27.987  34.821  1.00  0.00     0.020 A 
ATOM     43  C   UNL A   1      45.348  26.417  36.059  1.00  0.00     0.020 A 
ATOM     44  C   UNL A   1      46.597  26.822  35.584  1.00  0.00     0.054 A 
BRANCH  44  45
ATOM     45  S   UNL A   1      48.086  25.861  35.976  1.00  0.00     0.124 S 
ATOM     46  O   UNL A   1      48.197  26.057  37.419  1.00  0.00    -0.237 OA
ATOM     47  O   UNL A   1      47.720  24.512  35.553  1.00  0.00    -0.237 OA
ATOM     48  O   UNL A   1      49.130  26.498  35.177  1.00  0.00    -0.744 OA
ENDBRANCH  44  45
ENDBRANCH  25  39
BRANCH  26  49
ATOM     49  C   UNL A   1      35.995  33.417  32.755  1.00  0.00    -0.014 A 
ATOM     50  C   UNL A   1      34.838  33.259  33.535  1.00  0.00     0.010 A 
ATOM     51  C   UNL A   1      35.982  34.332  31.686  1.00  0.00     0.010 A 
ATOM     52  C   UNL A   1      33.691  34.009  33.254  1.00  0.00     0.020 A 
ATOM     53  C   UNL A   1      34.848  35.103  31.420  1.00  0.00     0.020 A 
ATOM     54  C   UNL A   1      33.706  34.931  32.204  1.00  0.00     0.054 A 
BRANCH  54  55
ATOM     55  S   UNL A   1      32.242  35.962  31.911  1.00  0.00     0.124 S 
ATOM     56  O   UNL A   1      31.175  35.138  32.469  1.00  0.00    -0.237 OA
ATOM     57  O   UNL A   1      32.557  37.180  32.654  1.00  0.00    -0.237 OA
ATOM     58  O   UNL A   1      32.222  36.118  30.459  1.00  0.00    -0.744 OA
ENDBRANCH  54  55
ENDBRANCH  26  49
BRANCH  38  59
ATOM     59  C   UNL A   1      40.463  33.568  38.100  1.00  0.00    -0.014 A 
ATOM     60  C   UNL A   1      39.851  33.117  39.283  1.00  0.00     0.010 A 
ATOM     61  C   UNL A   1      41.151  34.794  38.103  1.00  0.00     0.010 A 
ATOM     62  C   UNL A   1      39.895  33.898  40.440  1.00  0.00     0.020 A 
ATOM     63  C   UNL A   1      41.216  35.566  39.265  1.00  0.00     0.020 A 
ATOM     64  C   UNL A   1      40.573  35.121  40.422  1.00  0.00     0.054 A 
BRANCH  64  65
ATOM     65  S   UNL A   1      40.637  36.109  41.941  1.00  0.00     0.124 S 
ATOM     66  O   UNL A   1      39.368  36.827  41.890  1.00  0.00    -0.237 OA
ATOM     67  O   UNL A   1      40.742  35.091  42.984  1.00  0.00    -0.237 OA
ATOM     68  O   UNL A   1      41.830  36.935  41.764  1.00  0.00    -0.744 OA
ENDBRANCH  64  65
ENDBRANCH  38  59
ENDBRANCH  12  13
ENDBRANCH   5   7
ENDBRANCH   2   3
ENDBRANCH   1   2
BRANCH   1  69
ATOM     69  C   UNL A   1      37.422  22.591  25.052  1.00  0.00     0.023 C 
BRANCH  69  70
ATOM     70  C   UNL A   1      36.386  21.511  25.317  1.00  0.00     0.116 C 
BRANCH  70  71
ATOM     71  N   UNL A   1      35.362  21.783  26.294  1.00  0.00    -0.354 N 
ATOM     72  C   UNL A   1      34.101  21.237  26.227  1.00  0.00     0.245 C 
ATOM     73  H   UNL A   1      35.573  22.386  27.043  1.00  0.00     0.163 HD
ATOM     74  O   UNL A   1      33.640  20.779  27.281  1.00  0.00    -0.273 OA
BRANCH  72  75
ATOM     75  C   UNL A   1      33.213  21.333  24.961  1.00  0.00     0.199 C 
BRANCH  75  76
ATOM     76  C   UNL A   1      33.054  20.121  24.025  1.00  0.00     0.073 C 
BRANCH  76  77
ATOM     77  C   UNL A   1      33.391  18.749  24.551  1.00  0.00    -0.045 A 
ATOM     78  C   UNL A   1      34.640  18.164  24.314  1.00  0.00     0.004 A 
ATOM     79  C   UNL A   1      32.456  18.047  25.323  1.00  0.00     0.004 A 
ATOM     80  C   UNL A   1      34.901  16.859  24.731  1.00  0.00     0.000 A 
ATOM     81  C   UNL A   1      32.712  16.740  25.734  1.00  0.00     0.000 A 
ATOM     82  C   UNL A   1      33.927  16.139  25.418  1.00  0.00     0.000 A 
ENDBRANCH  76  77
ENDBRANCH  75  76
BRANCH  75  83
ATOM     83  N   UNL A   1      32.116  22.316  24.898  1.00  0.00    -0.270 NA
ATOM     84  C   UNL A   1      32.030  23.590  24.990  1.00  0.00     0.109 C 
ATOM     85  C   UNL A   1      33.134  24.593  25.151  1.00  0.00     0.209 C 
ATOM     86  C   UNL A   1      30.657  24.214  24.977  1.00  0.00     0.205 C 
ATOM     87  O   UNL A   1      34.252  24.346  24.737  1.00  0.00    -0.287 OA
ATOM     88  C   UNL A   1      32.859  25.909  25.751  1.00  0.00     0.035 A 
ATOM     89  C   UNL A   1      30.473  25.282  26.031  1.00  0.00     0.187 C 
ATOM     90  Cl  UNL A   1      30.382  24.947  23.375  1.00  0.00    -0.107 Cl
ATOM     91  C   UNL A   1      33.896  26.848  25.834  1.00  0.00     0.013 A 
ATOM     92  C   UNL A   1      31.598  26.221  26.246  1.00  0.00     0.031 A 
ATOM     93  O   UNL A   1      29.431  25.422  26.665  1.00  0.00    -0.292 OA
ATOM     94  C   UNL A   1      33.687  28.069  26.471  1.00  0.00     0.001 A 
ATOM     95  C   UNL A   1      31.393  27.439  26.909  1.00  0.00     0.012 A 
ATOM     96  C   UNL A   1      32.442  28.356  27.028  1.00  0.00     0.001 A 
ENDBRANCH  75  83
ENDBRANCH  72  75
ENDBRANCH  70  71
ENDBRANCH  69  70
ENDBRANCH   1  69
TORSDOF 17
ENDMDL
MODEL 2
REMARK VINA RESULT:     -12.8      6.132     10.954
REMARK SMILES O=C(NCCCCNC(=O)[C@@H](Cc1ccccc1)/N=C1\C(=O)c2ccccc2C(=O)[C@H]1Cl)c1ccc(-c2c3nc(c(-c4ccc(S(=O)(=O)[O-])cc4)c4ccc([nH]4)c(-c4ccc(S(=O)(=O)[O-])cc4)c4nc(c(-c5ccc(S(=O)(=O)[O-])cc5)c5ccc2[nH]5)C=C4)C=C3)cc1
REMARK SMILES IDX 5 1 4 2 3 3 1 4 2 5 33 7 34 8 92 9 35 10 91 11 36 12 37 13
REMARK SMILES IDX 38 14 85 15 39 16 90 17 84 18 86 19 40 20 89 21 83 22 82 23
REMARK SMILES IDX 41 25 71 26 52 27 70 28 53 29 56 30 69 31 87 32 54 33 55 34
REMARK SMILES IDX 68 36 88 37 57 38 42 39 43 40 51 41 44 42 50 43 45 44 46 45
REMARK SMILES IDX 47 46 48 47 49 48 72 49 73 50 81 51 74 52 80 53 75 54 76 55
REMARK SMILES IDX 77 56 78 57 79 58 58 59 59 60 67 61 60 62 66 63 61 64 62 65
REMARK SMILES IDX 63 66 64 67 65 68 6 69 7 70 8 71 9 72 10 74 11 75 12 76
REMARK SMILES IDX 13 77 14 78 18 79 15 80 17 81 16 82 19 83 20 84 21 85 31 86
REMARK SMILES IDX 22 87 23 88 29 89 32 90 24 91 28 92 30 93 25 94 27 95 26 96
REMARK H PARENT 3 6 86 24 56 35 8 73
REMARK Flexibility Score: inf
ROOT
ATOM      1  C   UNL A   1      38.069  22.194  25.745  1.00  0.00     0.023 C 
ENDROOT
BRANCH   1   2
ATOM      2  C   UNL A   1      39.387  21.788  26.412  1.00  0.00     0.116 C 
BRANCH   2   3
ATOM      3  N   UNL A   1      39.907  20.458  26.114  1.00  0.00    -0.352 N 
ATOM      4  O   UNL A   1      41.544  18.887  25.902  1.00  0.00    -0.269 OA
ATOM      5  C   UNL A   1      41.234  20.055  26.111  1.00  0.00     0.251 C 
ATOM      6  H   UNL A   1      39.241  19.769  25.891  1.00  0.00     0.163 HD
BRANCH   5   7
ATOM      7  C   UNL A   1      42.288  21.077  26.320  1.00  0.00     0.039 A 
ATOM      8  C   UNL A   1      42.648  21.453  27.613  1.00  0.00     0.014 A 
ATOM      9  C   UNL A   1      42.785  21.780  25.218  1.00  0.00     0.014 A 
ATOM     10  C   UNL A   1      43.264  22.683  27.811  1.00  0.00     0.010 A 
ATOM     11  C   UNL A   1      43.503  22.963  25.422  1.00  0.00     0.010 A 
ATOM     12  C   UNL A   1      43.662  23.475  26.720  1.00  0.00    -0.014 A 
BRANCH  12  13
ATOM     13  C   UNL A   1      44.163  24.859  26.961  1.00  0.00     0.031 A 
ATOM     14  C   UNL A   1      43.242  25.933  27.498  1.00  0.00     0.074 A 
ATOM     15  C   UNL A   1      45.471  25.134  26.779  1.00  0.00     0.049 A 
ATOM     16  N   UNL A   1      43.502  27.191  27.755  1.00  0.00    -0.248 NA
ATOM     17  C   UNL A   1      41.848  25.549  27.778  1.00  0.00     0.031 C 
ATOM     18  C   UNL A   1      46.472  24.180  26.295  1.00  0.00     0.029 A 
ATOM     19  N   UNL A   1      46.188  26.281  27.007  1.00  0.00    -0.354 N 
ATOM     20  C   UNL A   1      42.302  27.756  28.181  1.00  0.00     0.074 A 
ATOM     21  C   UNL A   1      41.309  26.706  28.141  1.00  0.00     0.031 C 
ATOM     22  C   UNL A   1      47.680  24.761  26.321  1.00  0.00     0.029 A 
ATOM     23  C   UNL A   1      47.531  26.149  26.743  1.00  0.00     0.049 A 
ATOM     24  H   UNL A   1      45.781  27.118  27.329  1.00  0.00     0.167 HD
ATOM     25  C   UNL A   1      42.050  29.030  28.569  1.00  0.00     0.031 A 
ATOM     26  C   UNL A   1      48.532  27.047  26.804  1.00  0.00     0.031 A 
ATOM     27  C   UNL A   1      43.048  30.066  28.641  1.00  0.00     0.049 A 
ATOM     28  C   UNL A   1      48.227  28.453  27.226  1.00  0.00     0.074 A 
ATOM     29  C   UNL A   1      42.896  31.383  29.035  1.00  0.00     0.029 A 
ATOM     30  N   UNL A   1      44.387  29.898  28.321  1.00  0.00    -0.354 N 
ATOM     31  N   UNL A   1      47.078  28.969  27.593  1.00  0.00    -0.248 NA
ATOM     32  C   UNL A   1      49.349  29.401  27.232  1.00  0.00     0.031 C 
ATOM     33  C   UNL A   1      44.136  32.022  28.916  1.00  0.00     0.029 A 
ATOM     34  C   UNL A   1      45.069  31.090  28.493  1.00  0.00     0.049 A 
ATOM     35  H   UNL A   1      44.793  29.053  28.016  1.00  0.00     0.167 HD
ATOM     36  C   UNL A   1      47.338  30.304  27.872  1.00  0.00     0.074 A 
ATOM     37  C   UNL A   1      48.757  30.508  27.660  1.00  0.00     0.031 C 
ATOM     38  C   UNL A   1      46.478  31.276  28.263  1.00  0.00     0.031 A 
BRANCH  25  39
ATOM     39  C   UNL A   1      40.627  29.394  28.914  1.00  0.00    -0.014 A 
ATOM     40  C   UNL A   1      39.653  29.584  27.918  1.00  0.00     0.010 A 
ATOM     41  C   UNL A   1      40.247  29.495  30.266  1.00  0.00     0.010 A 
ATOM     42  C   UNL A   1      38.336  29.903  28.266  1.00  0.00     0.020 A 
ATOM     43  C   UNL A   1      38.927  29.791  30.619  1.00  0.00     0.020 A 
ATOM     44  C   UNL A   1      37.982  30.010  29.615  1.00  0.00     0.054 A 
BRANCH  44  45
ATOM     45  S   UNL A   1      36.262  30.405  30.041  1.00  0.00     0.124 S 
ATOM     46  O   UNL A   1      36.085  29.666  31.289  1.00  0.00    -0.237 OA
ATOM     47  O   UNL A   1      36.288  31.859  30.171  1.00  0.00    -0.237 OA
ATOM     48  O   UNL A   1      35.498  29.899  28.903  1.00  0.00    -0.744 OA
ENDBRANCH  44  45
ENDBRANCH  25  39
BRANCH  26  49
ATOM     49  C   UNL A   1      49.907  26.634  26.416  1.00  0.00    -0.014 A 
ATOM     50  C   UNL A   1      50.763  26.015  27.342  1.00  0.00     0.010 A 
ATOM     51  C   UNL A   1      50.344  26.811  25.090  1.00  0.00     0.010 A 
ATOM     52  C   UNL A   1      52.031  25.576  26.946  1.00  0.00     0.020 A 
ATOM     53  C   UNL A   1      51.597  26.348  24.684  1.00  0.00     0.020 A 
ATOM     54  C   UNL A   1      52.436  25.738  25.618  1.00  0.00     0.054 A 
BRANCH  54  55
ATOM     55  S   UNL A   1      54.045  25.080  25.098  1.00  0.00     0.124 S 
ATOM     56  O   UNL A   1      54.279  25.801  23.852  1.00  0.00    -0.237 OA
ATOM     57  O   UNL A   1      54.914  25.444  26.214  1.00  0.00    -0.237 OA
ATOM     58  O   UNL A   1      53.795  23.647  24.958  1.00  0.00    -0.744 OA
ENDBRANCH  54  55
ENDBRANCH  26  49
BRANCH  38  59
ATOM     59  C   UNL A   1      47.057  32.643  28.494  1.00  0.00    -0.014 A 
ATOM     60  C   UNL A   1      47.570  33.006  29.751  1.00  0.00     0.010 A 
ATOM     61  C   UNL A   1      47.114  33.564  27.434  1.00  0.00     0.010 A 
ATOM     62  C   UNL A   1      48.097  34.283  29.956  1.00  0.00     0.020 A 
ATOM     63  C   UNL A   1      47.661  34.835  27.628  1.00  0.00     0.020 A 
ATOM     64  C   UNL A   1      48.134  35.192  28.893  1.00  0.00     0.054 A 
BRANCH  64  65
ATOM     65  S   UNL A   1      48.843  36.837  29.172  1.00  0.00     0.124 S 
ATOM     66  O   UNL A   1      50.009  36.529  29.995  1.00  0.00    -0.237 OA
ATOM     67  O   UNL A   1      49.134  37.299  27.817  1.00  0.00    -0.237 OA
ATOM     68  O   UNL A   1      47.772  37.562  29.854  1.00  0.00    -0.744 OA
ENDBRANCH  64  65
ENDBRANCH  38  59
ENDBRANCH  12  13
ENDBRANCH   5   7
ENDBRANCH   2   3
ENDBRANCH   1   2
BRANCH   1  69
ATOM     69  C   UNL A   1      37.504  21.317  24.622  1.00  0.00     0.023 C 
BRANCH  69  70
ATOM     70  C   UNL A   1      36.257  20.539  25.010  1.00  0.00     0.116 C 
BRANCH  70  71
ATOM     71  N   UNL A   1      35.364  21.132  25.975  1.00  0.00    -0.354 N 
ATOM     72  C   UNL A   1      34.017  20.856  26.013  1.00  0.00     0.245 C 
ATOM     73  H   UNL A   1      35.735  21.762  26.635  1.00  0.00     0.163 HD
ATOM     74  O   UNL A   1      33.531  20.631  27.130  1.00  0.00    -0.273 OA
BRANCH  72  75
ATOM     75  C   UNL A   1      33.100  20.985  24.773  1.00  0.00     0.199 C 
BRANCH  75  76
ATOM     76  C   UNL A   1      32.858  19.776  23.850  1.00  0.00     0.073 C 
BRANCH  76  77
ATOM     77  C   UNL A   1      33.197  18.398  24.359  1.00  0.00    -0.045 A 
ATOM     78  C   UNL A   1      32.357  17.723  25.253  1.00  0.00     0.004 A 
ATOM     79  C   UNL A   1      34.357  17.753  23.910  1.00  0.00     0.004 A 
ATOM     80  C   UNL A   1      32.732  16.488  25.782  1.00  0.00     0.000 A 
ATOM     81  C   UNL A   1      34.738  16.523  24.444  1.00  0.00     0.000 A 
ATOM     82  C   UNL A   1      33.935  15.901  25.396  1.00  0.00     0.000 A 
ENDBRANCH  76  77
ENDBRANCH  75  76
BRANCH  75  83
ATOM     83  N   UNL A   1      32.048  22.018  24.732  1.00  0.00    -0.270 NA
ATOM     84  C   UNL A   1      32.022  23.294  24.832  1.00  0.00     0.109 C 
ATOM     85  C   UNL A   1      33.173  24.244  24.981  1.00  0.00     0.209 C 
ATOM     86  C   UNL A   1      30.680  23.981  24.845  1.00  0.00     0.205 C 
ATOM     87  O   UNL A   1      34.273  23.948  24.547  1.00  0.00    -0.287 OA
ATOM     88  C   UNL A   1      32.969  25.568  25.591  1.00  0.00     0.035 A 
ATOM     89  C   UNL A   1      30.562  25.050  25.907  1.00  0.00     0.187 C 
ATOM     90  Cl  UNL A   1      30.413  24.735  23.251  1.00  0.00    -0.107 Cl
ATOM     91  C   UNL A   1      34.050  26.457  25.663  1.00  0.00     0.013 A 
ATOM     92  C   UNL A   1      31.732  25.935  26.109  1.00  0.00     0.031 A 
ATOM     93  O   UNL A   1      29.538  25.233  26.559  1.00  0.00    -0.292 OA
ATOM     94  C   UNL A   1      33.907  27.683  26.309  1.00  0.00     0.001 A 
ATOM     95  C   UNL A   1      31.594  27.157  26.781  1.00  0.00     0.012 A 
ATOM     96  C   UNL A   1      32.686  28.024  26.888  1.00  0.00     0.001 A 
ENDBRANCH  75  83
ENDBRANCH  72  75
ENDBRANCH  70  71
ENDBRANCH  69  70
ENDBRANCH   1  69
TORSDOF 17
ENDMDL
MODEL 3
REMARK VINA RESULT:     -12.8      5.932      7.875
REMARK SMILES O=C(NCCCCNC(=O)[C@@H](Cc1ccccc1)/N=C1\C(=O)c2ccccc2C(=O)[C@H]1Cl)c1ccc(-c2c3nc(c(-c4ccc(S(=O)(=O)[O-])cc4)c4ccc([nH]4)c(-c4ccc(S(=O)(=O)[O-])cc4)c4nc(c(-c5ccc(S(=O)(=O)[O-])cc5)c5ccc2[nH]5)C=C4)C=C3)cc1
REMARK SMILES IDX 5 1 4 2 3 3 1 4 2 5 33 7 34 8 92 9 35 10 91 11 36 12 37 13
REMARK SMILES IDX 38 14 85 15 39 16 90 17 84 18 86 19 40 20 89 21 83 22 82 23
REMARK SMILES IDX 41 25 71 26 52 27 70 28 53 29 56 30 69 31 87 32 54 33 55 34
REMARK SMILES IDX 68 36 88 37 57 38 42 39 43 40 51 41 44 42 50 43 45 44 46 45
REMARK SMILES IDX 47 46 48 47 49 48 72 49 73 50 81 51 74 52 80 53 75 54 76 55
REMARK SMILES IDX 77 56 78 57 79 58 58 59 59 60 67 61 60 62 66 63 61 64 62 65
REMARK SMILES IDX 63 66 64 67 65 68 6 69 7 70 8 71 9 72 10 74 11 75 12 76
REMARK SMILES IDX 13 77 14 78 18 79 15 80 17 81 16 82 19 83 20 84 21 85 31 86
REMARK SMILES IDX 22 87 23 88 29 89 32 90 24 91 28 92 30 93 25 94 27 95 26 96
REMARK H PARENT 3 6 86 24 56 35 8 73
REMARK Flexibility Score: inf
ROOT
ATOM      1  C   UNL A   1      37.970  22.250  25.711  1.00  0.00     0.023 C 
ENDROOT
BRANCH   1   2
ATOM      2  C   UNL A   1      39.226  21.796  26.461  1.00  0.00     0.116 C 
BRANCH   2   3
ATOM      3  N   UNL A   1      39.757  20.475  26.142  1.00  0.00    -0.352 N 
ATOM      4  O   UNL A   1      41.403  18.912  25.933  1.00  0.00    -0.269 OA
ATOM      5  C   UNL A   1      41.085  20.074  26.165  1.00  0.00     0.251 C 
ATOM      6  H   UNL A   1      39.100  19.791  25.881  1.00  0.00     0.163 HD
BRANCH   5   7
ATOM      7  C   UNL A   1      42.131  21.091  26.432  1.00  0.00     0.039 A 
ATOM      8  C   UNL A   1      42.494  21.390  27.744  1.00  0.00     0.014 A 
ATOM      9  C   UNL A   1      42.615  21.866  25.373  1.00  0.00     0.014 A 
ATOM     10  C   UNL A   1      43.099  22.612  28.014  1.00  0.00     0.010 A 
ATOM     11  C   UNL A   1      43.323  23.041  25.646  1.00  0.00     0.010 A 
ATOM     12  C   UNL A   1      43.485  23.474  26.972  1.00  0.00    -0.014 A 
BRANCH  12  13
ATOM     13  C   UNL A   1      43.973  24.845  27.296  1.00  0.00     0.031 A 
ATOM     14  C   UNL A   1      45.406  25.243  27.014  1.00  0.00     0.074 A 
ATOM     15  C   UNL A   1      43.107  25.766  27.765  1.00  0.00     0.049 A 
ATOM     16  N   UNL A   1      46.006  26.385  27.241  1.00  0.00    -0.248 NA
ATOM     17  C   UNL A   1      46.281  24.228  26.403  1.00  0.00     0.031 C 
ATOM     18  C   UNL A   1      41.691  25.521  28.051  1.00  0.00     0.029 A 
ATOM     19  N   UNL A   1      43.279  27.095  28.055  1.00  0.00    -0.354 N 
ATOM     20  C   UNL A   1      47.330  26.212  26.847  1.00  0.00     0.074 A 
ATOM     21  C   UNL A   1      47.451  24.852  26.371  1.00  0.00     0.031 C 
ATOM     22  C   UNL A   1      41.111  26.674  28.415  1.00  0.00     0.029 A 
ATOM     23  C   UNL A   1      42.126  27.720  28.468  1.00  0.00     0.049 A 
ATOM     24  H   UNL A   1      44.144  27.558  27.975  1.00  0.00     0.167 HD
ATOM     25  C   UNL A   1      48.352  27.103  26.876  1.00  0.00     0.031 A 
ATOM     26  C   UNL A   1      41.907  28.985  28.874  1.00  0.00     0.031 A 
ATOM     27  C   UNL A   1      48.221  28.468  27.319  1.00  0.00     0.049 A 
ATOM     28  C   UNL A   1      43.055  29.949  28.910  1.00  0.00     0.074 A 
ATOM     29  C   UNL A   1      49.192  29.453  27.374  1.00  0.00     0.029 A 
ATOM     30  N   UNL A   1      47.044  29.044  27.771  1.00  0.00    -0.354 N 
ATOM     31  N   UNL A   1      44.303  29.751  28.561  1.00  0.00    -0.248 NA
ATOM     32  C   UNL A   1      42.767  31.302  29.403  1.00  0.00     0.031 C 
ATOM     33  C   UNL A   1      48.610  30.613  27.898  1.00  0.00     0.029 A 
ATOM     34  C   UNL A   1      47.267  30.364  28.124  1.00  0.00     0.049 A 
ATOM     35  H   UNL A   1      46.177  28.581  27.833  1.00  0.00     0.167 HD
ATOM     36  C   UNL A   1      44.953  30.957  28.794  1.00  0.00     0.074 A 
ATOM     37  C   UNL A   1      43.953  31.884  29.286  1.00  0.00     0.031 C 
ATOM     38  C   UNL A   1      46.262  31.266  28.624  1.00  0.00     0.031 A 
BRANCH  25  39
ATOM     39  C   UNL A   1      49.718  26.625  26.453  1.00  0.00    -0.014 A 
ATOM     40  C   UNL A   1      50.592  25.996  27.359  1.00  0.00     0.010 A 
ATOM     41  C   UNL A   1      50.113  26.760  25.109  1.00  0.00     0.010 A 
ATOM     42  C   UNL A   1      51.847  25.545  26.936  1.00  0.00     0.020 A 
ATOM     43  C   UNL A   1      51.357  26.290  24.676  1.00  0.00     0.020 A 
ATOM     44  C   UNL A   1      52.224  25.700  25.598  1.00  0.00     0.054 A 
BRANCH  44  45
ATOM     45  S   UNL A   1      53.849  25.088  25.069  1.00  0.00     0.124 S 
ATOM     46  O   UNL A   1      54.680  25.403  26.230  1.00  0.00    -0.237 OA
ATOM     47  O   UNL A   1      53.601  23.667  24.843  1.00  0.00    -0.237 OA
ATOM     48  O   UNL A   1      54.138  25.865  23.867  1.00  0.00    -0.744 OA
ENDBRANCH  44  45
ENDBRANCH  25  39
BRANCH  26  49
ATOM     49  C   UNL A   1      40.543  29.384  29.314  1.00  0.00    -0.014 A 
ATOM     50  C   UNL A   1      40.191  29.371  30.673  1.00  0.00     0.010 A 
ATOM     51  C   UNL A   1      39.606  29.836  28.366  1.00  0.00     0.010 A 
ATOM     52  C   UNL A   1      38.925  29.809  31.078  1.00  0.00     0.020 A 
ATOM     53  C   UNL A   1      38.352  30.300  28.769  1.00  0.00     0.020 A 
ATOM     54  C   UNL A   1      38.017  30.277  30.124  1.00  0.00     0.054 A 
BRANCH  54  55
ATOM     55  S   UNL A   1      36.415  30.928  30.673  1.00  0.00     0.124 S 
ATOM     56  O   UNL A   1      35.990  29.916  31.634  1.00  0.00    -0.237 OA
ATOM     57  O   UNL A   1      36.776  32.227  31.238  1.00  0.00    -0.237 OA
ATOM     58  O   UNL A   1      35.634  30.992  29.440  1.00  0.00    -0.744 OA
ENDBRANCH  54  55
ENDBRANCH  26  49
BRANCH  38  59
ATOM     59  C   UNL A   1      46.678  32.669  28.963  1.00  0.00    -0.014 A 
ATOM     60  C   UNL A   1      46.524  33.712  28.034  1.00  0.00     0.010 A 
ATOM     61  C   UNL A   1      47.203  32.952  30.236  1.00  0.00     0.010 A 
ATOM     62  C   UNL A   1      46.923  35.011  28.359  1.00  0.00     0.020 A 
ATOM     63  C   UNL A   1      47.583  34.253  30.573  1.00  0.00     0.020 A 
ATOM     64  C   UNL A   1      47.456  35.271  29.626  1.00  0.00     0.054 A 
BRANCH  64  65
ATOM     65  S   UNL A   1      47.948  36.968  30.036  1.00  0.00     0.124 S 
ATOM     66  O   UNL A   1      46.664  37.587  30.352  1.00  0.00    -0.237 OA
ATOM     67  O   UNL A   1      48.851  36.778  31.168  1.00  0.00    -0.237 OA
ATOM     68  O   UNL A   1      48.586  37.446  28.811  1.00  0.00    -0.744 OA
ENDBRANCH  64  65
ENDBRANCH  38  59
ENDBRANCH  12  13
ENDBRANCH   5   7
ENDBRANCH   2   3
ENDBRANCH   1   2
BRANCH   1  69
ATOM     69  C   UNL A   1      37.391  21.346  24.617  1.00  0.00     0.023 C 
BRANCH  69  70
ATOM     70  C   UNL A   1      36.200  20.515  25.065  1.00  0.00     0.116 C 
BRANCH  70  71
ATOM     71  N   UNL A   1      35.297  21.094  26.028  1.00  0.00    -0.354 N 
ATOM     72  C   UNL A   1      33.950  20.819  26.048  1.00  0.00     0.245 C 
ATOM     73  H   UNL A   1      35.661  21.714  26.702  1.00  0.00     0.163 HD
ATOM     74  O   UNL A   1      33.451  20.578  27.157  1.00  0.00    -0.273 OA
BRANCH  72  75
ATOM     75  C   UNL A   1      33.046  20.966  24.800  1.00  0.00     0.199 C 
BRANCH  75  76
ATOM     76  C   UNL A   1      32.802  19.766  23.865  1.00  0.00     0.073 C 
BRANCH  76  77
ATOM     77  C   UNL A   1      33.153  18.384  24.353  1.00  0.00    -0.045 A 
ATOM     78  C   UNL A   1      32.304  17.677  25.213  1.00  0.00     0.004 A 
ATOM     79  C   UNL A   1      34.335  17.769  23.921  1.00  0.00     0.004 A 
ATOM     80  C   UNL A   1      32.687  16.438  25.726  1.00  0.00     0.000 A 
ATOM     81  C   UNL A   1      34.724  16.535  24.439  1.00  0.00     0.000 A 
ATOM     82  C   UNL A   1      33.909  15.880  25.358  1.00  0.00     0.000 A 
ENDBRANCH  76  77
ENDBRANCH  75  76
BRANCH  75  83
ATOM     83  N   UNL A   1      32.003  22.008  24.758  1.00  0.00    -0.270 NA
ATOM     84  C   UNL A   1      31.989  23.285  24.851  1.00  0.00     0.109 C 
ATOM     85  C   UNL A   1      33.150  24.225  24.989  1.00  0.00     0.209 C 
ATOM     86  C   UNL A   1      30.653  23.984  24.865  1.00  0.00     0.205 C 
ATOM     87  O   UNL A   1      34.245  23.917  24.552  1.00  0.00    -0.287 OA
ATOM     88  C   UNL A   1      32.961  25.554  25.593  1.00  0.00     0.035 A 
ATOM     89  C   UNL A   1      30.550  25.060  25.922  1.00  0.00     0.187 C 
ATOM     90  Cl  UNL A   1      30.387  24.731  23.269  1.00  0.00    -0.107 Cl
ATOM     91  C   UNL A   1      34.050  26.434  25.655  1.00  0.00     0.013 A 
ATOM     92  C   UNL A   1      31.729  25.935  26.114  1.00  0.00     0.031 A 
ATOM     93  O   UNL A   1      29.530  25.257  26.577  1.00  0.00    -0.292 OA
ATOM     94  C   UNL A   1      33.921  27.665  26.294  1.00  0.00     0.001 A 
ATOM     95  C   UNL A   1      31.605  27.163  26.780  1.00  0.00     0.012 A 
ATOM     96  C   UNL A   1      32.706  28.020  26.877  1.00  0.00     0.001 A 
ENDBRANCH  75  83
ENDBRANCH  72  75
ENDBRANCH  70  71
ENDBRANCH  69  70
ENDBRANCH   1  69
TORSDOF 17
ENDMDL
