MODEL 1
REMARK VINA RESULT:     -12.6      0.000      0.000
REMARK SMILES Cc1ccc(C)c(/C=C2\SC(=S)N(CC(=O)NCCCCNC(=O)c3ccc(-c4c5nc(c(-c6ccc(S(=O)(=O)[O-])cc6)c6ccc([nH]6)c(-c6ccc(S(=O)(=O)[O-])cc6)c6nc(c(-c7ccc(S(=O)(=O)[O-])cc7)c7ccc4[nH]7)C=C6)C=C5)cc3)C2=O)c1
REMARK SMILES IDX 20 1 19 2 18 3 17 4 15 5 16 6 14 8 13 9 8 10 9 11 10 12
REMARK SMILES IDX 85 13 11 14 86 15 12 16 7 17 1 18 2 19 3 20 87 21 4 22 5 23
REMARK SMILES IDX 6 24 21 25 22 26 23 27 24 29 25 30 26 31 84 32 27 33 83 34
REMARK SMILES IDX 28 35 29 36 30 37 77 38 31 39 82 40 76 41 78 42 32 43 81 44
REMARK SMILES IDX 75 45 74 46 33 48 63 49 44 50 62 51 45 52 48 53 61 54 79 55
REMARK SMILES IDX 46 56 47 57 60 59 80 60 49 61 34 62 35 63 43 64 36 65 42 66
REMARK SMILES IDX 37 67 38 68 39 69 40 70 41 71 64 72 65 73 73 74 66 75 72 76
REMARK SMILES IDX 67 77 68 78 69 79 70 80 71 81 50 82 51 83 59 84 52 85 58 86
REMARK SMILES IDX 53 87 54 88 55 89 56 90 57 91
REMARK H PARENT 17 7 22 28 78 47 48 58
REMARK Flexibility Score: inf
ROOT
ATOM      1  C   UNL A   1      36.624  23.156  24.088  1.00  0.00     0.023 C 
ENDROOT
BRANCH   1   2
ATOM      2  C   UNL A   1      35.463  22.170  24.288  1.00  0.00     0.023 C 
BRANCH   2   3
ATOM      3  C   UNL A   1      34.043  22.658  23.994  1.00  0.00     0.116 C 
BRANCH   3   4
ATOM      4  N   UNL A   1      33.124  22.516  25.097  1.00  0.00    -0.355 N 
ATOM      5  C   UNL A   1      31.910  23.104  25.304  1.00  0.00     0.240 C 
ATOM      6  O   UNL A   1      31.170  22.572  26.136  1.00  0.00    -0.273 OA
ATOM      7  H   UNL A   1      33.417  21.902  25.809  1.00  0.00     0.163 HD
BRANCH   5   8
ATOM      8  C   UNL A   1      31.409  24.271  24.443  1.00  0.00     0.227 C 
BRANCH   8   9
ATOM      9  N   UNL A   1      32.155  25.511  24.651  1.00  0.00    -0.283 N 
ATOM     10  C   UNL A   1      32.990  28.074  27.055  1.00  0.00     0.029 C 
ATOM     11  C   UNL A   1      32.884  27.343  25.936  1.00  0.00     0.081 C 
ATOM     12  S   UNL A   1      33.684  27.566  24.433  1.00  0.00    -0.054 SA
ATOM     13  C   UNL A   1      32.025  26.133  25.881  1.00  0.00     0.266 C 
ATOM     14  C   UNL A   1      32.879  26.188  23.694  1.00  0.00     0.148 C 
ATOM     15  O   UNL A   1      31.323  25.766  26.808  1.00  0.00    -0.268 OA
ATOM     16  S   UNL A   1      33.031  25.859  22.068  1.00  0.00    -0.052 S 
BRANCH  10  17
ATOM     17  C   UNL A   1      33.861  29.244  27.236  1.00  0.00    -0.021 A 
ATOM     18  C   UNL A   1      37.560  29.861  27.950  1.00  0.00     0.044 C 
ATOM     19  C   UNL A   1      36.107  30.107  27.672  1.00  0.00    -0.051 A 
ATOM     20  C   UNL A   1      35.596  31.405  27.675  1.00  0.00     0.004 A 
ATOM     21  C   UNL A   1      35.239  29.039  27.428  1.00  0.00     0.011 A 
ATOM     22  C   UNL A   1      34.236  31.627  27.443  1.00  0.00     0.004 A 
ATOM     23  C   UNL A   1      33.353  30.556  27.223  1.00  0.00    -0.044 A 
ATOM     24  C   UNL A   1      31.900  30.887  27.007  1.00  0.00     0.045 C 
ENDBRANCH  10  17
ENDBRANCH   8   9
ENDBRANCH   5   8
ENDBRANCH   3   4
ENDBRANCH   2   3
ENDBRANCH   1   2
BRANCH   1  25
ATOM     25  C   UNL A   1      37.367  23.642  25.334  1.00  0.00     0.116 C 
BRANCH  25  26
ATOM     26  N   UNL A   1      38.108  22.586  26.048  1.00  0.00    -0.352 N 
ATOM     27  C   UNL A   1      39.326  22.576  26.732  1.00  0.00     0.251 C 
ATOM     28  H   UNL A   1      37.650  21.714  26.044  1.00  0.00     0.163 HD
ATOM     29  O   UNL A   1      39.903  21.517  26.907  1.00  0.00    -0.269 OA
BRANCH  27  30
ATOM     30  C   UNL A   1      39.910  23.831  27.271  1.00  0.00     0.039 A 
ATOM     31  C   UNL A   1      41.260  24.059  27.531  1.00  0.00     0.014 A 
ATOM     32  C   UNL A   1      39.028  24.820  27.625  1.00  0.00     0.014 A 
ATOM     33  C   UNL A   1      41.610  25.235  28.218  1.00  0.00     0.010 A 
ATOM     34  C   UNL A   1      39.421  26.102  27.805  1.00  0.00     0.010 A 
ATOM     35  C   UNL A   1      40.639  26.228  28.406  1.00  0.00    -0.014 A 
BRANCH  35  36
ATOM     36  C   UNL A   1      40.814  27.455  29.159  1.00  0.00     0.031 A 
ATOM     37  C   UNL A   1      41.817  28.350  28.566  1.00  0.00     0.074 A 
ATOM     38  C   UNL A   1      39.943  27.923  30.085  1.00  0.00     0.049 A 
ATOM     39  N   UNL A   1      43.036  28.500  28.950  1.00  0.00    -0.248 NA
ATOM     40  C   UNL A   1      41.491  28.996  27.286  1.00  0.00     0.031 C 
ATOM     41  C   UNL A   1      38.644  27.379  30.507  1.00  0.00     0.029 A 
ATOM     42  N   UNL A   1      40.010  29.092  30.781  1.00  0.00    -0.354 N 
ATOM     43  C   UNL A   1      43.565  29.453  28.097  1.00  0.00     0.074 A 
ATOM     44  C   UNL A   1      42.676  29.517  26.964  1.00  0.00     0.031 C 
ATOM     45  C   UNL A   1      37.973  28.310  31.228  1.00  0.00     0.029 A 
ATOM     46  C   UNL A   1      38.843  29.454  31.444  1.00  0.00     0.049 A 
ATOM     47  H   UNL A   1      40.828  29.640  30.814  1.00  0.00     0.167 HD
ATOM     48  C   UNL A   1      44.525  30.321  28.515  1.00  0.00     0.031 A 
ATOM     49  C   UNL A   1      38.614  30.630  32.085  1.00  0.00     0.031 A 
ATOM     50  C   UNL A   1      45.021  29.974  29.827  1.00  0.00     0.049 A 
ATOM     51  C   UNL A   1      39.944  31.229  32.378  1.00  0.00     0.074 A 
ATOM     52  C   UNL A   1      45.609  28.850  30.376  1.00  0.00     0.029 A 
ATOM     53  N   UNL A   1      44.532  30.704  30.889  1.00  0.00    -0.354 N 
ATOM     54  N   UNL A   1      40.806  30.696  33.198  1.00  0.00    -0.248 NA
ATOM     55  C   UNL A   1      40.503  32.173  31.423  1.00  0.00     0.031 C 
ATOM     56  C   UNL A   1      45.031  28.729  31.675  1.00  0.00     0.029 A 
ATOM     57  C   UNL A   1      44.179  29.818  31.877  1.00  0.00     0.049 A 
ATOM     58  H   UNL A   1      44.450  31.684  30.931  1.00  0.00     0.167 HD
ATOM     59  C   UNL A   1      42.042  30.887  32.595  1.00  0.00     0.074 A 
ATOM     60  C   UNL A   1      41.804  31.895  31.564  1.00  0.00     0.031 C 
ATOM     61  C   UNL A   1      43.072  30.010  32.796  1.00  0.00     0.031 A 
BRANCH  48  62
ATOM     62  C   UNL A   1      44.720  31.692  27.928  1.00  0.00    -0.014 A 
ATOM     63  C   UNL A   1      45.930  31.974  27.269  1.00  0.00     0.010 A 
ATOM     64  C   UNL A   1      43.868  32.782  28.206  1.00  0.00     0.010 A 
ATOM     65  C   UNL A   1      46.294  33.288  26.955  1.00  0.00     0.020 A 
ATOM     66  C   UNL A   1      44.197  34.089  27.854  1.00  0.00     0.020 A 
ATOM     67  C   UNL A   1      45.427  34.338  27.262  1.00  0.00     0.054 A 
BRANCH  67  68
ATOM     68  S   UNL A   1      45.950  36.040  26.952  1.00  0.00     0.124 S 
ATOM     69  O   UNL A   1      46.747  36.327  28.139  1.00  0.00    -0.237 OA
ATOM     70  O   UNL A   1      46.694  35.910  25.702  1.00  0.00    -0.237 OA
ATOM     71  O   UNL A   1      44.689  36.771  26.847  1.00  0.00    -0.744 OA
ENDBRANCH  67  68
ENDBRANCH  48  62
BRANCH  49  72
ATOM     72  C   UNL A   1      37.347  31.399  32.197  1.00  0.00    -0.014 A 
ATOM     73  C   UNL A   1      36.932  31.947  33.427  1.00  0.00     0.010 A 
ATOM     74  C   UNL A   1      36.687  31.842  31.031  1.00  0.00     0.010 A 
ATOM     75  C   UNL A   1      35.948  32.951  33.480  1.00  0.00     0.020 A 
ATOM     76  C   UNL A   1      35.702  32.838  31.077  1.00  0.00     0.020 A 
ATOM     77  C   UNL A   1      35.355  33.407  32.300  1.00  0.00     0.054 A 
BRANCH  77  78
ATOM     78  S   UNL A   1      34.232  34.837  32.357  1.00  0.00     0.124 S 
ATOM     79  O   UNL A   1      33.025  34.262  32.943  1.00  0.00    -0.237 OA
ATOM     80  O   UNL A   1      34.959  35.778  33.205  1.00  0.00    -0.237 OA
ATOM     81  O   UNL A   1      34.113  35.238  30.957  1.00  0.00    -0.744 OA
ENDBRANCH  77  78
ENDBRANCH  49  72
BRANCH  61  82
ATOM     82  C   UNL A   1      42.945  28.995  33.914  1.00  0.00    -0.014 A 
ATOM     83  C   UNL A   1      43.374  29.227  35.236  1.00  0.00     0.010 A 
ATOM     84  C   UNL A   1      42.224  27.817  33.646  1.00  0.00     0.010 A 
ATOM     85  C   UNL A   1      43.113  28.294  36.252  1.00  0.00     0.020 A 
ATOM     86  C   UNL A   1      41.943  26.894  34.656  1.00  0.00     0.020 A 
ATOM     87  C   UNL A   1      42.396  27.132  35.954  1.00  0.00     0.054 A 
BRANCH  87  88
ATOM     88  S   UNL A   1      42.016  25.951  37.280  1.00  0.00     0.124 S 
ATOM     89  O   UNL A   1      42.282  24.664  36.645  1.00  0.00    -0.237 OA
ATOM     90  O   UNL A   1      42.950  26.336  38.336  1.00  0.00    -0.237 OA
ATOM     91  O   UNL A   1      40.609  26.211  37.585  1.00  0.00    -0.744 OA
ENDBRANCH  87  88
ENDBRANCH  61  82
ENDBRANCH  35  36
ENDBRANCH  27  30
ENDBRANCH  25  26
ENDBRANCH   1  25
TORSDOF 16
ENDMDL
MODEL 2
REMARK VINA RESULT:     -12.3      2.745      9.374
REMARK SMILES Cc1ccc(C)c(/C=C2\SC(=S)N(CC(=O)NCCCCNC(=O)c3ccc(-c4c5nc(c(-c6ccc(S(=O)(=O)[O-])cc6)c6ccc([nH]6)c(-c6ccc(S(=O)(=O)[O-])cc6)c6nc(c(-c7ccc(S(=O)(=O)[O-])cc7)c7ccc4[nH]7)C=C6)C=C5)cc3)C2=O)c1
REMARK SMILES IDX 20 1 19 2 18 3 17 4 15 5 16 6 14 8 13 9 8 10 9 11 10 12
REMARK SMILES IDX 85 13 11 14 86 15 12 16 7 17 1 18 2 19 3 20 87 21 4 22 5 23
REMARK SMILES IDX 6 24 21 25 22 26 23 27 24 29 25 30 26 31 84 32 27 33 83 34
REMARK SMILES IDX 28 35 29 36 30 37 77 38 31 39 82 40 76 41 78 42 32 43 81 44
REMARK SMILES IDX 75 45 74 46 33 48 63 49 44 50 62 51 45 52 48 53 61 54 79 55
REMARK SMILES IDX 46 56 47 57 60 59 80 60 49 61 34 62 35 63 43 64 36 65 42 66
REMARK SMILES IDX 37 67 38 68 39 69 40 70 41 71 64 72 65 73 73 74 66 75 72 76
REMARK SMILES IDX 67 77 68 78 69 79 70 80 71 81 50 82 51 83 59 84 52 85 58 86
REMARK SMILES IDX 53 87 54 88 55 89 56 90 57 91
REMARK H PARENT 17 7 22 28 78 47 48 58
REMARK Flexibility Score: inf
ROOT
ATOM      1  C   UNL A   1      33.314  28.366  25.488  1.00  0.00     0.023 C 
ENDROOT
BRANCH   1   2
ATOM      2  C   UNL A   1      33.874  28.032  24.096  1.00  0.00     0.023 C 
BRANCH   2   3
ATOM      3  C   UNL A   1      33.112  27.022  23.236  1.00  0.00     0.116 C 
BRANCH   3   4
ATOM      4  N   UNL A   1      31.822  26.645  23.763  1.00  0.00    -0.355 N 
ATOM      5  C   UNL A   1      31.337  25.410  24.084  1.00  0.00     0.240 C 
ATOM      6  O   UNL A   1      30.353  25.376  24.826  1.00  0.00    -0.273 OA
ATOM      7  H   UNL A   1      31.198  27.391  23.914  1.00  0.00     0.163 HD
BRANCH   5   8
ATOM      8  C   UNL A   1      32.060  24.117  23.681  1.00  0.00     0.227 C 
BRANCH   8   9
ATOM      9  N   UNL A   1      33.191  23.787  24.545  1.00  0.00    -0.283 N 
ATOM     10  C   UNL A   1      36.791  23.533  24.710  1.00  0.00     0.029 C 
ATOM     11  C   UNL A   1      35.483  23.498  25.002  1.00  0.00     0.081 C 
ATOM     12  S   UNL A   1      34.730  23.173  26.510  1.00  0.00    -0.054 SA
ATOM     13  C   UNL A   1      34.454  23.806  23.976  1.00  0.00     0.266 C 
ATOM     14  C   UNL A   1      33.111  23.337  25.844  1.00  0.00     0.148 C 
ATOM     15  O   UNL A   1      34.719  24.043  22.810  1.00  0.00    -0.268 OA
ATOM     16  S   UNL A   1      31.758  22.961  26.741  1.00  0.00    -0.052 S 
BRANCH  10  17
ATOM     17  C   UNL A   1      37.888  23.312  25.664  1.00  0.00    -0.021 A 
ATOM     18  C   UNL A   1      39.906  25.443  28.105  1.00  0.00     0.044 C 
ATOM     19  C   UNL A   1      39.407  24.261  27.329  1.00  0.00    -0.051 A 
ATOM     20  C   UNL A   1      40.030  23.019  27.452  1.00  0.00     0.004 A 
ATOM     21  C   UNL A   1      38.325  24.391  26.453  1.00  0.00     0.011 A 
ATOM     22  C   UNL A   1      39.578  21.927  26.706  1.00  0.00     0.004 A 
ATOM     23  C   UNL A   1      38.508  22.057  25.804  1.00  0.00    -0.044 A 
ATOM     24  C   UNL A   1      38.105  20.834  25.024  1.00  0.00     0.045 C 
ENDBRANCH  10  17
ENDBRANCH   8   9
ENDBRANCH   5   8
ENDBRANCH   3   4
ENDBRANCH   2   3
ENDBRANCH   1   2
BRANCH   1  25
ATOM     25  C   UNL A   1      34.286  28.923  26.530  1.00  0.00     0.116 C 
BRANCH  25  26
ATOM     26  N   UNL A   1      34.189  30.380  26.731  1.00  0.00    -0.352 N 
ATOM     27  C   UNL A   1      34.852  31.268  27.582  1.00  0.00     0.251 C 
ATOM     28  H   UNL A   1      33.525  30.814  26.148  1.00  0.00     0.163 HD
ATOM     29  O   UNL A   1      34.342  32.346  27.835  1.00  0.00    -0.269 OA
BRANCH  27  30
ATOM     30  C   UNL A   1      36.179  30.928  28.157  1.00  0.00     0.039 A 
ATOM     31  C   UNL A   1      36.914  31.719  29.038  1.00  0.00     0.014 A 
ATOM     32  C   UNL A   1      36.768  29.774  27.709  1.00  0.00     0.014 A 
ATOM     33  C   UNL A   1      38.233  31.329  29.330  1.00  0.00     0.010 A 
ATOM     34  C   UNL A   1      37.787  29.183  28.374  1.00  0.00     0.010 A 
ATOM     35  C   UNL A   1      38.675  30.063  28.921  1.00  0.00    -0.014 A 
BRANCH  35  36
ATOM     36  C   UNL A   1      40.022  29.545  29.069  1.00  0.00     0.031 A 
ATOM     37  C   UNL A   1      40.341  29.179  30.455  1.00  0.00     0.074 A 
ATOM     38  C   UNL A   1      40.794  29.100  28.049  1.00  0.00     0.049 A 
ATOM     39  N   UNL A   1      41.027  29.874  31.295  1.00  0.00    -0.248 NA
ATOM     40  C   UNL A   1      39.659  28.013  31.035  1.00  0.00     0.031 C 
ATOM     41  C   UNL A   1      40.477  28.978  26.618  1.00  0.00     0.029 A 
ATOM     42  N   UNL A   1      42.036  28.544  28.121  1.00  0.00    -0.354 N 
ATOM     43  C   UNL A   1      41.064  29.107  32.447  1.00  0.00     0.074 A 
ATOM     44  C   UNL A   1      40.012  28.131  32.315  1.00  0.00     0.031 C 
ATOM     45  C   UNL A   1      41.415  28.213  26.008  1.00  0.00     0.029 A 
ATOM     46  C   UNL A   1      42.471  27.915  26.961  1.00  0.00     0.049 A 
ATOM     47  H   UNL A   1      42.587  28.587  28.937  1.00  0.00     0.167 HD
ATOM     48  C   UNL A   1      42.135  29.142  33.285  1.00  0.00     0.031 A 
ATOM     49  C   UNL A   1      43.601  27.173  26.823  1.00  0.00     0.031 A 
ATOM     50  C   UNL A   1      43.061  30.190  32.922  1.00  0.00     0.049 A 
ATOM     51  C   UNL A   1      44.509  27.556  27.938  1.00  0.00     0.074 A 
ATOM     52  C   UNL A   1      42.964  31.560  32.770  1.00  0.00     0.029 A 
ATOM     53  N   UNL A   1      44.187  29.809  32.224  1.00  0.00    -0.354 N 
ATOM     54  N   UNL A   1      45.037  28.743  28.058  1.00  0.00    -0.248 NA
ATOM     55  C   UNL A   1      44.470  26.772  29.163  1.00  0.00     0.031 C 
ATOM     56  C   UNL A   1      43.748  31.860  31.616  1.00  0.00     0.029 A 
ATOM     57  C   UNL A   1      44.336  30.674  31.168  1.00  0.00     0.049 A 
ATOM     58  H   UNL A   1      44.777  29.053  32.443  1.00  0.00     0.167 HD
ATOM     59  C   UNL A   1      44.991  29.021  29.417  1.00  0.00     0.074 A 
ATOM     60  C   UNL A   1      44.735  27.732  30.056  1.00  0.00     0.031 C 
ATOM     61  C   UNL A   1      44.882  30.306  29.874  1.00  0.00     0.031 A 
BRANCH  48  62
ATOM     62  C   UNL A   1      42.542  27.992  34.165  1.00  0.00    -0.014 A 
ATOM     63  C   UNL A   1      42.641  28.210  35.550  1.00  0.00     0.010 A 
ATOM     64  C   UNL A   1      43.060  26.779  33.664  1.00  0.00     0.010 A 
ATOM     65  C   UNL A   1      43.279  27.285  36.384  1.00  0.00     0.020 A 
ATOM     66  C   UNL A   1      43.653  25.828  34.491  1.00  0.00     0.020 A 
ATOM     67  C   UNL A   1      43.791  26.104  35.843  1.00  0.00     0.054 A 
BRANCH  67  68
ATOM     68  S   UNL A   1      44.707  24.966  36.907  1.00  0.00     0.124 S 
ATOM     69  O   UNL A   1      44.070  25.189  38.200  1.00  0.00    -0.237 OA
ATOM     70  O   UNL A   1      44.438  23.674  36.280  1.00  0.00    -0.237 OA
ATOM     71  O   UNL A   1      46.087  25.430  36.796  1.00  0.00    -0.744 OA
ENDBRANCH  67  68
ENDBRANCH  48  62
BRANCH  49  72
ATOM     72  C   UNL A   1      43.828  25.967  25.985  1.00  0.00    -0.014 A 
ATOM     73  C   UNL A   1      45.105  25.664  25.473  1.00  0.00     0.010 A 
ATOM     74  C   UNL A   1      42.847  24.956  25.926  1.00  0.00     0.010 A 
ATOM     75  C   UNL A   1      45.409  24.378  24.990  1.00  0.00     0.020 A 
ATOM     76  C   UNL A   1      43.139  23.674  25.440  1.00  0.00     0.020 A 
ATOM     77  C   UNL A   1      44.427  23.383  24.999  1.00  0.00     0.054 A 
BRANCH  77  78
ATOM     78  S   UNL A   1      44.880  21.676  24.559  1.00  0.00     0.124 S 
ATOM     79  O   UNL A   1      44.041  20.890  25.458  1.00  0.00    -0.237 OA
ATOM     80  O   UNL A   1      44.526  21.608  23.144  1.00  0.00    -0.237 OA
ATOM     81  O   UNL A   1      46.313  21.618  24.838  1.00  0.00    -0.744 OA
ENDBRANCH  77  78
ENDBRANCH  49  72
BRANCH  61  82
ATOM     82  C   UNL A   1      45.112  31.439  28.895  1.00  0.00    -0.014 A 
ATOM     83  C   UNL A   1      46.358  32.067  28.700  1.00  0.00     0.010 A 
ATOM     84  C   UNL A   1      44.054  31.778  28.032  1.00  0.00     0.010 A 
ATOM     85  C   UNL A   1      46.531  33.025  27.688  1.00  0.00     0.020 A 
ATOM     86  C   UNL A   1      44.224  32.716  27.010  1.00  0.00     0.020 A 
ATOM     87  C   UNL A   1      45.460  33.342  26.848  1.00  0.00     0.054 A 
BRANCH  87  88
ATOM     88  S   UNL A   1      45.700  34.543  25.508  1.00  0.00     0.124 S 
ATOM     89  O   UNL A   1      47.137  34.462  25.261  1.00  0.00    -0.237 OA
ATOM     90  O   UNL A   1      44.849  34.018  24.443  1.00  0.00    -0.237 OA
ATOM     91  O   UNL A   1      45.243  35.807  26.087  1.00  0.00    -0.744 OA
ENDBRANCH  87  88
ENDBRANCH  61  82
ENDBRANCH  35  36
ENDBRANCH  27  30
ENDBRANCH  25  26
ENDBRANCH   1  25
TORSDOF 16
ENDMDL
MODEL 3
REMARK VINA RESULT:     -11.7      1.548      2.538
REMARK SMILES Cc1ccc(C)c(/C=C2\SC(=S)N(CC(=O)NCCCCNC(=O)c3ccc(-c4c5nc(c(-c6ccc(S(=O)(=O)[O-])cc6)c6ccc([nH]6)c(-c6ccc(S(=O)(=O)[O-])cc6)c6nc(c(-c7ccc(S(=O)(=O)[O-])cc7)c7ccc4[nH]7)C=C6)C=C5)cc3)C2=O)c1
REMARK SMILES IDX 20 1 19 2 18 3 17 4 15 5 16 6 14 8 13 9 8 10 9 11 10 12
REMARK SMILES IDX 85 13 11 14 86 15 12 16 7 17 1 18 2 19 3 20 87 21 4 22 5 23
REMARK SMILES IDX 6 24 21 25 22 26 23 27 24 29 25 30 26 31 84 32 27 33 83 34
REMARK SMILES IDX 28 35 29 36 30 37 77 38 31 39 82 40 76 41 78 42 32 43 81 44
REMARK SMILES IDX 75 45 74 46 33 48 63 49 44 50 62 51 45 52 48 53 61 54 79 55
REMARK SMILES IDX 46 56 47 57 60 59 80 60 49 61 34 62 35 63 43 64 36 65 42 66
REMARK SMILES IDX 37 67 38 68 39 69 40 70 41 71 64 72 65 73 73 74 66 75 72 76
REMARK SMILES IDX 67 77 68 78 69 79 70 80 71 81 50 82 51 83 59 84 52 85 58 86
REMARK SMILES IDX 53 87 54 88 55 89 56 90 57 91
REMARK H PARENT 17 7 22 28 78 47 48 58
REMARK Flexibility Score: inf
ROOT
ATOM      1  C   UNL A   1      39.298  21.006  25.835  1.00  0.00     0.023 C 
ENDROOT
BRANCH   1   2
ATOM      2  C   UNL A   1      38.142  22.017  25.766  1.00  0.00     0.023 C 
BRANCH   2   3
ATOM      3  C   UNL A   1      36.734  21.485  25.493  1.00  0.00     0.116 C 
BRANCH   3   4
ATOM      4  N   UNL A   1      35.839  21.562  26.623  1.00  0.00    -0.355 N 
ATOM      5  C   UNL A   1      34.475  21.580  26.656  1.00  0.00     0.240 C 
ATOM      6  O   UNL A   1      33.942  21.307  27.734  1.00  0.00    -0.273 OA
ATOM      7  H   UNL A   1      36.279  21.610  27.502  1.00  0.00     0.163 HD
BRANCH   5   8
ATOM      8  C   UNL A   1      33.628  21.772  25.390  1.00  0.00     0.227 C 
BRANCH   8   9
ATOM      9  N   UNL A   1      33.410  23.174  25.042  1.00  0.00    -0.283 N 
ATOM     10  C   UNL A   1      31.396  26.095  25.720  1.00  0.00     0.029 C 
ATOM     11  C   UNL A   1      32.297  25.242  25.213  1.00  0.00     0.081 C 
ATOM     12  S   UNL A   1      33.554  25.557  24.087  1.00  0.00    -0.054 SA
ATOM     13  C   UNL A   1      32.341  23.820  25.640  1.00  0.00     0.266 C 
ATOM     14  C   UNL A   1      34.092  23.882  24.077  1.00  0.00     0.148 C 
ATOM     15  O   UNL A   1      31.538  23.327  26.414  1.00  0.00    -0.268 OA
ATOM     16  S   UNL A   1      35.250  23.345  23.005  1.00  0.00    -0.052 S 
BRANCH  10  17
ATOM     17  C   UNL A   1      31.311  27.532  25.418  1.00  0.00    -0.021 A 
ATOM     18  C   UNL A   1      32.554  30.774  27.005  1.00  0.00     0.044 C 
ATOM     19  C   UNL A   1      31.889  29.820  26.058  1.00  0.00    -0.051 A 
ATOM     20  C   UNL A   1      31.143  30.298  24.980  1.00  0.00     0.004 A 
ATOM     21  C   UNL A   1      31.986  28.439  26.254  1.00  0.00     0.011 A 
ATOM     22  C   UNL A   1      30.502  29.406  24.116  1.00  0.00     0.004 A 
ATOM     23  C   UNL A   1      30.574  28.017  24.322  1.00  0.00    -0.044 A 
ATOM     24  C   UNL A   1      29.832  27.132  23.357  1.00  0.00     0.045 C 
ENDBRANCH  10  17
ENDBRANCH   8   9
ENDBRANCH   5   8
ENDBRANCH   3   4
ENDBRANCH   2   3
ENDBRANCH   1   2
BRANCH   1  25
ATOM     25  C   UNL A   1      40.454  21.311  26.790  1.00  0.00     0.116 C 
BRANCH  25  26
ATOM     26  N   UNL A   1      41.691  21.754  26.123  1.00  0.00    -0.352 N 
ATOM     27  C   UNL A   1      42.178  23.013  25.764  1.00  0.00     0.251 C 
ATOM     28  H   UNL A   1      42.296  21.014  25.885  1.00  0.00     0.163 HD
ATOM     29  O   UNL A   1      43.030  23.098  24.896  1.00  0.00    -0.269 OA
BRANCH  27  30
ATOM     30  C   UNL A   1      41.694  24.241  26.444  1.00  0.00     0.039 A 
ATOM     31  C   UNL A   1      40.618  25.030  26.040  1.00  0.00     0.014 A 
ATOM     32  C   UNL A   1      42.429  24.686  27.514  1.00  0.00     0.014 A 
ATOM     33  C   UNL A   1      40.420  26.260  26.691  1.00  0.00     0.010 A 
ATOM     34  C   UNL A   1      41.932  25.569  28.410  1.00  0.00     0.010 A 
ATOM     35  C   UNL A   1      41.150  26.540  27.854  1.00  0.00    -0.014 A 
BRANCH  35  36
ATOM     36  C   UNL A   1      41.125  27.787  28.594  1.00  0.00     0.031 A 
ATOM     37  C   UNL A   1      42.183  28.717  28.179  1.00  0.00     0.074 A 
ATOM     38  C   UNL A   1      40.073  28.230  29.324  1.00  0.00     0.049 A 
ATOM     39  N   UNL A   1      43.299  28.932  28.784  1.00  0.00    -0.248 NA
ATOM     40  C   UNL A   1      42.082  29.325  26.843  1.00  0.00     0.031 C 
ATOM     41  C   UNL A   1      38.742  27.633  29.505  1.00  0.00     0.029 A 
ATOM     42  N   UNL A   1      39.956  29.413  29.989  1.00  0.00    -0.354 N 
ATOM     43  C   UNL A   1      43.940  29.893  28.022  1.00  0.00     0.074 A 
ATOM     44  C   UNL A   1      43.282  29.895  26.739  1.00  0.00     0.031 C 
ATOM     45  C   UNL A   1      37.906  28.545  30.060  1.00  0.00     0.029 A 
ATOM     46  C   UNL A   1      38.669  29.732  30.407  1.00  0.00     0.049 A 
ATOM     47  H   UNL A   1      40.728  30.000  30.162  1.00  0.00     0.167 HD
ATOM     48  C   UNL A   1      44.764  30.813  28.593  1.00  0.00     0.031 A 
ATOM     49  C   UNL A   1      38.271  30.907  30.961  1.00  0.00     0.031 A 
ATOM     50  C   UNL A   1      45.015  30.513  29.983  1.00  0.00     0.049 A 
ATOM     51  C   UNL A   1      39.493  31.573  31.486  1.00  0.00     0.074 A 
ATOM     52  C   UNL A   1      45.533  29.428  30.664  1.00  0.00     0.029 A 
ATOM     53  N   UNL A   1      44.300  31.238  30.913  1.00  0.00    -0.354 N 
ATOM     54  N   UNL A   1      40.205  31.096  32.470  1.00  0.00    -0.248 NA
ATOM     55  C   UNL A   1      40.184  32.525  30.630  1.00  0.00     0.031 C 
ATOM     56  C   UNL A   1      44.723  29.303  31.832  1.00  0.00     0.029 A 
ATOM     57  C   UNL A   1      43.803  30.355  31.839  1.00  0.00     0.049 A 
ATOM     58  H   UNL A   1      44.170  32.214  30.912  1.00  0.00     0.167 HD
ATOM     59  C   UNL A   1      41.524  31.334  32.108  1.00  0.00     0.074 A 
ATOM     60  C   UNL A   1      41.445  32.311  31.024  1.00  0.00     0.031 C 
ATOM     61  C   UNL A   1      42.533  30.510  32.525  1.00  0.00     0.031 A 
BRANCH  48  62
ATOM     62  C   UNL A   1      45.009  32.181  28.017  1.00  0.00    -0.014 A 
ATOM     63  C   UNL A   1      46.333  32.563  27.735  1.00  0.00     0.010 A 
ATOM     64  C   UNL A   1      44.023  33.188  27.968  1.00  0.00     0.010 A 
ATOM     65  C   UNL A   1      46.660  33.898  27.474  1.00  0.00     0.020 A 
ATOM     66  C   UNL A   1      44.329  34.512  27.659  1.00  0.00     0.020 A 
ATOM     67  C   UNL A   1      45.654  34.865  27.450  1.00  0.00     0.054 A 
BRANCH  67  68
ATOM     68  S   UNL A   1      46.098  36.602  27.218  1.00  0.00     0.124 S 
ATOM     69  O   UNL A   1      44.805  37.199  26.902  1.00  0.00    -0.237 OA
ATOM     70  O   UNL A   1      46.660  36.952  28.519  1.00  0.00    -0.237 OA
ATOM     71  O   UNL A   1      47.060  36.565  26.119  1.00  0.00    -0.744 OA
ENDBRANCH  67  68
ENDBRANCH  48  62
BRANCH  49  72
ATOM     72  C   UNL A   1      36.974  31.617  30.809  1.00  0.00    -0.014 A 
ATOM     73  C   UNL A   1      36.662  32.742  31.598  1.00  0.00     0.010 A 
ATOM     74  C   UNL A   1      36.161  31.364  29.685  1.00  0.00     0.010 A 
ATOM     75  C   UNL A   1      35.623  33.618  31.235  1.00  0.00     0.020 A 
ATOM     76  C   UNL A   1      35.120  32.229  29.321  1.00  0.00     0.020 A 
ATOM     77  C   UNL A   1      34.872  33.367  30.083  1.00  0.00     0.054 A 
BRANCH  77  78
ATOM     78  S   UNL A   1      33.666  34.605  29.514  1.00  0.00     0.124 S 
ATOM     79  O   UNL A   1      33.126  35.114  30.770  1.00  0.00    -0.237 OA
ATOM     80  O   UNL A   1      34.500  35.538  28.761  1.00  0.00    -0.237 OA
ATOM     81  O   UNL A   1      32.731  33.827  28.705  1.00  0.00    -0.744 OA
ENDBRANCH  77  78
ENDBRANCH  49  72
BRANCH  61  82
ATOM     82  C   UNL A   1      42.237  29.512  33.625  1.00  0.00    -0.014 A 
ATOM     83  C   UNL A   1      41.613  28.267  33.408  1.00  0.00     0.010 A 
ATOM     84  C   UNL A   1      42.750  29.784  34.906  1.00  0.00     0.010 A 
ATOM     85  C   UNL A   1      41.483  27.335  34.450  1.00  0.00     0.020 A 
ATOM     86  C   UNL A   1      42.641  28.853  35.944  1.00  0.00     0.020 A 
ATOM     87  C   UNL A   1      42.000  27.636  35.713  1.00  0.00     0.054 A 
BRANCH  87  88
ATOM     88  S   UNL A   1      41.875  26.410  37.046  1.00  0.00     0.124 S 
ATOM     89  O   UNL A   1      43.002  26.757  37.905  1.00  0.00    -0.237 OA
ATOM     90  O   UNL A   1      40.552  26.673  37.607  1.00  0.00    -0.237 OA
ATOM     91  O   UNL A   1      41.998  25.127  36.352  1.00  0.00    -0.744 OA
ENDBRANCH  87  88
ENDBRANCH  61  82
ENDBRANCH  35  36
ENDBRANCH  27  30
ENDBRANCH  25  26
ENDBRANCH   1  25
TORSDOF 16
ENDMDL
