MODEL 1
REMARK VINA RESULT:     -13.2      0.000      0.000
REMARK SMILES Cc1ccc(OCC(=O)NNC(=O)[C@H]2CCCC[C@@H]2C(=O)NCCCCNC(=O)c2ccc(-c3c4nc(c(-c5ccc(S(=O)(=O)[O-])cc5)c5ccc([nH]5)c(-c5ccc(S(=O)(=O)[O-])cc5)c5nc(c(-c6ccc(S(=O)(=O)[O-])cc6)c6ccc3[nH]6)C=C5)C=C4)cc2)cc1
REMARK SMILES IDX 23 1 22 2 20 3 21 4 19 6 14 7 15 8 16 9 18 10 17 11 12 12
REMARK SMILES IDX 11 13 13 15 10 16 8 17 9 18 7 20 6 21 5 22 1 23 2 24 3 25
REMARK SMILES IDX 91 26 4 27 90 28 24 29 25 30 26 31 27 32 28 33 29 35 30 36
REMARK SMILES IDX 31 37 89 38 32 39 88 40 33 41 34 42 35 43 82 44 36 45 87 46
REMARK SMILES IDX 81 47 83 48 37 49 86 50 80 51 79 52 38 54 68 55 49 56 67 57
REMARK SMILES IDX 50 58 53 59 66 60 84 61 51 62 52 63 65 65 85 66 54 67 39 68
REMARK SMILES IDX 40 69 48 70 41 71 47 72 42 73 43 74 44 75 45 76 46 77 69 78
REMARK SMILES IDX 70 79 78 80 71 81 77 82 72 83 73 84 74 85 75 86 76 87 55 88
REMARK SMILES IDX 56 89 64 90 57 91 63 92 58 93 59 94 60 95 61 96 62 97
REMARK H PARENT 22 5 11 14 10 19 27 34 83 53 53 64
REMARK Flexibility Score: inf
ROOT
ATOM      1  C   UNL A   1      34.028  27.932  25.451  1.00  0.00     0.116 C 
ENDROOT
BRANCH   1   2
ATOM      2  N   UNL A   1      33.625  26.882  24.521  1.00  0.00    -0.356 N 
ATOM      3  C   UNL A   1      33.151  25.620  24.634  1.00  0.00     0.223 C 
ATOM      4  O   UNL A   1      32.863  25.073  23.557  1.00  0.00    -0.275 OA
ATOM      5  H   UNL A   1      33.723  27.159  23.581  1.00  0.00     0.163 HD
BRANCH   3   6
ATOM      6  C   UNL A   1      33.030  24.784  25.922  1.00  0.00     0.091 C 
ATOM      7  C   UNL A   1      33.314  23.292  25.570  1.00  0.00     0.092 C 
ATOM      8  C   UNL A   1      32.069  22.631  24.942  1.00  0.00     0.014 C 
ATOM      9  C   UNL A   1      30.797  22.794  25.776  1.00  0.00     0.001 C 
ATOM     10  C   UNL A   1      31.797  24.864  26.816  1.00  0.00     0.014 C 
ATOM     11  C   UNL A   1      30.557  24.240  26.182  1.00  0.00     0.001 C 
BRANCH   7  12
ATOM     12  C   UNL A   1      33.819  22.497  26.780  1.00  0.00     0.242 C 
ATOM     13  N   UNL A   1      35.163  22.306  26.960  1.00  0.00    -0.267 N 
ATOM     14  H   UNL A   1      35.444  21.857  27.789  1.00  0.00     0.191 HD
ATOM     15  O   UNL A   1      33.064  21.989  27.612  1.00  0.00    -0.273 OA
BRANCH  13  16
ATOM     16  N   UNL A   1      36.164  22.689  26.079  1.00  0.00    -0.265 N 
ATOM     17  C   UNL A   1      36.679  21.849  25.118  1.00  0.00     0.276 C 
ATOM     18  O   UNL A   1      37.501  22.269  24.301  1.00  0.00    -0.269 OA
ATOM     19  H   UNL A   1      36.522  23.603  26.144  1.00  0.00     0.191 HD
BRANCH  17  20
ATOM     20  C   UNL A   1      36.160  20.406  25.048  1.00  0.00     0.331 C 
BRANCH  20  21
ATOM     21  O   UNL A   1      34.816  20.243  24.627  1.00  0.00    -0.484 OA
BRANCH  21  22
ATOM     22  C   UNL A   1      34.210  19.043  24.880  1.00  0.00     0.120 A 
ATOM     23  C   UNL A   1      32.609  15.066  25.407  1.00  0.00     0.044 C 
ATOM     24  C   UNL A   1      33.165  16.448  25.232  1.00  0.00    -0.051 A 
ATOM     25  C   UNL A   1      34.366  16.642  24.544  1.00  0.00     0.007 A 
ATOM     26  C   UNL A   1      32.500  17.562  25.751  1.00  0.00     0.007 A 
ATOM     27  C   UNL A   1      34.881  17.930  24.368  1.00  0.00     0.047 A 
ATOM     28  C   UNL A   1      33.017  18.851  25.578  1.00  0.00     0.047 A 
ENDBRANCH  21  22
ENDBRANCH  20  21
ENDBRANCH  17  20
ENDBRANCH  13  16
ENDBRANCH   7  12
ENDBRANCH   3   6
ENDBRANCH   1   2
BRANCH   1  29
ATOM     29  C   UNL A   1      32.903  28.928  25.751  1.00  0.00     0.023 C 
BRANCH  29  30
ATOM     30  C   UNL A   1      33.315  30.132  26.594  1.00  0.00     0.023 C 
BRANCH  30  31
ATOM     31  C   UNL A   1      34.351  29.826  27.670  1.00  0.00     0.116 C 
BRANCH  31  32
ATOM     32  N   UNL A   1      35.062  30.986  28.192  1.00  0.00    -0.352 N 
ATOM     33  C   UNL A   1      36.348  31.028  28.730  1.00  0.00     0.251 C 
ATOM     34  H   UNL A   1      34.577  31.842  28.162  1.00  0.00     0.163 HD
ATOM     35  O   UNL A   1      36.812  31.999  29.263  1.00  0.00    -0.269 OA
BRANCH  33  36
ATOM     36  C   UNL A   1      37.196  29.830  28.494  1.00  0.00     0.039 A 
ATOM     37  C   UNL A   1      37.464  29.020  29.602  1.00  0.00     0.014 A 
ATOM     38  C   UNL A   1      37.938  29.720  27.322  1.00  0.00     0.014 A 
ATOM     39  C   UNL A   1      38.626  28.256  29.609  1.00  0.00     0.010 A 
ATOM     40  C   UNL A   1      39.151  29.062  27.380  1.00  0.00     0.010 A 
ATOM     41  C   UNL A   1      39.520  28.378  28.543  1.00  0.00    -0.014 A 
BRANCH  41  42
ATOM     42  C   UNL A   1      40.890  27.884  28.618  1.00  0.00     0.031 A 
ATOM     43  C   UNL A   1      41.178  26.491  28.213  1.00  0.00     0.074 A 
ATOM     44  C   UNL A   1      41.885  28.658  29.110  1.00  0.00     0.049 A 
ATOM     45  N   UNL A   1      42.067  25.739  28.770  1.00  0.00    -0.248 NA
ATOM     46  C   UNL A   1      40.413  25.814  27.172  1.00  0.00     0.031 C 
ATOM     47  C   UNL A   1      43.310  28.333  29.132  1.00  0.00     0.029 A 
ATOM     48  N   UNL A   1      41.785  29.793  29.920  1.00  0.00    -0.354 N 
ATOM     49  C   UNL A   1      42.185  24.608  27.995  1.00  0.00     0.074 A 
ATOM     50  C   UNL A   1      41.079  24.662  27.067  1.00  0.00     0.031 C 
ATOM     51  C   UNL A   1      43.880  29.004  30.144  1.00  0.00     0.029 A 
ATOM     52  C   UNL A   1      42.822  29.701  30.859  1.00  0.00     0.049 A 
ATOM     53  H   UNL A   1      41.118  30.514  29.845  1.00  0.00     0.167 HD
ATOM     54  C   UNL A   1      43.287  23.812  28.100  1.00  0.00     0.031 A 
ATOM     55  C   UNL A   1      42.632  29.682  32.207  1.00  0.00     0.031 A 
ATOM     56  C   UNL A   1      44.205  24.289  29.130  1.00  0.00     0.049 A 
ATOM     57  C   UNL A   1      43.185  28.435  32.866  1.00  0.00     0.074 A 
ATOM     58  C   UNL A   1      45.368  25.039  29.077  1.00  0.00     0.029 A 
ATOM     59  N   UNL A   1      43.811  24.272  30.464  1.00  0.00    -0.354 N 
ATOM     60  N   UNL A   1      43.559  27.370  32.211  1.00  0.00    -0.248 NA
ATOM     61  C   UNL A   1      43.323  28.270  34.309  1.00  0.00     0.031 C 
ATOM     62  C   UNL A   1      45.631  25.539  30.378  1.00  0.00     0.029 A 
ATOM     63  C   UNL A   1      44.647  25.064  31.227  1.00  0.00     0.049 A 
ATOM     64  H   UNL A   1      43.043  23.765  30.815  1.00  0.00     0.167 HD
ATOM     65  C   UNL A   1      43.987  26.408  33.090  1.00  0.00     0.074 A 
ATOM     66  C   UNL A   1      43.827  27.026  34.395  1.00  0.00     0.031 C 
ATOM     67  C   UNL A   1      44.436  25.187  32.666  1.00  0.00     0.031 A 
BRANCH  54  68
ATOM     68  C   UNL A   1      43.655  22.820  27.019  1.00  0.00    -0.014 A 
ATOM     69  C   UNL A   1      42.834  21.699  26.786  1.00  0.00     0.010 A 
ATOM     70  C   UNL A   1      44.839  22.895  26.260  1.00  0.00     0.010 A 
ATOM     71  C   UNL A   1      43.239  20.644  25.954  1.00  0.00     0.020 A 
ATOM     72  C   UNL A   1      45.281  21.827  25.464  1.00  0.00     0.020 A 
ATOM     73  C   UNL A   1      44.483  20.695  25.331  1.00  0.00     0.054 A 
BRANCH  73  74
ATOM     74  S   UNL A   1      45.055  19.263  24.378  1.00  0.00     0.124 S 
ATOM     75  O   UNL A   1      44.366  18.152  25.029  1.00  0.00    -0.237 OA
ATOM     76  O   UNL A   1      44.601  19.584  23.029  1.00  0.00    -0.237 OA
ATOM     77  O   UNL A   1      46.505  19.278  24.569  1.00  0.00    -0.744 OA
ENDBRANCH  73  74
ENDBRANCH  54  68
BRANCH  55  78
ATOM     78  C   UNL A   1      41.478  30.486  32.693  1.00  0.00    -0.014 A 
ATOM     79  C   UNL A   1      40.347  29.781  33.154  1.00  0.00     0.010 A 
ATOM     80  C   UNL A   1      41.630  31.834  33.061  1.00  0.00     0.010 A 
ATOM     81  C   UNL A   1      39.470  30.355  34.078  1.00  0.00     0.020 A 
ATOM     82  C   UNL A   1      40.755  32.411  33.997  1.00  0.00     0.020 A 
ATOM     83  C   UNL A   1      39.722  31.644  34.544  1.00  0.00     0.054 A 
BRANCH  83  84
ATOM     84  S   UNL A   1      38.752  32.263  35.952  1.00  0.00     0.124 S 
ATOM     85  O   UNL A   1      38.525  33.662  35.597  1.00  0.00    -0.237 OA
ATOM     86  O   UNL A   1      37.567  31.407  35.895  1.00  0.00    -0.237 OA
ATOM     87  O   UNL A   1      39.638  32.043  37.089  1.00  0.00    -0.744 OA
ENDBRANCH  83  84
ENDBRANCH  55  78
BRANCH  67  88
ATOM     88  C   UNL A   1      44.807  23.997  33.528  1.00  0.00    -0.014 A 
ATOM     89  C   UNL A   1      44.029  22.841  33.682  1.00  0.00     0.010 A 
ATOM     90  C   UNL A   1      46.088  23.985  34.142  1.00  0.00     0.010 A 
ATOM     91  C   UNL A   1      44.485  21.749  34.441  1.00  0.00     0.020 A 
ATOM     92  C   UNL A   1      46.569  22.888  34.861  1.00  0.00     0.020 A 
ATOM     93  C   UNL A   1      45.753  21.778  35.022  1.00  0.00     0.054 A 
BRANCH  93  94
ATOM     94  S   UNL A   1      46.373  20.330  35.916  1.00  0.00     0.124 S 
ATOM     95  O   UNL A   1      45.822  19.231  35.129  1.00  0.00    -0.237 OA
ATOM     96  O   UNL A   1      47.823  20.492  35.835  1.00  0.00    -0.237 OA
ATOM     97  O   UNL A   1      45.811  20.488  37.255  1.00  0.00    -0.744 OA
ENDBRANCH  93  94
ENDBRANCH  67  88
ENDBRANCH  41  42
ENDBRANCH  33  36
ENDBRANCH  31  32
ENDBRANCH  30  31
ENDBRANCH  29  30
ENDBRANCH   1  29
TORSDOF 19
ENDMDL
MODEL 2
REMARK VINA RESULT:     -13.0      1.785      2.867
REMARK SMILES Cc1ccc(OCC(=O)NNC(=O)[C@H]2CCCC[C@@H]2C(=O)NCCCCNC(=O)c2ccc(-c3c4nc(c(-c5ccc(S(=O)(=O)[O-])cc5)c5ccc([nH]5)c(-c5ccc(S(=O)(=O)[O-])cc5)c5nc(c(-c6ccc(S(=O)(=O)[O-])cc6)c6ccc3[nH]6)C=C5)C=C4)cc2)cc1
REMARK SMILES IDX 23 1 22 2 20 3 21 4 19 6 14 7 15 8 16 9 18 10 17 11 12 12
REMARK SMILES IDX 11 13 13 15 10 16 8 17 9 18 7 20 6 21 5 22 1 23 2 24 3 25
REMARK SMILES IDX 91 26 4 27 90 28 24 29 25 30 26 31 27 32 28 33 29 35 30 36
REMARK SMILES IDX 31 37 89 38 32 39 88 40 33 41 34 42 35 43 82 44 36 45 87 46
REMARK SMILES IDX 81 47 83 48 37 49 86 50 80 51 79 52 38 54 68 55 49 56 67 57
REMARK SMILES IDX 50 58 53 59 66 60 84 61 51 62 52 63 65 65 85 66 54 67 39 68
REMARK SMILES IDX 40 69 48 70 41 71 47 72 42 73 43 74 44 75 45 76 46 77 69 78
REMARK SMILES IDX 70 79 78 80 71 81 77 82 72 83 73 84 74 85 75 86 76 87 55 88
REMARK SMILES IDX 56 89 64 90 57 91 63 92 58 93 59 94 60 95 61 96 62 97
REMARK H PARENT 22 5 11 14 10 19 27 34 83 53 53 64
REMARK Flexibility Score: inf
ROOT
ATOM      1  C   UNL A   1      32.822  29.925  25.584  1.00  0.00     0.116 C 
ENDROOT
BRANCH   1   2
ATOM      2  N   UNL A   1      31.538  30.020  24.898  1.00  0.00    -0.356 N 
ATOM      3  C   UNL A   1      30.856  29.257  24.012  1.00  0.00     0.223 C 
ATOM      4  O   UNL A   1      29.727  29.682  23.719  1.00  0.00    -0.275 OA
ATOM      5  H   UNL A   1      31.047  30.840  25.137  1.00  0.00     0.163 HD
BRANCH   3   6
ATOM      6  C   UNL A   1      31.368  28.003  23.278  1.00  0.00     0.091 C 
ATOM      7  C   UNL A   1      31.120  26.762  24.189  1.00  0.00     0.092 C 
ATOM      8  C   UNL A   1      32.211  26.655  25.275  1.00  0.00     0.014 C 
ATOM      9  C   UNL A   1      33.637  26.690  24.723  1.00  0.00     0.001 C 
ATOM     10  C   UNL A   1      32.777  27.931  22.701  1.00  0.00     0.014 C 
ATOM     11  C   UNL A   1      33.859  27.859  23.776  1.00  0.00     0.001 C 
BRANCH   7  12
ATOM     12  C   UNL A   1      31.005  25.464  23.382  1.00  0.00     0.242 C 
ATOM     13  N   UNL A   1      30.500  24.336  23.971  1.00  0.00    -0.267 N 
ATOM     14  H   UNL A   1      30.373  23.548  23.395  1.00  0.00     0.191 HD
ATOM     15  O   UNL A   1      31.369  25.369  22.209  1.00  0.00    -0.273 OA
BRANCH  13  16
ATOM     16  N   UNL A   1      30.149  24.202  25.307  1.00  0.00    -0.265 N 
ATOM     17  C   UNL A   1      30.817  23.372  26.178  1.00  0.00     0.276 C 
ATOM     18  O   UNL A   1      30.524  23.362  27.376  1.00  0.00    -0.269 OA
ATOM     19  H   UNL A   1      29.389  24.726  25.647  1.00  0.00     0.191 HD
BRANCH  17  20
ATOM     20  C   UNL A   1      31.970  22.515  25.638  1.00  0.00     0.331 C 
BRANCH  20  21
ATOM     21  O   UNL A   1      33.057  23.219  25.059  1.00  0.00    -0.484 OA
BRANCH  21  22
ATOM     22  C   UNL A   1      34.256  22.566  24.957  1.00  0.00     0.120 A 
ATOM     23  C   UNL A   1      37.823  20.138  24.788  1.00  0.00     0.044 C 
ATOM     24  C   UNL A   1      36.585  20.984  24.839  1.00  0.00    -0.051 A 
ATOM     25  C   UNL A   1      35.347  20.402  25.122  1.00  0.00     0.007 A 
ATOM     26  C   UNL A   1      36.645  22.361  24.605  1.00  0.00     0.007 A 
ATOM     27  C   UNL A   1      34.193  21.189  25.183  1.00  0.00     0.047 A 
ATOM     28  C   UNL A   1      35.490  23.147  24.663  1.00  0.00     0.047 A 
ENDBRANCH  21  22
ENDBRANCH  20  21
ENDBRANCH  17  20
ENDBRANCH  13  16
ENDBRANCH   7  12
ENDBRANCH   3   6
ENDBRANCH   1   2
BRANCH   1  29
ATOM     29  C   UNL A   1      32.737  30.305  27.066  1.00  0.00     0.023 C 
BRANCH  29  30
ATOM     30  C   UNL A   1      33.580  31.512  27.472  1.00  0.00     0.023 C 
BRANCH  30  31
ATOM     31  C   UNL A   1      35.021  31.181  27.841  1.00  0.00     0.116 C 
BRANCH  31  32
ATOM     32  N   UNL A   1      35.459  31.683  29.137  1.00  0.00    -0.352 N 
ATOM     33  C   UNL A   1      36.366  31.096  30.019  1.00  0.00     0.251 C 
ATOM     34  H   UNL A   1      35.068  32.540  29.426  1.00  0.00     0.163 HD
ATOM     35  O   UNL A   1      36.572  31.506  31.129  1.00  0.00    -0.269 OA
BRANCH  33  36
ATOM     36  C   UNL A   1      37.190  29.989  29.468  1.00  0.00     0.039 A 
ATOM     37  C   UNL A   1      37.376  28.873  30.291  1.00  0.00     0.014 A 
ATOM     38  C   UNL A   1      37.989  30.202  28.349  1.00  0.00     0.014 A 
ATOM     39  C   UNL A   1      38.513  28.092  30.115  1.00  0.00     0.010 A 
ATOM     40  C   UNL A   1      39.178  29.505  28.256  1.00  0.00     0.010 A 
ATOM     41  C   UNL A   1      39.466  28.489  29.174  1.00  0.00    -0.014 A 
BRANCH  41  42
ATOM     42  C   UNL A   1      40.814  27.935  29.153  1.00  0.00     0.031 A 
ATOM     43  C   UNL A   1      41.014  26.536  28.717  1.00  0.00     0.074 A 
ATOM     44  C   UNL A   1      41.872  28.660  29.585  1.00  0.00     0.049 A 
ATOM     45  N   UNL A   1      41.905  25.741  29.207  1.00  0.00    -0.248 NA
ATOM     46  C   UNL A   1      40.153  25.905  27.723  1.00  0.00     0.031 C 
ATOM     47  C   UNL A   1      43.280  28.274  29.508  1.00  0.00     0.029 A 
ATOM     48  N   UNL A   1      41.875  29.788  30.409  1.00  0.00    -0.354 N 
ATOM     49  C   UNL A   1      41.922  24.614  28.415  1.00  0.00     0.074 A 
ATOM     50  C   UNL A   1      40.760  24.726  27.565  1.00  0.00     0.031 C 
ATOM     51  C   UNL A   1      43.945  28.909  30.486  1.00  0.00     0.029 A 
ATOM     52  C   UNL A   1      42.968  29.642  31.276  1.00  0.00     0.049 A 
ATOM     53  H   UNL A   1      41.237  30.538  30.385  1.00  0.00     0.167 HD
ATOM     54  C   UNL A   1      42.993  23.771  28.441  1.00  0.00     0.031 A 
ATOM     55  C   UNL A   1      42.866  29.615  32.634  1.00  0.00     0.031 A 
ATOM     56  C   UNL A   1      43.997  24.196  29.411  1.00  0.00     0.049 A 
ATOM     57  C   UNL A   1      43.407  28.338  33.243  1.00  0.00     0.074 A 
ATOM     58  C   UNL A   1      45.185  24.897  29.287  1.00  0.00     0.029 A 
ATOM     59  N   UNL A   1      43.691  24.180  30.767  1.00  0.00    -0.354 N 
ATOM     60  N   UNL A   1      43.690  27.266  32.555  1.00  0.00    -0.248 NA
ATOM     61  C   UNL A   1      43.633  28.151  34.672  1.00  0.00     0.031 C 
ATOM     62  C   UNL A   1      45.555  25.370  30.572  1.00  0.00     0.029 A 
ATOM     63  C   UNL A   1      44.610  24.927  31.480  1.00  0.00     0.049 A 
ATOM     64  H   UNL A   1      42.927  23.702  31.164  1.00  0.00     0.167 HD
ATOM     65  C   UNL A   1      44.134  26.276  33.395  1.00  0.00     0.074 A 
ATOM     66  C   UNL A   1      44.088  26.885  34.713  1.00  0.00     0.031 C 
ATOM     67  C   UNL A   1      44.501  25.042  32.931  1.00  0.00     0.031 A 
BRANCH  54  68
ATOM     68  C   UNL A   1      43.245  22.777  27.329  1.00  0.00    -0.014 A 
ATOM     69  C   UNL A   1      42.486  21.591  27.261  1.00  0.00     0.010 A 
ATOM     70  C   UNL A   1      44.270  22.916  26.373  1.00  0.00     0.010 A 
ATOM     71  C   UNL A   1      42.823  20.545  26.389  1.00  0.00     0.020 A 
ATOM     72  C   UNL A   1      44.651  21.861  25.530  1.00  0.00     0.020 A 
ATOM     73  C   UNL A   1      43.932  20.669  25.557  1.00  0.00     0.054 A 
BRANCH  73  74
ATOM     74  S   UNL A   1      44.442  19.256  24.544  1.00  0.00     0.124 S 
ATOM     75  O   UNL A   1      45.773  18.954  25.065  1.00  0.00    -0.237 OA
ATOM     76  O   UNL A   1      43.409  18.269  24.842  1.00  0.00    -0.237 OA
ATOM     77  O   UNL A   1      44.425  19.783  23.181  1.00  0.00    -0.744 OA
ENDBRANCH  73  74
ENDBRANCH  54  68
BRANCH  55  78
ATOM     78  C   UNL A   1      41.784  30.462  33.202  1.00  0.00    -0.014 A 
ATOM     79  C   UNL A   1      40.457  30.006  33.047  1.00  0.00     0.010 A 
ATOM     80  C   UNL A   1      42.053  31.434  34.180  1.00  0.00     0.010 A 
ATOM     81  C   UNL A   1      39.455  30.395  33.940  1.00  0.00     0.020 A 
ATOM     82  C   UNL A   1      41.050  31.820  35.085  1.00  0.00     0.020 A 
ATOM     83  C   UNL A   1      39.777  31.247  34.994  1.00  0.00     0.054 A 
BRANCH  83  84
ATOM     84  S   UNL A   1      38.546  31.508  36.307  1.00  0.00     0.124 S 
ATOM     85  O   UNL A   1      37.503  32.269  35.624  1.00  0.00    -0.237 OA
ATOM     86  O   UNL A   1      38.186  30.133  36.653  1.00  0.00    -0.237 OA
ATOM     87  O   UNL A   1      39.292  32.242  37.322  1.00  0.00    -0.744 OA
ENDBRANCH  83  84
ENDBRANCH  55  78
BRANCH  67  88
ATOM     88  C   UNL A   1      44.876  23.828  33.756  1.00  0.00    -0.014 A 
ATOM     89  C   UNL A   1      44.005  22.780  34.088  1.00  0.00     0.010 A 
ATOM     90  C   UNL A   1      46.235  23.664  34.133  1.00  0.00     0.010 A 
ATOM     91  C   UNL A   1      44.456  21.650  34.792  1.00  0.00     0.020 A 
ATOM     92  C   UNL A   1      46.704  22.526  34.794  1.00  0.00     0.020 A 
ATOM     93  C   UNL A   1      45.803  21.529  35.138  1.00  0.00     0.054 A 
BRANCH  93  94
ATOM     94  S   UNL A   1      46.396  20.028  35.958  1.00  0.00     0.124 S 
ATOM     95  O   UNL A   1      45.738  20.113  37.259  1.00  0.00    -0.237 OA
ATOM     96  O   UNL A   1      45.914  18.962  35.082  1.00  0.00    -0.237 OA
ATOM     97  O   UNL A   1      47.846  20.198  35.976  1.00  0.00    -0.744 OA
ENDBRANCH  93  94
ENDBRANCH  67  88
ENDBRANCH  41  42
ENDBRANCH  33  36
ENDBRANCH  31  32
ENDBRANCH  30  31
ENDBRANCH  29  30
ENDBRANCH   1  29
TORSDOF 19
ENDMDL
MODEL 3
REMARK VINA RESULT:     -12.9      1.290      2.178
REMARK SMILES Cc1ccc(OCC(=O)NNC(=O)[C@H]2CCCC[C@@H]2C(=O)NCCCCNC(=O)c2ccc(-c3c4nc(c(-c5ccc(S(=O)(=O)[O-])cc5)c5ccc([nH]5)c(-c5ccc(S(=O)(=O)[O-])cc5)c5nc(c(-c6ccc(S(=O)(=O)[O-])cc6)c6ccc3[nH]6)C=C5)C=C4)cc2)cc1
REMARK SMILES IDX 23 1 22 2 20 3 21 4 19 6 14 7 15 8 16 9 18 10 17 11 12 12
REMARK SMILES IDX 11 13 13 15 10 16 8 17 9 18 7 20 6 21 5 22 1 23 2 24 3 25
REMARK SMILES IDX 91 26 4 27 90 28 24 29 25 30 26 31 27 32 28 33 29 35 30 36
REMARK SMILES IDX 31 37 89 38 32 39 88 40 33 41 34 42 35 43 82 44 36 45 87 46
REMARK SMILES IDX 81 47 83 48 37 49 86 50 80 51 79 52 38 54 68 55 49 56 67 57
REMARK SMILES IDX 50 58 53 59 66 60 84 61 51 62 52 63 65 65 85 66 54 67 39 68
REMARK SMILES IDX 40 69 48 70 41 71 47 72 42 73 43 74 44 75 45 76 46 77 69 78
REMARK SMILES IDX 70 79 78 80 71 81 77 82 72 83 73 84 74 85 75 86 76 87 55 88
REMARK SMILES IDX 56 89 64 90 57 91 63 92 58 93 59 94 60 95 61 96 62 97
REMARK H PARENT 22 5 11 14 10 19 27 34 83 53 53 64
REMARK Flexibility Score: inf
ROOT
ATOM      1  C   UNL A   1      31.611  29.639  25.448  1.00  0.00     0.116 C 
ENDROOT
BRANCH   1   2
ATOM      2  N   UNL A   1      31.293  28.351  26.057  1.00  0.00    -0.356 N 
ATOM      3  C   UNL A   1      31.262  27.065  25.638  1.00  0.00     0.223 C 
ATOM      4  O   UNL A   1      30.993  26.235  26.522  1.00  0.00    -0.275 OA
ATOM      5  H   UNL A   1      31.038  28.439  27.004  1.00  0.00     0.163 HD
BRANCH   3   6
ATOM      6  C   UNL A   1      31.426  26.553  24.195  1.00  0.00     0.091 C 
ATOM      7  C   UNL A   1      32.914  26.136  23.985  1.00  0.00     0.092 C 
ATOM      8  C   UNL A   1      33.795  27.375  23.718  1.00  0.00     0.014 C 
ATOM      9  C   UNL A   1      33.281  28.267  22.588  1.00  0.00     0.001 C 
ATOM     10  C   UNL A   1      30.958  27.371  22.996  1.00  0.00     0.014 C 
ATOM     11  C   UNL A   1      31.810  28.614  22.752  1.00  0.00     0.001 C 
BRANCH   7  12
ATOM     12  C   UNL A   1      33.072  25.089  22.877  1.00  0.00     0.242 C 
ATOM     13  N   UNL A   1      33.970  24.066  23.026  1.00  0.00    -0.267 N 
ATOM     14  H   UNL A   1      33.983  23.375  22.325  1.00  0.00     0.191 HD
ATOM     15  O   UNL A   1      32.436  25.126  21.822  1.00  0.00    -0.273 OA
BRANCH  13  16
ATOM     16  N   UNL A   1      34.863  23.914  24.078  1.00  0.00    -0.265 N 
ATOM     17  C   UNL A   1      34.594  23.143  25.185  1.00  0.00     0.276 C 
ATOM     18  O   UNL A   1      35.459  22.967  26.046  1.00  0.00    -0.269 OA
ATOM     19  H   UNL A   1      35.729  24.380  24.029  1.00  0.00     0.191 HD
BRANCH  17  20
ATOM     20  C   UNL A   1      33.224  22.458  25.288  1.00  0.00     0.331 C 
BRANCH  20  21
ATOM     21  O   UNL A   1      32.738  21.846  24.105  1.00  0.00    -0.484 OA
BRANCH  21  22
ATOM     22  C   UNL A   1      32.947  20.502  23.951  1.00  0.00     0.120 A 
ATOM     23  C   UNL A   1      33.990  16.318  23.702  1.00  0.00     0.044 C 
ATOM     24  C   UNL A   1      33.620  17.769  23.791  1.00  0.00    -0.051 A 
ATOM     25  C   UNL A   1      34.369  18.639  24.588  1.00  0.00     0.007 A 
ATOM     26  C   UNL A   1      32.525  18.277  23.085  1.00  0.00     0.007 A 
ATOM     27  C   UNL A   1      34.035  19.994  24.665  1.00  0.00     0.047 A 
ATOM     28  C   UNL A   1      32.190  19.633  23.164  1.00  0.00     0.047 A 
ENDBRANCH  21  22
ENDBRANCH  20  21
ENDBRANCH  17  20
ENDBRANCH  13  16
ENDBRANCH   7  12
ENDBRANCH   3   6
ENDBRANCH   1   2
BRANCH   1  29
ATOM     29  C   UNL A   1      33.012  30.142  25.812  1.00  0.00     0.023 C 
BRANCH  29  30
ATOM     30  C   UNL A   1      33.165  30.642  27.246  1.00  0.00     0.023 C 
BRANCH  30  31
ATOM     31  C   UNL A   1      34.421  30.152  27.957  1.00  0.00     0.116 C 
BRANCH  31  32
ATOM     32  N   UNL A   1      35.105  31.151  28.767  1.00  0.00    -0.352 N 
ATOM     33  C   UNL A   1      36.311  31.015  29.453  1.00  0.00     0.251 C 
ATOM     34  H   UNL A   1      34.662  32.028  28.840  1.00  0.00     0.163 HD
ATOM     35  O   UNL A   1      36.741  31.843  30.210  1.00  0.00    -0.269 OA
BRANCH  33  36
ATOM     36  C   UNL A   1      37.135  29.829  29.100  1.00  0.00     0.039 A 
ATOM     37  C   UNL A   1      37.406  28.922  30.129  1.00  0.00     0.014 A 
ATOM     38  C   UNL A   1      37.856  29.808  27.911  1.00  0.00     0.014 A 
ATOM     39  C   UNL A   1      38.554  28.141  30.051  1.00  0.00     0.010 A 
ATOM     40  C   UNL A   1      39.059  29.129  27.891  1.00  0.00     0.010 A 
ATOM     41  C   UNL A   1      39.434  28.342  28.985  1.00  0.00    -0.014 A 
BRANCH  41  42
ATOM     42  C   UNL A   1      40.796  27.820  28.994  1.00  0.00     0.031 A 
ATOM     43  C   UNL A   1      41.040  26.431  28.553  1.00  0.00     0.074 A 
ATOM     44  C   UNL A   1      41.825  28.567  29.456  1.00  0.00     0.049 A 
ATOM     45  N   UNL A   1      41.937  25.652  29.059  1.00  0.00    -0.248 NA
ATOM     46  C   UNL A   1      40.220  25.786  27.533  1.00  0.00     0.031 C 
ATOM     47  C   UNL A   1      43.243  28.215  29.413  1.00  0.00     0.029 A 
ATOM     48  N   UNL A   1      41.780  29.689  30.288  1.00  0.00    -0.354 N 
ATOM     49  C   UNL A   1      42.001  24.533  28.260  1.00  0.00     0.074 A 
ATOM     50  C   UNL A   1      40.858  24.624  27.382  1.00  0.00     0.031 C 
ATOM     51  C   UNL A   1      43.868  28.858  30.411  1.00  0.00     0.029 A 
ATOM     52  C   UNL A   1      42.854  29.562  31.181  1.00  0.00     0.049 A 
ATOM     53  H   UNL A   1      41.126  30.423  30.254  1.00  0.00     0.167 HD
ATOM     54  C   UNL A   1      43.091  23.715  28.306  1.00  0.00     0.031 A 
ATOM     55  C   UNL A   1      42.720  29.522  32.536  1.00  0.00     0.031 A 
ATOM     56  C   UNL A   1      44.060  24.156  29.304  1.00  0.00     0.049 A 
ATOM     57  C   UNL A   1      43.276  28.254  33.149  1.00  0.00     0.074 A 
ATOM     58  C   UNL A   1      45.234  24.886  29.215  1.00  0.00     0.029 A 
ATOM     59  N   UNL A   1      43.721  24.123  30.653  1.00  0.00    -0.354 N 
ATOM     60  N   UNL A   1      43.602  27.194  32.462  1.00  0.00    -0.248 NA
ATOM     61  C   UNL A   1      43.471  28.061  34.583  1.00  0.00     0.031 C 
ATOM     62  C   UNL A   1      45.560  25.358  30.512  1.00  0.00     0.029 A 
ATOM     63  C   UNL A   1      44.604  24.886  31.393  1.00  0.00     0.049 A 
ATOM     64  H   UNL A   1      42.959  23.624  31.027  1.00  0.00     0.167 HD
ATOM     65  C   UNL A   1      44.048  26.208  33.305  1.00  0.00     0.074 A 
ATOM     66  C   UNL A   1      43.955  26.806  34.626  1.00  0.00     0.031 C 
ATOM     67  C   UNL A   1      44.456  24.987  32.842  1.00  0.00     0.031 A 
BRANCH  54  68
ATOM     68  C   UNL A   1      43.394  22.736  27.194  1.00  0.00    -0.014 A 
ATOM     69  C   UNL A   1      42.613  21.572  27.049  1.00  0.00     0.010 A 
ATOM     70  C   UNL A   1      44.486  22.867  26.314  1.00  0.00     0.010 A 
ATOM     71  C   UNL A   1      42.983  20.534  26.182  1.00  0.00     0.020 A 
ATOM     72  C   UNL A   1      44.897  21.817  25.477  1.00  0.00     0.020 A 
ATOM     73  C   UNL A   1      44.149  20.645  25.430  1.00  0.00     0.054 A 
BRANCH  73  74
ATOM     74  S   UNL A   1      44.693  19.238  24.425  1.00  0.00     0.124 S 
ATOM     75  O   UNL A   1      44.522  19.736  23.062  1.00  0.00    -0.237 OA
ATOM     76  O   UNL A   1      46.073  19.057  24.862  1.00  0.00    -0.237 OA
ATOM     77  O   UNL A   1      43.773  18.166  24.804  1.00  0.00    -0.744 OA
ENDBRANCH  73  74
ENDBRANCH  54  68
BRANCH  55  78
ATOM     78  C   UNL A   1      41.604  30.339  33.083  1.00  0.00    -0.014 A 
ATOM     79  C   UNL A   1      40.316  29.760  33.079  1.00  0.00     0.010 A 
ATOM     80  C   UNL A   1      41.846  31.439  33.923  1.00  0.00     0.010 A 
ATOM     81  C   UNL A   1      39.342  30.169  33.993  1.00  0.00     0.020 A 
ATOM     82  C   UNL A   1      40.871  31.846  34.849  1.00  0.00     0.020 A 
ATOM     83  C   UNL A   1      39.652  31.164  34.918  1.00  0.00     0.054 A 
BRANCH  83  84
ATOM     84  S   UNL A   1      38.489  31.477  36.280  1.00  0.00     0.124 S 
ATOM     85  O   UNL A   1      38.170  30.130  36.748  1.00  0.00    -0.237 OA
ATOM     86  O   UNL A   1      39.309  32.273  37.193  1.00  0.00    -0.237 OA
ATOM     87  O   UNL A   1      37.395  32.187  35.627  1.00  0.00    -0.744 OA
ENDBRANCH  83  84
ENDBRANCH  55  78
BRANCH  67  88
ATOM     88  C   UNL A   1      44.839  23.776  33.667  1.00  0.00    -0.014 A 
ATOM     89  C   UNL A   1      43.983  22.710  33.978  1.00  0.00     0.010 A 
ATOM     90  C   UNL A   1      46.195  23.636  34.067  1.00  0.00     0.010 A 
ATOM     91  C   UNL A   1      44.444  21.585  34.684  1.00  0.00     0.020 A 
ATOM     92  C   UNL A   1      46.673  22.504  34.731  1.00  0.00     0.020 A 
ATOM     93  C   UNL A   1      45.786  21.487  35.054  1.00  0.00     0.054 A 
BRANCH  93  94
ATOM     94  S   UNL A   1      46.393  19.994  35.877  1.00  0.00     0.124 S 
ATOM     95  O   UNL A   1      47.840  20.178  35.811  1.00  0.00    -0.237 OA
ATOM     96  O   UNL A   1      45.809  20.096  37.213  1.00  0.00    -0.237 OA
ATOM     97  O   UNL A   1      45.860  18.910  35.056  1.00  0.00    -0.744 OA
ENDBRANCH  93  94
ENDBRANCH  67  88
ENDBRANCH  41  42
ENDBRANCH  33  36
ENDBRANCH  31  32
ENDBRANCH  30  31
ENDBRANCH  29  30
ENDBRANCH   1  29
TORSDOF 19
ENDMDL
