MODEL 1
REMARK VINA RESULT:     -13.6      0.000      0.000
REMARK SMILES Cc1ccc(C)c(N2C(=O)S[C@H](CC(=O)Nc3ccc(C(=O)NCCCCNC(=O)c4ccc(-c5c6nc(c(-c7ccc(S(=O)(=O)[O-])cc7)c7ccc([nH]7)c(-c7ccc(S(=O)(=O)[O-])cc7)c7nc(c(-c8ccc(S(=O)(=O)[O-])cc8)c8ccc5[nH]8)C=C7)C=C6)cc4)c(O)c3)C2=O)c1
REMARK SMILES IDX 25 1 24 2 23 3 21 4 22 5 20 7 17 8 18 9 93 10 19 11 91 12
REMARK SMILES IDX 16 13 14 14 15 15 13 17 12 18 8 19 9 20 94 21 10 22 11 23
REMARK SMILES IDX 95 24 7 25 1 26 2 27 3 28 96 29 4 30 5 31 6 32 92 33 26 35
REMARK SMILES IDX 27 36 28 37 29 38 30 40 31 41 32 42 90 43 33 44 89 45 34 46
REMARK SMILES IDX 35 47 36 48 83 49 37 50 88 51 82 52 84 53 38 54 87 55 81 56
REMARK SMILES IDX 80 57 39 59 69 60 50 61 68 62 51 63 54 64 67 65 85 66 52 67
REMARK SMILES IDX 53 68 66 70 86 71 55 72 40 73 41 74 49 75 42 76 48 77 43 78
REMARK SMILES IDX 44 79 45 80 46 81 47 82 70 83 71 84 79 85 72 86 78 87 73 88
REMARK SMILES IDX 74 89 75 90 76 91 77 92 56 93 57 94 65 95 58 96 64 97 59 98
REMARK SMILES IDX 60 99 61 100 62 101 63 102
REMARK H PARENT 23 6 16 16 92 34 28 39 84 58 54 69
REMARK Flexibility Score: inf
ROOT
ATOM      1  C   UNL A   1      33.139  29.342  24.546  1.00  0.00     0.023 C 
ENDROOT
BRANCH   1   2
ATOM      2  C   UNL A   1      33.146  28.904  23.083  1.00  0.00     0.116 C 
BRANCH   2   3
ATOM      3  N   UNL A   1      31.981  29.200  22.278  1.00  0.00    -0.352 N 
ATOM      4  C   UNL A   1      30.693  28.699  22.357  1.00  0.00     0.255 C 
ATOM      5  O   UNL A   1      29.847  29.237  21.644  1.00  0.00    -0.269 OA
ATOM      6  H   UNL A   1      32.126  29.860  21.563  1.00  0.00     0.163 HD
BRANCH   4   7
ATOM      7  C   UNL A   1      30.308  27.485  23.150  1.00  0.00     0.081 A 
ATOM      8  C   UNL A   1      30.027  25.488  25.127  1.00  0.00     0.044 A 
ATOM      9  C   UNL A   1      31.157  25.552  24.327  1.00  0.00     0.027 A 
ATOM     10  C   UNL A   1      28.921  26.224  24.730  1.00  0.00     0.073 A 
ATOM     11  C   UNL A   1      31.335  26.573  23.399  1.00  0.00     0.020 A 
ATOM     12  C   UNL A   1      29.058  27.168  23.696  1.00  0.00     0.130 A 
BRANCH   8  13
ATOM     13  N   UNL A   1      29.994  24.637  26.244  1.00  0.00    -0.326 N 
ATOM     14  C   UNL A   1      30.858  23.594  26.524  1.00  0.00     0.226 C 
ATOM     15  O   UNL A   1      30.530  22.712  27.319  1.00  0.00    -0.275 OA
ATOM     16  H   UNL A   1      29.279  24.802  26.900  1.00  0.00     0.169 HD
BRANCH  14  17
ATOM     17  C   UNL A   1      32.300  23.690  26.026  1.00  0.00     0.125 C 
BRANCH  17  18
ATOM     18  C   UNL A   1      32.979  22.380  25.625  1.00  0.00     0.156 C 
ATOM     19  N   UNL A   1      35.333  22.809  25.466  1.00  0.00    -0.240 N 
ATOM     20  C   UNL A   1      34.981  23.005  24.162  1.00  0.00     0.293 C 
ATOM     21  C   UNL A   1      34.345  22.315  26.304  1.00  0.00     0.248 C 
ATOM     22  O   UNL A   1      35.610  23.579  23.276  1.00  0.00    -0.261 OA
ATOM     23  S   UNL A   1      33.416  22.269  23.868  1.00  0.00    -0.050 SA
ATOM     24  O   UNL A   1      34.494  21.897  27.447  1.00  0.00    -0.273 OA
BRANCH  19  25
ATOM     25  C   UNL A   1      36.705  22.757  25.806  1.00  0.00     0.056 A 
ATOM     26  C   UNL A   1      39.472  25.108  27.011  1.00  0.00     0.044 C 
ATOM     27  C   UNL A   1      38.736  23.891  26.530  1.00  0.00    -0.049 A 
ATOM     28  C   UNL A   1      39.460  22.720  26.281  1.00  0.00     0.004 A 
ATOM     29  C   UNL A   1      37.350  23.902  26.302  1.00  0.00     0.030 A 
ATOM     30  C   UNL A   1      38.822  21.585  25.786  1.00  0.00     0.006 A 
ATOM     31  C   UNL A   1      37.445  21.591  25.526  1.00  0.00    -0.027 A 
ATOM     32  C   UNL A   1      36.847  20.348  24.924  1.00  0.00     0.046 C 
ENDBRANCH  19  25
ENDBRANCH  17  18
ENDBRANCH  14  17
ENDBRANCH   8  13
BRANCH  12  33
ATOM     33  O   UNL A   1      27.886  27.670  23.203  1.00  0.00    -0.507 OA
ATOM     34  H   UNL A   1      27.647  27.515  22.311  1.00  0.00     0.293 HD
ENDBRANCH  12  33
ENDBRANCH   4   7
ENDBRANCH   2   3
ENDBRANCH   1   2
BRANCH   1  35
ATOM     35  C   UNL A   1      33.712  28.452  25.652  1.00  0.00     0.023 C 
BRANCH  35  36
ATOM     36  C   UNL A   1      34.144  29.100  26.958  1.00  0.00     0.116 C 
BRANCH  36  37
ATOM     37  N   UNL A   1      34.039  30.566  27.007  1.00  0.00    -0.352 N 
ATOM     38  C   UNL A   1      34.847  31.502  27.653  1.00  0.00     0.251 C 
ATOM     39  H   UNL A   1      33.280  30.945  26.508  1.00  0.00     0.163 HD
ATOM     40  O   UNL A   1      34.385  32.601  27.946  1.00  0.00    -0.269 OA
BRANCH  38  41
ATOM     41  C   UNL A   1      36.254  31.173  27.989  1.00  0.00     0.039 A 
ATOM     42  C   UNL A   1      37.072  31.924  28.837  1.00  0.00     0.014 A 
ATOM     43  C   UNL A   1      36.783  30.037  27.413  1.00  0.00     0.014 A 
ATOM     44  C   UNL A   1      38.376  31.468  29.067  1.00  0.00     0.010 A 
ATOM     45  C   UNL A   1      37.809  29.386  28.012  1.00  0.00     0.010 A 
ATOM     46  C   UNL A   1      38.734  30.178  28.633  1.00  0.00    -0.014 A 
BRANCH  46  47
ATOM     47  C   UNL A   1      40.020  29.546  28.874  1.00  0.00     0.031 A 
ATOM     48  C   UNL A   1      40.247  29.282  30.298  1.00  0.00     0.074 A 
ATOM     49  C   UNL A   1      40.834  29.021  27.926  1.00  0.00     0.049 A 
ATOM     50  N   UNL A   1      40.878  30.048  31.119  1.00  0.00    -0.248 NA
ATOM     51  C   UNL A   1      39.496  28.189  30.932  1.00  0.00     0.031 C 
ATOM     52  C   UNL A   1      40.604  28.877  26.481  1.00  0.00     0.029 A 
ATOM     53  N   UNL A   1      42.042  28.413  28.092  1.00  0.00    -0.354 N 
ATOM     54  C   UNL A   1      40.855  29.369  32.323  1.00  0.00     0.074 A 
ATOM     55  C   UNL A   1      39.787  28.406  32.217  1.00  0.00     0.031 C 
ATOM     56  C   UNL A   1      41.545  28.063  25.944  1.00  0.00     0.029 A 
ATOM     57  C   UNL A   1      42.538  27.768  26.961  1.00  0.00     0.049 A 
ATOM     58  H   UNL A   1      42.530  28.428  28.947  1.00  0.00     0.167 HD
ATOM     59  C   UNL A   1      41.922  29.429  33.164  1.00  0.00     0.031 A 
ATOM     60  C   UNL A   1      43.690  27.054  26.876  1.00  0.00     0.031 A 
ATOM     61  C   UNL A   1      42.875  30.427  32.733  1.00  0.00     0.049 A 
ATOM     62  C   UNL A   1      44.566  27.536  27.970  1.00  0.00     0.074 A 
ATOM     63  C   UNL A   1      42.840  31.791  32.522  1.00  0.00     0.029 A 
ATOM     64  N   UNL A   1      43.959  29.950  32.031  1.00  0.00    -0.354 N 
ATOM     65  N   UNL A   1      45.056  28.743  28.014  1.00  0.00    -0.248 NA
ATOM     66  C   UNL A   1      44.586  26.813  29.230  1.00  0.00     0.031 C 
ATOM     67  C   UNL A   1      43.675  32.021  31.389  1.00  0.00     0.029 A 
ATOM     68  C   UNL A   1      44.237  30.804  30.994  1.00  0.00     0.049 A 
ATOM     69  H   UNL A   1      44.455  29.126  32.239  1.00  0.00     0.167 HD
ATOM     70  C   UNL A   1      45.022  29.089  29.355  1.00  0.00     0.074 A 
ATOM     71  C   UNL A   1      44.867  27.821  30.062  1.00  0.00     0.031 C 
ATOM     72  C   UNL A   1      44.835  30.388  29.737  1.00  0.00     0.031 A 
BRANCH  59  73
ATOM     73  C   UNL A   1      42.322  28.293  34.070  1.00  0.00    -0.014 A 
ATOM     74  C   UNL A   1      43.187  27.307  33.562  1.00  0.00     0.010 A 
ATOM     75  C   UNL A   1      41.684  28.017  35.297  1.00  0.00     0.010 A 
ATOM     76  C   UNL A   1      43.358  26.084  34.221  1.00  0.00     0.020 A 
ATOM     77  C   UNL A   1      41.882  26.823  35.986  1.00  0.00     0.020 A 
ATOM     78  C   UNL A   1      42.695  25.849  35.426  1.00  0.00     0.054 A 
BRANCH  78  79
ATOM     79  S   UNL A   1      42.856  24.237  36.226  1.00  0.00     0.124 S 
ATOM     80  O   UNL A   1      42.994  23.347  35.078  1.00  0.00    -0.237 OA
ATOM     81  O   UNL A   1      44.054  24.417  37.040  1.00  0.00    -0.237 OA
ATOM     82  O   UNL A   1      41.611  24.104  36.979  1.00  0.00    -0.744 OA
ENDBRANCH  78  79
ENDBRANCH  59  73
BRANCH  60  83
ATOM     83  C   UNL A   1      44.015  25.841  26.085  1.00  0.00    -0.014 A 
ATOM     84  C   UNL A   1      45.308  25.278  26.133  1.00  0.00     0.010 A 
ATOM     85  C   UNL A   1      42.979  25.052  25.548  1.00  0.00     0.010 A 
ATOM     86  C   UNL A   1      45.534  23.943  25.756  1.00  0.00     0.020 A 
ATOM     87  C   UNL A   1      43.200  23.721  25.163  1.00  0.00     0.020 A 
ATOM     88  C   UNL A   1      44.469  23.162  25.301  1.00  0.00     0.054 A 
BRANCH  88  89
ATOM     89  S   UNL A   1      44.722  21.379  25.034  1.00  0.00     0.124 S 
ATOM     90  O   UNL A   1      46.067  21.171  25.563  1.00  0.00    -0.237 OA
ATOM     91  O   UNL A   1      43.641  20.783  25.814  1.00  0.00    -0.237 OA
ATOM     92  O   UNL A   1      44.592  21.225  23.587  1.00  0.00    -0.744 OA
ENDBRANCH  88  89
ENDBRANCH  60  83
BRANCH  72  93
ATOM     93  C   UNL A   1      45.086  31.468  28.705  1.00  0.00    -0.014 A 
ATOM     94  C   UNL A   1      46.363  31.942  28.343  1.00  0.00     0.010 A 
ATOM     95  C   UNL A   1      43.970  31.956  28.003  1.00  0.00     0.010 A 
ATOM     96  C   UNL A   1      46.510  32.903  27.327  1.00  0.00     0.020 A 
ATOM     97  C   UNL A   1      44.111  32.895  26.979  1.00  0.00     0.020 A 
ATOM     98  C   UNL A   1      45.380  33.374  26.652  1.00  0.00     0.054 A 
BRANCH  98  99
ATOM     99  S   UNL A   1      45.574  34.588  25.317  1.00  0.00     0.124 S 
ATOM    100  O   UNL A   1      45.080  35.818  25.931  1.00  0.00    -0.237 OA
ATOM    101  O   UNL A   1      47.009  34.552  25.049  1.00  0.00    -0.237 OA
ATOM    102  O   UNL A   1      44.739  34.059  24.240  1.00  0.00    -0.744 OA
ENDBRANCH  98  99
ENDBRANCH  72  93
ENDBRANCH  46  47
ENDBRANCH  38  41
ENDBRANCH  36  37
ENDBRANCH  35  36
ENDBRANCH   1  35
TORSDOF 19
ENDMDL
MODEL 2
REMARK VINA RESULT:     -13.3      2.760      9.548
REMARK SMILES Cc1ccc(C)c(N2C(=O)S[C@H](CC(=O)Nc3ccc(C(=O)NCCCCNC(=O)c4ccc(-c5c6nc(c(-c7ccc(S(=O)(=O)[O-])cc7)c7ccc([nH]7)c(-c7ccc(S(=O)(=O)[O-])cc7)c7nc(c(-c8ccc(S(=O)(=O)[O-])cc8)c8ccc5[nH]8)C=C7)C=C6)cc4)c(O)c3)C2=O)c1
REMARK SMILES IDX 25 1 24 2 23 3 21 4 22 5 20 7 17 8 18 9 93 10 19 11 91 12
REMARK SMILES IDX 16 13 14 14 15 15 13 17 12 18 8 19 9 20 94 21 10 22 11 23
REMARK SMILES IDX 95 24 7 25 1 26 2 27 3 28 96 29 4 30 5 31 6 32 92 33 26 35
REMARK SMILES IDX 27 36 28 37 29 38 30 40 31 41 32 42 90 43 33 44 89 45 34 46
REMARK SMILES IDX 35 47 36 48 83 49 37 50 88 51 82 52 84 53 38 54 87 55 81 56
REMARK SMILES IDX 80 57 39 59 69 60 50 61 68 62 51 63 54 64 67 65 85 66 52 67
REMARK SMILES IDX 53 68 66 70 86 71 55 72 40 73 41 74 49 75 42 76 48 77 43 78
REMARK SMILES IDX 44 79 45 80 46 81 47 82 70 83 71 84 79 85 72 86 78 87 73 88
REMARK SMILES IDX 74 89 75 90 76 91 77 92 56 93 57 94 65 95 58 96 64 97 59 98
REMARK SMILES IDX 60 99 61 100 62 101 63 102
REMARK H PARENT 23 6 16 16 92 34 28 39 84 58 54 69
REMARK Flexibility Score: inf
ROOT
ATOM      1  C   UNL A   1      38.353  21.109  25.423  1.00  0.00     0.023 C 
ENDROOT
BRANCH   1   2
ATOM      2  C   UNL A   1      36.859  21.128  25.106  1.00  0.00     0.116 C 
BRANCH   2   3
ATOM      3  N   UNL A   1      35.928  21.153  26.213  1.00  0.00    -0.352 N 
ATOM      4  C   UNL A   1      34.582  21.471  26.237  1.00  0.00     0.255 C 
ATOM      5  O   UNL A   1      33.984  21.261  27.293  1.00  0.00    -0.269 OA
ATOM      6  H   UNL A   1      36.313  20.907  27.085  1.00  0.00     0.163 HD
BRANCH   4   7
ATOM      7  C   UNL A   1      33.856  22.155  25.116  1.00  0.00     0.081 A 
ATOM      8  C   UNL A   1      33.124  23.376  22.678  1.00  0.00     0.044 A 
ATOM      9  C   UNL A   1      33.893  24.049  23.614  1.00  0.00     0.027 A 
ATOM     10  C   UNL A   1      32.474  22.225  23.094  1.00  0.00     0.073 A 
ATOM     11  C   UNL A   1      34.317  23.431  24.787  1.00  0.00     0.020 A 
ATOM     12  C   UNL A   1      32.797  21.665  24.342  1.00  0.00     0.130 A 
BRANCH   8  13
ATOM     13  N   UNL A   1      32.954  23.904  21.387  1.00  0.00    -0.326 N 
ATOM     14  C   UNL A   1      32.645  25.211  21.054  1.00  0.00     0.226 C 
ATOM     15  O   UNL A   1      32.176  25.476  19.946  1.00  0.00    -0.275 OA
ATOM     16  H   UNL A   1      33.067  23.276  20.638  1.00  0.00     0.169 HD
BRANCH  14  17
ATOM     17  C   UNL A   1      33.123  26.330  21.979  1.00  0.00     0.125 C 
BRANCH  17  18
ATOM     18  C   UNL A   1      32.064  27.318  22.469  1.00  0.00     0.156 C 
ATOM     19  N   UNL A   1      32.768  28.120  24.617  1.00  0.00    -0.240 N 
ATOM     20  C   UNL A   1      31.964  27.089  25.014  1.00  0.00     0.293 C 
ATOM     21  C   UNL A   1      32.761  28.420  23.263  1.00  0.00     0.248 C 
ATOM     22  O   UNL A   1      31.919  26.531  26.107  1.00  0.00    -0.261 OA
ATOM     23  S   UNL A   1      30.908  26.635  23.689  1.00  0.00    -0.050 SA
ATOM     24  O   UNL A   1      33.255  29.406  22.729  1.00  0.00    -0.273 OA
BRANCH  19  25
ATOM     25  C   UNL A   1      33.249  29.028  25.588  1.00  0.00     0.056 A 
ATOM     26  C   UNL A   1      36.167  29.352  28.042  1.00  0.00     0.044 C 
ATOM     27  C   UNL A   1      34.896  29.613  27.286  1.00  0.00    -0.049 A 
ATOM     28  C   UNL A   1      34.104  30.705  27.655  1.00  0.00     0.004 A 
ATOM     29  C   UNL A   1      34.469  28.779  26.239  1.00  0.00     0.030 A 
ATOM     30  C   UNL A   1      32.892  30.951  27.012  1.00  0.00     0.006 A 
ATOM     31  C   UNL A   1      32.440  30.111  25.986  1.00  0.00    -0.027 A 
ATOM     32  C   UNL A   1      31.089  30.404  25.394  1.00  0.00     0.046 C 
ENDBRANCH  19  25
ENDBRANCH  17  18
ENDBRANCH  14  17
ENDBRANCH   8  13
BRANCH  12  33
ATOM     33  O   UNL A   1      31.951  20.685  24.781  1.00  0.00    -0.507 OA
ATOM     34  H   UNL A   1      31.024  20.794  24.699  1.00  0.00     0.293 HD
ENDBRANCH  12  33
ENDBRANCH   4   7
ENDBRANCH   2   3
ENDBRANCH   1   2
BRANCH   1  35
ATOM     35  C   UNL A   1      39.017  22.235  26.221  1.00  0.00     0.023 C 
BRANCH  35  36
ATOM     36  C   UNL A   1      40.138  21.879  27.185  1.00  0.00     0.116 C 
BRANCH  36  37
ATOM     37  N   UNL A   1      41.494  21.884  26.616  1.00  0.00    -0.352 N 
ATOM     38  C   UNL A   1      42.272  22.948  26.160  1.00  0.00     0.251 C 
ATOM     39  H   UNL A   1      41.918  20.998  26.545  1.00  0.00     0.163 HD
ATOM     40  O   UNL A   1      43.164  22.739  25.343  1.00  0.00    -0.269 OA
BRANCH  38  41
ATOM     41  C   UNL A   1      42.022  24.325  26.653  1.00  0.00     0.039 A 
ATOM     42  C   UNL A   1      41.107  25.221  26.096  1.00  0.00     0.014 A 
ATOM     43  C   UNL A   1      42.757  24.739  27.743  1.00  0.00     0.014 A 
ATOM     44  C   UNL A   1      40.976  26.482  26.692  1.00  0.00     0.010 A 
ATOM     45  C   UNL A   1      42.278  25.712  28.556  1.00  0.00     0.010 A 
ATOM     46  C   UNL A   1      41.585  26.715  27.939  1.00  0.00    -0.014 A 
BRANCH  46  47
ATOM     47  C   UNL A   1      41.466  27.942  28.707  1.00  0.00     0.031 A 
ATOM     48  C   UNL A   1      42.480  28.931  28.329  1.00  0.00     0.074 A 
ATOM     49  C   UNL A   1      40.422  28.278  29.503  1.00  0.00     0.049 A 
ATOM     50  N   UNL A   1      43.617  29.107  28.907  1.00  0.00    -0.248 NA
ATOM     51  C   UNL A   1      42.332  29.623  27.042  1.00  0.00     0.031 C 
ATOM     52  C   UNL A   1      39.153  27.566  29.722  1.00  0.00     0.029 A 
ATOM     53  N   UNL A   1      40.252  29.412  30.240  1.00  0.00    -0.354 N 
ATOM     54  C   UNL A   1      44.201  30.156  28.222  1.00  0.00     0.074 A 
ATOM     55  C   UNL A   1      43.514  30.237  26.956  1.00  0.00     0.031 C 
ATOM     56  C   UNL A   1      38.282  28.370  30.377  1.00  0.00     0.029 A 
ATOM     57  C   UNL A   1      38.977  29.581  30.775  1.00  0.00     0.049 A 
ATOM     58  H   UNL A   1      40.976  30.064  30.383  1.00  0.00     0.167 HD
ATOM     59  C   UNL A   1      44.962  31.069  28.883  1.00  0.00     0.031 A 
ATOM     60  C   UNL A   1      38.539  30.641  31.503  1.00  0.00     0.031 A 
ATOM     61  C   UNL A   1      45.228  30.645  30.240  1.00  0.00     0.049 A 
ATOM     62  C   UNL A   1      39.743  31.277  32.088  1.00  0.00     0.074 A 
ATOM     63  C   UNL A   1      45.847  29.559  30.826  1.00  0.00     0.029 A 
ATOM     64  N   UNL A   1      44.423  31.205  31.206  1.00  0.00    -0.354 N 
ATOM     65  N   UNL A   1      40.498  30.696  32.977  1.00  0.00    -0.248 NA
ATOM     66  C   UNL A   1      40.349  32.406  31.403  1.00  0.00     0.031 C 
ATOM     67  C   UNL A   1      45.091  29.282  32.004  1.00  0.00     0.029 A 
ATOM     68  C   UNL A   1      44.086  30.245  32.126  1.00  0.00     0.049 A 
ATOM     69  H   UNL A   1      44.133  32.146  31.233  1.00  0.00     0.167 HD
ATOM     70  C   UNL A   1      41.789  31.078  32.647  1.00  0.00     0.074 A 
ATOM     71  C   UNL A   1      41.622  32.236  31.775  1.00  0.00     0.031 C 
ATOM     72  C   UNL A   1      42.845  30.243  32.882  1.00  0.00     0.031 A 
BRANCH  59  73
ATOM     73  C   UNL A   1      45.056  32.516  28.474  1.00  0.00    -0.014 A 
ATOM     74  C   UNL A   1      46.335  33.087  28.334  1.00  0.00     0.010 A 
ATOM     75  C   UNL A   1      43.956  33.398  28.479  1.00  0.00     0.010 A 
ATOM     76  C   UNL A   1      46.504  34.475  28.261  1.00  0.00     0.020 A 
ATOM     77  C   UNL A   1      44.108  34.777  28.360  1.00  0.00     0.020 A 
ATOM     78  C   UNL A   1      45.387  35.310  28.283  1.00  0.00     0.054 A 
BRANCH  78  79
ATOM     79  S   UNL A   1      45.619  37.102  28.273  1.00  0.00     0.124 S 
ATOM     80  O   UNL A   1      47.012  37.219  27.856  1.00  0.00    -0.237 OA
ATOM     81  O   UNL A   1      44.624  37.534  27.296  1.00  0.00    -0.237 OA
ATOM     82  O   UNL A   1      45.339  37.490  29.653  1.00  0.00    -0.744 OA
ENDBRANCH  78  79
ENDBRANCH  59  73
BRANCH  60  83
ATOM     83  C   UNL A   1      37.204  31.288  31.554  1.00  0.00    -0.014 A 
ATOM     84  C   UNL A   1      36.554  31.495  32.789  1.00  0.00     0.010 A 
ATOM     85  C   UNL A   1      36.721  31.995  30.436  1.00  0.00     0.010 A 
ATOM     86  C   UNL A   1      35.530  32.448  32.921  1.00  0.00     0.020 A 
ATOM     87  C   UNL A   1      35.694  32.943  30.559  1.00  0.00     0.020 A 
ATOM     88  C   UNL A   1      35.126  33.189  31.808  1.00  0.00     0.054 A 
BRANCH  88  89
ATOM     89  S   UNL A   1      33.967  34.575  32.034  1.00  0.00     0.124 S 
ATOM     90  O   UNL A   1      33.433  34.759  30.688  1.00  0.00    -0.237 OA
ATOM     91  O   UNL A   1      33.026  34.046  33.018  1.00  0.00    -0.237 OA
ATOM     92  O   UNL A   1      34.816  35.660  32.520  1.00  0.00    -0.744 OA
ENDBRANCH  88  89
ENDBRANCH  60  83
BRANCH  72  93
ATOM     93  C   UNL A   1      42.643  29.112  33.868  1.00  0.00    -0.014 A 
ATOM     94  C   UNL A   1      42.885  29.207  35.253  1.00  0.00     0.010 A 
ATOM     95  C   UNL A   1      42.088  27.919  33.369  1.00  0.00     0.010 A 
ATOM     96  C   UNL A   1      42.609  28.126  36.106  1.00  0.00     0.020 A 
ATOM     97  C   UNL A   1      41.791  26.848  34.216  1.00  0.00     0.020 A 
ATOM     98  C   UNL A   1      42.063  26.951  35.580  1.00  0.00     0.054 A 
BRANCH  98  99
ATOM     99  S   UNL A   1      41.674  25.568  36.688  1.00  0.00     0.124 S 
ATOM    100  O   UNL A   1      40.601  26.114  37.516  1.00  0.00    -0.237 OA
ATOM    101  O   UNL A   1      41.278  24.510  35.762  1.00  0.00    -0.237 OA
ATOM    102  O   UNL A   1      42.931  25.321  37.393  1.00  0.00    -0.744 OA
ENDBRANCH  98  99
ENDBRANCH  72  93
ENDBRANCH  46  47
ENDBRANCH  38  41
ENDBRANCH  36  37
ENDBRANCH  35  36
ENDBRANCH   1  35
TORSDOF 19
ENDMDL
MODEL 3
REMARK VINA RESULT:     -13.2      2.469      9.785
REMARK SMILES Cc1ccc(C)c(N2C(=O)S[C@H](CC(=O)Nc3ccc(C(=O)NCCCCNC(=O)c4ccc(-c5c6nc(c(-c7ccc(S(=O)(=O)[O-])cc7)c7ccc([nH]7)c(-c7ccc(S(=O)(=O)[O-])cc7)c7nc(c(-c8ccc(S(=O)(=O)[O-])cc8)c8ccc5[nH]8)C=C7)C=C6)cc4)c(O)c3)C2=O)c1
REMARK SMILES IDX 25 1 24 2 23 3 21 4 22 5 20 7 17 8 18 9 93 10 19 11 91 12
REMARK SMILES IDX 16 13 14 14 15 15 13 17 12 18 8 19 9 20 94 21 10 22 11 23
REMARK SMILES IDX 95 24 7 25 1 26 2 27 3 28 96 29 4 30 5 31 6 32 92 33 26 35
REMARK SMILES IDX 27 36 28 37 29 38 30 40 31 41 32 42 90 43 33 44 89 45 34 46
REMARK SMILES IDX 35 47 36 48 83 49 37 50 88 51 82 52 84 53 38 54 87 55 81 56
REMARK SMILES IDX 80 57 39 59 69 60 50 61 68 62 51 63 54 64 67 65 85 66 52 67
REMARK SMILES IDX 53 68 66 70 86 71 55 72 40 73 41 74 49 75 42 76 48 77 43 78
REMARK SMILES IDX 44 79 45 80 46 81 47 82 70 83 71 84 79 85 72 86 78 87 73 88
REMARK SMILES IDX 74 89 75 90 76 91 77 92 56 93 57 94 65 95 58 96 64 97 59 98
REMARK SMILES IDX 60 99 61 100 62 101 63 102
REMARK H PARENT 23 6 16 16 92 34 28 39 84 58 54 69
REMARK Flexibility Score: inf
ROOT
ATOM      1  C   UNL A   1      40.130  22.866  27.399  1.00  0.00     0.023 C 
ENDROOT
BRANCH   1   2
ATOM      2  C   UNL A   1      39.127  22.760  26.251  1.00  0.00     0.116 C 
BRANCH   2   3
ATOM      3  N   UNL A   1      38.779  21.441  25.770  1.00  0.00    -0.352 N 
ATOM      4  C   UNL A   1      37.671  21.017  25.058  1.00  0.00     0.255 C 
ATOM      5  O   UNL A   1      37.696  19.860  24.637  1.00  0.00    -0.269 OA
ATOM      6  H   UNL A   1      39.432  20.735  25.983  1.00  0.00     0.163 HD
BRANCH   4   7
ATOM      7  C   UNL A   1      36.421  21.826  24.882  1.00  0.00     0.081 A 
ATOM      8  C   UNL A   1      34.002  22.953  23.958  1.00  0.00     0.044 A 
ATOM      9  C   UNL A   1      35.216  23.286  23.378  1.00  0.00     0.027 A 
ATOM     10  C   UNL A   1      34.036  22.305  25.182  1.00  0.00     0.073 A 
ATOM     11  C   UNL A   1      36.405  22.683  23.780  1.00  0.00     0.020 A 
ATOM     12  C   UNL A   1      35.260  21.809  25.665  1.00  0.00     0.130 A 
BRANCH   8  13
ATOM     13  N   UNL A   1      32.795  23.343  23.353  1.00  0.00    -0.326 N 
ATOM     14  C   UNL A   1      31.776  24.082  23.925  1.00  0.00     0.226 C 
ATOM     15  O   UNL A   1      30.643  24.057  23.441  1.00  0.00    -0.275 OA
ATOM     16  H   UNL A   1      32.661  23.060  22.420  1.00  0.00     0.169 HD
BRANCH  14  17
ATOM     17  C   UNL A   1      32.135  25.106  25.001  1.00  0.00     0.125 C 
BRANCH  17  18
ATOM     18  C   UNL A   1      32.569  26.490  24.517  1.00  0.00     0.156 C 
ATOM     19  N   UNL A   1      30.727  27.442  23.312  1.00  0.00    -0.240 N 
ATOM     20  C   UNL A   1      31.411  26.883  22.271  1.00  0.00     0.293 C 
ATOM     21  C   UNL A   1      31.357  27.416  24.548  1.00  0.00     0.248 C 
ATOM     22  O   UNL A   1      31.010  26.635  21.137  1.00  0.00    -0.261 OA
ATOM     23  S   UNL A   1      33.060  26.555  22.772  1.00  0.00    -0.050 SA
ATOM     24  O   UNL A   1      31.010  28.016  25.559  1.00  0.00    -0.273 OA
BRANCH  19  25
ATOM     25  C   UNL A   1      29.644  28.309  23.036  1.00  0.00     0.056 A 
ATOM     26  C   UNL A   1      29.048  31.946  22.009  1.00  0.00     0.044 C 
ATOM     27  C   UNL A   1      28.825  30.522  22.430  1.00  0.00    -0.049 A 
ATOM     28  C   UNL A   1      27.519  30.092  22.688  1.00  0.00     0.004 A 
ATOM     29  C   UNL A   1      29.889  29.620  22.593  1.00  0.00     0.030 A 
ATOM     30  C   UNL A   1      27.276  28.794  23.130  1.00  0.00     0.006 A 
ATOM     31  C   UNL A   1      28.330  27.892  23.326  1.00  0.00    -0.027 A 
ATOM     32  C   UNL A   1      27.988  26.533  23.873  1.00  0.00     0.046 C 
ENDBRANCH  19  25
ENDBRANCH  17  18
ENDBRANCH  14  17
ENDBRANCH   8  13
BRANCH  12  33
ATOM     33  O   UNL A   1      35.254  21.405  26.972  1.00  0.00    -0.507 OA
ATOM     34  H   UNL A   1      35.789  21.848  27.601  1.00  0.00     0.293 HD
ENDBRANCH  12  33
ENDBRANCH   4   7
ENDBRANCH   2   3
ENDBRANCH   1   2
BRANCH   1  35
ATOM     35  C   UNL A   1      41.216  21.808  27.613  1.00  0.00     0.023 C 
BRANCH  35  36
ATOM     36  C   UNL A   1      42.059  21.379  26.421  1.00  0.00     0.116 C 
BRANCH  36  37
ATOM     37  N   UNL A   1      43.514  21.388  26.633  1.00  0.00    -0.352 N 
ATOM     38  C   UNL A   1      44.413  22.455  26.638  1.00  0.00     0.251 C 
ATOM     39  H   UNL A   1      43.916  20.504  26.795  1.00  0.00     0.163 HD
ATOM     40  O   UNL A   1      45.599  22.248  26.400  1.00  0.00    -0.269 OA
BRANCH  38  41
ATOM     41  C   UNL A   1      43.941  23.832  26.925  1.00  0.00     0.039 A 
ATOM     42  C   UNL A   1      43.153  24.603  26.067  1.00  0.00     0.014 A 
ATOM     43  C   UNL A   1      44.318  24.380  28.133  1.00  0.00     0.014 A 
ATOM     44  C   UNL A   1      42.775  25.883  26.495  1.00  0.00     0.010 A 
ATOM     45  C   UNL A   1      43.567  25.356  28.700  1.00  0.00     0.010 A 
ATOM     46  C   UNL A   1      43.001  26.249  27.835  1.00  0.00    -0.014 A 
BRANCH  46  47
ATOM     47  C   UNL A   1      42.589  27.507  28.433  1.00  0.00     0.031 A 
ATOM     48  C   UNL A   1      43.563  28.577  28.195  1.00  0.00     0.074 A 
ATOM     49  C   UNL A   1      41.363  27.777  28.942  1.00  0.00     0.049 A 
ATOM     50  N   UNL A   1      44.513  28.927  28.991  1.00  0.00    -0.248 NA
ATOM     51  C   UNL A   1      43.650  29.151  26.845  1.00  0.00     0.031 C 
ATOM     52  C   UNL A   1      40.153  26.941  28.942  1.00  0.00     0.029 A 
ATOM     53  N   UNL A   1      40.918  28.935  29.507  1.00  0.00    -0.354 N 
ATOM     54  C   UNL A   1      45.136  29.983  28.352  1.00  0.00     0.074 A 
ATOM     55  C   UNL A   1      44.755  29.891  26.965  1.00  0.00     0.031 C 
ATOM     56  C   UNL A   1      39.080  27.684  29.305  1.00  0.00     0.029 A 
ATOM     57  C   UNL A   1      39.543  28.993  29.727  1.00  0.00     0.049 A 
ATOM     58  H   UNL A   1      41.522  29.675  29.743  1.00  0.00     0.167 HD
ATOM     59  C   UNL A   1      45.631  31.024  29.074  1.00  0.00     0.031 A 
ATOM     60  C   UNL A   1      38.849  30.045  30.232  1.00  0.00     0.031 A 
ATOM     61  C   UNL A   1      45.616  30.736  30.491  1.00  0.00     0.049 A 
ATOM     62  C   UNL A   1      39.818  30.858  31.005  1.00  0.00     0.074 A 
ATOM     63  C   UNL A   1      46.185  29.775  31.302  1.00  0.00     0.029 A 
ATOM     64  N   UNL A   1      44.559  31.267  31.194  1.00  0.00    -0.354 N 
ATOM     65  N   UNL A   1      40.400  30.435  32.092  1.00  0.00    -0.248 NA
ATOM     66  C   UNL A   1      40.454  31.997  30.364  1.00  0.00     0.031 C 
ATOM     67  C   UNL A   1      45.208  29.498  32.304  1.00  0.00     0.029 A 
ATOM     68  C   UNL A   1      44.113  30.344  32.106  1.00  0.00     0.049 A 
ATOM     69  H   UNL A   1      44.182  32.167  31.064  1.00  0.00     0.167 HD
ATOM     70  C   UNL A   1      41.689  30.940  32.020  1.00  0.00     0.074 A 
ATOM     71  C   UNL A   1      41.617  32.004  31.024  1.00  0.00     0.031 C 
ATOM     72  C   UNL A   1      42.738  30.254  32.564  1.00  0.00     0.031 A 
BRANCH  59  73
ATOM     73  C   UNL A   1      45.677  32.439  28.556  1.00  0.00    -0.014 A 
ATOM     74  C   UNL A   1      46.933  33.059  28.421  1.00  0.00     0.010 A 
ATOM     75  C   UNL A   1      44.539  33.264  28.449  1.00  0.00     0.010 A 
ATOM     76  C   UNL A   1      47.042  34.443  28.246  1.00  0.00     0.020 A 
ATOM     77  C   UNL A   1      44.633  34.636  28.228  1.00  0.00     0.020 A 
ATOM     78  C   UNL A   1      45.888  35.222  28.159  1.00  0.00     0.054 A 
BRANCH  78  79
ATOM     79  S   UNL A   1      46.040  37.018  28.017  1.00  0.00     0.124 S 
ATOM     80  O   UNL A   1      47.185  37.289  28.878  1.00  0.00    -0.237 OA
ATOM     81  O   UNL A   1      46.264  37.194  26.585  1.00  0.00    -0.237 OA
ATOM     82  O   UNL A   1      44.753  37.508  28.506  1.00  0.00    -0.744 OA
ENDBRANCH  78  79
ENDBRANCH  59  73
BRANCH  60  83
ATOM     83  C   UNL A   1      37.482  30.534  29.923  1.00  0.00    -0.014 A 
ATOM     84  C   UNL A   1      36.849  31.475  30.763  1.00  0.00     0.010 A 
ATOM     85  C   UNL A   1      36.936  30.335  28.640  1.00  0.00     0.010 A 
ATOM     86  C   UNL A   1      35.778  32.258  30.300  1.00  0.00     0.020 A 
ATOM     87  C   UNL A   1      35.862  31.107  28.175  1.00  0.00     0.020 A 
ATOM     88  C   UNL A   1      35.310  32.089  28.995  1.00  0.00     0.054 A 
BRANCH  88  89
ATOM     89  S   UNL A   1      34.081  33.258  28.332  1.00  0.00     0.124 S 
ATOM     90  O   UNL A   1      33.219  32.389  27.537  1.00  0.00    -0.237 OA
ATOM     91  O   UNL A   1      33.477  33.807  29.543  1.00  0.00    -0.237 OA
ATOM     92  O   UNL A   1      34.886  34.206  27.565  1.00  0.00    -0.744 OA
ENDBRANCH  88  89
ENDBRANCH  60  83
BRANCH  72  93
ATOM     93  C   UNL A   1      42.424  29.182  33.587  1.00  0.00    -0.014 A 
ATOM     94  C   UNL A   1      42.493  27.797  33.337  1.00  0.00     0.010 A 
ATOM     95  C   UNL A   1      42.135  29.609  34.895  1.00  0.00     0.010 A 
ATOM     96  C   UNL A   1      42.248  26.869  34.364  1.00  0.00     0.020 A 
ATOM     97  C   UNL A   1      41.911  28.692  35.925  1.00  0.00     0.020 A 
ATOM     98  C   UNL A   1      41.957  27.325  35.653  1.00  0.00     0.054 A 
BRANCH  98  99
ATOM     99  S   UNL A   1      41.674  26.126  36.986  1.00  0.00     0.124 S 
ATOM    100  O   UNL A   1      40.411  26.581  37.562  1.00  0.00    -0.237 OA
ATOM    101  O   UNL A   1      41.617  24.852  36.273  1.00  0.00    -0.237 OA
ATOM    102  O   UNL A   1      42.840  26.287  37.854  1.00  0.00    -0.744 OA
ENDBRANCH  98  99
ENDBRANCH  72  93
ENDBRANCH  46  47
ENDBRANCH  38  41
ENDBRANCH  36  37
ENDBRANCH  35  36
ENDBRANCH   1  35
TORSDOF 19
ENDMDL
