MODEL 1
REMARK VINA RESULT:     -11.9      0.000      0.000
REMARK SMILES C[C@H](C(=O)NCCCCNC(=O)c1ccc(-c2c3nc(c(-c4ccc(S(=O)(=O)[O-])cc4)c4ccc([nH]4)c(-c4ccc(S(=O)(=O)[O-])cc4)c4nc(c(-c5ccc(S(=O)(=O)[O-])cc5)c5ccc2[nH]5)C=C4)C=C3)cc1)c1ccc(-c2ccccc2)c(F)c1
REMARK SMILES IDX 8 1 7 2 6 3 5 4 3 5 4 6 2 8 1 9 73 10 74 11 85 12 75 13
REMARK SMILES IDX 83 14 76 15 84 16 77 17 78 18 82 19 79 20 81 21 80 22 9 23
REMARK SMILES IDX 10 24 11 25 12 27 13 28 14 29 72 30 15 31 71 32 16 33 17 34
REMARK SMILES IDX 18 35 65 36 19 37 70 38 64 39 66 40 20 41 69 42 63 43 62 44
REMARK SMILES IDX 21 46 51 47 32 48 50 49 33 50 36 51 49 52 67 53 34 54 35 55
REMARK SMILES IDX 48 57 68 58 37 59 22 60 23 61 31 62 24 63 30 64 25 65 26 66
REMARK SMILES IDX 27 67 28 68 29 69 52 70 53 71 61 72 54 73 60 74 55 75 56 76
REMARK SMILES IDX 57 77 58 78 59 79 38 80 39 81 47 82 40 83 46 84 41 85 42 86
REMARK SMILES IDX 43 87 44 88 45 89
REMARK H PARENT 5 7 10 26 66 45 36 56
REMARK Flexibility Score: inf
ROOT
ATOM      1  C   UNL A   1      32.189  27.945  27.239  1.00  0.00     0.023 C 
ENDROOT
BRANCH   1   2
ATOM      2  C   UNL A   1      31.445  27.985  25.905  1.00  0.00     0.023 C 
BRANCH   2   3
ATOM      3  C   UNL A   1      30.777  26.672  25.494  1.00  0.00     0.116 C 
BRANCH   3   4
ATOM      4  N   UNL A   1      30.956  25.637  26.494  1.00  0.00    -0.356 N 
ATOM      5  C   UNL A   1      31.803  24.565  26.521  1.00  0.00     0.227 C 
ATOM      6  O   UNL A   1      31.730  23.807  27.492  1.00  0.00    -0.274 OA
ATOM      7  H   UNL A   1      30.371  25.719  27.282  1.00  0.00     0.163 HD
BRANCH   5   8
ATOM      8  C   UNL A   1      32.805  24.326  25.379  1.00  0.00     0.105 C 
ATOM      9  C   UNL A   1      34.101  25.090  25.682  1.00  0.00     0.023 C 
BRANCH   8  10
ATOM     10  C   UNL A   1      33.019  22.837  25.136  1.00  0.00    -0.033 A 
ATOM     11  C   UNL A   1      31.942  22.044  24.725  1.00  0.00     0.005 A 
ATOM     12  C   UNL A   1      34.243  22.195  25.363  1.00  0.00     0.044 A 
ATOM     13  C   UNL A   1      32.055  20.653  24.628  1.00  0.00     0.012 A 
ATOM     14  C   UNL A   1      34.363  20.808  25.211  1.00  0.00     0.131 A 
ATOM     15  C   UNL A   1      33.271  19.995  24.870  1.00  0.00     0.017 A 
ATOM     16  F   UNL A   1      35.576  20.267  25.411  1.00  0.00    -0.206 F 
BRANCH  15  17
ATOM     17  C   UNL A   1      33.353  18.520  24.796  1.00  0.00    -0.015 A 
ATOM     18  C   UNL A   1      33.992  17.876  23.719  1.00  0.00     0.009 A 
ATOM     19  C   UNL A   1      32.750  17.700  25.768  1.00  0.00     0.009 A 
ATOM     20  C   UNL A   1      34.012  16.483  23.607  1.00  0.00     0.001 A 
ATOM     21  C   UNL A   1      32.776  16.306  25.664  1.00  0.00     0.001 A 
ATOM     22  C   UNL A   1      33.403  15.698  24.579  1.00  0.00     0.000 A 
ENDBRANCH  15  17
ENDBRANCH   8  10
ENDBRANCH   5   8
ENDBRANCH   3   4
ENDBRANCH   2   3
ENDBRANCH   1   2
BRANCH   1  23
ATOM     23  C   UNL A   1      33.572  28.587  27.236  1.00  0.00     0.116 C 
BRANCH  23  24
ATOM     24  N   UNL A   1      33.554  29.995  27.606  1.00  0.00    -0.352 N 
ATOM     25  C   UNL A   1      34.553  30.751  28.173  1.00  0.00     0.251 C 
ATOM     26  H   UNL A   1      32.711  30.471  27.426  1.00  0.00     0.163 HD
ATOM     27  O   UNL A   1      34.325  31.906  28.521  1.00  0.00    -0.269 OA
BRANCH  25  28
ATOM     28  C   UNL A   1      35.887  30.152  28.394  1.00  0.00     0.039 A 
ATOM     29  C   UNL A   1      36.826  30.193  27.361  1.00  0.00     0.014 A 
ATOM     30  C   UNL A   1      36.223  29.592  29.630  1.00  0.00     0.014 A 
ATOM     31  C   UNL A   1      38.129  29.746  27.594  1.00  0.00     0.010 A 
ATOM     32  C   UNL A   1      37.539  29.216  29.881  1.00  0.00     0.010 A 
ATOM     33  C   UNL A   1      38.507  29.296  28.869  1.00  0.00    -0.014 A 
BRANCH  33  34
ATOM     34  C   UNL A   1      39.914  28.927  29.173  1.00  0.00     0.031 A 
ATOM     35  C   UNL A   1      40.846  29.938  29.784  1.00  0.00     0.074 A 
ATOM     36  C   UNL A   1      40.372  27.707  28.827  1.00  0.00     0.049 A 
ATOM     37  N   UNL A   1      42.122  29.827  30.048  1.00  0.00    -0.248 NA
ATOM     38  C   UNL A   1      40.277  31.256  30.115  1.00  0.00     0.031 C 
ATOM     39  C   UNL A   1      39.583  26.654  28.181  1.00  0.00     0.029 A 
ATOM     40  N   UNL A   1      41.619  27.149  28.958  1.00  0.00    -0.354 N 
ATOM     41  C   UNL A   1      42.513  31.060  30.556  1.00  0.00     0.074 A 
ATOM     42  C   UNL A   1      41.349  31.918  30.524  1.00  0.00     0.031 C 
ATOM     43  C   UNL A   1      40.357  25.573  27.995  1.00  0.00     0.029 A 
ATOM     44  C   UNL A   1      41.705  25.866  28.470  1.00  0.00     0.049 A 
ATOM     45  H   UNL A   1      42.381  27.623  29.364  1.00  0.00     0.167 HD
ATOM     46  C   UNL A   1      43.726  31.439  31.025  1.00  0.00     0.031 A 
ATOM     47  C   UNL A   1      42.753  25.021  28.405  1.00  0.00     0.031 A 
ATOM     48  C   UNL A   1      44.876  30.576  31.078  1.00  0.00     0.049 A 
ATOM     49  C   UNL A   1      44.086  25.463  28.942  1.00  0.00     0.074 A 
ATOM     50  C   UNL A   1      46.130  30.848  31.595  1.00  0.00     0.029 A 
ATOM     51  N   UNL A   1      44.913  29.276  30.600  1.00  0.00    -0.354 N 
ATOM     52  N   UNL A   1      44.416  26.612  29.482  1.00  0.00    -0.248 NA
ATOM     53  C   UNL A   1      45.186  24.490  28.871  1.00  0.00     0.031 C 
ATOM     54  C   UNL A   1      46.940  29.726  31.391  1.00  0.00     0.029 A 
ATOM     55  C   UNL A   1      46.175  28.738  30.793  1.00  0.00     0.049 A 
ATOM     56  H   UNL A   1      44.156  28.805  30.184  1.00  0.00     0.167 HD
ATOM     57  C   UNL A   1      45.755  26.490  29.837  1.00  0.00     0.074 A 
ATOM     58  C   UNL A   1      46.168  25.152  29.466  1.00  0.00     0.031 C 
ATOM     59  C   UNL A   1      46.569  27.404  30.420  1.00  0.00     0.031 A 
BRANCH  46  60
ATOM     60  C   UNL A   1      43.871  32.851  31.524  1.00  0.00    -0.014 A 
ATOM     61  C   UNL A   1      43.618  33.172  32.870  1.00  0.00     0.010 A 
ATOM     62  C   UNL A   1      44.320  33.859  30.652  1.00  0.00     0.010 A 
ATOM     63  C   UNL A   1      43.779  34.484  33.326  1.00  0.00     0.020 A 
ATOM     64  C   UNL A   1      44.506  35.167  31.110  1.00  0.00     0.020 A 
ATOM     65  C   UNL A   1      44.219  35.473  32.442  1.00  0.00     0.054 A 
BRANCH  65  66
ATOM     66  S   UNL A   1      44.453  37.158  33.071  1.00  0.00     0.124 S 
ATOM     67  O   UNL A   1      43.228  37.364  33.839  1.00  0.00    -0.237 OA
ATOM     68  O   UNL A   1      45.676  37.040  33.860  1.00  0.00    -0.237 OA
ATOM     69  O   UNL A   1      44.572  37.967  31.860  1.00  0.00    -0.744 OA
ENDBRANCH  65  66
ENDBRANCH  46  60
BRANCH  47  70
ATOM     70  C   UNL A   1      42.582  23.664  27.818  1.00  0.00    -0.014 A 
ATOM     71  C   UNL A   1      42.185  22.583  28.626  1.00  0.00     0.010 A 
ATOM     72  C   UNL A   1      42.817  23.444  26.449  1.00  0.00     0.010 A 
ATOM     73  C   UNL A   1      42.053  21.303  28.080  1.00  0.00     0.020 A 
ATOM     74  C   UNL A   1      42.660  22.170  25.894  1.00  0.00     0.020 A 
ATOM     75  C   UNL A   1      42.293  21.104  26.717  1.00  0.00     0.054 A 
BRANCH  75  76
ATOM     76  S   UNL A   1      42.077  19.442  26.022  1.00  0.00     0.124 S 
ATOM     77  O   UNL A   1      42.908  19.505  24.825  1.00  0.00    -0.237 OA
ATOM     78  O   UNL A   1      42.574  18.583  27.094  1.00  0.00    -0.237 OA
ATOM     79  O   UNL A   1      40.638  19.358  25.784  1.00  0.00    -0.744 OA
ENDBRANCH  75  76
ENDBRANCH  47  70
BRANCH  59  80
ATOM     80  C   UNL A   1      47.979  26.980  30.725  1.00  0.00    -0.014 A 
ATOM     81  C   UNL A   1      49.037  27.290  29.852  1.00  0.00     0.010 A 
ATOM     82  C   UNL A   1      48.257  26.308  31.929  1.00  0.00     0.010 A 
ATOM     83  C   UNL A   1      50.344  26.909  30.164  1.00  0.00     0.020 A 
ATOM     84  C   UNL A   1      49.565  25.948  32.257  1.00  0.00     0.020 A 
ATOM     85  C   UNL A   1      50.600  26.239  31.365  1.00  0.00     0.054 A 
BRANCH  85  86
ATOM     86  S   UNL A   1      52.311  25.793  31.771  1.00  0.00     0.124 S 
ATOM     87  O   UNL A   1      52.981  25.958  30.483  1.00  0.00    -0.237 OA
ATOM     88  O   UNL A   1      52.664  26.774  32.795  1.00  0.00    -0.237 OA
ATOM     89  O   UNL A   1      52.207  24.415  32.246  1.00  0.00    -0.744 OA
ENDBRANCH  85  86
ENDBRANCH  59  80
ENDBRANCH  33  34
ENDBRANCH  25  28
ENDBRANCH  23  24
ENDBRANCH   1  23
TORSDOF 16
ENDMDL
MODEL 2
REMARK VINA RESULT:     -11.7      2.162      4.390
REMARK SMILES C[C@H](C(=O)NCCCCNC(=O)c1ccc(-c2c3nc(c(-c4ccc(S(=O)(=O)[O-])cc4)c4ccc([nH]4)c(-c4ccc(S(=O)(=O)[O-])cc4)c4nc(c(-c5ccc(S(=O)(=O)[O-])cc5)c5ccc2[nH]5)C=C4)C=C3)cc1)c1ccc(-c2ccccc2)c(F)c1
REMARK SMILES IDX 8 1 7 2 6 3 5 4 3 5 4 6 2 8 1 9 73 10 74 11 85 12 75 13
REMARK SMILES IDX 83 14 76 15 84 16 77 17 78 18 82 19 79 20 81 21 80 22 9 23
REMARK SMILES IDX 10 24 11 25 12 27 13 28 14 29 72 30 15 31 71 32 16 33 17 34
REMARK SMILES IDX 18 35 65 36 19 37 70 38 64 39 66 40 20 41 69 42 63 43 62 44
REMARK SMILES IDX 21 46 51 47 32 48 50 49 33 50 36 51 49 52 67 53 34 54 35 55
REMARK SMILES IDX 48 57 68 58 37 59 22 60 23 61 31 62 24 63 30 64 25 65 26 66
REMARK SMILES IDX 27 67 28 68 29 69 52 70 53 71 61 72 54 73 60 74 55 75 56 76
REMARK SMILES IDX 57 77 58 78 59 79 38 80 39 81 47 82 40 83 46 84 41 85 42 86
REMARK SMILES IDX 43 87 44 88 45 89
REMARK H PARENT 5 7 10 26 66 45 36 56
REMARK Flexibility Score: inf
ROOT
ATOM      1  C   UNL A   1      32.772  28.001  26.067  1.00  0.00     0.023 C 
ENDROOT
BRANCH   1   2
ATOM      2  C   UNL A   1      33.699  27.232  25.128  1.00  0.00     0.023 C 
BRANCH   2   3
ATOM      3  C   UNL A   1      33.687  25.713  25.303  1.00  0.00     0.116 C 
BRANCH   3   4
ATOM      4  N   UNL A   1      34.420  25.040  24.249  1.00  0.00    -0.356 N 
ATOM      5  C   UNL A   1      34.003  24.134  23.315  1.00  0.00     0.227 C 
ATOM      6  O   UNL A   1      34.851  23.685  22.540  1.00  0.00    -0.274 OA
ATOM      7  H   UNL A   1      35.376  25.274  24.197  1.00  0.00     0.163 HD
BRANCH   5   8
ATOM      8  C   UNL A   1      32.530  23.699  23.245  1.00  0.00     0.105 C 
ATOM      9  C   UNL A   1      32.233  22.746  24.411  1.00  0.00     0.023 C 
BRANCH   8  10
ATOM     10  C   UNL A   1      31.600  24.905  23.194  1.00  0.00    -0.033 A 
ATOM     11  C   UNL A   1      31.879  25.953  22.309  1.00  0.00     0.005 A 
ATOM     12  C   UNL A   1      30.494  25.053  24.041  1.00  0.00     0.044 A 
ATOM     13  C   UNL A   1      31.139  27.140  22.327  1.00  0.00     0.012 A 
ATOM     14  C   UNL A   1      29.725  26.223  24.016  1.00  0.00     0.131 A 
ATOM     15  C   UNL A   1      30.040  27.308  23.184  1.00  0.00     0.017 A 
ATOM     16  F   UNL A   1      28.659  26.279  24.831  1.00  0.00    -0.206 F 
BRANCH  15  17
ATOM     17  C   UNL A   1      29.298  28.588  23.208  1.00  0.00    -0.015 A 
ATOM     18  C   UNL A   1      29.931  29.794  23.565  1.00  0.00     0.009 A 
ATOM     19  C   UNL A   1      27.920  28.644  22.930  1.00  0.00     0.009 A 
ATOM     20  C   UNL A   1      29.221  30.994  23.658  1.00  0.00     0.001 A 
ATOM     21  C   UNL A   1      27.208  29.845  23.013  1.00  0.00     0.001 A 
ATOM     22  C   UNL A   1      27.859  31.019  23.384  1.00  0.00     0.000 A 
ENDBRANCH  15  17
ENDBRANCH   8  10
ENDBRANCH   5   8
ENDBRANCH   3   4
ENDBRANCH   2   3
ENDBRANCH   1   2
BRANCH   1  23
ATOM     23  C   UNL A   1      33.381  28.405  27.404  1.00  0.00     0.116 C 
BRANCH  23  24
ATOM     24  N   UNL A   1      33.382  29.844  27.625  1.00  0.00    -0.352 N 
ATOM     25  C   UNL A   1      34.404  30.648  28.072  1.00  0.00     0.251 C 
ATOM     26  H   UNL A   1      32.534  30.304  27.428  1.00  0.00     0.163 HD
ATOM     27  O   UNL A   1      34.193  31.835  28.307  1.00  0.00    -0.269 OA
BRANCH  25  28
ATOM     28  C   UNL A   1      35.743  30.066  28.306  1.00  0.00     0.039 A 
ATOM     29  C   UNL A   1      36.669  30.062  27.260  1.00  0.00     0.014 A 
ATOM     30  C   UNL A   1      36.097  29.567  29.563  1.00  0.00     0.014 A 
ATOM     31  C   UNL A   1      37.977  29.632  27.499  1.00  0.00     0.010 A 
ATOM     32  C   UNL A   1      37.418  29.209  29.816  1.00  0.00     0.010 A 
ATOM     33  C   UNL A   1      38.373  29.245  28.789  1.00  0.00    -0.014 A 
BRANCH  33  34
ATOM     34  C   UNL A   1      39.785  28.897  29.093  1.00  0.00     0.031 A 
ATOM     35  C   UNL A   1      40.705  29.926  29.692  1.00  0.00     0.074 A 
ATOM     36  C   UNL A   1      40.258  27.680  28.757  1.00  0.00     0.049 A 
ATOM     37  N   UNL A   1      41.983  29.833  29.955  1.00  0.00    -0.248 NA
ATOM     38  C   UNL A   1      40.120  31.239  30.013  1.00  0.00     0.031 C 
ATOM     39  C   UNL A   1      39.481  26.611  28.122  1.00  0.00     0.029 A 
ATOM     40  N   UNL A   1      41.513  27.140  28.890  1.00  0.00    -0.354 N 
ATOM     41  C   UNL A   1      42.359  31.076  30.451  1.00  0.00     0.074 A 
ATOM     42  C   UNL A   1      41.185  31.919  30.413  1.00  0.00     0.031 C 
ATOM     43  C   UNL A   1      40.269  25.539  27.945  1.00  0.00     0.029 A 
ATOM     44  C   UNL A   1      41.615  25.853  28.413  1.00  0.00     0.049 A 
ATOM     45  H   UNL A   1      42.270  27.627  29.290  1.00  0.00     0.167 HD
ATOM     46  C   UNL A   1      43.568  31.475  30.913  1.00  0.00     0.031 A 
ATOM     47  C   UNL A   1      42.673  25.021  28.353  1.00  0.00     0.031 A 
ATOM     48  C   UNL A   1      44.729  30.627  30.971  1.00  0.00     0.049 A 
ATOM     49  C   UNL A   1      44.002  25.485  28.883  1.00  0.00     0.074 A 
ATOM     50  C   UNL A   1      45.982  30.920  31.483  1.00  0.00     0.029 A 
ATOM     51  N   UNL A   1      44.783  29.324  30.504  1.00  0.00    -0.354 N 
ATOM     52  N   UNL A   1      44.318  26.643  29.412  1.00  0.00    -0.248 NA
ATOM     53  C   UNL A   1      45.114  24.526  28.818  1.00  0.00     0.031 C 
ATOM     54  C   UNL A   1      46.805  29.807  31.287  1.00  0.00     0.029 A 
ATOM     55  C   UNL A   1      46.052  28.804  30.699  1.00  0.00     0.049 A 
ATOM     56  H   UNL A   1      44.030  28.839  30.095  1.00  0.00     0.167 HD
ATOM     57  C   UNL A   1      45.659  26.542  29.765  1.00  0.00     0.074 A 
ATOM     58  C   UNL A   1      46.088  25.206  29.405  1.00  0.00     0.031 C 
ATOM     59  C   UNL A   1      46.462  27.472  30.338  1.00  0.00     0.031 A 
BRANCH  46  60
ATOM     60  C   UNL A   1      43.697  32.893  31.399  1.00  0.00    -0.014 A 
ATOM     61  C   UNL A   1      43.972  33.943  30.503  1.00  0.00     0.010 A 
ATOM     62  C   UNL A   1      43.487  33.190  32.758  1.00  0.00     0.010 A 
ATOM     63  C   UNL A   1      44.067  35.258  30.964  1.00  0.00     0.020 A 
ATOM     64  C   UNL A   1      43.556  34.508  33.218  1.00  0.00     0.020 A 
ATOM     65  C   UNL A   1      43.860  35.533  32.319  1.00  0.00     0.054 A 
BRANCH  65  66
ATOM     66  S   UNL A   1      43.954  37.254  32.882  1.00  0.00     0.124 S 
ATOM     67  O   UNL A   1      43.773  37.989  31.633  1.00  0.00    -0.237 OA
ATOM     68  O   UNL A   1      42.846  37.343  33.829  1.00  0.00    -0.237 OA
ATOM     69  O   UNL A   1      45.286  37.353  33.475  1.00  0.00    -0.744 OA
ENDBRANCH  65  66
ENDBRANCH  46  60
BRANCH  47  70
ATOM     70  C   UNL A   1      42.519  23.657  27.779  1.00  0.00    -0.014 A 
ATOM     71  C   UNL A   1      42.159  22.574  28.602  1.00  0.00     0.010 A 
ATOM     72  C   UNL A   1      42.732  23.432  26.407  1.00  0.00     0.010 A 
ATOM     73  C   UNL A   1      42.042  21.288  28.068  1.00  0.00     0.020 A 
ATOM     74  C   UNL A   1      42.590  22.151  25.865  1.00  0.00     0.020 A 
ATOM     75  C   UNL A   1      42.260  21.084  26.702  1.00  0.00     0.054 A 
BRANCH  75  76
ATOM     76  S   UNL A   1      42.064  19.413  26.023  1.00  0.00     0.124 S 
ATOM     77  O   UNL A   1      42.556  18.583  27.116  1.00  0.00    -0.237 OA
ATOM     78  O   UNL A   1      40.628  19.340  25.768  1.00  0.00    -0.237 OA
ATOM     79  O   UNL A   1      42.901  19.433  24.825  1.00  0.00    -0.744 OA
ENDBRANCH  75  76
ENDBRANCH  47  70
BRANCH  59  80
ATOM     80  C   UNL A   1      47.879  27.069  30.643  1.00  0.00    -0.014 A 
ATOM     81  C   UNL A   1      48.926  27.364  29.753  1.00  0.00     0.010 A 
ATOM     82  C   UNL A   1      48.171  26.433  31.863  1.00  0.00     0.010 A 
ATOM     83  C   UNL A   1      50.240  27.003  30.066  1.00  0.00     0.020 A 
ATOM     84  C   UNL A   1      49.486  26.094  32.191  1.00  0.00     0.020 A 
ATOM     85  C   UNL A   1      50.511  26.369  31.283  1.00  0.00     0.054 A 
BRANCH  85  86
ATOM     86  S   UNL A   1      52.229  25.950  31.688  1.00  0.00     0.124 S 
ATOM     87  O   UNL A   1      52.561  26.963  32.686  1.00  0.00    -0.237 OA
ATOM     88  O   UNL A   1      52.116  24.583  32.190  1.00  0.00    -0.237 OA
ATOM     89  O   UNL A   1      52.928  26.082  30.411  1.00  0.00    -0.744 OA
ENDBRANCH  85  86
ENDBRANCH  59  80
ENDBRANCH  33  34
ENDBRANCH  25  28
ENDBRANCH  23  24
ENDBRANCH   1  23
TORSDOF 16
ENDMDL
MODEL 3
REMARK VINA RESULT:     -11.6      1.918      2.632
REMARK SMILES C[C@H](C(=O)NCCCCNC(=O)c1ccc(-c2c3nc(c(-c4ccc(S(=O)(=O)[O-])cc4)c4ccc([nH]4)c(-c4ccc(S(=O)(=O)[O-])cc4)c4nc(c(-c5ccc(S(=O)(=O)[O-])cc5)c5ccc2[nH]5)C=C4)C=C3)cc1)c1ccc(-c2ccccc2)c(F)c1
REMARK SMILES IDX 8 1 7 2 6 3 5 4 3 5 4 6 2 8 1 9 73 10 74 11 85 12 75 13
REMARK SMILES IDX 83 14 76 15 84 16 77 17 78 18 82 19 79 20 81 21 80 22 9 23
REMARK SMILES IDX 10 24 11 25 12 27 13 28 14 29 72 30 15 31 71 32 16 33 17 34
REMARK SMILES IDX 18 35 65 36 19 37 70 38 64 39 66 40 20 41 69 42 63 43 62 44
REMARK SMILES IDX 21 46 51 47 32 48 50 49 33 50 36 51 49 52 67 53 34 54 35 55
REMARK SMILES IDX 48 57 68 58 37 59 22 60 23 61 31 62 24 63 30 64 25 65 26 66
REMARK SMILES IDX 27 67 28 68 29 69 52 70 53 71 61 72 54 73 60 74 55 75 56 76
REMARK SMILES IDX 57 77 58 78 59 79 38 80 39 81 47 82 40 83 46 84 41 85 42 86
REMARK SMILES IDX 43 87 44 88 45 89
REMARK H PARENT 5 7 10 26 66 45 36 56
REMARK Flexibility Score: inf
ROOT
ATOM      1  C   UNL A   1      34.109  28.500  25.811  1.00  0.00     0.023 C 
ENDROOT
BRANCH   1   2
ATOM      2  C   UNL A   1      33.187  29.064  24.732  1.00  0.00     0.023 C 
BRANCH   2   3
ATOM      3  C   UNL A   1      31.695  29.027  25.068  1.00  0.00     0.116 C 
BRANCH   3   4
ATOM      4  N   UNL A   1      30.960  28.150  24.177  1.00  0.00    -0.356 N 
ATOM      5  C   UNL A   1      30.559  26.854  24.338  1.00  0.00     0.227 C 
ATOM      6  O   UNL A   1      29.965  26.322  23.396  1.00  0.00    -0.274 OA
ATOM      7  H   UNL A   1      30.710  28.555  23.315  1.00  0.00     0.163 HD
BRANCH   5   8
ATOM      8  C   UNL A   1      30.842  26.100  25.648  1.00  0.00     0.105 C 
ATOM      9  C   UNL A   1      29.603  25.277  26.029  1.00  0.00     0.023 C 
BRANCH   8  10
ATOM     10  C   UNL A   1      32.115  25.270  25.543  1.00  0.00    -0.033 A 
ATOM     11  C   UNL A   1      32.480  24.432  26.603  1.00  0.00     0.005 A 
ATOM     12  C   UNL A   1      32.987  25.344  24.449  1.00  0.00     0.044 A 
ATOM     13  C   UNL A   1      33.707  23.761  26.614  1.00  0.00     0.012 A 
ATOM     14  C   UNL A   1      34.190  24.627  24.444  1.00  0.00     0.131 A 
ATOM     15  C   UNL A   1      34.599  23.842  25.533  1.00  0.00     0.017 A 
ATOM     16  F   UNL A   1      34.959  24.719  23.346  1.00  0.00    -0.206 F 
BRANCH  15  17
ATOM     17  C   UNL A   1      35.907  23.153  25.586  1.00  0.00    -0.015 A 
ATOM     18  C   UNL A   1      37.053  23.797  26.090  1.00  0.00     0.009 A 
ATOM     19  C   UNL A   1      36.071  21.848  25.087  1.00  0.00     0.009 A 
ATOM     20  C   UNL A   1      38.305  23.177  26.080  1.00  0.00     0.001 A 
ATOM     21  C   UNL A   1      37.322  21.221  25.084  1.00  0.00     0.001 A 
ATOM     22  C   UNL A   1      38.440  21.889  25.575  1.00  0.00     0.000 A 
ENDBRANCH  15  17
ENDBRANCH   8  10
ENDBRANCH   5   8
ENDBRANCH   3   4
ENDBRANCH   2   3
ENDBRANCH   1   2
BRANCH   1  23
ATOM     23  C   UNL A   1      33.619  28.668  27.245  1.00  0.00     0.116 C 
BRANCH  23  24
ATOM     24  N   UNL A   1      33.596  30.055  27.687  1.00  0.00    -0.352 N 
ATOM     25  C   UNL A   1      34.586  30.779  28.309  1.00  0.00     0.251 C 
ATOM     26  H   UNL A   1      32.757  30.541  27.516  1.00  0.00     0.163 HD
ATOM     27  O   UNL A   1      34.352  31.915  28.713  1.00  0.00    -0.269 OA
BRANCH  25  28
ATOM     28  C   UNL A   1      35.915  30.167  28.524  1.00  0.00     0.039 A 
ATOM     29  C   UNL A   1      36.854  30.214  27.491  1.00  0.00     0.014 A 
ATOM     30  C   UNL A   1      36.246  29.589  29.753  1.00  0.00     0.014 A 
ATOM     31  C   UNL A   1      38.154  29.755  27.719  1.00  0.00     0.010 A 
ATOM     32  C   UNL A   1      37.559  29.199  30.000  1.00  0.00     0.010 A 
ATOM     33  C   UNL A   1      38.528  29.285  28.989  1.00  0.00    -0.014 A 
BRANCH  33  34
ATOM     34  C   UNL A   1      39.932  28.901  29.289  1.00  0.00     0.031 A 
ATOM     35  C   UNL A   1      40.873  29.899  29.907  1.00  0.00     0.074 A 
ATOM     36  C   UNL A   1      40.379  27.680  28.932  1.00  0.00     0.049 A 
ATOM     37  N   UNL A   1      42.148  29.774  30.170  1.00  0.00    -0.248 NA
ATOM     38  C   UNL A   1      40.315  31.219  30.250  1.00  0.00     0.031 C 
ATOM     39  C   UNL A   1      39.580  26.640  28.277  1.00  0.00     0.029 A 
ATOM     40  N   UNL A   1      41.621  27.111  29.057  1.00  0.00    -0.354 N 
ATOM     41  C   UNL A   1      42.550  31.000  30.688  1.00  0.00     0.074 A 
ATOM     42  C   UNL A   1      41.393  31.869  30.663  1.00  0.00     0.031 C 
ATOM     43  C   UNL A   1      40.345  25.554  28.082  1.00  0.00     0.029 A 
ATOM     44  C   UNL A   1      41.696  25.831  28.558  1.00  0.00     0.049 A 
ATOM     45  H   UNL A   1      42.388  27.575  29.466  1.00  0.00     0.167 HD
ATOM     46  C   UNL A   1      43.766  31.364  31.159  1.00  0.00     0.031 A 
ATOM     47  C   UNL A   1      42.736  24.978  28.485  1.00  0.00     0.031 A 
ATOM     48  C   UNL A   1      44.908  30.491  31.204  1.00  0.00     0.049 A 
ATOM     49  C   UNL A   1      44.074  25.403  29.025  1.00  0.00     0.074 A 
ATOM     50  C   UNL A   1      46.166  30.748  31.723  1.00  0.00     0.029 A 
ATOM     51  N   UNL A   1      44.935  29.195  30.714  1.00  0.00    -0.354 N 
ATOM     52  N   UNL A   1      44.414  26.545  29.574  1.00  0.00    -0.248 NA
ATOM     53  C   UNL A   1      45.165  24.422  28.945  1.00  0.00     0.031 C 
ATOM     54  C   UNL A   1      46.966  29.621  31.509  1.00  0.00     0.029 A 
ATOM     55  C   UNL A   1      46.191  28.645  30.902  1.00  0.00     0.049 A 
ATOM     56  H   UNL A   1      44.173  28.734  30.295  1.00  0.00     0.167 HD
ATOM     57  C   UNL A   1      45.752  26.409  29.928  1.00  0.00     0.074 A 
ATOM     58  C   UNL A   1      46.153  25.070  29.545  1.00  0.00     0.031 C 
ATOM     59  C   UNL A   1      46.574  27.311  30.518  1.00  0.00     0.031 A 
BRANCH  46  60
ATOM     60  C   UNL A   1      43.924  32.771  31.670  1.00  0.00    -0.014 A 
ATOM     61  C   UNL A   1      44.192  33.835  30.789  1.00  0.00     0.010 A 
ATOM     62  C   UNL A   1      43.750  33.042  33.039  1.00  0.00     0.010 A 
ATOM     63  C   UNL A   1      44.314  35.140  31.274  1.00  0.00     0.020 A 
ATOM     64  C   UNL A   1      43.846  34.350  33.524  1.00  0.00     0.020 A 
ATOM     65  C   UNL A   1      44.143  35.389  32.639  1.00  0.00     0.054 A 
BRANCH  65  66
ATOM     66  S   UNL A   1      44.273  37.097  33.234  1.00  0.00     0.124 S 
ATOM     67  O   UNL A   1      44.884  37.768  32.089  1.00  0.00    -0.237 OA
ATOM     68  O   UNL A   1      42.881  37.451  33.498  1.00  0.00    -0.237 OA
ATOM     69  O   UNL A   1      45.121  36.989  34.418  1.00  0.00    -0.744 OA
ENDBRANCH  65  66
ENDBRANCH  46  60
BRANCH  47  70
ATOM     70  C   UNL A   1      42.554  23.627  27.886  1.00  0.00    -0.014 A 
ATOM     71  C   UNL A   1      42.599  23.455  26.491  1.00  0.00     0.010 A 
ATOM     72  C   UNL A   1      42.332  22.507  28.707  1.00  0.00     0.010 A 
ATOM     73  C   UNL A   1      42.400  22.191  25.927  1.00  0.00     0.020 A 
ATOM     74  C   UNL A   1      42.159  21.237  28.148  1.00  0.00     0.020 A 
ATOM     75  C   UNL A   1      42.179  21.090  26.760  1.00  0.00     0.054 A 
BRANCH  75  76
ATOM     76  S   UNL A   1      41.962  19.453  26.009  1.00  0.00     0.124 S 
ATOM     77  O   UNL A   1      42.450  18.570  27.062  1.00  0.00    -0.237 OA
ATOM     78  O   UNL A   1      40.523  19.406  25.760  1.00  0.00    -0.237 OA
ATOM     79  O   UNL A   1      42.792  19.517  24.808  1.00  0.00    -0.744 OA
ENDBRANCH  75  76
ENDBRANCH  47  70
BRANCH  59  80
ATOM     80  C   UNL A   1      47.981  26.872  30.818  1.00  0.00    -0.014 A 
ATOM     81  C   UNL A   1      49.016  27.059  29.884  1.00  0.00     0.010 A 
ATOM     82  C   UNL A   1      48.280  26.313  32.074  1.00  0.00     0.010 A 
ATOM     83  C   UNL A   1      50.321  26.667  30.191  1.00  0.00     0.020 A 
ATOM     84  C   UNL A   1      49.589  25.945  32.394  1.00  0.00     0.020 A 
ATOM     85  C   UNL A   1      50.600  26.111  31.444  1.00  0.00     0.054 A 
BRANCH  85  86
ATOM     86  S   UNL A   1      52.309  25.650  31.838  1.00  0.00     0.124 S 
ATOM     87  O   UNL A   1      52.181  24.224  32.126  1.00  0.00    -0.237 OA
ATOM     88  O   UNL A   1      53.023  25.982  30.607  1.00  0.00    -0.237 OA
ATOM     89  O   UNL A   1      52.639  26.491  32.987  1.00  0.00    -0.744 OA
ENDBRANCH  85  86
ENDBRANCH  59  80
ENDBRANCH  33  34
ENDBRANCH  25  28
ENDBRANCH  23  24
ENDBRANCH   1  23
TORSDOF 16
ENDMDL
