MODEL 1
REMARK VINA RESULT:     -11.0      0.000      0.000
REMARK SMILES CCC(CC)(NC(=O)c1cc([N+](=O)[O-])c[nH]1)C(=O)NCCCCNC(=O)c1ccc(-c2c3nc(c(-c4ccc(S(=O)(=O)[O-])cc4)c4ccc([nH]4)c(-c4ccc(S(=O)(=O)[O-])cc4)c4nc(c(-c5ccc(S(=O)(=O)[O-])cc5)c5ccc2[nH]5)C=C4)C=C3)cc1
REMARK SMILES IDX 21 1 20 2 19 3 17 4 18 5 3 7 2 8 1 9 4 10 5 11 6 12 7 13
REMARK SMILES IDX 8 15 9 16 10 17 16 18 11 19 15 20 12 22 13 23 14 24 22 25
REMARK SMILES IDX 23 26 24 27 25 28 26 30 27 31 28 32 86 33 29 34 85 35 30 36
REMARK SMILES IDX 31 37 32 38 79 39 33 40 84 41 78 42 80 43 34 44 83 45 77 46
REMARK SMILES IDX 76 47 35 49 65 50 46 51 64 52 47 53 50 54 63 55 81 56 48 57
REMARK SMILES IDX 49 58 62 60 82 61 51 62 36 63 37 64 45 65 38 66 44 67 39 68
REMARK SMILES IDX 40 69 41 70 42 71 43 72 66 73 67 74 75 75 68 76 74 77 69 78
REMARK SMILES IDX 70 79 71 80 72 81 73 82 52 83 53 84 61 85 54 86 60 87 55 88
REMARK SMILES IDX 56 89 57 90 58 91 59 92
REMARK H PARENT 19 6 6 14 16 21 24 29 80 48 50 59
REMARK Flexibility Score: inf
ROOT
ATOM      1  C   UNL A   1      31.209  30.641  26.420  1.00  0.00     0.023 C 
ENDROOT
BRANCH   1   2
ATOM      2  C   UNL A   1      31.849  29.772  25.325  1.00  0.00     0.116 C 
BRANCH   2   3
ATOM      3  N   UNL A   1      31.242  29.741  23.997  1.00  0.00    -0.354 N 
ATOM      4  C   UNL A   1      31.179  28.792  22.995  1.00  0.00     0.245 C 
ATOM      5  O   UNL A   1      30.468  29.054  22.022  1.00  0.00    -0.272 OA
ATOM      6  H   UNL A   1      30.775  30.577  23.766  1.00  0.00     0.163 HD
BRANCH   4   7
ATOM      7  C   UNL A   1      31.879  27.421  23.127  1.00  0.00     0.118 C 
BRANCH   7   8
ATOM      8  C   UNL A   1      31.276  26.429  24.168  1.00  0.00     0.035 C 
ATOM      9  C   UNL A   1      32.065  26.114  25.430  1.00  0.00     0.007 C 
ENDBRANCH   7   8
BRANCH   7  10
ATOM     10  C   UNL A   1      33.325  27.843  23.569  1.00  0.00     0.035 C 
ATOM     11  C   UNL A   1      34.210  28.564  22.571  1.00  0.00     0.007 C 
ENDBRANCH   7  10
BRANCH   7  12
ATOM     12  N   UNL A   1      31.826  26.711  21.820  1.00  0.00    -0.336 N 
ATOM     13  C   UNL A   1      32.580  25.633  21.368  1.00  0.00     0.268 C 
ATOM     14  H   UNL A   1      31.160  27.055  21.182  1.00  0.00     0.165 HD
ATOM     15  O   UNL A   1      32.850  25.647  20.164  1.00  0.00    -0.268 OA
BRANCH  13  16
ATOM     16  C   UNL A   1      32.999  24.493  22.187  1.00  0.00     0.111 A 
ATOM     17  C   UNL A   1      34.089  24.215  22.994  1.00  0.00     0.119 A 
ATOM     18  N   UNL A   1      32.139  23.422  22.417  1.00  0.00    -0.351 N 
ATOM     19  C   UNL A   1      33.871  23.041  23.754  1.00  0.00     0.287 A 
ATOM     20  C   UNL A   1      32.652  22.549  23.351  1.00  0.00     0.169 A 
ATOM     21  H   UNL A   1      31.271  23.302  21.968  1.00  0.00     0.166 HD
BRANCH  19  22
ATOM     22  N   UNL A   1      34.727  22.546  24.807  1.00  0.00     0.064 N 
ATOM     23  O   UNL A   1      34.364  21.521  25.395  1.00  0.00    -0.258 OA
ATOM     24  O   UNL A   1      35.726  23.229  25.074  1.00  0.00    -0.258 OA
ENDBRANCH  19  22
ENDBRANCH  13  16
ENDBRANCH   7  12
ENDBRANCH   4   7
ENDBRANCH   2   3
ENDBRANCH   1   2
BRANCH   1  25
ATOM     25  C   UNL A   1      31.480  32.148  26.459  1.00  0.00     0.023 C 
BRANCH  25  26
ATOM     26  C   UNL A   1      32.784  32.555  27.116  1.00  0.00     0.116 C 
BRANCH  26  27
ATOM     27  N   UNL A   1      32.710  33.933  27.562  1.00  0.00    -0.352 N 
ATOM     28  C   UNL A   1      33.235  34.485  28.702  1.00  0.00     0.251 C 
ATOM     29  H   UNL A   1      32.221  34.550  26.971  1.00  0.00     0.163 HD
ATOM     30  O   UNL A   1      32.697  35.473  29.185  1.00  0.00    -0.269 OA
BRANCH  28  31
ATOM     31  C   UNL A   1      34.440  33.909  29.336  1.00  0.00     0.039 A 
ATOM     32  C   UNL A   1      35.686  34.223  28.782  1.00  0.00     0.014 A 
ATOM     33  C   UNL A   1      34.344  32.991  30.389  1.00  0.00     0.014 A 
ATOM     34  C   UNL A   1      36.834  33.642  29.305  1.00  0.00     0.010 A 
ATOM     35  C   UNL A   1      35.489  32.434  30.936  1.00  0.00     0.010 A 
ATOM     36  C   UNL A   1      36.731  32.761  30.391  1.00  0.00    -0.014 A 
BRANCH  36  37
ATOM     37  C   UNL A   1      37.968  32.320  31.065  1.00  0.00     0.031 A 
ATOM     38  C   UNL A   1      38.481  31.007  30.439  1.00  0.00     0.074 A 
ATOM     39  C   UNL A   1      38.395  33.086  32.119  1.00  0.00     0.049 A 
ATOM     40  N   UNL A   1      39.136  30.036  30.988  1.00  0.00    -0.248 NA
ATOM     41  C   UNL A   1      38.146  30.674  29.022  1.00  0.00     0.031 C 
ATOM     42  C   UNL A   1      37.797  34.386  32.520  1.00  0.00     0.029 A 
ATOM     43  N   UNL A   1      39.396  32.962  33.061  1.00  0.00    -0.354 N 
ATOM     44  C   UNL A   1      39.449  29.089  29.981  1.00  0.00     0.074 A 
ATOM     45  C   UNL A   1      38.716  29.482  28.818  1.00  0.00     0.031 C 
ATOM     46  C   UNL A   1      38.375  34.869  33.644  1.00  0.00     0.029 A 
ATOM     47  C   UNL A   1      39.405  33.951  34.089  1.00  0.00     0.049 A 
ATOM     48  H   UNL A   1      40.061  32.237  33.027  1.00  0.00     0.167 HD
ATOM     49  C   UNL A   1      40.408  28.130  30.147  1.00  0.00     0.031 A 
ATOM     50  C   UNL A   1      40.154  34.001  35.237  1.00  0.00     0.031 A 
ATOM     51  C   UNL A   1      40.939  28.222  31.465  1.00  0.00     0.049 A 
ATOM     52  C   UNL A   1      41.104  32.890  35.116  1.00  0.00     0.074 A 
ATOM     53  C   UNL A   1      40.398  27.940  32.692  1.00  0.00     0.029 A 
ATOM     54  N   UNL A   1      42.017  29.063  31.615  1.00  0.00    -0.354 N 
ATOM     55  N   UNL A   1      42.146  32.890  34.347  1.00  0.00    -0.248 NA
ATOM     56  C   UNL A   1      40.852  31.654  35.869  1.00  0.00     0.031 C 
ATOM     57  C   UNL A   1      40.824  29.033  33.469  1.00  0.00     0.029 A 
ATOM     58  C   UNL A   1      41.817  29.747  32.784  1.00  0.00     0.049 A 
ATOM     59  H   UNL A   1      42.783  29.155  31.003  1.00  0.00     0.167 HD
ATOM     60  C   UNL A   1      42.392  31.550  34.208  1.00  0.00     0.074 A 
ATOM     61  C   UNL A   1      41.841  30.907  35.384  1.00  0.00     0.031 C 
ATOM     62  C   UNL A   1      42.466  31.022  32.958  1.00  0.00     0.031 A 
BRANCH  49  63
ATOM     63  C   UNL A   1      41.157  27.243  29.186  1.00  0.00    -0.014 A 
ATOM     64  C   UNL A   1      40.398  26.236  28.530  1.00  0.00     0.010 A 
ATOM     65  C   UNL A   1      42.552  27.116  29.161  1.00  0.00     0.010 A 
ATOM     66  C   UNL A   1      40.986  25.077  28.024  1.00  0.00     0.020 A 
ATOM     67  C   UNL A   1      43.156  25.968  28.612  1.00  0.00     0.020 A 
ATOM     68  C   UNL A   1      42.365  24.934  28.102  1.00  0.00     0.054 A 
BRANCH  68  69
ATOM     69  S   UNL A   1      43.083  23.348  27.592  1.00  0.00     0.124 S 
ATOM     70  O   UNL A   1      44.505  23.665  27.515  1.00  0.00    -0.237 OA
ATOM     71  O   UNL A   1      42.700  22.461  28.689  1.00  0.00    -0.237 OA
ATOM     72  O   UNL A   1      42.429  23.068  26.317  1.00  0.00    -0.744 OA
ENDBRANCH  68  69
ENDBRANCH  49  63
BRANCH  50  73
ATOM     73  C   UNL A   1      40.229  34.744  36.558  1.00  0.00    -0.014 A 
ATOM     74  C   UNL A   1      40.882  35.953  36.815  1.00  0.00     0.010 A 
ATOM     75  C   UNL A   1      39.443  34.236  37.639  1.00  0.00     0.010 A 
ATOM     76  C   UNL A   1      40.623  36.681  38.009  1.00  0.00     0.020 A 
ATOM     77  C   UNL A   1      39.135  34.963  38.789  1.00  0.00     0.020 A 
ATOM     78  C   UNL A   1      39.704  36.209  38.956  1.00  0.00     0.054 A 
BRANCH  78  79
ATOM     79  S   UNL A   1      39.118  37.261  40.320  1.00  0.00     0.124 S 
ATOM     80  O   UNL A   1      38.458  38.354  39.617  1.00  0.00    -0.237 OA
ATOM     81  O   UNL A   1      38.239  36.362  41.064  1.00  0.00    -0.237 OA
ATOM     82  O   UNL A   1      40.349  37.624  41.024  1.00  0.00    -0.744 OA
ENDBRANCH  78  79
ENDBRANCH  50  73
BRANCH  62  83
ATOM     83  C   UNL A   1      42.860  32.004  31.853  1.00  0.00    -0.014 A 
ATOM     84  C   UNL A   1      41.870  32.445  30.950  1.00  0.00     0.010 A 
ATOM     85  C   UNL A   1      44.184  32.420  31.600  1.00  0.00     0.010 A 
ATOM     86  C   UNL A   1      42.179  33.240  29.836  1.00  0.00     0.020 A 
ATOM     87  C   UNL A   1      44.505  33.225  30.484  1.00  0.00     0.020 A 
ATOM     88  C   UNL A   1      43.497  33.626  29.604  1.00  0.00     0.054 A 
BRANCH  88  89
ATOM     89  S   UNL A   1      43.854  34.647  28.140  1.00  0.00     0.124 S 
ATOM     90  O   UNL A   1      42.659  35.479  28.026  1.00  0.00    -0.237 OA
ATOM     91  O   UNL A   1      45.068  35.356  28.535  1.00  0.00    -0.237 OA
ATOM     92  O   UNL A   1      44.026  33.672  27.064  1.00  0.00    -0.744 OA
ENDBRANCH  88  89
ENDBRANCH  62  83
ENDBRANCH  36  37
ENDBRANCH  28  31
ENDBRANCH  26  27
ENDBRANCH  25  26
ENDBRANCH   1  25
TORSDOF 19
ENDMDL
MODEL 2
REMARK VINA RESULT:     -10.9      3.965      5.627
REMARK SMILES CCC(CC)(NC(=O)c1cc([N+](=O)[O-])c[nH]1)C(=O)NCCCCNC(=O)c1ccc(-c2c3nc(c(-c4ccc(S(=O)(=O)[O-])cc4)c4ccc([nH]4)c(-c4ccc(S(=O)(=O)[O-])cc4)c4nc(c(-c5ccc(S(=O)(=O)[O-])cc5)c5ccc2[nH]5)C=C4)C=C3)cc1
REMARK SMILES IDX 21 1 20 2 19 3 17 4 18 5 3 7 2 8 1 9 4 10 5 11 6 12 7 13
REMARK SMILES IDX 8 15 9 16 10 17 16 18 11 19 15 20 12 22 13 23 14 24 22 25
REMARK SMILES IDX 23 26 24 27 25 28 26 30 27 31 28 32 86 33 29 34 85 35 30 36
REMARK SMILES IDX 31 37 32 38 79 39 33 40 84 41 78 42 80 43 34 44 83 45 77 46
REMARK SMILES IDX 76 47 35 49 65 50 46 51 64 52 47 53 50 54 63 55 81 56 48 57
REMARK SMILES IDX 49 58 62 60 82 61 51 62 36 63 37 64 45 65 38 66 44 67 39 68
REMARK SMILES IDX 40 69 41 70 42 71 43 72 66 73 67 74 75 75 68 76 74 77 69 78
REMARK SMILES IDX 70 79 71 80 72 81 73 82 52 83 53 84 61 85 54 86 60 87 55 88
REMARK SMILES IDX 56 89 57 90 58 91 59 92
REMARK H PARENT 19 6 6 14 16 21 24 29 80 48 50 59
REMARK Flexibility Score: inf
ROOT
ATOM      1  C   UNL A   1      32.587  29.211  26.670  1.00  0.00     0.023 C 
ENDROOT
BRANCH   1   2
ATOM      2  C   UNL A   1      31.569  29.246  25.518  1.00  0.00     0.116 C 
BRANCH   2   3
ATOM      3  N   UNL A   1      32.049  29.431  24.151  1.00  0.00    -0.354 N 
ATOM      4  C   UNL A   1      32.134  28.607  23.046  1.00  0.00     0.245 C 
ATOM      5  O   UNL A   1      32.490  29.128  21.986  1.00  0.00    -0.272 OA
ATOM      6  H   UNL A   1      32.383  30.342  23.979  1.00  0.00     0.163 HD
BRANCH   4   7
ATOM      7  C   UNL A   1      31.706  27.123  23.102  1.00  0.00     0.118 C 
BRANCH   7   8
ATOM      8  C   UNL A   1      30.249  26.838  23.580  1.00  0.00     0.035 C 
ATOM      9  C   UNL A   1      29.157  27.848  23.260  1.00  0.00     0.007 C 
ENDBRANCH   7   8
BRANCH   7  10
ATOM     10  C   UNL A   1      32.730  26.534  24.135  1.00  0.00     0.035 C 
ATOM     11  C   UNL A   1      32.203  25.720  25.300  1.00  0.00     0.007 C 
ENDBRANCH   7  10
BRANCH   7  12
ATOM     12  N   UNL A   1      31.804  26.528  21.742  1.00  0.00    -0.336 N 
ATOM     13  C   UNL A   1      32.533  25.425  21.310  1.00  0.00     0.268 C 
ATOM     14  H   UNL A   1      31.276  26.982  21.045  1.00  0.00     0.165 HD
ATOM     15  O   UNL A   1      32.990  25.511  20.167  1.00  0.00    -0.268 OA
BRANCH  13  16
ATOM     16  C   UNL A   1      32.728  24.189  22.072  1.00  0.00     0.111 A 
ATOM     17  C   UNL A   1      33.814  23.557  22.651  1.00  0.00     0.119 A 
ATOM     18  N   UNL A   1      31.638  23.443  22.517  1.00  0.00    -0.351 N 
ATOM     19  C   UNL A   1      33.396  22.495  23.487  1.00  0.00     0.287 A 
ATOM     20  C   UNL A   1      32.029  22.428  23.361  1.00  0.00     0.169 A 
ATOM     21  H   UNL A   1      30.704  23.619  22.259  1.00  0.00     0.166 HD
BRANCH  19  22
ATOM     22  N   UNL A   1      34.248  21.724  24.364  1.00  0.00     0.064 N 
ATOM     23  O   UNL A   1      33.693  21.016  25.212  1.00  0.00    -0.258 OA
ATOM     24  O   UNL A   1      35.469  21.888  24.231  1.00  0.00    -0.258 OA
ENDBRANCH  19  22
ENDBRANCH  13  16
ENDBRANCH   7  12
ENDBRANCH   4   7
ENDBRANCH   2   3
ENDBRANCH   1   2
BRANCH   1  25
ATOM     25  C   UNL A   1      34.074  28.998  26.371  1.00  0.00     0.023 C 
BRANCH  25  26
ATOM     26  C   UNL A   1      34.976  28.926  27.587  1.00  0.00     0.116 C 
BRANCH  26  27
ATOM     27  N   UNL A   1      35.228  30.258  28.102  1.00  0.00    -0.352 N 
ATOM     28  C   UNL A   1      36.134  30.639  29.058  1.00  0.00     0.251 C 
ATOM     29  H   UNL A   1      34.681  30.978  27.716  1.00  0.00     0.163 HD
ATOM     30  O   UNL A   1      35.904  31.637  29.728  1.00  0.00    -0.269 OA
BRANCH  28  31
ATOM     31  C   UNL A   1      37.379  29.870  29.272  1.00  0.00     0.039 A 
ATOM     32  C   UNL A   1      38.448  30.096  28.397  1.00  0.00     0.014 A 
ATOM     33  C   UNL A   1      37.459  28.867  30.245  1.00  0.00     0.014 A 
ATOM     34  C   UNL A   1      39.606  29.339  28.522  1.00  0.00     0.010 A 
ATOM     35  C   UNL A   1      38.625  28.132  30.395  1.00  0.00     0.010 A 
ATOM     36  C   UNL A   1      39.695  28.370  29.531  1.00  0.00    -0.014 A 
BRANCH  36  37
ATOM     37  C   UNL A   1      40.999  27.727  29.783  1.00  0.00     0.031 A 
ATOM     38  C   UNL A   1      41.152  26.465  28.907  1.00  0.00     0.074 A 
ATOM     39  C   UNL A   1      41.787  28.300  30.747  1.00  0.00     0.049 A 
ATOM     40  N   UNL A   1      41.799  25.371  29.148  1.00  0.00    -0.248 NA
ATOM     41  C   UNL A   1      40.411  26.358  27.615  1.00  0.00     0.031 C 
ATOM     42  C   UNL A   1      41.490  29.585  31.430  1.00  0.00     0.029 A 
ATOM     43  N   UNL A   1      42.978  27.956  31.353  1.00  0.00    -0.354 N 
ATOM     44  C   UNL A   1      41.708  24.542  28.003  1.00  0.00     0.074 A 
ATOM     45  C   UNL A   1      40.748  25.156  27.139  1.00  0.00     0.031 C 
ATOM     46  C   UNL A   1      42.405  29.856  32.390  1.00  0.00     0.029 A 
ATOM     47  C   UNL A   1      43.388  28.793  32.432  1.00  0.00     0.049 A 
ATOM     48  H   UNL A   1      43.511  27.182  31.060  1.00  0.00     0.167 HD
ATOM     49  C   UNL A   1      42.544  23.482  27.794  1.00  0.00     0.031 A 
ATOM     50  C   UNL A   1      44.417  28.617  33.323  1.00  0.00     0.031 A 
ATOM     51  C   UNL A   1      43.414  23.345  28.912  1.00  0.00     0.049 A 
ATOM     52  C   UNL A   1      45.148  27.446  32.828  1.00  0.00     0.074 A 
ATOM     53  C   UNL A   1      43.189  22.955  30.207  1.00  0.00     0.029 A 
ATOM     54  N   UNL A   1      44.593  24.052  28.839  1.00  0.00    -0.354 N 
ATOM     55  N   UNL A   1      45.938  27.449  31.801  1.00  0.00    -0.248 NA
ATOM     56  C   UNL A   1      44.950  26.151  33.491  1.00  0.00     0.031 C 
ATOM     57  C   UNL A   1      43.945  23.889  30.940  1.00  0.00     0.029 A 
ATOM     58  C   UNL A   1      44.801  24.589  30.081  1.00  0.00     0.049 A 
ATOM     59  H   UNL A   1      45.172  24.151  28.050  1.00  0.00     0.167 HD
ATOM     60  C   UNL A   1      45.964  26.123  31.462  1.00  0.00     0.074 A 
ATOM     61  C   UNL A   1      45.669  25.384  32.674  1.00  0.00     0.031 C 
ATOM     62  C   UNL A   1      45.633  25.761  30.194  1.00  0.00     0.031 A 
BRANCH  49  63
ATOM     63  C   UNL A   1      42.888  22.664  26.576  1.00  0.00    -0.014 A 
ATOM     64  C   UNL A   1      42.507  21.294  26.604  1.00  0.00     0.010 A 
ATOM     65  C   UNL A   1      43.829  23.051  25.613  1.00  0.00     0.010 A 
ATOM     66  C   UNL A   1      43.152  20.331  25.829  1.00  0.00     0.020 A 
ATOM     67  C   UNL A   1      44.453  22.088  24.796  1.00  0.00     0.020 A 
ATOM     68  C   UNL A   1      44.151  20.732  24.952  1.00  0.00     0.054 A 
BRANCH  68  69
ATOM     69  S   UNL A   1      45.085  19.442  24.085  1.00  0.00     0.124 S 
ATOM     70  O   UNL A   1      44.598  19.575  22.716  1.00  0.00    -0.237 OA
ATOM     71  O   UNL A   1      46.470  19.858  24.297  1.00  0.00    -0.237 OA
ATOM     72  O   UNL A   1      44.699  18.214  24.775  1.00  0.00    -0.744 OA
ENDBRANCH  68  69
ENDBRANCH  49  63
BRANCH  50  73
ATOM     73  C   UNL A   1      44.937  29.166  34.638  1.00  0.00    -0.014 A 
ATOM     74  C   UNL A   1      46.267  29.425  34.982  1.00  0.00     0.010 A 
ATOM     75  C   UNL A   1      43.967  29.594  35.596  1.00  0.00     0.010 A 
ATOM     76  C   UNL A   1      46.584  30.211  36.124  1.00  0.00     0.020 A 
ATOM     77  C   UNL A   1      44.257  30.414  36.688  1.00  0.00     0.020 A 
ATOM     78  C   UNL A   1      45.572  30.751  36.931  1.00  0.00     0.054 A 
BRANCH  78  79
ATOM     79  S   UNL A   1      45.933  32.011  38.193  1.00  0.00     0.124 S 
ATOM     80  O   UNL A   1      47.338  32.313  37.948  1.00  0.00    -0.237 OA
ATOM     81  O   UNL A   1      44.988  33.076  37.862  1.00  0.00    -0.237 OA
ATOM     82  O   UNL A   1      45.653  31.323  39.453  1.00  0.00    -0.744 OA
ENDBRANCH  78  79
ENDBRANCH  50  73
BRANCH  62  83
ATOM     83  C   UNL A   1      45.840  26.840  29.130  1.00  0.00    -0.014 A 
ATOM     84  C   UNL A   1      47.154  27.250  28.824  1.00  0.00     0.010 A 
ATOM     85  C   UNL A   1      44.791  27.543  28.501  1.00  0.00     0.010 A 
ATOM     86  C   UNL A   1      47.417  28.322  27.958  1.00  0.00     0.020 A 
ATOM     87  C   UNL A   1      45.044  28.621  27.624  1.00  0.00     0.020 A 
ATOM     88  C   UNL A   1      46.361  29.006  27.361  1.00  0.00     0.054 A 
BRANCH  88  89
ATOM     89  S   UNL A   1      46.748  30.398  26.254  1.00  0.00     0.124 S 
ATOM     90  O   UNL A   1      48.172  30.620  26.497  1.00  0.00    -0.237 OA
ATOM     91  O   UNL A   1      46.421  29.857  24.937  1.00  0.00    -0.237 OA
ATOM     92  O   UNL A   1      45.873  31.473  26.718  1.00  0.00    -0.744 OA
ENDBRANCH  88  89
ENDBRANCH  62  83
ENDBRANCH  36  37
ENDBRANCH  28  31
ENDBRANCH  26  27
ENDBRANCH  25  26
ENDBRANCH   1  25
TORSDOF 19
ENDMDL
MODEL 3
REMARK VINA RESULT:     -10.8      5.498     11.411
REMARK SMILES CCC(CC)(NC(=O)c1cc([N+](=O)[O-])c[nH]1)C(=O)NCCCCNC(=O)c1ccc(-c2c3nc(c(-c4ccc(S(=O)(=O)[O-])cc4)c4ccc([nH]4)c(-c4ccc(S(=O)(=O)[O-])cc4)c4nc(c(-c5ccc(S(=O)(=O)[O-])cc5)c5ccc2[nH]5)C=C4)C=C3)cc1
REMARK SMILES IDX 21 1 20 2 19 3 17 4 18 5 3 7 2 8 1 9 4 10 5 11 6 12 7 13
REMARK SMILES IDX 8 15 9 16 10 17 16 18 11 19 15 20 12 22 13 23 14 24 22 25
REMARK SMILES IDX 23 26 24 27 25 28 26 30 27 31 28 32 86 33 29 34 85 35 30 36
REMARK SMILES IDX 31 37 32 38 79 39 33 40 84 41 78 42 80 43 34 44 83 45 77 46
REMARK SMILES IDX 76 47 35 49 65 50 46 51 64 52 47 53 50 54 63 55 81 56 48 57
REMARK SMILES IDX 49 58 62 60 82 61 51 62 36 63 37 64 45 65 38 66 44 67 39 68
REMARK SMILES IDX 40 69 41 70 42 71 43 72 66 73 67 74 75 75 68 76 74 77 69 78
REMARK SMILES IDX 70 79 71 80 72 81 73 82 52 83 53 84 61 85 54 86 60 87 55 88
REMARK SMILES IDX 56 89 57 90 58 91 59 92
REMARK H PARENT 19 6 6 14 16 21 24 29 80 48 50 59
REMARK Flexibility Score: inf
ROOT
ATOM      1  C   UNL A   1      37.254  19.520  24.693  1.00  0.00     0.023 C 
ENDROOT
BRANCH   1   2
ATOM      2  C   UNL A   1      36.784  20.968  24.912  1.00  0.00     0.116 C 
BRANCH   2   3
ATOM      3  N   UNL A   1      36.016  21.291  26.111  1.00  0.00    -0.354 N 
ATOM      4  C   UNL A   1      34.965  22.148  26.373  1.00  0.00     0.245 C 
ATOM      5  O   UNL A   1      34.462  22.090  27.498  1.00  0.00    -0.272 OA
ATOM      6  H   UNL A   1      36.310  20.789  26.906  1.00  0.00     0.163 HD
BRANCH   4   7
ATOM      7  C   UNL A   1      34.371  23.067  25.281  1.00  0.00     0.118 C 
BRANCH   7   8
ATOM      8  C   UNL A   1      34.719  22.705  23.804  1.00  0.00     0.035 C 
ATOM      9  C   UNL A   1      34.191  23.589  22.684  1.00  0.00     0.007 C 
ENDBRANCH   7   8
BRANCH   7  10
ATOM     10  C   UNL A   1      35.004  24.454  25.653  1.00  0.00     0.035 C 
ATOM     11  C   UNL A   1      34.104  25.673  25.711  1.00  0.00     0.007 C 
ENDBRANCH   7  10
BRANCH   7  12
ATOM     12  N   UNL A   1      32.886  23.035  25.362  1.00  0.00    -0.336 N 
ATOM     13  C   UNL A   1      31.992  22.105  24.841  1.00  0.00     0.268 C 
ATOM     14  H   UNL A   1      32.475  23.781  25.856  1.00  0.00     0.165 HD
ATOM     15  O   UNL A   1      30.918  22.569  24.449  1.00  0.00    -0.268 OA
BRANCH  13  16
ATOM     16  C   UNL A   1      32.211  20.657  24.793  1.00  0.00     0.111 A 
ATOM     17  C   UNL A   1      32.315  19.716  23.784  1.00  0.00     0.119 A 
ATOM     18  N   UNL A   1      32.550  19.945  25.942  1.00  0.00    -0.351 N 
ATOM     19  C   UNL A   1      32.776  18.477  24.291  1.00  0.00     0.287 A 
ATOM     20  C   UNL A   1      32.887  18.642  25.652  1.00  0.00     0.169 A 
ATOM     21  H   UNL A   1      32.548  20.326  26.850  1.00  0.00     0.166 HD
BRANCH  19  22
ATOM     22  N   UNL A   1      33.146  17.326  23.501  1.00  0.00     0.064 N 
ATOM     23  O   UNL A   1      33.227  17.483  22.277  1.00  0.00    -0.258 OA
ATOM     24  O   UNL A   1      33.289  16.258  24.113  1.00  0.00    -0.258 OA
ENDBRANCH  19  22
ENDBRANCH  13  16
ENDBRANCH   7  12
ENDBRANCH   4   7
ENDBRANCH   2   3
ENDBRANCH   1   2
BRANCH   1  25
ATOM     25  C   UNL A   1      38.366  18.935  25.569  1.00  0.00     0.023 C 
BRANCH  25  26
ATOM     26  C   UNL A   1      39.653  19.735  25.603  1.00  0.00     0.116 C 
BRANCH  26  27
ATOM     27  N   UNL A   1      40.725  18.932  26.160  1.00  0.00    -0.352 N 
ATOM     28  C   UNL A   1      42.027  19.297  26.385  1.00  0.00     0.251 C 
ATOM     29  H   UNL A   1      40.488  18.010  26.406  1.00  0.00     0.163 HD
ATOM     30  O   UNL A   1      42.896  18.433  26.372  1.00  0.00    -0.269 OA
BRANCH  28  31
ATOM     31  C   UNL A   1      42.384  20.706  26.654  1.00  0.00     0.039 A 
ATOM     32  C   UNL A   1      42.216  21.188  27.957  1.00  0.00     0.014 A 
ATOM     33  C   UNL A   1      42.774  21.570  25.624  1.00  0.00     0.014 A 
ATOM     34  C   UNL A   1      42.469  22.526  28.230  1.00  0.00     0.010 A 
ATOM     35  C   UNL A   1      43.060  22.898  25.898  1.00  0.00     0.010 A 
ATOM     36  C   UNL A   1      42.906  23.372  27.201  1.00  0.00    -0.014 A 
BRANCH  36  37
ATOM     37  C   UNL A   1      43.370  24.729  27.549  1.00  0.00     0.031 A 
ATOM     38  C   UNL A   1      42.174  25.699  27.638  1.00  0.00     0.074 A 
ATOM     39  C   UNL A   1      44.726  24.898  27.670  1.00  0.00     0.049 A 
ATOM     40  N   UNL A   1      42.123  26.967  27.385  1.00  0.00    -0.248 NA
ATOM     41  C   UNL A   1      40.814  25.179  27.969  1.00  0.00     0.031 C 
ATOM     42  C   UNL A   1      45.724  23.798  27.629  1.00  0.00     0.029 A 
ATOM     43  N   UNL A   1      45.551  25.989  27.856  1.00  0.00    -0.354 N 
ATOM     44  C   UNL A   1      40.819  27.427  27.693  1.00  0.00     0.074 A 
ATOM     45  C   UNL A   1      40.029  26.261  27.939  1.00  0.00     0.031 C 
ATOM     46  C   UNL A   1      46.988  24.278  27.694  1.00  0.00     0.029 A 
ATOM     47  C   UNL A   1      46.951  25.723  27.790  1.00  0.00     0.049 A 
ATOM     48  H   UNL A   1      45.197  26.892  28.022  1.00  0.00     0.167 HD
ATOM     49  C   UNL A   1      40.527  28.752  27.862  1.00  0.00     0.031 A 
ATOM     50  C   UNL A   1      48.000  26.607  27.767  1.00  0.00     0.031 A 
ATOM     51  C   UNL A   1      41.698  29.523  27.613  1.00  0.00     0.049 A 
ATOM     52  C   UNL A   1      47.392  27.920  28.007  1.00  0.00     0.074 A 
ATOM     53  C   UNL A   1      42.393  29.789  26.462  1.00  0.00     0.029 A 
ATOM     54  N   UNL A   1      42.504  29.751  28.705  1.00  0.00    -0.354 N 
ATOM     55  N   UNL A   1      46.968  28.338  29.157  1.00  0.00    -0.248 NA
ATOM     56  C   UNL A   1      47.189  28.827  26.870  1.00  0.00     0.031 C 
ATOM     57  C   UNL A   1      43.730  29.645  26.875  1.00  0.00     0.029 A 
ATOM     58  C   UNL A   1      43.795  29.596  28.274  1.00  0.00     0.049 A 
ATOM     59  H   UNL A   1      42.211  29.982  29.616  1.00  0.00     0.167 HD
ATOM     60  C   UNL A   1      46.090  29.323  28.791  1.00  0.00     0.074 A 
ATOM     61  C   UNL A   1      46.525  29.799  27.493  1.00  0.00     0.031 C 
ATOM     62  C   UNL A   1      44.809  29.264  29.242  1.00  0.00     0.031 A 
BRANCH  49  63
ATOM     63  C   UNL A   1      39.368  29.481  28.491  1.00  0.00    -0.014 A 
ATOM     64  C   UNL A   1      38.134  29.435  27.785  1.00  0.00     0.010 A 
ATOM     65  C   UNL A   1      39.502  30.452  29.490  1.00  0.00     0.010 A 
ATOM     66  C   UNL A   1      37.151  30.410  27.949  1.00  0.00     0.020 A 
ATOM     67  C   UNL A   1      38.494  31.415  29.692  1.00  0.00     0.020 A 
ATOM     68  C   UNL A   1      37.355  31.420  28.881  1.00  0.00     0.054 A 
BRANCH  68  69
ATOM     69  S   UNL A   1      36.141  32.765  28.951  1.00  0.00     0.124 S 
ATOM     70  O   UNL A   1      35.509  32.679  27.639  1.00  0.00    -0.237 OA
ATOM     71  O   UNL A   1      35.297  32.371  30.078  1.00  0.00    -0.237 OA
ATOM     72  O   UNL A   1      36.958  33.954  29.181  1.00  0.00    -0.744 OA
ENDBRANCH  68  69
ENDBRANCH  49  63
BRANCH  50  73
ATOM     73  C   UNL A   1      49.491  26.652  27.486  1.00  0.00    -0.014 A 
ATOM     74  C   UNL A   1      50.528  26.288  28.349  1.00  0.00     0.010 A 
ATOM     75  C   UNL A   1      49.894  26.975  26.153  1.00  0.00     0.010 A 
ATOM     76  C   UNL A   1      51.850  26.096  27.860  1.00  0.00     0.020 A 
ATOM     77  C   UNL A   1      51.172  26.738  25.645  1.00  0.00     0.020 A 
ATOM     78  C   UNL A   1      52.145  26.262  26.500  1.00  0.00     0.054 A 
BRANCH  78  79
ATOM     79  S   UNL A   1      53.733  25.717  25.799  1.00  0.00     0.124 S 
ATOM     80  O   UNL A   1      54.217  26.921  25.133  1.00  0.00    -0.237 OA
ATOM     81  O   UNL A   1      54.482  25.304  26.984  1.00  0.00    -0.237 OA
ATOM     82  O   UNL A   1      53.355  24.620  24.908  1.00  0.00    -0.744 OA
ENDBRANCH  78  79
ENDBRANCH  50  73
BRANCH  62  83
ATOM     83  C   UNL A   1      44.609  28.489  30.546  1.00  0.00    -0.014 A 
ATOM     84  C   UNL A   1      45.006  29.086  31.761  1.00  0.00     0.010 A 
ATOM     85  C   UNL A   1      44.151  27.156  30.611  1.00  0.00     0.010 A 
ATOM     86  C   UNL A   1      44.976  28.389  32.977  1.00  0.00     0.020 A 
ATOM     87  C   UNL A   1      44.111  26.447  31.832  1.00  0.00     0.020 A 
ATOM     88  C   UNL A   1      44.531  27.069  33.010  1.00  0.00     0.054 A 
BRANCH  88  89
ATOM     89  S   UNL A   1      44.519  26.200  34.609  1.00  0.00     0.124 S 
ATOM     90  O   UNL A   1      45.693  25.335  34.517  1.00  0.00    -0.237 OA
ATOM     91  O   UNL A   1      44.631  27.297  35.568  1.00  0.00    -0.237 OA
ATOM     92  O   UNL A   1      43.239  25.495  34.619  1.00  0.00    -0.744 OA
ENDBRANCH  88  89
ENDBRANCH  62  83
ENDBRANCH  36  37
ENDBRANCH  28  31
ENDBRANCH  26  27
ENDBRANCH  25  26
ENDBRANCH   1  25
TORSDOF 19
ENDMDL
