MODEL 1
REMARK VINA RESULT:     -13.2      0.000      0.000
REMARK SMILES O=C(NCCCCNC(=O)c1ccc(-c2c3nc(c(-c4ccc(S(=O)(=O)[O-])cc4)c4ccc([nH]4)c(-c4ccc(S(=O)(=O)[O-])cc4)c4nc(c(-c5ccc(S(=O)(=O)[O-])cc5)c5ccc2[nH]5)C=C4)C=C3)cc1)C1=Cc2cc(Cl)cc(-c3ccc(Cl)cc3)c2O[C@@H]1C(F)(F)F
REMARK SMILES IDX 6 1 5 2 4 3 3 4 1 5 2 6 71 8 72 9 88 10 73 11 87 12 74 13
REMARK SMILES IDX 86 14 75 15 78 16 76 17 77 18 89 19 90 20 91 21 92 22 79 23
REMARK SMILES IDX 80 24 85 25 81 26 84 27 82 28 83 29 7 30 8 31 9 32 10 34
REMARK SMILES IDX 11 35 12 36 70 37 13 38 69 39 14 40 15 41 16 42 63 43 17 44
REMARK SMILES IDX 68 45 62 46 64 47 18 48 67 49 61 50 60 51 19 53 49 54 30 55
REMARK SMILES IDX 48 56 31 57 34 58 47 59 65 60 32 61 33 62 46 64 66 65 35 66
REMARK SMILES IDX 20 67 21 68 29 69 22 70 28 71 23 72 24 73 25 74 26 75 27 76
REMARK SMILES IDX 50 77 51 78 59 79 52 80 58 81 53 82 54 83 55 84 56 85 57 86
REMARK SMILES IDX 36 87 37 88 45 89 38 90 44 91 39 92 40 93 41 94 42 95 43 96
REMARK H PARENT 3 7 8 33 64 52 34 63
REMARK Flexibility Score: inf
ROOT
ATOM      1  C   UNL A   1      31.989  28.367  26.626  1.00  0.00     0.023 C 
ENDROOT
BRANCH   1   2
ATOM      2  C   UNL A   1      32.025  27.161  25.682  1.00  0.00     0.023 C 
BRANCH   2   3
ATOM      3  C   UNL A   1      30.852  26.186  25.822  1.00  0.00     0.116 C 
BRANCH   3   4
ATOM      4  N   UNL A   1      31.097  25.107  26.783  1.00  0.00    -0.352 N 
ATOM      5  O   UNL A   1      32.173  23.338  27.706  1.00  0.00    -0.270 OA
ATOM      6  C   UNL A   1      31.923  24.010  26.713  1.00  0.00     0.251 C 
ATOM      7  H   UNL A   1      30.582  25.179  27.620  1.00  0.00     0.163 HD
BRANCH   6   8
ATOM      8  C   UNL A   1      32.610  23.733  25.437  1.00  0.00     0.067 C 
ATOM      9  C   UNL A   1      33.872  24.132  25.229  1.00  0.00     0.025 C 
ATOM     10  C   UNL A   1      31.982  22.719  24.536  1.00  0.00     0.314 C 
ATOM     11  C   UNL A   1      34.730  22.999  24.812  1.00  0.00     0.019 A 
ATOM     12  O   UNL A   1      32.796  21.529  24.480  1.00  0.00    -0.475 OA
ATOM     13  C   UNL A   1      36.099  23.123  25.060  1.00  0.00     0.032 A 
ATOM     14  C   UNL A   1      34.156  21.709  24.641  1.00  0.00     0.135 A 
ATOM     15  C   UNL A   1      36.875  21.979  25.205  1.00  0.00     0.042 A 
ATOM     16  C   UNL A   1      34.930  20.544  24.846  1.00  0.00     0.026 A 
ATOM     17  Cl  UNL A   1      38.529  22.132  25.654  1.00  0.00    -0.084 Cl
ATOM     18  C   UNL A   1      36.302  20.711  25.111  1.00  0.00     0.033 A 
BRANCH  10  19
ATOM     19  C   UNL A   1      31.710  23.305  23.135  1.00  0.00     0.429 C 
ATOM     20  F   UNL A   1      32.162  22.484  22.157  1.00  0.00    -0.167 F 
ATOM     21  F   UNL A   1      30.384  23.482  22.914  1.00  0.00    -0.167 F 
ATOM     22  F   UNL A   1      32.304  24.508  22.943  1.00  0.00    -0.167 F 
ENDBRANCH  10  19
BRANCH  16  23
ATOM     23  C   UNL A   1      34.329  19.194  24.971  1.00  0.00    -0.015 A 
ATOM     24  C   UNL A   1      34.974  18.077  24.400  1.00  0.00     0.010 A 
ATOM     25  C   UNL A   1      33.125  18.968  25.654  1.00  0.00     0.010 A 
ATOM     26  C   UNL A   1      34.423  16.794  24.479  1.00  0.00     0.021 A 
ATOM     27  C   UNL A   1      32.574  17.683  25.742  1.00  0.00     0.021 A 
ATOM     28  C   UNL A   1      33.222  16.604  25.147  1.00  0.00     0.041 A 
ATOM     29  Cl  UNL A   1      32.533  15.031  25.232  1.00  0.00    -0.084 Cl
ENDBRANCH  16  23
ENDBRANCH   6   8
ENDBRANCH   3   4
ENDBRANCH   2   3
ENDBRANCH   1   2
BRANCH   1  30
ATOM     30  C   UNL A   1      33.309  28.772  27.283  1.00  0.00     0.116 C 
BRANCH  30  31
ATOM     31  N   UNL A   1      33.405  30.172  27.665  1.00  0.00    -0.352 N 
ATOM     32  C   UNL A   1      34.509  30.850  28.153  1.00  0.00     0.251 C 
ATOM     33  H   UNL A   1      32.583  30.703  27.562  1.00  0.00     0.163 HD
ATOM     34  O   UNL A   1      34.426  32.031  28.439  1.00  0.00    -0.269 OA
BRANCH  32  35
ATOM     35  C   UNL A   1      35.783  30.116  28.359  1.00  0.00     0.039 A 
ATOM     36  C   UNL A   1      36.702  30.057  27.306  1.00  0.00     0.014 A 
ATOM     37  C   UNL A   1      36.094  29.545  29.595  1.00  0.00     0.014 A 
ATOM     38  C   UNL A   1      37.978  29.533  27.533  1.00  0.00     0.010 A 
ATOM     39  C   UNL A   1      37.378  29.061  29.832  1.00  0.00     0.010 A 
ATOM     40  C   UNL A   1      38.340  29.085  28.814  1.00  0.00    -0.014 A 
BRANCH  40  41
ATOM     41  C   UNL A   1      39.748  28.765  29.150  1.00  0.00     0.031 A 
ATOM     42  C   UNL A   1      40.660  29.805  29.727  1.00  0.00     0.074 A 
ATOM     43  C   UNL A   1      40.225  27.550  28.813  1.00  0.00     0.049 A 
ATOM     44  N   UNL A   1      41.927  29.705  30.038  1.00  0.00    -0.248 NA
ATOM     45  C   UNL A   1      40.083  31.137  29.965  1.00  0.00     0.031 C 
ATOM     46  C   UNL A   1      39.446  26.483  28.177  1.00  0.00     0.029 A 
ATOM     47  N   UNL A   1      41.481  27.013  28.934  1.00  0.00    -0.354 N 
ATOM     48  C   UNL A   1      42.301  30.956  30.512  1.00  0.00     0.074 A 
ATOM     49  C   UNL A   1      41.138  31.812  30.402  1.00  0.00     0.031 C 
ATOM     50  C   UNL A   1      40.239  25.420  27.970  1.00  0.00     0.029 A 
ATOM     51  C   UNL A   1      41.586  25.736  28.435  1.00  0.00     0.049 A 
ATOM     52  H   UNL A   1      42.237  27.496  29.339  1.00  0.00     0.167 HD
ATOM     53  C   UNL A   1      43.501  31.348  31.004  1.00  0.00     0.031 A 
ATOM     54  C   UNL A   1      42.645  24.909  28.359  1.00  0.00     0.031 A 
ATOM     55  C   UNL A   1      44.656  30.492  31.088  1.00  0.00     0.049 A 
ATOM     56  C   UNL A   1      43.966  25.365  28.912  1.00  0.00     0.074 A 
ATOM     57  C   UNL A   1      45.899  30.771  31.629  1.00  0.00     0.029 A 
ATOM     58  N   UNL A   1      44.714  29.193  30.604  1.00  0.00    -0.354 N 
ATOM     59  N   UNL A   1      44.274  26.521  29.453  1.00  0.00    -0.248 NA
ATOM     60  C   UNL A   1      45.073  24.403  28.865  1.00  0.00     0.031 C 
ATOM     61  C   UNL A   1      46.725  29.659  31.426  1.00  0.00     0.029 A 
ATOM     62  C   UNL A   1      45.979  28.666  30.811  1.00  0.00     0.049 A 
ATOM     63  H   UNL A   1      43.968  28.715  30.177  1.00  0.00     0.167 HD
ATOM     64  C   UNL A   1      45.605  26.415  29.837  1.00  0.00     0.074 A 
ATOM     65  C   UNL A   1      46.037  25.079  29.476  1.00  0.00     0.031 C 
ATOM     66  C   UNL A   1      46.395  27.338  30.438  1.00  0.00     0.031 A 
BRANCH  53  67
ATOM     67  C   UNL A   1      43.622  32.768  31.494  1.00  0.00    -0.014 A 
ATOM     68  C   UNL A   1      43.947  33.812  30.608  1.00  0.00     0.010 A 
ATOM     69  C   UNL A   1      43.367  33.073  32.843  1.00  0.00     0.010 A 
ATOM     70  C   UNL A   1      44.054  35.127  31.070  1.00  0.00     0.020 A 
ATOM     71  C   UNL A   1      43.446  34.391  33.304  1.00  0.00     0.020 A 
ATOM     72  C   UNL A   1      43.806  35.407  32.417  1.00  0.00     0.054 A 
BRANCH  72  73
ATOM     73  S   UNL A   1      43.931  37.127  32.983  1.00  0.00     0.124 S 
ATOM     74  O   UNL A   1      43.869  37.864  31.723  1.00  0.00    -0.237 OA
ATOM     75  O   UNL A   1      42.762  37.266  33.848  1.00  0.00    -0.237 OA
ATOM     76  O   UNL A   1      45.219  37.174  33.668  1.00  0.00    -0.744 OA
ENDBRANCH  72  73
ENDBRANCH  53  67
BRANCH  54  77
ATOM     77  C   UNL A   1      42.485  23.554  27.767  1.00  0.00    -0.014 A 
ATOM     78  C   UNL A   1      42.848  23.315  26.431  1.00  0.00     0.010 A 
ATOM     79  C   UNL A   1      42.002  22.486  28.547  1.00  0.00     0.010 A 
ATOM     80  C   UNL A   1      42.719  22.037  25.879  1.00  0.00     0.020 A 
ATOM     81  C   UNL A   1      41.895  21.202  28.006  1.00  0.00     0.020 A 
ATOM     82  C   UNL A   1      42.246  20.987  26.672  1.00  0.00     0.054 A 
BRANCH  82  83
ATOM     83  S   UNL A   1      42.148  19.324  25.953  1.00  0.00     0.124 S 
ATOM     84  O   UNL A   1      40.719  19.187  25.698  1.00  0.00    -0.237 OA
ATOM     85  O   UNL A   1      42.996  19.441  24.768  1.00  0.00    -0.237 OA
ATOM     86  O   UNL A   1      42.684  18.466  27.008  1.00  0.00    -0.744 OA
ENDBRANCH  82  83
ENDBRANCH  54  77
BRANCH  66  87
ATOM     87  C   UNL A   1      47.805  26.924  30.768  1.00  0.00    -0.014 A 
ATOM     88  C   UNL A   1      48.853  27.117  29.853  1.00  0.00     0.010 A 
ATOM     89  C   UNL A   1      48.087  26.374  32.032  1.00  0.00     0.010 A 
ATOM     90  C   UNL A   1      50.157  26.738  30.184  1.00  0.00     0.020 A 
ATOM     91  C   UNL A   1      49.393  26.019  32.376  1.00  0.00     0.020 A 
ATOM     92  C   UNL A   1      50.418  26.189  31.443  1.00  0.00     0.054 A 
BRANCH  92  93
ATOM     93  S   UNL A   1      52.124  25.742  31.865  1.00  0.00     0.124 S 
ATOM     94  O   UNL A   1      51.997  24.321  32.177  1.00  0.00    -0.237 OA
ATOM     95  O   UNL A   1      52.851  26.053  30.636  1.00  0.00    -0.237 OA
ATOM     96  O   UNL A   1      52.437  26.605  33.002  1.00  0.00    -0.744 OA
ENDBRANCH  92  93
ENDBRANCH  66  87
ENDBRANCH  40  41
ENDBRANCH  32  35
ENDBRANCH  30  31
ENDBRANCH   1  30
TORSDOF 16
ENDMDL
MODEL 2
REMARK VINA RESULT:     -12.7      0.724      7.965
REMARK SMILES O=C(NCCCCNC(=O)c1ccc(-c2c3nc(c(-c4ccc(S(=O)(=O)[O-])cc4)c4ccc([nH]4)c(-c4ccc(S(=O)(=O)[O-])cc4)c4nc(c(-c5ccc(S(=O)(=O)[O-])cc5)c5ccc2[nH]5)C=C4)C=C3)cc1)C1=Cc2cc(Cl)cc(-c3ccc(Cl)cc3)c2O[C@@H]1C(F)(F)F
REMARK SMILES IDX 6 1 5 2 4 3 3 4 1 5 2 6 71 8 72 9 88 10 73 11 87 12 74 13
REMARK SMILES IDX 86 14 75 15 78 16 76 17 77 18 89 19 90 20 91 21 92 22 79 23
REMARK SMILES IDX 80 24 85 25 81 26 84 27 82 28 83 29 7 30 8 31 9 32 10 34
REMARK SMILES IDX 11 35 12 36 70 37 13 38 69 39 14 40 15 41 16 42 63 43 17 44
REMARK SMILES IDX 68 45 62 46 64 47 18 48 67 49 61 50 60 51 19 53 49 54 30 55
REMARK SMILES IDX 48 56 31 57 34 58 47 59 65 60 32 61 33 62 46 64 66 65 35 66
REMARK SMILES IDX 20 67 21 68 29 69 22 70 28 71 23 72 24 73 25 74 26 75 27 76
REMARK SMILES IDX 50 77 51 78 59 79 52 80 58 81 53 82 54 83 55 84 56 85 57 86
REMARK SMILES IDX 36 87 37 88 45 89 38 90 44 91 39 92 40 93 41 94 42 95 43 96
REMARK H PARENT 3 7 8 33 64 52 34 63
REMARK Flexibility Score: inf
ROOT
ATOM      1  C   UNL A   1      31.794  27.977  27.063  1.00  0.00     0.023 C 
ENDROOT
BRANCH   1   2
ATOM      2  C   UNL A   1      31.551  27.273  25.724  1.00  0.00     0.023 C 
BRANCH   2   3
ATOM      3  C   UNL A   1      30.548  26.117  25.766  1.00  0.00     0.116 C 
BRANCH   3   4
ATOM      4  N   UNL A   1      30.874  25.092  26.761  1.00  0.00    -0.352 N 
ATOM      5  O   UNL A   1      32.094  23.458  27.753  1.00  0.00    -0.270 OA
ATOM      6  C   UNL A   1      31.802  24.077  26.736  1.00  0.00     0.251 C 
ATOM      7  H   UNL A   1      30.338  25.137  27.587  1.00  0.00     0.163 HD
BRANCH   6   8
ATOM      8  C   UNL A   1      32.538  23.833  25.482  1.00  0.00     0.067 C 
ATOM      9  C   UNL A   1      33.799  24.257  25.326  1.00  0.00     0.025 C 
ATOM     10  C   UNL A   1      31.960  22.824  24.542  1.00  0.00     0.314 C 
ATOM     11  C   UNL A   1      34.691  23.146  24.921  1.00  0.00     0.019 A 
ATOM     12  O   UNL A   1      32.796  21.649  24.496  1.00  0.00    -0.475 OA
ATOM     13  C   UNL A   1      36.049  23.289  25.219  1.00  0.00     0.032 A 
ATOM     14  C   UNL A   1      34.147  21.850  24.708  1.00  0.00     0.135 A 
ATOM     15  C   UNL A   1      36.839  22.156  25.373  1.00  0.00     0.042 A 
ATOM     16  C   UNL A   1      34.932  20.694  24.922  1.00  0.00     0.026 A 
ATOM     17  Cl  UNL A   1      38.473  22.330  25.884  1.00  0.00    -0.084 Cl
ATOM     18  C   UNL A   1      36.291  20.880  25.238  1.00  0.00     0.033 A 
BRANCH  10  19
ATOM     19  C   UNL A   1      31.727  23.430  23.142  1.00  0.00     0.429 C 
ATOM     20  F   UNL A   1      30.409  23.466  22.831  1.00  0.00    -0.167 F 
ATOM     21  F   UNL A   1      32.181  24.705  23.065  1.00  0.00    -0.167 F 
ATOM     22  F   UNL A   1      32.345  22.733  22.158  1.00  0.00    -0.167 F 
ENDBRANCH  10  19
BRANCH  16  23
ATOM     23  C   UNL A   1      34.352  19.332  25.003  1.00  0.00    -0.015 A 
ATOM     24  C   UNL A   1      35.034  18.237  24.433  1.00  0.00     0.010 A 
ATOM     25  C   UNL A   1      33.130  19.074  25.642  1.00  0.00     0.010 A 
ATOM     26  C   UNL A   1      34.503  16.944  24.471  1.00  0.00     0.021 A 
ATOM     27  C   UNL A   1      32.599  17.779  25.689  1.00  0.00     0.021 A 
ATOM     28  C   UNL A   1      33.285  16.721  25.096  1.00  0.00     0.041 A 
ATOM     29  Cl  UNL A   1      32.620  15.137  25.131  1.00  0.00    -0.084 Cl
ENDBRANCH  16  23
ENDBRANCH   6   8
ENDBRANCH   3   4
ENDBRANCH   2   3
ENDBRANCH   1   2
BRANCH   1  30
ATOM     30  C   UNL A   1      33.172  28.605  27.277  1.00  0.00     0.116 C 
BRANCH  30  31
ATOM     31  N   UNL A   1      33.158  30.013  27.639  1.00  0.00    -0.352 N 
ATOM     32  C   UNL A   1      34.212  30.787  28.097  1.00  0.00     0.251 C 
ATOM     33  H   UNL A   1      32.294  30.473  27.547  1.00  0.00     0.163 HD
ATOM     34  O   UNL A   1      34.038  31.960  28.371  1.00  0.00    -0.269 OA
BRANCH  32  35
ATOM     35  C   UNL A   1      35.546  30.163  28.286  1.00  0.00     0.039 A 
ATOM     36  C   UNL A   1      36.414  30.089  27.193  1.00  0.00     0.014 A 
ATOM     37  C   UNL A   1      35.959  29.711  29.542  1.00  0.00     0.014 A 
ATOM     38  C   UNL A   1      37.736  29.676  27.387  1.00  0.00     0.010 A 
ATOM     39  C   UNL A   1      37.285  29.339  29.743  1.00  0.00     0.010 A 
ATOM     40  C   UNL A   1      38.193  29.355  28.675  1.00  0.00    -0.014 A 
BRANCH  40  41
ATOM     41  C   UNL A   1      39.635  29.161  28.957  1.00  0.00     0.031 A 
ATOM     42  C   UNL A   1      40.307  27.850  28.683  1.00  0.00     0.074 A 
ATOM     43  C   UNL A   1      40.303  30.153  29.581  1.00  0.00     0.049 A 
ATOM     44  N   UNL A   1      41.546  27.499  28.910  1.00  0.00    -0.248 NA
ATOM     45  C   UNL A   1      39.476  26.786  28.099  1.00  0.00     0.031 C 
ATOM     46  C   UNL A   1      39.729  31.447  29.965  1.00  0.00     0.029 A 
ATOM     47  N   UNL A   1      41.599  30.224  30.024  1.00  0.00    -0.354 N 
ATOM     48  C   UNL A   1      41.649  26.177  28.496  1.00  0.00     0.074 A 
ATOM     49  C   UNL A   1      40.332  25.775  28.046  1.00  0.00     0.031 C 
ATOM     50  C   UNL A   1      40.669  32.183  30.578  1.00  0.00     0.029 A 
ATOM     51  C   UNL A   1      41.903  31.408  30.653  1.00  0.00     0.049 A 
ATOM     52  H   UNL A   1      42.250  29.495  29.902  1.00  0.00     0.167 HD
ATOM     53  C   UNL A   1      42.744  25.380  28.479  1.00  0.00     0.031 A 
ATOM     54  C   UNL A   1      43.047  31.826  31.228  1.00  0.00     0.031 A 
ATOM     55  C   UNL A   1      44.043  25.786  28.949  1.00  0.00     0.049 A 
ATOM     56  C   UNL A   1      44.248  30.923  31.197  1.00  0.00     0.074 A 
ATOM     57  C   UNL A   1      45.232  25.077  28.918  1.00  0.00     0.029 A 
ATOM     58  N   UNL A   1      44.322  27.006  29.550  1.00  0.00    -0.354 N 
ATOM     59  N   UNL A   1      44.352  29.712  30.705  1.00  0.00    -0.248 NA
ATOM     60  C   UNL A   1      45.488  31.451  31.779  1.00  0.00     0.031 C 
ATOM     61  C   UNL A   1      46.217  25.848  29.545  1.00  0.00     0.029 A 
ATOM     62  C   UNL A   1      45.657  27.060  29.916  1.00  0.00     0.049 A 
ATOM     63  H   UNL A   1      43.668  27.727  29.694  1.00  0.00     0.167 HD
ATOM     64  C   UNL A   1      45.678  29.341  30.892  1.00  0.00     0.074 A 
ATOM     65  C   UNL A   1      46.338  30.463  31.531  1.00  0.00     0.031 C 
ATOM     66  C   UNL A   1      46.295  28.180  30.560  1.00  0.00     0.031 A 
BRANCH  53  67
ATOM     67  C   UNL A   1      42.581  23.985  27.932  1.00  0.00    -0.014 A 
ATOM     68  C   UNL A   1      42.337  22.897  28.790  1.00  0.00     0.010 A 
ATOM     69  C   UNL A   1      42.629  23.762  26.544  1.00  0.00     0.010 A 
ATOM     70  C   UNL A   1      42.183  21.607  28.274  1.00  0.00     0.020 A 
ATOM     71  C   UNL A   1      42.450  22.477  26.022  1.00  0.00     0.020 A 
ATOM     72  C   UNL A   1      42.245  21.405  26.891  1.00  0.00     0.054 A 
BRANCH  72  73
ATOM     73  S   UNL A   1      42.020  19.723  26.249  1.00  0.00     0.124 S 
ATOM     74  O   UNL A   1      40.589  19.702  25.955  1.00  0.00    -0.237 OA
ATOM     75  O   UNL A   1      42.900  19.704  25.084  1.00  0.00    -0.237 OA
ATOM     76  O   UNL A   1      42.441  18.870  27.358  1.00  0.00    -0.744 OA
ENDBRANCH  72  73
ENDBRANCH  53  67
BRANCH  54  77
ATOM     77  C   UNL A   1      43.113  33.177  31.846  1.00  0.00    -0.014 A 
ATOM     78  C   UNL A   1      42.916  33.336  33.228  1.00  0.00     0.010 A 
ATOM     79  C   UNL A   1      43.408  34.307  31.062  1.00  0.00     0.010 A 
ATOM     80  C   UNL A   1      43.000  34.602  33.815  1.00  0.00     0.020 A 
ATOM     81  C   UNL A   1      43.517  35.571  31.649  1.00  0.00     0.020 A 
ATOM     82  C   UNL A   1      43.303  35.712  33.021  1.00  0.00     0.054 A 
BRANCH  82  83
ATOM     83  S   UNL A   1      43.471  37.335  33.815  1.00  0.00     0.124 S 
ATOM     84  O   UNL A   1      42.188  37.473  34.496  1.00  0.00    -0.237 OA
ATOM     85  O   UNL A   1      44.632  37.145  34.682  1.00  0.00    -0.237 OA
ATOM     86  O   UNL A   1      43.687  38.243  32.690  1.00  0.00    -0.744 OA
ENDBRANCH  82  83
ENDBRANCH  54  77
BRANCH  66  87
ATOM     87  C   UNL A   1      47.766  28.074  30.859  1.00  0.00    -0.014 A 
ATOM     88  C   UNL A   1      48.731  28.504  29.931  1.00  0.00     0.010 A 
ATOM     89  C   UNL A   1      48.185  27.577  32.107  1.00  0.00     0.010 A 
ATOM     90  C   UNL A   1      50.091  28.408  30.234  1.00  0.00     0.020 A 
ATOM     91  C   UNL A   1      49.544  27.505  32.423  1.00  0.00     0.020 A 
ATOM     92  C   UNL A   1      50.490  27.908  31.477  1.00  0.00     0.054 A 
BRANCH  92  93
ATOM     93  S   UNL A   1      52.260  27.831  31.863  1.00  0.00     0.124 S 
ATOM     94  O   UNL A   1      52.273  27.002  33.064  1.00  0.00    -0.237 OA
ATOM     95  O   UNL A   1      52.823  27.212  30.664  1.00  0.00    -0.237 OA
ATOM     96  O   UNL A   1      52.631  29.230  32.066  1.00  0.00    -0.744 OA
ENDBRANCH  92  93
ENDBRANCH  66  87
ENDBRANCH  40  41
ENDBRANCH  32  35
ENDBRANCH  30  31
ENDBRANCH   1  30
TORSDOF 16
ENDMDL
MODEL 3
REMARK VINA RESULT:     -12.7      3.426      9.771
REMARK SMILES O=C(NCCCCNC(=O)c1ccc(-c2c3nc(c(-c4ccc(S(=O)(=O)[O-])cc4)c4ccc([nH]4)c(-c4ccc(S(=O)(=O)[O-])cc4)c4nc(c(-c5ccc(S(=O)(=O)[O-])cc5)c5ccc2[nH]5)C=C4)C=C3)cc1)C1=Cc2cc(Cl)cc(-c3ccc(Cl)cc3)c2O[C@@H]1C(F)(F)F
REMARK SMILES IDX 6 1 5 2 4 3 3 4 1 5 2 6 71 8 72 9 88 10 73 11 87 12 74 13
REMARK SMILES IDX 86 14 75 15 78 16 76 17 77 18 89 19 90 20 91 21 92 22 79 23
REMARK SMILES IDX 80 24 85 25 81 26 84 27 82 28 83 29 7 30 8 31 9 32 10 34
REMARK SMILES IDX 11 35 12 36 70 37 13 38 69 39 14 40 15 41 16 42 63 43 17 44
REMARK SMILES IDX 68 45 62 46 64 47 18 48 67 49 61 50 60 51 19 53 49 54 30 55
REMARK SMILES IDX 48 56 31 57 34 58 47 59 65 60 32 61 33 62 46 64 66 65 35 66
REMARK SMILES IDX 20 67 21 68 29 69 22 70 28 71 23 72 24 73 25 74 26 75 27 76
REMARK SMILES IDX 50 77 51 78 59 79 52 80 58 81 53 82 54 83 55 84 56 85 57 86
REMARK SMILES IDX 36 87 37 88 45 89 38 90 44 91 39 92 40 93 41 94 42 95 43 96
REMARK H PARENT 3 7 8 33 64 52 34 63
REMARK Flexibility Score: inf
ROOT
ATOM      1  C   UNL A   1      35.942  23.011  25.763  1.00  0.00     0.023 C 
ENDROOT
BRANCH   1   2
ATOM      2  C   UNL A   1      35.049  21.951  25.107  1.00  0.00     0.023 C 
BRANCH   2   3
ATOM      3  C   UNL A   1      33.771  22.486  24.456  1.00  0.00     0.116 C 
BRANCH   3   4
ATOM      4  N   UNL A   1      34.008  23.578  23.506  1.00  0.00    -0.352 N 
ATOM      5  O   UNL A   1      34.213  25.722  22.799  1.00  0.00    -0.270 OA
ATOM      6  C   UNL A   1      33.735  24.923  23.596  1.00  0.00     0.251 C 
ATOM      7  H   UNL A   1      34.434  23.301  22.662  1.00  0.00     0.163 HD
BRANCH   6   8
ATOM      8  C   UNL A   1      32.956  25.403  24.752  1.00  0.00     0.067 C 
ATOM      9  C   UNL A   1      33.556  25.993  25.794  1.00  0.00     0.025 C 
ATOM     10  C   UNL A   1      31.476  25.513  24.573  1.00  0.00     0.314 C 
ATOM     11  C   UNL A   1      32.954  27.316  26.080  1.00  0.00     0.019 A 
ATOM     12  O   UNL A   1      31.076  26.899  24.559  1.00  0.00    -0.475 OA
ATOM     13  C   UNL A   1      33.759  28.242  26.748  1.00  0.00     0.032 A 
ATOM     14  C   UNL A   1      31.849  27.767  25.306  1.00  0.00     0.135 A 
ATOM     15  C   UNL A   1      33.512  29.601  26.593  1.00  0.00     0.042 A 
ATOM     16  C   UNL A   1      31.632  29.148  25.098  1.00  0.00     0.026 A 
ATOM     17  Cl  UNL A   1      34.592  30.741  27.297  1.00  0.00    -0.084 Cl
ATOM     18  C   UNL A   1      32.474  30.050  25.774  1.00  0.00     0.033 A 
BRANCH  10  19
ATOM     19  C   UNL A   1      30.719  24.699  25.644  1.00  0.00     0.429 C 
ATOM     20  F   UNL A   1      29.593  25.336  26.046  1.00  0.00    -0.167 F 
ATOM     21  F   UNL A   1      30.336  23.487  25.175  1.00  0.00    -0.167 F 
ATOM     22  F   UNL A   1      31.461  24.473  26.755  1.00  0.00    -0.167 F 
ENDBRANCH  10  19
BRANCH  16  23
ATOM     23  C   UNL A   1      30.690  29.668  24.077  1.00  0.00    -0.015 A 
ATOM     24  C   UNL A   1      30.714  29.152  22.765  1.00  0.00     0.010 A 
ATOM     25  C   UNL A   1      29.749  30.667  24.364  1.00  0.00     0.010 A 
ATOM     26  C   UNL A   1      29.857  29.637  21.772  1.00  0.00     0.021 A 
ATOM     27  C   UNL A   1      28.883  31.150  23.374  1.00  0.00     0.021 A 
ATOM     28  C   UNL A   1      28.947  30.637  22.081  1.00  0.00     0.041 A 
ATOM     29  Cl  UNL A   1      27.902  31.248  20.860  1.00  0.00    -0.084 Cl
ENDBRANCH  16  23
ENDBRANCH   6   8
ENDBRANCH   3   4
ENDBRANCH   2   3
ENDBRANCH   1   2
BRANCH   1  30
ATOM     30  C   UNL A   1      37.303  23.267  25.115  1.00  0.00     0.116 C 
BRANCH  30  31
ATOM     31  N   UNL A   1      38.387  22.432  25.607  1.00  0.00    -0.352 N 
ATOM     32  C   UNL A   1      39.426  22.792  26.448  1.00  0.00     0.251 C 
ATOM     33  H   UNL A   1      38.380  21.496  25.305  1.00  0.00     0.163 HD
ATOM     34  O   UNL A   1      40.271  21.973  26.764  1.00  0.00    -0.269 OA
BRANCH  32  35
ATOM     35  C   UNL A   1      39.523  24.193  26.931  1.00  0.00     0.039 A 
ATOM     36  C   UNL A   1      39.012  24.504  28.195  1.00  0.00     0.014 A 
ATOM     37  C   UNL A   1      40.165  25.174  26.172  1.00  0.00     0.014 A 
ATOM     38  C   UNL A   1      39.253  25.767  28.745  1.00  0.00     0.010 A 
ATOM     39  C   UNL A   1      40.440  26.417  26.735  1.00  0.00     0.010 A 
ATOM     40  C   UNL A   1      40.019  26.709  28.040  1.00  0.00    -0.014 A 
BRANCH  40  41
ATOM     41  C   UNL A   1      40.506  27.950  28.689  1.00  0.00     0.031 A 
ATOM     42  C   UNL A   1      41.863  28.009  29.322  1.00  0.00     0.074 A 
ATOM     43  C   UNL A   1      39.652  28.988  28.806  1.00  0.00     0.049 A 
ATOM     44  N   UNL A   1      42.426  28.998  29.967  1.00  0.00    -0.248 NA
ATOM     45  C   UNL A   1      42.688  26.794  29.240  1.00  0.00     0.031 C 
ATOM     46  C   UNL A   1      38.279  29.014  28.293  1.00  0.00     0.029 A 
ATOM     47  N   UNL A   1      39.802  30.210  29.410  1.00  0.00    -0.354 N 
ATOM     48  C   UNL A   1      43.671  28.530  30.367  1.00  0.00     0.074 A 
ATOM     49  C   UNL A   1      43.762  27.151  29.932  1.00  0.00     0.031 C 
ATOM     50  C   UNL A   1      37.716  30.194  28.599  1.00  0.00     0.029 A 
ATOM     51  C   UNL A   1      38.676  30.997  29.348  1.00  0.00     0.049 A 
ATOM     52  H   UNL A   1      40.636  30.496  29.847  1.00  0.00     0.167 HD
ATOM     53  C   UNL A   1      44.652  29.195  31.024  1.00  0.00     0.031 A 
ATOM     54  C   UNL A   1      38.440  32.228  29.839  1.00  0.00     0.031 A 
ATOM     55  C   UNL A   1      44.541  30.560  31.470  1.00  0.00     0.049 A 
ATOM     56  C   UNL A   1      39.543  32.946  30.565  1.00  0.00     0.074 A 
ATOM     57  C   UNL A   1      45.498  31.346  32.087  1.00  0.00     0.029 A 
ATOM     58  N   UNL A   1      43.397  31.337  31.359  1.00  0.00    -0.354 N 
ATOM     59  N   UNL A   1      40.754  32.523  30.842  1.00  0.00    -0.248 NA
ATOM     60  C   UNL A   1      39.257  34.311  31.023  1.00  0.00     0.031 C 
ATOM     61  C   UNL A   1      44.917  32.581  32.396  1.00  0.00     0.029 A 
ATOM     62  C   UNL A   1      43.616  32.586  31.919  1.00  0.00     0.049 A 
ATOM     63  H   UNL A   1      42.554  31.046  30.944  1.00  0.00     0.167 HD
ATOM     64  C   UNL A   1      41.385  33.581  31.484  1.00  0.00     0.074 A 
ATOM     65  C   UNL A   1      40.425  34.666  31.542  1.00  0.00     0.031 C 
ATOM     66  C   UNL A   1      42.646  33.650  31.976  1.00  0.00     0.031 A 
BRANCH  53  67
ATOM     67  C   UNL A   1      45.934  28.452  31.298  1.00  0.00    -0.014 A 
ATOM     68  C   UNL A   1      46.107  27.724  32.489  1.00  0.00     0.010 A 
ATOM     69  C   UNL A   1      46.963  28.443  30.338  1.00  0.00     0.010 A 
ATOM     70  C   UNL A   1      47.297  27.034  32.733  1.00  0.00     0.020 A 
ATOM     71  C   UNL A   1      48.145  27.733  30.567  1.00  0.00     0.020 A 
ATOM     72  C   UNL A   1      48.312  27.046  31.771  1.00  0.00     0.054 A 
BRANCH  72  73
ATOM     73  S   UNL A   1      49.838  26.124  32.107  1.00  0.00     0.124 S 
ATOM     74  O   UNL A   1      50.855  27.163  31.967  1.00  0.00    -0.237 OA
ATOM     75  O   UNL A   1      49.624  25.633  33.466  1.00  0.00    -0.237 OA
ATOM     76  O   UNL A   1      49.855  25.094  31.071  1.00  0.00    -0.744 OA
ENDBRANCH  72  73
ENDBRANCH  53  67
BRANCH  54  77
ATOM     77  C   UNL A   1      37.114  32.868  29.626  1.00  0.00    -0.014 A 
ATOM     78  C   UNL A   1      36.187  32.948  30.678  1.00  0.00     0.010 A 
ATOM     79  C   UNL A   1      36.785  33.431  28.379  1.00  0.00     0.010 A 
ATOM     80  C   UNL A   1      34.949  33.569  30.487  1.00  0.00     0.020 A 
ATOM     81  C   UNL A   1      35.559  34.074  28.191  1.00  0.00     0.020 A 
ATOM     82  C   UNL A   1      34.644  34.130  29.243  1.00  0.00     0.054 A 
BRANCH  82  83
ATOM     83  S   UNL A   1      33.058  34.988  29.037  1.00  0.00     0.124 S 
ATOM     84  O   UNL A   1      32.485  34.892  30.375  1.00  0.00    -0.237 OA
ATOM     85  O   UNL A   1      33.473  36.325  28.618  1.00  0.00    -0.237 OA
ATOM     86  O   UNL A   1      32.380  34.205  28.005  1.00  0.00    -0.744 OA
ENDBRANCH  82  83
ENDBRANCH  54  77
BRANCH  66  87
ATOM     87  C   UNL A   1      43.070  34.954  32.598  1.00  0.00    -0.014 A 
ATOM     88  C   UNL A   1      43.718  35.945  31.841  1.00  0.00     0.010 A 
ATOM     89  C   UNL A   1      42.775  35.205  33.951  1.00  0.00     0.010 A 
ATOM     90  C   UNL A   1      44.092  37.153  32.435  1.00  0.00     0.020 A 
ATOM     91  C   UNL A   1      43.123  36.422  34.540  1.00  0.00     0.020 A 
ATOM     92  C   UNL A   1      43.793  37.384  33.782  1.00  0.00     0.054 A 
BRANCH  92  93
ATOM     93  S   UNL A   1      44.253  38.975  34.519  1.00  0.00     0.124 S 
ATOM     94  O   UNL A   1      43.150  39.835  34.097  1.00  0.00    -0.237 OA
ATOM     95  O   UNL A   1      44.298  38.667  35.947  1.00  0.00    -0.237 OA
ATOM     96  O   UNL A   1      45.547  39.277  33.912  1.00  0.00    -0.744 OA
ENDBRANCH  92  93
ENDBRANCH  66  87
ENDBRANCH  40  41
ENDBRANCH  32  35
ENDBRANCH  30  31
ENDBRANCH   1  30
TORSDOF 16
ENDMDL
