MODEL 1
REMARK VINA RESULT:     -10.5      0.000      0.000
REMARK SMILES C[C@H](NC(=O)CCn1ccccc1=O)C(=O)NCCCCNC(=O)c1ccc(-c2c3nc(c(-c4ccc(S(=O)(=O)[O-])cc4)c4ccc([nH]4)c(-c4ccc(S(=O)(=O)[O-])cc4)c4nc(c(-c5ccc(S(=O)(=O)[O-])cc5)c5ccc2[nH]5)C=C4)C=C3)cc1
REMARK SMILES IDX 19 1 18 2 17 3 15 4 16 5 2 7 1 8 3 9 4 10 5 12 6 13 7 14
REMARK SMILES IDX 8 15 9 16 13 17 10 18 12 19 14 20 11 21 20 22 21 23 22 24
REMARK SMILES IDX 23 25 24 27 25 28 26 29 84 30 27 31 83 32 28 33 29 34 30 35
REMARK SMILES IDX 77 36 31 37 82 38 76 39 78 40 32 41 81 42 75 43 74 44 33 46
REMARK SMILES IDX 63 47 44 48 62 49 45 50 48 51 61 52 79 53 46 54 47 55 60 57
REMARK SMILES IDX 80 58 49 59 34 60 35 61 43 62 36 63 42 64 37 65 38 66 39 67
REMARK SMILES IDX 40 68 41 69 64 70 65 71 73 72 66 73 72 74 67 75 68 76 69 77
REMARK SMILES IDX 70 78 71 79 50 80 51 81 59 82 52 83 58 84 53 85 54 86 55 87
REMARK SMILES IDX 56 88 57 89
REMARK H PARENT 17 6 3 11 22 26 78 45 48 56
REMARK Flexibility Score: inf
ROOT
ATOM      1  C   UNL A   1      34.862  22.344  24.846  1.00  0.00     0.023 C 
ENDROOT
BRANCH   1   2
ATOM      2  C   UNL A   1      33.626  23.144  24.454  1.00  0.00     0.116 C 
BRANCH   2   3
ATOM      3  N   UNL A   1      33.691  23.593  23.075  1.00  0.00    -0.354 N 
ATOM      4  C   UNL A   1      32.843  24.422  22.395  1.00  0.00     0.242 C 
ATOM      5  O   UNL A   1      33.159  24.773  21.257  1.00  0.00    -0.273 OA
ATOM      6  H   UNL A   1      34.455  23.255  22.556  1.00  0.00     0.163 HD
BRANCH   4   7
ATOM      7  C   UNL A   1      31.633  25.049  23.107  1.00  0.00     0.168 C 
ATOM      8  C   UNL A   1      30.611  23.937  23.274  1.00  0.00     0.041 C 
BRANCH   7   9
ATOM      9  N   UNL A   1      31.060  26.216  22.431  1.00  0.00    -0.345 N 
ATOM     10  C   UNL A   1      31.189  27.541  22.725  1.00  0.00     0.222 C 
ATOM     11  H   UNL A   1      30.499  26.013  21.648  1.00  0.00     0.164 HD
ATOM     12  O   UNL A   1      30.512  28.352  22.089  1.00  0.00    -0.275 OA
BRANCH  10  13
ATOM     13  C   UNL A   1      32.167  28.009  23.783  1.00  0.00     0.122 C 
BRANCH  13  14
ATOM     14  C   UNL A   1      31.517  28.810  24.923  1.00  0.00     0.135 C 
BRANCH  14  15
ATOM     15  N   UNL A   1      32.465  29.273  25.948  1.00  0.00    -0.315 N 
ATOM     16  C   UNL A   1      33.486  28.432  26.374  1.00  0.00     0.089 A 
ATOM     17  C   UNL A   1      32.304  30.556  26.490  1.00  0.00     0.250 A 
ATOM     18  C   UNL A   1      34.458  28.878  27.182  1.00  0.00     0.018 A 
ATOM     19  C   UNL A   1      33.452  31.068  27.292  1.00  0.00     0.072 A 
ATOM     20  O   UNL A   1      31.347  31.292  26.270  1.00  0.00    -0.269 OA
ATOM     21  C   UNL A   1      34.478  30.261  27.587  1.00  0.00     0.007 A 
ENDBRANCH  14  15
ENDBRANCH  13  14
ENDBRANCH  10  13
ENDBRANCH   7   9
ENDBRANCH   4   7
ENDBRANCH   2   3
ENDBRANCH   1   2
BRANCH   1  22
ATOM     22  C   UNL A   1      36.110  22.700  24.042  1.00  0.00     0.023 C 
BRANCH  22  23
ATOM     23  C   UNL A   1      37.194  23.405  24.851  1.00  0.00     0.116 C 
BRANCH  23  24
ATOM     24  N   UNL A   1      38.191  22.477  25.373  1.00  0.00    -0.352 N 
ATOM     25  C   UNL A   1      39.295  22.738  26.159  1.00  0.00     0.251 C 
ATOM     26  H   UNL A   1      38.058  21.532  25.130  1.00  0.00     0.163 HD
ATOM     27  O   UNL A   1      40.142  21.884  26.352  1.00  0.00    -0.269 OA
BRANCH  25  28
ATOM     28  C   UNL A   1      39.436  24.091  26.738  1.00  0.00     0.039 A 
ATOM     29  C   UNL A   1      40.093  25.081  26.008  1.00  0.00     0.014 A 
ATOM     30  C   UNL A   1      38.998  24.336  28.040  1.00  0.00     0.014 A 
ATOM     31  C   UNL A   1      40.497  26.241  26.651  1.00  0.00     0.010 A 
ATOM     32  C   UNL A   1      39.318  25.551  28.652  1.00  0.00     0.010 A 
ATOM     33  C   UNL A   1      40.121  26.489  27.983  1.00  0.00    -0.014 A 
BRANCH  33  34
ATOM     34  C   UNL A   1      40.591  27.732  28.648  1.00  0.00     0.031 A 
ATOM     35  C   UNL A   1      42.031  27.891  29.064  1.00  0.00     0.074 A 
ATOM     36  C   UNL A   1      39.726  28.753  28.811  1.00  0.00     0.049 A 
ATOM     37  N   UNL A   1      42.604  28.911  29.653  1.00  0.00    -0.248 NA
ATOM     38  C   UNL A   1      42.948  26.772  28.787  1.00  0.00     0.031 C 
ATOM     39  C   UNL A   1      38.313  28.724  28.421  1.00  0.00     0.029 A 
ATOM     40  N   UNL A   1      39.905  30.017  29.310  1.00  0.00    -0.354 N 
ATOM     41  C   UNL A   1      43.936  28.551  29.832  1.00  0.00     0.074 A 
ATOM     42  C   UNL A   1      44.085  27.210  29.313  1.00  0.00     0.031 C 
ATOM     43  C   UNL A   1      37.773  29.930  28.635  1.00  0.00     0.029 A 
ATOM     44  C   UNL A   1      38.771  30.794  29.257  1.00  0.00     0.049 A 
ATOM     45  H   UNL A   1      40.763  30.339  29.670  1.00  0.00     0.167 HD
ATOM     46  C   UNL A   1      44.940  29.282  30.370  1.00  0.00     0.031 A 
ATOM     47  C   UNL A   1      38.542  32.053  29.678  1.00  0.00     0.031 A 
ATOM     48  C   UNL A   1      44.786  30.626  30.863  1.00  0.00     0.049 A 
ATOM     49  C   UNL A   1      39.663  32.828  30.303  1.00  0.00     0.074 A 
ATOM     50  C   UNL A   1      45.750  31.445  31.427  1.00  0.00     0.029 A 
ATOM     51  N   UNL A   1      43.607  31.355  30.840  1.00  0.00    -0.354 N 
ATOM     52  N   UNL A   1      40.908  32.458  30.486  1.00  0.00    -0.248 NA
ATOM     53  C   UNL A   1      39.357  34.182  30.783  1.00  0.00     0.031 C 
ATOM     54  C   UNL A   1      45.141  32.646  31.795  1.00  0.00     0.029 A 
ATOM     55  C   UNL A   1      43.815  32.605  31.397  1.00  0.00     0.049 A 
ATOM     56  H   UNL A   1      42.748  31.031  30.481  1.00  0.00     0.167 HD
ATOM     57  C   UNL A   1      41.535  33.534  31.103  1.00  0.00     0.074 A 
ATOM     58  C   UNL A   1      40.541  34.579  31.236  1.00  0.00     0.031 C 
ATOM     59  C   UNL A   1      42.817  33.636  31.529  1.00  0.00     0.031 A 
BRANCH  46  60
ATOM     60  C   UNL A   1      46.315  28.670  30.459  1.00  0.00    -0.014 A 
ATOM     61  C   UNL A   1      47.184  28.743  29.353  1.00  0.00     0.010 A 
ATOM     62  C   UNL A   1      46.686  27.890  31.569  1.00  0.00     0.010 A 
ATOM     63  C   UNL A   1      48.375  28.013  29.335  1.00  0.00     0.020 A 
ATOM     64  C   UNL A   1      47.890  27.178  31.566  1.00  0.00     0.020 A 
ATOM     65  C   UNL A   1      48.713  27.222  30.437  1.00  0.00     0.054 A 
BRANCH  65  66
ATOM     66  S   UNL A   1      50.235  26.236  30.372  1.00  0.00     0.124 S 
ATOM     67  O   UNL A   1      49.841  25.014  31.067  1.00  0.00    -0.237 OA
ATOM     68  O   UNL A   1      50.466  26.100  28.936  1.00  0.00    -0.237 OA
ATOM     69  O   UNL A   1      51.211  27.069  31.074  1.00  0.00    -0.744 OA
ENDBRANCH  65  66
ENDBRANCH  46  60
BRANCH  47  70
ATOM     70  C   UNL A   1      37.178  32.627  29.517  1.00  0.00    -0.014 A 
ATOM     71  C   UNL A   1      36.828  33.284  28.321  1.00  0.00     0.010 A 
ATOM     72  C   UNL A   1      36.264  32.621  30.584  1.00  0.00     0.010 A 
ATOM     73  C   UNL A   1      35.626  33.983  28.219  1.00  0.00     0.020 A 
ATOM     74  C   UNL A   1      35.042  33.291  30.473  1.00  0.00     0.020 A 
ATOM     75  C   UNL A   1      34.747  33.997  29.304  1.00  0.00     0.054 A 
BRANCH  75  76
ATOM     76  S   UNL A   1      33.218  34.964  29.175  1.00  0.00     0.124 S 
ATOM     77  O   UNL A   1      32.718  34.914  30.545  1.00  0.00    -0.237 OA
ATOM     78  O   UNL A   1      33.700  36.269  28.728  1.00  0.00    -0.237 OA
ATOM     79  O   UNL A   1      32.431  34.225  28.192  1.00  0.00    -0.744 OA
ENDBRANCH  75  76
ENDBRANCH  47  70
BRANCH  59  80
ATOM     80  C   UNL A   1      43.243  34.918  32.194  1.00  0.00    -0.014 A 
ATOM     81  C   UNL A   1      42.982  35.115  33.562  1.00  0.00     0.010 A 
ATOM     82  C   UNL A   1      43.769  35.977  31.434  1.00  0.00     0.010 A 
ATOM     83  C   UNL A   1      43.201  36.362  34.151  1.00  0.00     0.020 A 
ATOM     84  C   UNL A   1      44.016  37.217  32.028  1.00  0.00     0.020 A 
ATOM     85  C   UNL A   1      43.704  37.409  33.376  1.00  0.00     0.054 A 
BRANCH  85  86
ATOM     86  S   UNL A   1      43.942  39.033  34.148  1.00  0.00     0.124 S 
ATOM     87  O   UNL A   1      45.227  39.451  33.594  1.00  0.00    -0.237 OA
ATOM     88  O   UNL A   1      42.780  39.785  33.682  1.00  0.00    -0.237 OA
ATOM     89  O   UNL A   1      43.947  38.733  35.579  1.00  0.00    -0.744 OA
ENDBRANCH  85  86
ENDBRANCH  59  80
ENDBRANCH  33  34
ENDBRANCH  25  28
ENDBRANCH  23  24
ENDBRANCH  22  23
ENDBRANCH   1  22
TORSDOF 18
ENDMDL
MODEL 2
REMARK VINA RESULT:     -10.4      2.524      9.596
REMARK SMILES C[C@H](NC(=O)CCn1ccccc1=O)C(=O)NCCCCNC(=O)c1ccc(-c2c3nc(c(-c4ccc(S(=O)(=O)[O-])cc4)c4ccc([nH]4)c(-c4ccc(S(=O)(=O)[O-])cc4)c4nc(c(-c5ccc(S(=O)(=O)[O-])cc5)c5ccc2[nH]5)C=C4)C=C3)cc1
REMARK SMILES IDX 19 1 18 2 17 3 15 4 16 5 2 7 1 8 3 9 4 10 5 12 6 13 7 14
REMARK SMILES IDX 8 15 9 16 13 17 10 18 12 19 14 20 11 21 20 22 21 23 22 24
REMARK SMILES IDX 23 25 24 27 25 28 26 29 84 30 27 31 83 32 28 33 29 34 30 35
REMARK SMILES IDX 77 36 31 37 82 38 76 39 78 40 32 41 81 42 75 43 74 44 33 46
REMARK SMILES IDX 63 47 44 48 62 49 45 50 48 51 61 52 79 53 46 54 47 55 60 57
REMARK SMILES IDX 80 58 49 59 34 60 35 61 43 62 36 63 42 64 37 65 38 66 39 67
REMARK SMILES IDX 40 68 41 69 64 70 65 71 73 72 66 73 72 74 67 75 68 76 69 77
REMARK SMILES IDX 70 78 71 79 50 80 51 81 59 82 52 83 58 84 53 85 54 86 55 87
REMARK SMILES IDX 56 88 57 89
REMARK H PARENT 17 6 3 11 22 26 78 45 48 56
REMARK Flexibility Score: inf
ROOT
ATOM      1  C   UNL A   1      31.480  28.050  25.792  1.00  0.00     0.023 C 
ENDROOT
BRANCH   1   2
ATOM      2  C   UNL A   1      32.144  26.907  25.035  1.00  0.00     0.116 C 
BRANCH   2   3
ATOM      3  N   UNL A   1      31.203  26.212  24.176  1.00  0.00    -0.354 N 
ATOM      4  C   UNL A   1      31.189  24.900  23.792  1.00  0.00     0.242 C 
ATOM      5  O   UNL A   1      30.220  24.490  23.152  1.00  0.00    -0.273 OA
ATOM      6  H   UNL A   1      30.471  26.763  23.819  1.00  0.00     0.163 HD
BRANCH   4   7
ATOM      7  C   UNL A   1      32.259  23.926  24.315  1.00  0.00     0.168 C 
ATOM      8  C   UNL A   1      33.393  23.954  23.304  1.00  0.00     0.041 C 
BRANCH   7   9
ATOM      9  N   UNL A   1      31.781  22.562  24.558  1.00  0.00    -0.345 N 
ATOM     10  C   UNL A   1      32.385  21.536  25.221  1.00  0.00     0.222 C 
ATOM     11  H   UNL A   1      30.892  22.358  24.188  1.00  0.00     0.164 HD
ATOM     12  O   UNL A   1      31.847  20.426  25.197  1.00  0.00    -0.275 OA
BRANCH  10  13
ATOM     13  C   UNL A   1      33.665  21.760  25.998  1.00  0.00     0.122 C 
BRANCH  13  14
ATOM     14  C   UNL A   1      34.883  21.020  25.420  1.00  0.00     0.135 C 
BRANCH  14  15
ATOM     15  N   UNL A   1      36.144  21.770  25.518  1.00  0.00    -0.315 N 
ATOM     16  C   UNL A   1      36.118  23.131  25.796  1.00  0.00     0.089 A 
ATOM     17  C   UNL A   1      37.354  21.093  25.310  1.00  0.00     0.250 A 
ATOM     18  C   UNL A   1      37.246  23.808  26.052  1.00  0.00     0.018 A 
ATOM     19  C   UNL A   1      38.586  21.831  25.710  1.00  0.00     0.072 A 
ATOM     20  O   UNL A   1      37.447  19.933  24.920  1.00  0.00    -0.269 OA
ATOM     21  C   UNL A   1      38.509  23.113  26.085  1.00  0.00     0.007 A 
ENDBRANCH  14  15
ENDBRANCH  13  14
ENDBRANCH  10  13
ENDBRANCH   7   9
ENDBRANCH   4   7
ENDBRANCH   2   3
ENDBRANCH   1   2
BRANCH   1  22
ATOM     22  C   UNL A   1      32.003  28.237  27.214  1.00  0.00     0.023 C 
BRANCH  22  23
ATOM     23  C   UNL A   1      33.440  28.746  27.289  1.00  0.00     0.116 C 
BRANCH  23  24
ATOM     24  N   UNL A   1      33.513  30.153  27.668  1.00  0.00    -0.352 N 
ATOM     25  C   UNL A   1      34.550  30.839  28.266  1.00  0.00     0.251 C 
ATOM     26  H   UNL A   1      32.711  30.687  27.469  1.00  0.00     0.163 HD
ATOM     27  O   UNL A   1      34.387  31.967  28.698  1.00  0.00    -0.269 OA
BRANCH  25  28
ATOM     28  C   UNL A   1      35.855  30.159  28.396  1.00  0.00     0.039 A 
ATOM     29  C   UNL A   1      36.193  29.553  29.605  1.00  0.00     0.014 A 
ATOM     30  C   UNL A   1      36.771  30.212  27.343  1.00  0.00     0.014 A 
ATOM     31  C   UNL A   1      37.512  29.189  29.835  1.00  0.00     0.010 A 
ATOM     32  C   UNL A   1      38.073  29.747  27.546  1.00  0.00     0.010 A 
ATOM     33  C   UNL A   1      38.471  29.287  28.812  1.00  0.00    -0.014 A 
BRANCH  33  34
ATOM     34  C   UNL A   1      39.878  28.910  29.101  1.00  0.00     0.031 A 
ATOM     35  C   UNL A   1      40.786  29.833  29.872  1.00  0.00     0.074 A 
ATOM     36  C   UNL A   1      40.318  27.692  28.725  1.00  0.00     0.049 A 
ATOM     37  N   UNL A   1      42.038  29.656  30.210  1.00  0.00    -0.248 NA
ATOM     38  C   UNL A   1      40.224  31.118  30.326  1.00  0.00     0.031 C 
ATOM     39  C   UNL A   1      39.520  26.701  27.997  1.00  0.00     0.029 A 
ATOM     40  N   UNL A   1      41.520  27.063  28.929  1.00  0.00    -0.354 N 
ATOM     41  C   UNL A   1      42.418  30.805  30.895  1.00  0.00     0.074 A 
ATOM     42  C   UNL A   1      41.273  31.688  30.907  1.00  0.00     0.031 C 
ATOM     43  C   UNL A   1      40.229  25.572  27.872  1.00  0.00     0.029 A 
ATOM     44  C   UNL A   1      41.560  25.782  28.431  1.00  0.00     0.049 A 
ATOM     45  H   UNL A   1      42.280  27.488  29.388  1.00  0.00     0.167 HD
ATOM     46  C   UNL A   1      43.610  31.087  31.470  1.00  0.00     0.031 A 
ATOM     47  C   UNL A   1      42.558  24.876  28.402  1.00  0.00     0.031 A 
ATOM     48  C   UNL A   1      44.737  30.191  31.474  1.00  0.00     0.049 A 
ATOM     49  C   UNL A   1      43.879  25.228  29.016  1.00  0.00     0.074 A 
ATOM     50  C   UNL A   1      45.987  30.393  32.033  1.00  0.00     0.029 A 
ATOM     51  N   UNL A   1      44.752  28.924  30.910  1.00  0.00    -0.354 N 
ATOM     52  N   UNL A   1      44.224  26.332  29.636  1.00  0.00    -0.248 NA
ATOM     53  C   UNL A   1      44.949  24.225  28.926  1.00  0.00     0.031 C 
ATOM     54  C   UNL A   1      46.775  29.274  31.759  1.00  0.00     0.029 A 
ATOM     55  C   UNL A   1      45.995  28.343  31.091  1.00  0.00     0.049 A 
ATOM     56  H   UNL A   1      43.991  28.501  30.449  1.00  0.00     0.167 HD
ATOM     57  C   UNL A   1      45.550  26.156  30.010  1.00  0.00     0.074 A 
ATOM     58  C   UNL A   1      45.938  24.831  29.574  1.00  0.00     0.031 C 
ATOM     59  C   UNL A   1      46.372  27.024  30.648  1.00  0.00     0.031 A 
BRANCH  46  60
ATOM     60  C   UNL A   1      43.784  32.415  32.163  1.00  0.00    -0.014 A 
ATOM     61  C   UNL A   1      43.358  32.567  33.497  1.00  0.00     0.010 A 
ATOM     62  C   UNL A   1      44.220  33.547  31.452  1.00  0.00     0.010 A 
ATOM     63  C   UNL A   1      43.320  33.830  34.092  1.00  0.00     0.020 A 
ATOM     64  C   UNL A   1      44.207  34.810  32.052  1.00  0.00     0.020 A 
ATOM     65  C   UNL A   1      43.731  34.947  33.359  1.00  0.00     0.054 A 
BRANCH  65  66
ATOM     66  S   UNL A   1      43.619  36.587  34.127  1.00  0.00     0.124 S 
ATOM     67  O   UNL A   1      42.220  36.641  34.539  1.00  0.00    -0.237 OA
ATOM     68  O   UNL A   1      44.594  36.498  35.212  1.00  0.00    -0.237 OA
ATOM     69  O   UNL A   1      43.989  37.497  33.045  1.00  0.00    -0.744 OA
ENDBRANCH  65  66
ENDBRANCH  46  60
BRANCH  47  70
ATOM     70  C   UNL A   1      42.313  23.560  27.751  1.00  0.00    -0.014 A 
ATOM     71  C   UNL A   1      41.811  22.484  28.509  1.00  0.00     0.010 A 
ATOM     72  C   UNL A   1      42.679  23.340  26.414  1.00  0.00     0.010 A 
ATOM     73  C   UNL A   1      41.747  21.200  27.966  1.00  0.00     0.020 A 
ATOM     74  C   UNL A   1      42.584  22.061  25.854  1.00  0.00     0.020 A 
ATOM     75  C   UNL A   1      42.151  20.994  26.645  1.00  0.00     0.054 A 
BRANCH  75  76
ATOM     76  S   UNL A   1      42.121  19.308  25.978  1.00  0.00     0.124 S 
ATOM     77  O   UNL A   1      40.698  19.119  25.712  1.00  0.00    -0.237 OA
ATOM     78  O   UNL A   1      42.974  19.413  24.797  1.00  0.00    -0.237 OA
ATOM     79  O   UNL A   1      42.667  18.503  27.067  1.00  0.00    -0.744 OA
ENDBRANCH  75  76
ENDBRANCH  47  70
BRANCH  59  80
ATOM     80  C   UNL A   1      47.788  26.592  30.919  1.00  0.00    -0.014 A 
ATOM     81  C   UNL A   1      48.132  26.078  32.182  1.00  0.00     0.010 A 
ATOM     82  C   UNL A   1      48.801  26.828  29.973  1.00  0.00     0.010 A 
ATOM     83  C   UNL A   1      49.469  25.846  32.511  1.00  0.00     0.020 A 
ATOM     84  C   UNL A   1      50.137  26.571  30.290  1.00  0.00     0.020 A 
ATOM     85  C   UNL A   1      50.465  26.107  31.566  1.00  0.00     0.054 A 
BRANCH  85  86
ATOM     86  S   UNL A   1      52.199  25.840  32.026  1.00  0.00     0.124 S 
ATOM     87  O   UNL A   1      52.290  24.383  32.045  1.00  0.00    -0.237 OA
ATOM     88  O   UNL A   1      52.924  26.504  30.945  1.00  0.00    -0.237 OA
ATOM     89  O   UNL A   1      52.310  26.490  33.331  1.00  0.00    -0.744 OA
ENDBRANCH  85  86
ENDBRANCH  59  80
ENDBRANCH  33  34
ENDBRANCH  25  28
ENDBRANCH  23  24
ENDBRANCH  22  23
ENDBRANCH   1  22
TORSDOF 18
ENDMDL
MODEL 3
REMARK VINA RESULT:     -10.3      2.639      8.170
REMARK SMILES C[C@H](NC(=O)CCn1ccccc1=O)C(=O)NCCCCNC(=O)c1ccc(-c2c3nc(c(-c4ccc(S(=O)(=O)[O-])cc4)c4ccc([nH]4)c(-c4ccc(S(=O)(=O)[O-])cc4)c4nc(c(-c5ccc(S(=O)(=O)[O-])cc5)c5ccc2[nH]5)C=C4)C=C3)cc1
REMARK SMILES IDX 19 1 18 2 17 3 15 4 16 5 2 7 1 8 3 9 4 10 5 12 6 13 7 14
REMARK SMILES IDX 8 15 9 16 13 17 10 18 12 19 14 20 11 21 20 22 21 23 22 24
REMARK SMILES IDX 23 25 24 27 25 28 26 29 84 30 27 31 83 32 28 33 29 34 30 35
REMARK SMILES IDX 77 36 31 37 82 38 76 39 78 40 32 41 81 42 75 43 74 44 33 46
REMARK SMILES IDX 63 47 44 48 62 49 45 50 48 51 61 52 79 53 46 54 47 55 60 57
REMARK SMILES IDX 80 58 49 59 34 60 35 61 43 62 36 63 42 64 37 65 38 66 39 67
REMARK SMILES IDX 40 68 41 69 64 70 65 71 73 72 66 73 72 74 67 75 68 76 69 77
REMARK SMILES IDX 70 78 71 79 50 80 51 81 59 82 52 83 58 84 53 85 54 86 55 87
REMARK SMILES IDX 56 88 57 89
REMARK H PARENT 17 6 3 11 22 26 78 45 48 56
REMARK Flexibility Score: inf
ROOT
ATOM      1  C   UNL A   1      31.355  27.632  26.297  1.00  0.00     0.023 C 
ENDROOT
BRANCH   1   2
ATOM      2  C   UNL A   1      31.283  26.117  26.158  1.00  0.00     0.116 C 
BRANCH   2   3
ATOM      3  N   UNL A   1      32.598  25.506  26.239  1.00  0.00    -0.354 N 
ATOM      4  C   UNL A   1      33.378  24.996  25.239  1.00  0.00     0.242 C 
ATOM      5  O   UNL A   1      34.522  24.635  25.518  1.00  0.00    -0.273 OA
ATOM      6  H   UNL A   1      32.983  25.452  27.143  1.00  0.00     0.163 HD
BRANCH   4   7
ATOM      7  C   UNL A   1      32.904  25.057  23.777  1.00  0.00     0.168 C 
ATOM      8  C   UNL A   1      32.887  23.625  23.273  1.00  0.00     0.041 C 
BRANCH   7   9
ATOM      9  N   UNL A   1      33.700  25.930  22.910  1.00  0.00    -0.345 N 
ATOM     10  C   UNL A   1      33.417  27.175  22.434  1.00  0.00     0.222 C 
ATOM     11  H   UNL A   1      34.569  25.561  22.629  1.00  0.00     0.164 HD
ATOM     12  O   UNL A   1      34.185  27.678  21.612  1.00  0.00    -0.275 OA
BRANCH  10  13
ATOM     13  C   UNL A   1      32.207  27.939  22.932  1.00  0.00     0.122 C 
BRANCH  13  14
ATOM     14  C   UNL A   1      30.877  27.471  22.316  1.00  0.00     0.135 C 
BRANCH  14  15
ATOM     15  N   UNL A   1      29.758  28.401  22.527  1.00  0.00    -0.315 N 
ATOM     16  C   UNL A   1      29.854  29.711  22.074  1.00  0.00     0.089 A 
ATOM     17  C   UNL A   1      28.616  27.946  23.201  1.00  0.00     0.250 A 
ATOM     18  C   UNL A   1      28.796  30.534  22.104  1.00  0.00     0.018 A 
ATOM     19  C   UNL A   1      27.420  28.833  23.122  1.00  0.00     0.072 A 
ATOM     20  O   UNL A   1      28.520  26.854  23.754  1.00  0.00    -0.269 OA
ATOM     21  C   UNL A   1      27.522  30.049  22.572  1.00  0.00     0.007 A 
ENDBRANCH  14  15
ENDBRANCH  13  14
ENDBRANCH  10  13
ENDBRANCH   7   9
ENDBRANCH   4   7
ENDBRANCH   2   3
ENDBRANCH   1   2
BRANCH   1  22
ATOM     22  C   UNL A   1      32.106  28.105  27.540  1.00  0.00     0.023 C 
BRANCH  22  23
ATOM     23  C   UNL A   1      33.454  28.755  27.246  1.00  0.00     0.116 C 
BRANCH  23  24
ATOM     24  N   UNL A   1      33.511  30.144  27.689  1.00  0.00    -0.352 N 
ATOM     25  C   UNL A   1      34.534  30.810  28.332  1.00  0.00     0.251 C 
ATOM     26  H   UNL A   1      32.707  30.680  27.504  1.00  0.00     0.163 HD
ATOM     27  O   UNL A   1      34.357  31.915  28.811  1.00  0.00    -0.269 OA
BRANCH  25  28
ATOM     28  C   UNL A   1      35.843  30.134  28.447  1.00  0.00     0.039 A 
ATOM     29  C   UNL A   1      36.199  29.534  29.655  1.00  0.00     0.014 A 
ATOM     30  C   UNL A   1      36.746  30.186  27.383  1.00  0.00     0.014 A 
ATOM     31  C   UNL A   1      37.521  29.175  29.870  1.00  0.00     0.010 A 
ATOM     32  C   UNL A   1      38.052  29.726  27.571  1.00  0.00     0.010 A 
ATOM     33  C   UNL A   1      38.467  29.272  28.834  1.00  0.00    -0.014 A 
BRANCH  33  34
ATOM     34  C   UNL A   1      39.879  28.900  29.106  1.00  0.00     0.031 A 
ATOM     35  C   UNL A   1      40.421  27.556  28.693  1.00  0.00     0.074 A 
ATOM     36  C   UNL A   1      40.697  29.813  29.668  1.00  0.00     0.049 A 
ATOM     37  N   UNL A   1      41.628  27.076  28.854  1.00  0.00    -0.248 NA
ATOM     38  C   UNL A   1      39.499  26.631  28.010  1.00  0.00     0.031 C 
ATOM     39  C   UNL A   1      40.292  31.158  30.086  1.00  0.00     0.029 A 
ATOM     40  N   UNL A   1      42.038  29.769  29.954  1.00  0.00    -0.354 N 
ATOM     41  C   UNL A   1      41.607  25.794  28.314  1.00  0.00     0.074 A 
ATOM     42  C   UNL A   1      40.262  25.558  27.840  1.00  0.00     0.031 C 
ATOM     43  C   UNL A   1      41.369  31.830  30.513  1.00  0.00     0.029 A 
ATOM     44  C   UNL A   1      42.526  30.941  30.483  1.00  0.00     0.049 A 
ATOM     45  H   UNL A   1      42.598  28.974  29.795  1.00  0.00     0.167 HD
ATOM     46  C   UNL A   1      42.622  24.906  28.214  1.00  0.00     0.031 A 
ATOM     47  C   UNL A   1      43.758  31.269  30.919  1.00  0.00     0.031 A 
ATOM     48  C   UNL A   1      43.965  25.160  28.668  1.00  0.00     0.049 A 
ATOM     49  C   UNL A   1      44.857  30.253  30.829  1.00  0.00     0.074 A 
ATOM     50  C   UNL A   1      45.061  24.316  28.609  1.00  0.00     0.029 A 
ATOM     51  N   UNL A   1      44.402  26.341  29.248  1.00  0.00    -0.354 N 
ATOM     52  N   UNL A   1      44.807  29.038  30.338  1.00  0.00    -0.248 NA
ATOM     53  C   UNL A   1      46.173  30.641  31.353  1.00  0.00     0.031 C 
ATOM     54  C   UNL A   1      46.145  24.965  29.202  1.00  0.00     0.029 A 
ATOM     55  C   UNL A   1      45.745  26.240  29.568  1.00  0.00     0.049 A 
ATOM     56  H   UNL A   1      43.840  27.134  29.409  1.00  0.00     0.167 HD
ATOM     57  C   UNL A   1      46.085  28.515  30.494  1.00  0.00     0.074 A 
ATOM     58  C   UNL A   1      46.893  29.554  31.097  1.00  0.00     0.031 C 
ATOM     59  C   UNL A   1      46.539  27.279  30.173  1.00  0.00     0.031 A 
BRANCH  46  60
ATOM     60  C   UNL A   1      42.352  23.563  27.583  1.00  0.00    -0.014 A 
ATOM     61  C   UNL A   1      41.733  22.549  28.340  1.00  0.00     0.010 A 
ATOM     62  C   UNL A   1      42.848  23.255  26.304  1.00  0.00     0.010 A 
ATOM     63  C   UNL A   1      41.657  21.243  27.850  1.00  0.00     0.020 A 
ATOM     64  C   UNL A   1      42.751  21.954  25.800  1.00  0.00     0.020 A 
ATOM     65  C   UNL A   1      42.181  20.950  26.588  1.00  0.00     0.054 A 
BRANCH  65  66
ATOM     66  S   UNL A   1      42.126  19.237  25.993  1.00  0.00     0.124 S 
ATOM     67  O   UNL A   1      40.699  19.037  25.760  1.00  0.00    -0.237 OA
ATOM     68  O   UNL A   1      42.961  19.288  24.795  1.00  0.00    -0.237 OA
ATOM     69  O   UNL A   1      42.693  18.472  27.103  1.00  0.00    -0.744 OA
ENDBRANCH  65  66
ENDBRANCH  46  60
BRANCH  47  70
ATOM     70  C   UNL A   1      43.981  32.627  31.485  1.00  0.00    -0.014 A 
ATOM     71  C   UNL A   1      43.688  32.881  32.840  1.00  0.00     0.010 A 
ATOM     72  C   UNL A   1      44.376  33.694  30.661  1.00  0.00     0.010 A 
ATOM     73  C   UNL A   1      43.716  34.182  33.341  1.00  0.00     0.020 A 
ATOM     74  C   UNL A   1      44.440  34.995  31.169  1.00  0.00     0.020 A 
ATOM     75  C   UNL A   1      44.076  35.235  32.497  1.00  0.00     0.054 A 
BRANCH  75  76
ATOM     76  S   UNL A   1      44.045  36.926  33.151  1.00  0.00     0.124 S 
ATOM     77  O   UNL A   1      45.340  37.010  33.819  1.00  0.00    -0.237 OA
ATOM     78  O   UNL A   1      43.906  37.736  31.943  1.00  0.00    -0.237 OA
ATOM     79  O   UNL A   1      42.883  36.927  34.035  1.00  0.00    -0.744 OA
ENDBRANCH  75  76
ENDBRANCH  47  70
BRANCH  59  80
ATOM     80  C   UNL A   1      47.978  26.954  30.469  1.00  0.00    -0.014 A 
ATOM     81  C   UNL A   1      48.340  26.475  31.741  1.00  0.00     0.010 A 
ATOM     82  C   UNL A   1      48.986  27.259  29.537  1.00  0.00     0.010 A 
ATOM     83  C   UNL A   1      49.684  26.345  32.092  1.00  0.00     0.020 A 
ATOM     84  C   UNL A   1      50.332  27.102  29.876  1.00  0.00     0.020 A 
ATOM     85  C   UNL A   1      50.673  26.672  31.160  1.00  0.00     0.054 A 
BRANCH  85  86
ATOM     86  S   UNL A   1      52.415  26.537  31.649  1.00  0.00     0.124 S 
ATOM     87  O   UNL A   1      52.490  27.464  32.773  1.00  0.00    -0.237 OA
ATOM     88  O   UNL A   1      52.545  25.122  31.988  1.00  0.00    -0.237 OA
ATOM     89  O   UNL A   1      53.139  26.951  30.448  1.00  0.00    -0.744 OA
ENDBRANCH  85  86
ENDBRANCH  59  80
ENDBRANCH  33  34
ENDBRANCH  25  28
ENDBRANCH  23  24
ENDBRANCH  22  23
ENDBRANCH   1  22
TORSDOF 18
ENDMDL
