MODEL 1
REMARK VINA RESULT:     -10.2      0.000      0.000
REMARK SMILES Cc1ncsc1CCC(=O)N[C@@H](Cc1cnc[nH]1)C(=O)NCCCCNC(=O)c1ccc(-c2c3nc(c(-c4ccc(S(=O)(=O)[O-])cc4)c4ccc([nH]4)c(-c4ccc(S(=O)(=O)[O-])cc4)c4nc(c(-c5ccc(S(=O)(=O)[O-])cc5)c5ccc2[nH]5)C=C4)C=C3)cc1
REMARK SMILES IDX 23 1 22 2 21 3 19 4 20 5 12 7 11 8 9 9 10 10 8 12 7 13 6 14
REMARK SMILES IDX 1 15 2 16 3 17 4 18 5 19 13 20 14 21 15 22 18 23 16 24 17 25
REMARK SMILES IDX 24 27 25 28 26 29 27 30 28 32 29 33 30 34 88 35 31 36 87 37
REMARK SMILES IDX 32 38 33 39 34 40 81 41 35 42 86 43 80 44 82 45 36 46 85 47
REMARK SMILES IDX 79 48 78 49 37 51 67 52 48 53 66 54 49 55 52 56 65 57 83 58
REMARK SMILES IDX 50 59 51 60 64 62 84 63 53 64 38 65 39 66 47 67 40 68 46 69
REMARK SMILES IDX 41 70 42 71 43 72 44 73 45 74 68 75 69 76 77 77 70 78 76 79
REMARK SMILES IDX 71 80 72 81 73 82 74 83 75 84 54 85 55 86 63 87 56 88 62 89
REMARK SMILES IDX 57 90 58 91 59 92 60 93 61 94
REMARK H PARENT 21 6 11 11 18 26 26 31 82 50 52 61
REMARK Flexibility Score: inf
ROOT
ATOM      1  C   UNL A   1      39.336  22.570  26.519  1.00  0.00     0.023 C 
ENDROOT
BRANCH   1   2
ATOM      2  C   UNL A   1      38.580  21.488  25.769  1.00  0.00     0.116 C 
BRANCH   2   3
ATOM      3  N   UNL A   1      37.812  21.955  24.638  1.00  0.00    -0.354 N 
ATOM      4  C   UNL A   1      36.475  21.839  24.397  1.00  0.00     0.242 C 
ATOM      5  O   UNL A   1      36.001  22.528  23.487  1.00  0.00    -0.273 OA
ATOM      6  H   UNL A   1      38.327  22.427  23.944  1.00  0.00     0.163 HD
BRANCH   4   7
ATOM      7  C   UNL A   1      35.540  20.924  25.227  1.00  0.00     0.177 C 
BRANCH   7   8
ATOM      8  N   UNL A   1      35.211  21.462  26.552  1.00  0.00    -0.344 N 
ATOM      9  C   UNL A   1      34.734  22.685  26.906  1.00  0.00     0.221 C 
ATOM     10  O   UNL A   1      34.492  22.878  28.100  1.00  0.00    -0.275 OA
ATOM     11  H   UNL A   1      35.361  20.842  27.302  1.00  0.00     0.164 HD
BRANCH   9  12
ATOM     12  C   UNL A   1      34.538  23.791  25.892  1.00  0.00     0.105 C 
BRANCH  12  13
ATOM     13  C   UNL A   1      33.279  24.607  26.185  1.00  0.00     0.058 C 
BRANCH  13  14
ATOM     14  C   UNL A   1      32.252  24.513  25.096  1.00  0.00     0.028 A 
ATOM     15  C   UNL A   1      31.272  22.150  25.446  1.00  0.00     0.068 C 
ATOM     16  C   UNL A   1      31.414  23.460  24.755  1.00  0.00     0.051 A 
ATOM     17  N   UNL A   1      30.648  23.675  23.619  1.00  0.00    -0.250 NA
ATOM     18  C   UNL A   1      30.841  24.894  23.172  1.00  0.00     0.176 A 
ATOM     19  S   UNL A   1      31.917  25.864  24.086  1.00  0.00    -0.127 S 
ENDBRANCH  13  14
ENDBRANCH  12  13
ENDBRANCH   9  12
ENDBRANCH   7   8
BRANCH   7  20
ATOM     20  C   UNL A   1      34.338  20.338  24.466  1.00  0.00     0.090 C 
BRANCH  20  21
ATOM     21  C   UNL A   1      33.925  18.931  24.723  1.00  0.00     0.037 A 
ATOM     22  C   UNL A   1      32.671  18.389  24.927  1.00  0.00     0.134 A 
ATOM     23  N   UNL A   1      34.767  17.843  24.698  1.00  0.00    -0.348 N 
ATOM     24  N   UNL A   1      32.754  17.042  25.148  1.00  0.00    -0.245 NA
ATOM     25  C   UNL A   1      34.021  16.738  25.002  1.00  0.00     0.196 A 
ATOM     26  H   UNL A   1      35.730  17.858  24.497  1.00  0.00     0.167 HD
ENDBRANCH  20  21
ENDBRANCH   7  20
ENDBRANCH   4   7
ENDBRANCH   2   3
ENDBRANCH   1   2
BRANCH   1  27
ATOM     27  C   UNL A   1      38.647  23.931  26.550  1.00  0.00     0.023 C 
BRANCH  27  28
ATOM     28  C   UNL A   1      39.569  25.147  26.486  1.00  0.00     0.116 C 
BRANCH  28  29
ATOM     29  N   UNL A   1      40.837  24.898  25.805  1.00  0.00    -0.352 N 
ATOM     30  C   UNL A   1      42.089  25.384  26.118  1.00  0.00     0.251 C 
ATOM     31  H   UNL A   1      40.792  24.306  25.019  1.00  0.00     0.163 HD
ATOM     32  O   UNL A   1      43.050  25.194  25.388  1.00  0.00    -0.269 OA
BRANCH  30  33
ATOM     33  C   UNL A   1      42.228  26.180  27.354  1.00  0.00     0.039 A 
ATOM     34  C   UNL A   1      42.787  27.456  27.285  1.00  0.00     0.014 A 
ATOM     35  C   UNL A   1      41.663  25.704  28.540  1.00  0.00     0.014 A 
ATOM     36  C   UNL A   1      42.672  28.308  28.385  1.00  0.00     0.010 A 
ATOM     37  C   UNL A   1      41.474  26.584  29.598  1.00  0.00     0.010 A 
ATOM     38  C   UNL A   1      41.956  27.901  29.524  1.00  0.00    -0.014 A 
BRANCH  38  39
ATOM     39  C   UNL A   1      41.659  28.839  30.637  1.00  0.00     0.031 A 
ATOM     40  C   UNL A   1      42.482  28.791  31.895  1.00  0.00     0.074 A 
ATOM     41  C   UNL A   1      40.587  29.653  30.560  1.00  0.00     0.049 A 
ATOM     42  N   UNL A   1      42.306  29.434  33.020  1.00  0.00    -0.248 NA
ATOM     43  C   UNL A   1      43.631  27.871  31.901  1.00  0.00     0.031 C 
ATOM     44  C   UNL A   1      39.673  29.756  29.418  1.00  0.00     0.029 A 
ATOM     45  N   UNL A   1      40.075  30.546  31.470  1.00  0.00    -0.354 N 
ATOM     46  C   UNL A   1      43.297  28.973  33.877  1.00  0.00     0.074 A 
ATOM     47  C   UNL A   1      44.042  27.963  33.157  1.00  0.00     0.031 C 
ATOM     48  C   UNL A   1      38.736  30.681  29.683  1.00  0.00     0.029 A 
ATOM     49  C   UNL A   1      38.952  31.206  31.028  1.00  0.00     0.049 A 
ATOM     50  H   UNL A   1      40.474  30.698  32.357  1.00  0.00     0.167 HD
ATOM     51  C   UNL A   1      43.574  29.364  35.143  1.00  0.00     0.031 A 
ATOM     52  C   UNL A   1      38.179  32.127  31.636  1.00  0.00     0.031 A 
ATOM     53  C   UNL A   1      42.854  30.391  35.844  1.00  0.00     0.049 A 
ATOM     54  C   UNL A   1      38.524  32.567  33.032  1.00  0.00     0.074 A 
ATOM     55  C   UNL A   1      43.104  30.911  37.101  1.00  0.00     0.029 A 
ATOM     56  N   UNL A   1      41.747  31.061  35.345  1.00  0.00    -0.354 N 
ATOM     57  N   UNL A   1      39.503  32.161  33.804  1.00  0.00    -0.248 NA
ATOM     58  C   UNL A   1      37.665  33.594  33.636  1.00  0.00     0.031 C 
ATOM     59  C   UNL A   1      42.126  31.872  37.378  1.00  0.00     0.029 A 
ATOM     60  C   UNL A   1      41.294  31.981  36.274  1.00  0.00     0.049 A 
ATOM     61  H   UNL A   1      41.343  30.904  34.461  1.00  0.00     0.167 HD
ATOM     62  C   UNL A   1      39.396  32.904  34.973  1.00  0.00     0.074 A 
ATOM     63  C   UNL A   1      38.262  33.790  34.804  1.00  0.00     0.031 C 
ATOM     64  C   UNL A   1      40.169  32.859  36.086  1.00  0.00     0.031 A 
BRANCH  51  65
ATOM     65  C   UNL A   1      44.709  28.671  35.845  1.00  0.00    -0.014 A 
ATOM     66  C   UNL A   1      46.023  29.171  35.768  1.00  0.00     0.010 A 
ATOM     67  C   UNL A   1      44.459  27.516  36.609  1.00  0.00     0.010 A 
ATOM     68  C   UNL A   1      47.073  28.500  36.400  1.00  0.00     0.020 A 
ATOM     69  C   UNL A   1      45.503  26.858  37.265  1.00  0.00     0.020 A 
ATOM     70  C   UNL A   1      46.807  27.344  37.139  1.00  0.00     0.054 A 
BRANCH  70  71
ATOM     71  S   UNL A   1      48.184  26.498  37.960  1.00  0.00     0.124 S 
ATOM     72  O   UNL A   1      48.084  25.151  37.404  1.00  0.00    -0.237 OA
ATOM     73  O   UNL A   1      49.345  27.272  37.523  1.00  0.00    -0.237 OA
ATOM     74  O   UNL A   1      47.865  26.613  39.381  1.00  0.00    -0.744 OA
ENDBRANCH  70  71
ENDBRANCH  51  65
BRANCH  52  75
ATOM     75  C   UNL A   1      37.020  32.722  30.917  1.00  0.00    -0.014 A 
ATOM     76  C   UNL A   1      37.222  33.759  29.988  1.00  0.00     0.010 A 
ATOM     77  C   UNL A   1      35.714  32.253  31.144  1.00  0.00     0.010 A 
ATOM     78  C   UNL A   1      36.138  34.329  29.314  1.00  0.00     0.020 A 
ATOM     79  C   UNL A   1      34.630  32.804  30.454  1.00  0.00     0.020 A 
ATOM     80  C   UNL A   1      34.848  33.846  29.551  1.00  0.00     0.054 A 
BRANCH  80  81
ATOM     81  S   UNL A   1      33.461  34.564  28.626  1.00  0.00     0.124 S 
ATOM     82  O   UNL A   1      33.061  33.454  27.768  1.00  0.00    -0.237 OA
ATOM     83  O   UNL A   1      32.520  34.914  29.687  1.00  0.00    -0.237 OA
ATOM     84  O   UNL A   1      34.064  35.704  27.938  1.00  0.00    -0.744 OA
ENDBRANCH  80  81
ENDBRANCH  52  75
BRANCH  64  85
ATOM     85  C   UNL A   1      39.844  33.823  37.194  1.00  0.00    -0.014 A 
ATOM     86  C   UNL A   1      39.070  33.427  38.298  1.00  0.00     0.010 A 
ATOM     87  C   UNL A   1      40.377  35.124  37.155  1.00  0.00     0.010 A 
ATOM     88  C   UNL A   1      38.815  34.327  39.336  1.00  0.00     0.020 A 
ATOM     89  C   UNL A   1      40.143  36.018  38.203  1.00  0.00     0.020 A 
ATOM     90  C   UNL A   1      39.353  35.617  39.282  1.00  0.00     0.054 A 
BRANCH  90  91
ATOM     91  S   UNL A   1      39.053  36.750  40.667  1.00  0.00     0.124 S 
ATOM     92  O   UNL A   1      40.411  37.085  41.085  1.00  0.00    -0.237 OA
ATOM     93  O   UNL A   1      38.302  37.835  40.038  1.00  0.00    -0.237 OA
ATOM     94  O   UNL A   1      38.289  35.942  41.615  1.00  0.00    -0.744 OA
ENDBRANCH  90  91
ENDBRANCH  64  85
ENDBRANCH  38  39
ENDBRANCH  30  33
ENDBRANCH  28  29
ENDBRANCH  27  28
ENDBRANCH   1  27
TORSDOF 20
ENDMDL
MODEL 2
REMARK VINA RESULT:      -9.8      1.049      8.186
REMARK SMILES Cc1ncsc1CCC(=O)N[C@@H](Cc1cnc[nH]1)C(=O)NCCCCNC(=O)c1ccc(-c2c3nc(c(-c4ccc(S(=O)(=O)[O-])cc4)c4ccc([nH]4)c(-c4ccc(S(=O)(=O)[O-])cc4)c4nc(c(-c5ccc(S(=O)(=O)[O-])cc5)c5ccc2[nH]5)C=C4)C=C3)cc1
REMARK SMILES IDX 23 1 22 2 21 3 19 4 20 5 12 7 11 8 9 9 10 10 8 12 7 13 6 14
REMARK SMILES IDX 1 15 2 16 3 17 4 18 5 19 13 20 14 21 15 22 18 23 16 24 17 25
REMARK SMILES IDX 24 27 25 28 26 29 27 30 28 32 29 33 30 34 88 35 31 36 87 37
REMARK SMILES IDX 32 38 33 39 34 40 81 41 35 42 86 43 80 44 82 45 36 46 85 47
REMARK SMILES IDX 79 48 78 49 37 51 67 52 48 53 66 54 49 55 52 56 65 57 83 58
REMARK SMILES IDX 50 59 51 60 64 62 84 63 53 64 38 65 39 66 47 67 40 68 46 69
REMARK SMILES IDX 41 70 42 71 43 72 44 73 45 74 68 75 69 76 77 77 70 78 76 79
REMARK SMILES IDX 71 80 72 81 73 82 74 83 75 84 54 85 55 86 63 87 56 88 62 89
REMARK SMILES IDX 57 90 58 91 59 92 60 93 61 94
REMARK H PARENT 21 6 11 11 18 26 26 31 82 50 52 61
REMARK Flexibility Score: inf
ROOT
ATOM      1  C   UNL A   1      38.932  21.793  26.101  1.00  0.00     0.023 C 
ENDROOT
BRANCH   1   2
ATOM      2  C   UNL A   1      37.848  21.065  25.324  1.00  0.00     0.116 C 
BRANCH   2   3
ATOM      3  N   UNL A   1      36.920  21.923  24.625  1.00  0.00    -0.354 N 
ATOM      4  C   UNL A   1      35.562  21.994  24.734  1.00  0.00     0.242 C 
ATOM      5  O   UNL A   1      35.003  22.969  24.221  1.00  0.00    -0.273 OA
ATOM      6  H   UNL A   1      37.326  22.547  23.981  1.00  0.00     0.163 HD
BRANCH   4   7
ATOM      7  C   UNL A   1      34.716  20.941  25.493  1.00  0.00     0.177 C 
BRANCH   7   8
ATOM      8  N   UNL A   1      34.279  21.382  26.822  1.00  0.00    -0.344 N 
ATOM      9  C   UNL A   1      33.236  22.177  27.181  1.00  0.00     0.221 C 
ATOM     10  O   UNL A   1      33.050  22.363  28.386  1.00  0.00    -0.275 OA
ATOM     11  H   UNL A   1      34.825  21.051  27.571  1.00  0.00     0.164 HD
BRANCH   9  12
ATOM     12  C   UNL A   1      32.353  22.849  26.153  1.00  0.00     0.105 C 
BRANCH  12  13
ATOM     13  C   UNL A   1      31.528  23.978  26.771  1.00  0.00     0.058 C 
BRANCH  13  14
ATOM     14  C   UNL A   1      31.518  25.224  25.936  1.00  0.00     0.028 A 
ATOM     15  C   UNL A   1      34.018  25.867  25.853  1.00  0.00     0.068 C 
ATOM     16  C   UNL A   1      32.570  26.051  25.565  1.00  0.00     0.051 A 
ATOM     17  N   UNL A   1      32.192  27.187  24.864  1.00  0.00    -0.250 NA
ATOM     18  C   UNL A   1      30.899  27.165  24.637  1.00  0.00     0.176 A 
ATOM     19  S   UNL A   1      30.063  25.787  25.215  1.00  0.00    -0.127 S 
ENDBRANCH  13  14
ENDBRANCH  12  13
ENDBRANCH   9  12
ENDBRANCH   7   8
BRANCH   7  20
ATOM     20  C   UNL A   1      33.622  20.246  24.663  1.00  0.00     0.090 C 
BRANCH  20  21
ATOM     21  C   UNL A   1      33.683  18.773  24.461  1.00  0.00     0.037 A 
ATOM     22  C   UNL A   1      34.770  17.927  24.365  1.00  0.00     0.134 A 
ATOM     23  N   UNL A   1      32.594  17.933  24.436  1.00  0.00    -0.348 N 
ATOM     24  N   UNL A   1      34.365  16.637  24.158  1.00  0.00    -0.245 NA
ATOM     25  C   UNL A   1      33.055  16.667  24.208  1.00  0.00     0.196 A 
ATOM     26  H   UNL A   1      31.653  18.196  24.560  1.00  0.00     0.167 HD
ENDBRANCH  20  21
ENDBRANCH   7  20
ENDBRANCH   4   7
ENDBRANCH   2   3
ENDBRANCH   1   2
BRANCH   1  27
ATOM     27  C   UNL A   1      38.704  23.292  26.268  1.00  0.00     0.023 C 
BRANCH  27  28
ATOM     28  C   UNL A   1      39.888  24.091  26.808  1.00  0.00     0.116 C 
BRANCH  28  29
ATOM     29  N   UNL A   1      40.585  24.880  25.797  1.00  0.00    -0.352 N 
ATOM     30  C   UNL A   1      41.243  26.083  25.950  1.00  0.00     0.251 C 
ATOM     31  H   UNL A   1      40.585  24.506  24.887  1.00  0.00     0.163 HD
ATOM     32  O   UNL A   1      41.681  26.699  24.991  1.00  0.00    -0.269 OA
BRANCH  30  33
ATOM     33  C   UNL A   1      41.372  26.627  27.317  1.00  0.00     0.039 A 
ATOM     34  C   UNL A   1      42.202  27.725  27.539  1.00  0.00     0.014 A 
ATOM     35  C   UNL A   1      40.549  26.129  28.331  1.00  0.00     0.014 A 
ATOM     36  C   UNL A   1      42.117  28.406  28.756  1.00  0.00     0.010 A 
ATOM     37  C   UNL A   1      40.406  26.859  29.503  1.00  0.00     0.010 A 
ATOM     38  C   UNL A   1      41.171  28.016  29.720  1.00  0.00    -0.014 A 
BRANCH  38  39
ATOM     39  C   UNL A   1      40.929  28.820  30.946  1.00  0.00     0.031 A 
ATOM     40  C   UNL A   1      39.824  29.839  30.965  1.00  0.00     0.074 A 
ATOM     41  C   UNL A   1      41.768  28.711  31.996  1.00  0.00     0.049 A 
ATOM     42  N   UNL A   1      39.531  30.720  31.885  1.00  0.00    -0.248 NA
ATOM     43  C   UNL A   1      38.956  29.899  29.777  1.00  0.00     0.031 C 
ATOM     44  C   UNL A   1      42.914  27.801  32.083  1.00  0.00     0.029 A 
ATOM     45  N   UNL A   1      41.793  29.383  33.194  1.00  0.00    -0.354 N 
ATOM     46  C   UNL A   1      38.472  31.461  31.375  1.00  0.00     0.074 A 
ATOM     47  C   UNL A   1      38.203  30.955  30.047  1.00  0.00     0.031 C 
ATOM     48  C   UNL A   1      43.507  27.950  33.279  1.00  0.00     0.029 A 
ATOM     49  C   UNL A   1      42.815  28.993  34.028  1.00  0.00     0.049 A 
ATOM     50  H   UNL A   1      41.140  30.081  33.432  1.00  0.00     0.167 HD
ATOM     51  C   UNL A   1      37.775  32.461  31.963  1.00  0.00     0.031 A 
ATOM     52  C   UNL A   1      43.160  29.429  35.255  1.00  0.00     0.031 A 
ATOM     53  C   UNL A   1      38.021  32.939  33.295  1.00  0.00     0.049 A 
ATOM     54  C   UNL A   1      42.352  30.521  35.900  1.00  0.00     0.074 A 
ATOM     55  C   UNL A   1      37.322  33.897  34.008  1.00  0.00     0.029 A 
ATOM     56  N   UNL A   1      39.041  32.491  34.120  1.00  0.00    -0.354 N 
ATOM     57  N   UNL A   1      41.316  31.168  35.423  1.00  0.00    -0.248 NA
ATOM     58  C   UNL A   1      42.755  30.937  37.250  1.00  0.00     0.031 C 
ATOM     59  C   UNL A   1      37.942  34.052  35.253  1.00  0.00     0.029 A 
ATOM     60  C   UNL A   1      39.000  33.160  35.330  1.00  0.00     0.049 A 
ATOM     61  H   UNL A   1      39.699  31.798  33.879  1.00  0.00     0.167 HD
ATOM     62  C   UNL A   1      40.925  32.046  36.427  1.00  0.00     0.074 A 
ATOM     63  C   UNL A   1      41.830  31.842  37.539  1.00  0.00     0.031 C 
ATOM     64  C   UNL A   1      39.904  32.939  36.428  1.00  0.00     0.031 A 
BRANCH  51  65
ATOM     65  C   UNL A   1      36.676  33.101  31.159  1.00  0.00    -0.014 A 
ATOM     66  C   UNL A   1      35.323  32.889  31.482  1.00  0.00     0.010 A 
ATOM     67  C   UNL A   1      36.998  33.939  30.076  1.00  0.00     0.010 A 
ATOM     68  C   UNL A   1      34.312  33.464  30.709  1.00  0.00     0.020 A 
ATOM     69  C   UNL A   1      35.991  34.538  29.316  1.00  0.00     0.020 A 
ATOM     70  C   UNL A   1      34.653  34.280  29.626  1.00  0.00     0.054 A 
BRANCH  70  71
ATOM     71  S   UNL A   1      33.323  35.025  28.644  1.00  0.00     0.124 S 
ATOM     72  O   UNL A   1      32.500  35.649  29.677  1.00  0.00    -0.237 OA
ATOM     73  O   UNL A   1      34.044  35.952  27.774  1.00  0.00    -0.237 OA
ATOM     74  O   UNL A   1      32.714  33.885  27.963  1.00  0.00    -0.744 OA
ENDBRANCH  70  71
ENDBRANCH  51  65
BRANCH  52  75
ATOM     75  C   UNL A   1      44.308  28.809  35.972  1.00  0.00    -0.014 A 
ATOM     76  C   UNL A   1      44.121  27.633  36.720  1.00  0.00     0.010 A 
ATOM     77  C   UNL A   1      45.591  29.379  35.905  1.00  0.00     0.010 A 
ATOM     78  C   UNL A   1      45.191  27.048  37.403  1.00  0.00     0.020 A 
ATOM     79  C   UNL A   1      46.670  28.784  36.567  1.00  0.00     0.020 A 
ATOM     80  C   UNL A   1      46.459  27.628  37.321  1.00  0.00     0.054 A 
BRANCH  80  81
ATOM     81  S   UNL A   1      47.847  26.823  38.171  1.00  0.00     0.124 S 
ATOM     82  O   UNL A   1      48.995  27.536  37.622  1.00  0.00    -0.237 OA
ATOM     83  O   UNL A   1      47.552  27.086  39.578  1.00  0.00    -0.237 OA
ATOM     84  O   UNL A   1      47.725  25.423  37.770  1.00  0.00    -0.744 OA
ENDBRANCH  80  81
ENDBRANCH  52  75
BRANCH  64  85
ATOM     85  C   UNL A   1      39.683  33.736  37.685  1.00  0.00    -0.014 A 
ATOM     86  C   UNL A   1      38.868  33.248  38.721  1.00  0.00     0.010 A 
ATOM     87  C   UNL A   1      40.355  34.960  37.853  1.00  0.00     0.010 A 
ATOM     88  C   UNL A   1      38.710  33.986  39.897  1.00  0.00     0.020 A 
ATOM     89  C   UNL A   1      40.217  35.688  39.036  1.00  0.00     0.020 A 
ATOM     90  C   UNL A   1      39.386  35.202  40.047  1.00  0.00     0.054 A 
BRANCH  90  91
ATOM     91  S   UNL A   1      39.207  36.116  41.603  1.00  0.00     0.124 S 
ATOM     92  O   UNL A   1      40.403  35.709  42.335  1.00  0.00    -0.237 OA
ATOM     93  O   UNL A   1      39.185  37.508  41.159  1.00  0.00    -0.237 OA
ATOM     94  O   UNL A   1      37.944  35.625  42.150  1.00  0.00    -0.744 OA
ENDBRANCH  90  91
ENDBRANCH  64  85
ENDBRANCH  38  39
ENDBRANCH  30  33
ENDBRANCH  28  29
ENDBRANCH  27  28
ENDBRANCH   1  27
TORSDOF 20
ENDMDL
MODEL 3
REMARK VINA RESULT:      -9.7      3.299      5.966
REMARK SMILES Cc1ncsc1CCC(=O)N[C@@H](Cc1cnc[nH]1)C(=O)NCCCCNC(=O)c1ccc(-c2c3nc(c(-c4ccc(S(=O)(=O)[O-])cc4)c4ccc([nH]4)c(-c4ccc(S(=O)(=O)[O-])cc4)c4nc(c(-c5ccc(S(=O)(=O)[O-])cc5)c5ccc2[nH]5)C=C4)C=C3)cc1
REMARK SMILES IDX 23 1 22 2 21 3 19 4 20 5 12 7 11 8 9 9 10 10 8 12 7 13 6 14
REMARK SMILES IDX 1 15 2 16 3 17 4 18 5 19 13 20 14 21 15 22 18 23 16 24 17 25
REMARK SMILES IDX 24 27 25 28 26 29 27 30 28 32 29 33 30 34 88 35 31 36 87 37
REMARK SMILES IDX 32 38 33 39 34 40 81 41 35 42 86 43 80 44 82 45 36 46 85 47
REMARK SMILES IDX 79 48 78 49 37 51 67 52 48 53 66 54 49 55 52 56 65 57 83 58
REMARK SMILES IDX 50 59 51 60 64 62 84 63 53 64 38 65 39 66 47 67 40 68 46 69
REMARK SMILES IDX 41 70 42 71 43 72 44 73 45 74 68 75 69 76 77 77 70 78 76 79
REMARK SMILES IDX 71 80 72 81 73 82 74 83 75 84 54 85 55 86 63 87 56 88 62 89
REMARK SMILES IDX 57 90 58 91 59 92 60 93 61 94
REMARK H PARENT 21 6 11 11 18 26 26 31 82 50 52 61
REMARK Flexibility Score: inf
ROOT
ATOM      1  C   UNL A   1      38.500  22.327  25.769  1.00  0.00     0.023 C 
ENDROOT
BRANCH   1   2
ATOM      2  C   UNL A   1      39.752  21.536  26.108  1.00  0.00     0.116 C 
BRANCH   2   3
ATOM      3  N   UNL A   1      40.400  21.923  27.340  1.00  0.00    -0.354 N 
ATOM      4  C   UNL A   1      41.723  22.151  27.583  1.00  0.00     0.242 C 
ATOM      5  O   UNL A   1      42.015  22.709  28.646  1.00  0.00    -0.273 OA
ATOM      6  H   UNL A   1      39.802  22.040  28.112  1.00  0.00     0.163 HD
BRANCH   4   7
ATOM      7  C   UNL A   1      42.845  21.780  26.581  1.00  0.00     0.177 C 
BRANCH   7   8
ATOM      8  N   UNL A   1      44.197  22.057  27.081  1.00  0.00    -0.344 N 
ATOM      9  C   UNL A   1      45.067  23.047  26.749  1.00  0.00     0.221 C 
ATOM     10  O   UNL A   1      46.140  23.090  27.355  1.00  0.00    -0.275 OA
ATOM     11  H   UNL A   1      44.526  21.426  27.761  1.00  0.00     0.164 HD
BRANCH   9  12
ATOM     12  C   UNL A   1      44.761  24.045  25.653  1.00  0.00     0.105 C 
BRANCH  12  13
ATOM     13  C   UNL A   1      44.981  25.483  26.123  1.00  0.00     0.058 C 
BRANCH  13  14
ATOM     14  C   UNL A   1      46.145  26.149  25.453  1.00  0.00     0.028 A 
ATOM     15  C   UNL A   1      45.780  28.639  26.028  1.00  0.00     0.068 C 
ATOM     16  C   UNL A   1      46.478  27.495  25.383  1.00  0.00     0.051 A 
ATOM     17  N   UNL A   1      47.581  27.777  24.590  1.00  0.00    -0.250 NA
ATOM     18  C   UNL A   1      48.116  26.661  24.151  1.00  0.00     0.176 A 
ATOM     19  S   UNL A   1      47.361  25.215  24.674  1.00  0.00    -0.127 S 
ENDBRANCH  13  14
ENDBRANCH  12  13
ENDBRANCH   9  12
ENDBRANCH   7   8
BRANCH   7  20
ATOM     20  C   UNL A   1      42.692  20.414  25.890  1.00  0.00     0.090 C 
BRANCH  20  21
ATOM     21  C   UNL A   1      43.894  19.743  25.323  1.00  0.00     0.037 A 
ATOM     22  C   UNL A   1      44.450  18.512  25.608  1.00  0.00     0.134 A 
ATOM     23  N   UNL A   1      44.645  20.222  24.275  1.00  0.00    -0.348 N 
ATOM     24  N   UNL A   1      45.574  18.300  24.858  1.00  0.00    -0.245 NA
ATOM     25  C   UNL A   1      45.667  19.339  24.064  1.00  0.00     0.196 A 
ATOM     26  H   UNL A   1      44.477  21.049  23.768  1.00  0.00     0.167 HD
ENDBRANCH  20  21
ENDBRANCH   7  20
ENDBRANCH   4   7
ENDBRANCH   2   3
ENDBRANCH   1   2
BRANCH   1  27
ATOM     27  C   UNL A   1      38.055  23.314  26.843  1.00  0.00     0.023 C 
BRANCH  27  28
ATOM     28  C   UNL A   1      38.670  24.710  26.761  1.00  0.00     0.116 C 
BRANCH  28  29
ATOM     29  N   UNL A   1      39.789  24.813  25.830  1.00  0.00    -0.352 N 
ATOM     30  C   UNL A   1      40.947  25.553  25.958  1.00  0.00     0.251 C 
ATOM     31  H   UNL A   1      39.707  24.288  25.001  1.00  0.00     0.163 HD
ATOM     32  O   UNL A   1      41.752  25.645  25.043  1.00  0.00    -0.269 OA
BRANCH  30  33
ATOM     33  C   UNL A   1      41.171  26.265  27.232  1.00  0.00     0.039 A 
ATOM     34  C   UNL A   1      42.034  27.360  27.260  1.00  0.00     0.014 A 
ATOM     35  C   UNL A   1      40.403  25.924  28.349  1.00  0.00     0.014 A 
ATOM     36  C   UNL A   1      42.037  28.194  28.380  1.00  0.00     0.010 A 
ATOM     37  C   UNL A   1      40.346  26.803  29.422  1.00  0.00     0.010 A 
ATOM     38  C   UNL A   1      41.146  27.957  29.441  1.00  0.00    -0.014 A 
BRANCH  38  39
ATOM     39  C   UNL A   1      40.995  28.919  30.563  1.00  0.00     0.031 A 
ATOM     40  C   UNL A   1      41.888  28.809  31.767  1.00  0.00     0.074 A 
ATOM     41  C   UNL A   1      39.988  29.816  30.547  1.00  0.00     0.049 A 
ATOM     42  N   UNL A   1      41.835  29.467  32.896  1.00  0.00    -0.248 NA
ATOM     43  C   UNL A   1      42.959  27.800  31.709  1.00  0.00     0.031 C 
ATOM     44  C   UNL A   1      39.015  29.989  29.463  1.00  0.00     0.029 A 
ATOM     45  N   UNL A   1      39.606  30.749  31.480  1.00  0.00    -0.354 N 
ATOM     46  C   UNL A   1      42.838  28.930  33.692  1.00  0.00     0.074 A 
ATOM     47  C   UNL A   1      43.455  27.863  32.935  1.00  0.00     0.031 C 
ATOM     48  C   UNL A   1      38.172  30.986  29.779  1.00  0.00     0.029 A 
ATOM     49  C   UNL A   1      38.514  31.496  31.104  1.00  0.00     0.049 A 
ATOM     50  H   UNL A   1      40.071  30.871  32.339  1.00  0.00     0.167 HD
ATOM     51  C   UNL A   1      43.224  29.301  34.936  1.00  0.00     0.031 A 
ATOM     52  C   UNL A   1      37.856  32.477  31.752  1.00  0.00     0.031 A 
ATOM     53  C   UNL A   1      42.634  30.384  35.673  1.00  0.00     0.049 A 
ATOM     54  C   UNL A   1      38.322  32.891  33.120  1.00  0.00     0.074 A 
ATOM     55  C   UNL A   1      43.003  30.886  36.908  1.00  0.00     0.029 A 
ATOM     56  N   UNL A   1      41.555  31.139  35.239  1.00  0.00    -0.354 N 
ATOM     57  N   UNL A   1      39.312  32.410  33.833  1.00  0.00    -0.248 NA
ATOM     58  C   UNL A   1      37.587  33.986  33.769  1.00  0.00     0.031 C 
ATOM     59  C   UNL A   1      42.123  31.923  37.238  1.00  0.00     0.029 A 
ATOM     60  C   UNL A   1      41.235  32.094  36.187  1.00  0.00     0.049 A 
ATOM     61  H   UNL A   1      41.085  31.013  34.383  1.00  0.00     0.167 HD
ATOM     62  C   UNL A   1      39.338  33.163  35.000  1.00  0.00     0.074 A 
ATOM     63  C   UNL A   1      38.270  34.135  34.896  1.00  0.00     0.031 C 
ATOM     64  C   UNL A   1      40.174  33.060  36.063  1.00  0.00     0.031 A 
BRANCH  51  65
ATOM     65  C   UNL A   1      44.343  28.522  35.571  1.00  0.00    -0.014 A 
ATOM     66  C   UNL A   1      44.080  27.389  36.363  1.00  0.00     0.010 A 
ATOM     67  C   UNL A   1      45.677  28.916  35.361  1.00  0.00     0.010 A 
ATOM     68  C   UNL A   1      45.127  26.693  36.973  1.00  0.00     0.020 A 
ATOM     69  C   UNL A   1      46.729  28.208  35.947  1.00  0.00     0.020 A 
ATOM     70  C   UNL A   1      46.445  27.111  36.766  1.00  0.00     0.054 A 
BRANCH  70  71
ATOM     71  S   UNL A   1      47.787  26.185  37.559  1.00  0.00     0.124 S 
ATOM     72  O   UNL A   1      47.854  26.820  38.873  1.00  0.00    -0.237 OA
ATOM     73  O   UNL A   1      47.282  24.814  37.551  1.00  0.00    -0.237 OA
ATOM     74  O   UNL A   1      48.936  26.427  36.689  1.00  0.00    -0.744 OA
ENDBRANCH  70  71
ENDBRANCH  51  65
BRANCH  52  75
ATOM     75  C   UNL A   1      36.705  33.160  31.102  1.00  0.00    -0.014 A 
ATOM     76  C   UNL A   1      35.434  33.131  31.705  1.00  0.00     0.010 A 
ATOM     77  C   UNL A   1      36.870  33.850  29.888  1.00  0.00     0.010 A 
ATOM     78  C   UNL A   1      34.345  33.763  31.097  1.00  0.00     0.020 A 
ATOM     79  C   UNL A   1      35.789  34.504  29.289  1.00  0.00     0.020 A 
ATOM     80  C   UNL A   1      34.531  34.447  29.893  1.00  0.00     0.054 A 
BRANCH  80  81
ATOM     81  S   UNL A   1      33.116  35.306  29.147  1.00  0.00     0.124 S 
ATOM     82  O   UNL A   1      32.253  35.530  30.302  1.00  0.00    -0.237 OA
ATOM     83  O   UNL A   1      33.735  36.501  28.578  1.00  0.00    -0.237 OA
ATOM     84  O   UNL A   1      32.615  34.347  28.165  1.00  0.00    -0.744 OA
ENDBRANCH  80  81
ENDBRANCH  52  75
BRANCH  64  85
ATOM     85  C   UNL A   1      39.997  34.049  37.182  1.00  0.00    -0.014 A 
ATOM     86  C   UNL A   1      39.264  33.719  38.336  1.00  0.00     0.010 A 
ATOM     87  C   UNL A   1      40.629  35.303  37.101  1.00  0.00     0.010 A 
ATOM     88  C   UNL A   1      39.147  34.639  39.381  1.00  0.00     0.020 A 
ATOM     89  C   UNL A   1      40.533  36.215  38.154  1.00  0.00     0.020 A 
ATOM     90  C   UNL A   1      39.782  35.881  39.283  1.00  0.00     0.054 A 
BRANCH  90  91
ATOM     91  S   UNL A   1      39.661  37.038  40.675  1.00  0.00     0.124 S 
ATOM     92  O   UNL A   1      39.618  38.329  39.995  1.00  0.00    -0.237 OA
ATOM     93  O   UNL A   1      38.419  36.629  41.328  1.00  0.00    -0.237 OA
ATOM     94  O   UNL A   1      40.875  36.780  41.447  1.00  0.00    -0.744 OA
ENDBRANCH  90  91
ENDBRANCH  64  85
ENDBRANCH  38  39
ENDBRANCH  30  33
ENDBRANCH  28  29
ENDBRANCH  27  28
ENDBRANCH   1  27
TORSDOF 20
ENDMDL
