MODEL 1
REMARK VINA RESULT:     -11.2      0.000      0.000
REMARK SMILES C[C@@H]1[C@@H](C(=O)NCCCCNC(=O)c2ccc(-c3c4nc(c(-c5ccc(S(=O)(=O)[O-])cc5)c5ccc([nH]5)c(-c5ccc(S(=O)(=O)[O-])cc5)c5nc(c(-c6ccc(S(=O)(=O)[O-])cc6)c6ccc3[nH]6)C=C5)C=C4)cc2)CCN1C(=O)[C@@H]1C[C@@H]2CCCC[C@@H]2[NH2+]1
REMARK SMILES IDX 9 1 8 2 7 3 6 4 4 5 5 6 3 8 1 9 2 10 76 11 74 12 75 13 77 14
REMARK SMILES IDX 78 15 79 16 80 17 87 18 81 19 86 20 82 23 85 24 83 25 84 26
REMARK SMILES IDX 10 27 11 28 12 29 13 31 14 32 15 33 73 34 16 35 72 36 17 37
REMARK SMILES IDX 18 38 19 39 66 40 20 41 71 42 65 43 67 44 21 45 70 46 64 47
REMARK SMILES IDX 63 48 22 50 52 51 33 52 51 53 34 54 37 55 50 56 68 57 35 58
REMARK SMILES IDX 36 59 49 61 69 62 38 63 23 64 24 65 32 66 25 67 31 68 26 69
REMARK SMILES IDX 27 70 28 71 29 72 30 73 53 74 54 75 62 76 55 77 61 78 56 79
REMARK SMILES IDX 57 80 58 81 59 82 60 83 39 84 40 85 48 86 41 87 47 88 42 89
REMARK SMILES IDX 43 90 44 91 45 92 46 93
REMARK H PARENT 6 7 87 21 87 22 11 30 67 49 37 60
REMARK Flexibility Score: inf
ROOT
ATOM      1  C   UNL A   1      33.643  28.200  25.717  1.00  0.00     0.023 C 
ENDROOT
BRANCH   1   2
ATOM      2  C   UNL A   1      33.060  29.204  24.726  1.00  0.00     0.023 C 
BRANCH   2   3
ATOM      3  C   UNL A   1      31.806  28.750  23.995  1.00  0.00     0.116 C 
BRANCH   3   4
ATOM      4  N   UNL A   1      32.059  27.913  22.838  1.00  0.00    -0.356 N 
ATOM      5  C   UNL A   1      31.732  26.591  22.668  1.00  0.00     0.225 C 
ATOM      6  O   UNL A   1      31.996  26.052  21.595  1.00  0.00    -0.275 OA
ATOM      7  H   UNL A   1      32.520  28.345  22.083  1.00  0.00     0.163 HD
BRANCH   5   8
ATOM      8  C   UNL A   1      31.139  25.833  23.854  1.00  0.00     0.102 C 
ATOM      9  C   UNL A   1      31.723  25.121  26.175  1.00  0.00     0.032 C 
ATOM     10  C   UNL A   1      32.200  25.098  24.714  1.00  0.00     0.094 C 
ATOM     11  N   UNL A   1      32.270  23.736  24.140  1.00  0.00    -0.334 N 
ATOM     12  C   UNL A   1      30.223  24.676  23.453  1.00  0.00     0.037 C 
ATOM     13  C   UNL A   1      31.204  23.560  23.170  1.00  0.00     0.121 C 
BRANCH  11  14
ATOM     14  C   UNL A   1      33.402  22.943  23.970  1.00  0.00     0.281 C 
ATOM     15  O   UNL A   1      33.979  22.926  22.872  1.00  0.00    -0.268 OA
BRANCH  14  16
ATOM     16  C   UNL A   1      33.836  21.903  25.048  1.00  0.00     0.273 C 
ATOM     17  C   UNL A   1      34.193  22.361  26.441  1.00  0.00     0.085 C 
ATOM     18  N   UNL A   1      35.058  21.147  24.581  1.00  0.00    -0.333 N 
ATOM     19  C   UNL A   1      35.693  22.500  26.430  1.00  0.00     0.054 C 
ATOM     20  C   UNL A   1      36.110  21.291  25.608  1.00  0.00     0.186 C 
ATOM     21  H   UNL A   1      35.385  21.532  23.695  1.00  0.00     0.347 HD
ATOM     22  H   UNL A   1      34.832  20.162  24.444  1.00  0.00     0.347 HD
ATOM     23  C   UNL A   1      36.212  23.782  25.774  1.00  0.00     0.010 C 
ATOM     24  C   UNL A   1      37.545  21.421  25.067  1.00  0.00     0.065 C 
ATOM     25  C   UNL A   1      37.733  23.826  25.890  1.00  0.00     0.001 C 
ATOM     26  C   UNL A   1      38.363  22.427  25.888  1.00  0.00     0.006 C 
ENDBRANCH  14  16
ENDBRANCH  11  14
ENDBRANCH   5   8
ENDBRANCH   3   4
ENDBRANCH   2   3
ENDBRANCH   1   2
BRANCH   1  27
ATOM     27  C   UNL A   1      33.356  28.480  27.188  1.00  0.00     0.116 C 
BRANCH  27  28
ATOM     28  N   UNL A   1      33.326  29.901  27.509  1.00  0.00    -0.352 N 
ATOM     29  C   UNL A   1      34.301  30.695  28.065  1.00  0.00     0.251 C 
ATOM     30  H   UNL A   1      32.483  30.361  27.295  1.00  0.00     0.163 HD
ATOM     31  O   UNL A   1      34.034  31.853  28.386  1.00  0.00    -0.269 OA
BRANCH  29  32
ATOM     32  C   UNL A   1      35.651  30.149  28.311  1.00  0.00     0.039 A 
ATOM     33  C   UNL A   1      36.590  30.161  27.276  1.00  0.00     0.014 A 
ATOM     34  C   UNL A   1      36.001  29.647  29.567  1.00  0.00     0.014 A 
ATOM     35  C   UNL A   1      37.901  29.747  27.526  1.00  0.00     0.010 A 
ATOM     36  C   UNL A   1      37.327  29.328  29.838  1.00  0.00     0.010 A 
ATOM     37  C   UNL A   1      38.292  29.367  28.820  1.00  0.00    -0.014 A 
BRANCH  37  38
ATOM     38  C   UNL A   1      39.697  28.996  29.131  1.00  0.00     0.031 A 
ATOM     39  C   UNL A   1      40.620  30.006  29.762  1.00  0.00     0.074 A 
ATOM     40  C   UNL A   1      40.166  27.779  28.787  1.00  0.00     0.049 A 
ATOM     41  N   UNL A   1      41.893  29.898  30.045  1.00  0.00    -0.248 NA
ATOM     42  C   UNL A   1      40.043  31.320  30.091  1.00  0.00     0.031 C 
ATOM     43  C   UNL A   1      39.388  26.722  28.135  1.00  0.00     0.029 A 
ATOM     44  N   UNL A   1      41.414  27.225  28.934  1.00  0.00    -0.354 N 
ATOM     45  C   UNL A   1      42.271  31.131  30.564  1.00  0.00     0.074 A 
ATOM     46  C   UNL A   1      41.109  31.990  30.501  1.00  0.00     0.031 C 
ATOM     47  C   UNL A   1      40.166  25.641  27.969  1.00  0.00     0.029 A 
ATOM     48  C   UNL A   1      41.508  25.938  28.458  1.00  0.00     0.049 A 
ATOM     49  H   UNL A   1      42.171  27.705  29.342  1.00  0.00     0.167 HD
ATOM     50  C   UNL A   1      43.469  31.510  31.071  1.00  0.00     0.031 A 
ATOM     51  C   UNL A   1      42.557  25.094  28.414  1.00  0.00     0.031 A 
ATOM     52  C   UNL A   1      44.620  30.651  31.142  1.00  0.00     0.049 A 
ATOM     53  C   UNL A   1      43.883  25.540  28.970  1.00  0.00     0.074 A 
ATOM     54  C   UNL A   1      45.864  30.924  31.682  1.00  0.00     0.029 A 
ATOM     55  N   UNL A   1      44.670  29.353  30.658  1.00  0.00    -0.354 N 
ATOM     56  N   UNL A   1      44.204  26.691  29.511  1.00  0.00    -0.248 NA
ATOM     57  C   UNL A   1      44.984  24.568  28.923  1.00  0.00     0.031 C 
ATOM     58  C   UNL A   1      46.684  29.809  31.474  1.00  0.00     0.029 A 
ATOM     59  C   UNL A   1      45.930  28.818  30.868  1.00  0.00     0.049 A 
ATOM     60  H   UNL A   1      43.920  28.881  30.227  1.00  0.00     0.167 HD
ATOM     61  C   UNL A   1      45.533  26.568  29.902  1.00  0.00     0.074 A 
ATOM     62  C   UNL A   1      45.951  25.229  29.544  1.00  0.00     0.031 C 
ATOM     63  C   UNL A   1      46.332  27.480  30.509  1.00  0.00     0.031 A 
BRANCH  50  64
ATOM     64  C   UNL A   1      43.590  32.924  31.581  1.00  0.00    -0.014 A 
ATOM     65  C   UNL A   1      44.032  33.966  30.744  1.00  0.00     0.010 A 
ATOM     66  C   UNL A   1      43.234  33.221  32.910  1.00  0.00     0.010 A 
ATOM     67  C   UNL A   1      44.163  35.265  31.239  1.00  0.00     0.020 A 
ATOM     68  C   UNL A   1      43.332  34.527  33.398  1.00  0.00     0.020 A 
ATOM     69  C   UNL A   1      43.816  35.537  32.565  1.00  0.00     0.054 A 
BRANCH  69  70
ATOM     70  S   UNL A   1      43.986  37.236  33.175  1.00  0.00     0.124 S 
ATOM     71  O   UNL A   1      43.866  38.012  31.943  1.00  0.00    -0.237 OA
ATOM     72  O   UNL A   1      42.865  37.357  34.104  1.00  0.00    -0.237 OA
ATOM     73  O   UNL A   1      45.308  37.252  33.795  1.00  0.00    -0.744 OA
ENDBRANCH  69  70
ENDBRANCH  50  64
BRANCH  51  74
ATOM     74  C   UNL A   1      42.389  23.727  27.844  1.00  0.00    -0.014 A 
ATOM     75  C   UNL A   1      42.646  23.484  26.483  1.00  0.00     0.010 A 
ATOM     76  C   UNL A   1      41.986  22.656  28.663  1.00  0.00     0.010 A 
ATOM     77  C   UNL A   1      42.486  22.202  25.947  1.00  0.00     0.020 A 
ATOM     78  C   UNL A   1      41.854  21.368  28.139  1.00  0.00     0.020 A 
ATOM     79  C   UNL A   1      42.094  21.151  26.780  1.00  0.00     0.054 A 
BRANCH  79  80
ATOM     80  S   UNL A   1      41.948  19.485  26.074  1.00  0.00     0.124 S 
ATOM     81  O   UNL A   1      42.449  18.649  27.160  1.00  0.00    -0.237 OA
ATOM     82  O   UNL A   1      40.516  19.383  25.804  1.00  0.00    -0.237 OA
ATOM     83  O   UNL A   1      42.795  19.542  24.885  1.00  0.00    -0.744 OA
ENDBRANCH  79  80
ENDBRANCH  51  74
BRANCH  63  84
ATOM     84  C   UNL A   1      47.728  27.049  30.875  1.00  0.00    -0.014 A 
ATOM     85  C   UNL A   1      48.000  26.370  32.075  1.00  0.00     0.010 A 
ATOM     86  C   UNL A   1      48.780  27.283  29.968  1.00  0.00     0.010 A 
ATOM     87  C   UNL A   1      49.302  25.965  32.379  1.00  0.00     0.020 A 
ATOM     88  C   UNL A   1      50.077  26.851  30.253  1.00  0.00     0.020 A 
ATOM     89  C   UNL A   1      50.333  26.208  31.465  1.00  0.00     0.054 A 
BRANCH  89  90
ATOM     90  S   UNL A   1      52.007  25.637  31.864  1.00  0.00     0.124 S 
ATOM     91  O   UNL A   1      52.284  26.351  33.108  1.00  0.00    -0.237 OA
ATOM     92  O   UNL A   1      51.830  24.193  31.994  1.00  0.00    -0.237 OA
ATOM     93  O   UNL A   1      52.803  26.060  30.713  1.00  0.00    -0.744 OA
ENDBRANCH  89  90
ENDBRANCH  63  84
ENDBRANCH  37  38
ENDBRANCH  29  32
ENDBRANCH  27  28
ENDBRANCH   1  27
TORSDOF 16
ENDMDL
MODEL 2
REMARK VINA RESULT:     -10.7      2.435      9.236
REMARK SMILES C[C@@H]1[C@@H](C(=O)NCCCCNC(=O)c2ccc(-c3c4nc(c(-c5ccc(S(=O)(=O)[O-])cc5)c5ccc([nH]5)c(-c5ccc(S(=O)(=O)[O-])cc5)c5nc(c(-c6ccc(S(=O)(=O)[O-])cc6)c6ccc3[nH]6)C=C5)C=C4)cc2)CCN1C(=O)[C@@H]1C[C@@H]2CCCC[C@@H]2[NH2+]1
REMARK SMILES IDX 9 1 8 2 7 3 6 4 4 5 5 6 3 8 1 9 2 10 76 11 74 12 75 13 77 14
REMARK SMILES IDX 78 15 79 16 80 17 87 18 81 19 86 20 82 23 85 24 83 25 84 26
REMARK SMILES IDX 10 27 11 28 12 29 13 31 14 32 15 33 73 34 16 35 72 36 17 37
REMARK SMILES IDX 18 38 19 39 66 40 20 41 71 42 65 43 67 44 21 45 70 46 64 47
REMARK SMILES IDX 63 48 22 50 52 51 33 52 51 53 34 54 37 55 50 56 68 57 35 58
REMARK SMILES IDX 36 59 49 61 69 62 38 63 23 64 24 65 32 66 25 67 31 68 26 69
REMARK SMILES IDX 27 70 28 71 29 72 30 73 53 74 54 75 62 76 55 77 61 78 56 79
REMARK SMILES IDX 57 80 58 81 59 82 60 83 39 84 40 85 48 86 41 87 47 88 42 89
REMARK SMILES IDX 43 90 44 91 45 92 46 93
REMARK H PARENT 6 7 87 21 87 22 11 30 67 49 37 60
REMARK Flexibility Score: inf
ROOT
ATOM      1  C   UNL A   1      35.807  22.992  24.366  1.00  0.00     0.023 C 
ENDROOT
BRANCH   1   2
ATOM      2  C   UNL A   1      35.519  21.564  24.821  1.00  0.00     0.023 C 
BRANCH   2   3
ATOM      3  C   UNL A   1      34.077  21.107  24.666  1.00  0.00     0.116 C 
BRANCH   3   4
ATOM      4  N   UNL A   1      33.152  21.719  25.602  1.00  0.00    -0.356 N 
ATOM      5  C   UNL A   1      32.244  22.718  25.357  1.00  0.00     0.225 C 
ATOM      6  O   UNL A   1      31.512  23.087  26.273  1.00  0.00    -0.275 OA
ATOM      7  H   UNL A   1      33.179  21.376  26.524  1.00  0.00     0.163 HD
BRANCH   5   8
ATOM      8  C   UNL A   1      32.251  23.381  23.981  1.00  0.00     0.102 C 
ATOM      9  C   UNL A   1      33.477  25.132  22.690  1.00  0.00     0.032 C 
ATOM     10  C   UNL A   1      32.732  24.855  24.006  1.00  0.00     0.094 C 
ATOM     11  N   UNL A   1      31.494  25.651  24.157  1.00  0.00    -0.334 N 
ATOM     12  C   UNL A   1      30.862  23.529  23.359  1.00  0.00     0.037 C 
ATOM     13  C   UNL A   1      30.337  24.786  24.015  1.00  0.00     0.121 C 
BRANCH  11  14
ATOM     14  C   UNL A   1      31.315  26.807  24.913  1.00  0.00     0.281 C 
ATOM     15  O   UNL A   1      30.713  26.746  25.995  1.00  0.00    -0.268 OA
BRANCH  14  16
ATOM     16  C   UNL A   1      31.651  28.216  24.334  1.00  0.00     0.273 C 
ATOM     17  C   UNL A   1      33.071  28.563  23.962  1.00  0.00     0.085 C 
ATOM     18  N   UNL A   1      31.250  29.292  25.316  1.00  0.00    -0.333 N 
ATOM     19  C   UNL A   1      33.623  29.278  25.168  1.00  0.00     0.054 C 
ATOM     20  C   UNL A   1      32.437  30.127  25.594  1.00  0.00     0.186 C 
ATOM     21  H   UNL A   1      30.919  28.865  26.181  1.00  0.00     0.347 HD
ATOM     22  H   UNL A   1      30.500  29.864  24.927  1.00  0.00     0.347 HD
ATOM     23  C   UNL A   1      34.048  28.361  26.317  1.00  0.00     0.010 C 
ATOM     24  C   UNL A   1      32.567  30.625  27.045  1.00  0.00     0.065 C 
ATOM     25  C   UNL A   1      34.646  29.204  27.440  1.00  0.00     0.001 C 
ATOM     26  C   UNL A   1      34.029  30.607  27.513  1.00  0.00     0.006 C 
ENDBRANCH  14  16
ENDBRANCH  11  14
ENDBRANCH   5   8
ENDBRANCH   3   4
ENDBRANCH   2   3
ENDBRANCH   1   2
BRANCH   1  27
ATOM     27  C   UNL A   1      37.042  23.645  24.978  1.00  0.00     0.116 C 
BRANCH  27  28
ATOM     28  N   UNL A   1      38.089  22.690  25.319  1.00  0.00    -0.352 N 
ATOM     29  C   UNL A   1      39.236  22.871  26.054  1.00  0.00     0.251 C 
ATOM     30  H   UNL A   1      37.954  21.779  24.970  1.00  0.00     0.163 HD
ATOM     31  O   UNL A   1      40.069  21.967  26.117  1.00  0.00    -0.269 OA
BRANCH  29  32
ATOM     32  C   UNL A   1      39.484  24.157  26.736  1.00  0.00     0.039 A 
ATOM     33  C   UNL A   1      38.991  24.350  28.029  1.00  0.00     0.014 A 
ATOM     34  C   UNL A   1      40.224  25.165  26.112  1.00  0.00     0.014 A 
ATOM     35  C   UNL A   1      39.310  25.520  28.724  1.00  0.00     0.010 A 
ATOM     36  C   UNL A   1      40.620  26.282  26.840  1.00  0.00     0.010 A 
ATOM     37  C   UNL A   1      40.162  26.477  28.152  1.00  0.00    -0.014 A 
BRANCH  37  38
ATOM     38  C   UNL A   1      40.580  27.693  28.898  1.00  0.00     0.031 A 
ATOM     39  C   UNL A   1      41.924  27.733  29.579  1.00  0.00     0.074 A 
ATOM     40  C   UNL A   1      39.731  28.733  29.022  1.00  0.00     0.049 A 
ATOM     41  N   UNL A   1      42.440  28.670  30.334  1.00  0.00    -0.248 NA
ATOM     42  C   UNL A   1      42.787  26.552  29.415  1.00  0.00     0.031 C 
ATOM     43  C   UNL A   1      38.386  28.806  28.446  1.00  0.00     0.029 A 
ATOM     44  N   UNL A   1      39.871  29.930  29.682  1.00  0.00    -0.354 N 
ATOM     45  C   UNL A   1      43.675  28.184  30.748  1.00  0.00     0.074 A 
ATOM     46  C   UNL A   1      43.804  26.847  30.212  1.00  0.00     0.031 C 
ATOM     47  C   UNL A   1      37.840  29.995  28.749  1.00  0.00     0.029 A 
ATOM     48  C   UNL A   1      38.773  30.751  29.578  1.00  0.00     0.049 A 
ATOM     49  H   UNL A   1      40.682  30.177  30.182  1.00  0.00     0.167 HD
ATOM     50  C   UNL A   1      44.627  28.801  31.487  1.00  0.00     0.031 A 
ATOM     51  C   UNL A   1      38.538  31.973  30.095  1.00  0.00     0.031 A 
ATOM     52  C   UNL A   1      44.500  30.135  32.011  1.00  0.00     0.049 A 
ATOM     53  C   UNL A   1      39.606  32.635  30.925  1.00  0.00     0.074 A 
ATOM     54  C   UNL A   1      45.427  30.868  32.729  1.00  0.00     0.029 A 
ATOM     55  N   UNL A   1      43.376  30.935  31.874  1.00  0.00    -0.354 N 
ATOM     56  N   UNL A   1      40.791  32.182  31.256  1.00  0.00    -0.248 NA
ATOM     57  C   UNL A   1      39.308  33.979  31.440  1.00  0.00     0.031 C 
ATOM     58  C   UNL A   1      44.843  32.091  33.074  1.00  0.00     0.029 A 
ATOM     59  C   UNL A   1      43.578  32.147  32.513  1.00  0.00     0.049 A 
ATOM     60  H   UNL A   1      42.554  30.679  31.394  1.00  0.00     0.167 HD
ATOM     61  C   UNL A   1      41.395  33.201  31.986  1.00  0.00     0.074 A 
ATOM     62  C   UNL A   1      40.447  34.295  32.039  1.00  0.00     0.031 C 
ATOM     63  C   UNL A   1      42.626  33.230  32.555  1.00  0.00     0.031 A 
BRANCH  50  64
ATOM     64  C   UNL A   1      45.889  28.029  31.777  1.00  0.00    -0.014 A 
ATOM     65  C   UNL A   1      46.977  28.049  30.884  1.00  0.00     0.010 A 
ATOM     66  C   UNL A   1      46.001  27.293  32.970  1.00  0.00     0.010 A 
ATOM     67  C   UNL A   1      48.130  27.309  31.154  1.00  0.00     0.020 A 
ATOM     68  C   UNL A   1      47.167  26.577  33.259  1.00  0.00     0.020 A 
ATOM     69  C   UNL A   1      48.215  26.574  32.339  1.00  0.00     0.054 A 
BRANCH  69  70
ATOM     70  S   UNL A   1      49.730  25.632  32.668  1.00  0.00     0.124 S 
ATOM     71  O   UNL A   1      50.094  25.170  31.331  1.00  0.00    -0.237 OA
ATOM     72  O   UNL A   1      50.615  26.640  33.246  1.00  0.00    -0.237 OA
ATOM     73  O   UNL A   1      49.295  24.586  33.591  1.00  0.00    -0.744 OA
ENDBRANCH  69  70
ENDBRANCH  50  64
BRANCH  51  74
ATOM     74  C   UNL A   1      37.246  32.663  29.821  1.00  0.00    -0.014 A 
ATOM     75  C   UNL A   1      36.194  32.604  30.751  1.00  0.00     0.010 A 
ATOM     76  C   UNL A   1      37.066  33.395  28.633  1.00  0.00     0.010 A 
ATOM     77  C   UNL A   1      34.980  33.249  30.492  1.00  0.00     0.020 A 
ATOM     78  C   UNL A   1      35.866  34.066  28.384  1.00  0.00     0.020 A 
ATOM     79  C   UNL A   1      34.825  33.980  29.311  1.00  0.00     0.054 A 
BRANCH  79  80
ATOM     80  S   UNL A   1      33.262  34.855  29.024  1.00  0.00     0.124 S 
ATOM     81  O   UNL A   1      33.724  36.161  28.567  1.00  0.00    -0.237 OA
ATOM     82  O   UNL A   1      32.615  34.021  28.014  1.00  0.00    -0.237 OA
ATOM     83  O   UNL A   1      32.617  34.842  30.335  1.00  0.00    -0.744 OA
ENDBRANCH  79  80
ENDBRANCH  51  74
BRANCH  63  84
ATOM     84  C   UNL A   1      43.046  34.502  33.242  1.00  0.00    -0.014 A 
ATOM     85  C   UNL A   1      43.078  34.607  34.644  1.00  0.00     0.010 A 
ATOM     86  C   UNL A   1      43.469  35.597  32.465  1.00  0.00     0.010 A 
ATOM     87  C   UNL A   1      43.490  35.795  35.254  1.00  0.00     0.020 A 
ATOM     88  C   UNL A   1      43.913  36.775  33.071  1.00  0.00     0.020 A 
ATOM     89  C   UNL A   1      43.905  36.871  34.463  1.00  0.00     0.054 A 
BRANCH  89  90
ATOM     90  S   UNL A   1      44.475  38.388  35.279  1.00  0.00     0.124 S 
ATOM     91  O   UNL A   1      45.926  38.229  35.237  1.00  0.00    -0.237 OA
ATOM     92  O   UNL A   1      43.932  39.437  34.420  1.00  0.00    -0.237 OA
ATOM     93  O   UNL A   1      43.878  38.311  36.611  1.00  0.00    -0.744 OA
ENDBRANCH  89  90
ENDBRANCH  63  84
ENDBRANCH  37  38
ENDBRANCH  29  32
ENDBRANCH  27  28
ENDBRANCH   1  27
TORSDOF 16
ENDMDL
MODEL 3
REMARK VINA RESULT:     -10.6      2.833      9.687
REMARK SMILES C[C@@H]1[C@@H](C(=O)NCCCCNC(=O)c2ccc(-c3c4nc(c(-c5ccc(S(=O)(=O)[O-])cc5)c5ccc([nH]5)c(-c5ccc(S(=O)(=O)[O-])cc5)c5nc(c(-c6ccc(S(=O)(=O)[O-])cc6)c6ccc3[nH]6)C=C5)C=C4)cc2)CCN1C(=O)[C@@H]1C[C@@H]2CCCC[C@@H]2[NH2+]1
REMARK SMILES IDX 9 1 8 2 7 3 6 4 4 5 5 6 3 8 1 9 2 10 76 11 74 12 75 13 77 14
REMARK SMILES IDX 78 15 79 16 80 17 87 18 81 19 86 20 82 23 85 24 83 25 84 26
REMARK SMILES IDX 10 27 11 28 12 29 13 31 14 32 15 33 73 34 16 35 72 36 17 37
REMARK SMILES IDX 18 38 19 39 66 40 20 41 71 42 65 43 67 44 21 45 70 46 64 47
REMARK SMILES IDX 63 48 22 50 52 51 33 52 51 53 34 54 37 55 50 56 68 57 35 58
REMARK SMILES IDX 36 59 49 61 69 62 38 63 23 64 24 65 32 66 25 67 31 68 26 69
REMARK SMILES IDX 27 70 28 71 29 72 30 73 53 74 54 75 62 76 55 77 61 78 56 79
REMARK SMILES IDX 57 80 58 81 59 82 60 83 39 84 40 85 48 86 41 87 47 88 42 89
REMARK SMILES IDX 43 90 44 91 45 92 46 93
REMARK H PARENT 6 7 87 21 87 22 11 30 67 49 37 60
REMARK Flexibility Score: inf
ROOT
ATOM      1  C   UNL A   1      35.574  23.139  25.002  1.00  0.00     0.023 C 
ENDROOT
BRANCH   1   2
ATOM      2  C   UNL A   1      34.790  23.331  26.297  1.00  0.00     0.023 C 
BRANCH   2   3
ATOM      3  C   UNL A   1      33.368  23.845  26.130  1.00  0.00     0.116 C 
BRANCH   3   4
ATOM      4  N   UNL A   1      33.248  25.290  26.158  1.00  0.00    -0.356 N 
ATOM      5  C   UNL A   1      32.657  26.103  25.224  1.00  0.00     0.225 C 
ATOM      6  O   UNL A   1      32.618  27.313  25.436  1.00  0.00    -0.275 OA
ATOM      7  H   UNL A   1      33.638  25.742  26.940  1.00  0.00     0.163 HD
BRANCH   5   8
ATOM      8  C   UNL A   1      32.158  25.472  23.926  1.00  0.00     0.102 C 
ATOM      9  C   UNL A   1      32.389  25.709  21.451  1.00  0.00     0.032 C 
ATOM     10  C   UNL A   1      32.064  26.472  22.745  1.00  0.00     0.094 C 
ATOM     11  N   UNL A   1      30.675  26.980  22.793  1.00  0.00    -0.334 N 
ATOM     12  C   UNL A   1      30.718  24.960  24.001  1.00  0.00     0.037 C 
ATOM     13  C   UNL A   1      29.908  26.214  23.759  1.00  0.00     0.121 C 
BRANCH  11  14
ATOM     14  C   UNL A   1      30.237  28.278  22.541  1.00  0.00     0.281 C 
ATOM     15  O   UNL A   1      30.786  28.950  21.655  1.00  0.00    -0.268 OA
BRANCH  14  16
ATOM     16  C   UNL A   1      29.225  28.993  23.489  1.00  0.00     0.273 C 
ATOM     17  C   UNL A   1      27.773  29.110  23.096  1.00  0.00     0.085 C 
ATOM     18  N   UNL A   1      29.660  30.419  23.734  1.00  0.00    -0.333 N 
ATOM     19  C   UNL A   1      27.652  30.471  22.462  1.00  0.00     0.054 C 
ATOM     20  C   UNL A   1      28.544  31.312  23.361  1.00  0.00     0.186 C 
ATOM     21  H   UNL A   1      30.479  30.634  23.165  1.00  0.00     0.347 HD
ATOM     22  H   UNL A   1      29.903  30.550  24.716  1.00  0.00     0.347 HD
ATOM     23  C   UNL A   1      28.146  30.549  21.016  1.00  0.00     0.010 C 
ATOM     24  C   UNL A   1      28.955  32.639  22.698  1.00  0.00     0.065 C 
ATOM     25  C   UNL A   1      27.907  31.957  20.477  1.00  0.00     0.001 C 
ATOM     26  C   UNL A   1      27.984  33.027  21.574  1.00  0.00     0.006 C 
ENDBRANCH  14  16
ENDBRANCH  11  14
ENDBRANCH   5   8
ENDBRANCH   3   4
ENDBRANCH   2   3
ENDBRANCH   1   2
BRANCH   1  27
ATOM     27  C   UNL A   1      36.977  23.737  24.983  1.00  0.00     0.116 C 
BRANCH  27  28
ATOM     28  N   UNL A   1      38.017  22.777  25.331  1.00  0.00    -0.352 N 
ATOM     29  C   UNL A   1      39.162  22.955  26.070  1.00  0.00     0.251 C 
ATOM     30  H   UNL A   1      37.878  21.866  24.986  1.00  0.00     0.163 HD
ATOM     31  O   UNL A   1      39.990  22.046  26.139  1.00  0.00    -0.269 OA
BRANCH  29  32
ATOM     32  C   UNL A   1      39.415  24.242  26.748  1.00  0.00     0.039 A 
ATOM     33  C   UNL A   1      38.935  24.437  28.046  1.00  0.00     0.014 A 
ATOM     34  C   UNL A   1      40.147  25.250  26.115  1.00  0.00     0.014 A 
ATOM     35  C   UNL A   1      39.259  25.607  28.735  1.00  0.00     0.010 A 
ATOM     36  C   UNL A   1      40.549  26.369  26.837  1.00  0.00     0.010 A 
ATOM     37  C   UNL A   1      40.105  26.565  28.153  1.00  0.00    -0.014 A 
BRANCH  37  38
ATOM     38  C   UNL A   1      40.528  27.783  28.893  1.00  0.00     0.031 A 
ATOM     39  C   UNL A   1      41.878  27.825  29.561  1.00  0.00     0.074 A 
ATOM     40  C   UNL A   1      39.679  28.822  29.024  1.00  0.00     0.049 A 
ATOM     41  N   UNL A   1      42.401  28.764  30.309  1.00  0.00    -0.248 NA
ATOM     42  C   UNL A   1      42.742  26.646  29.390  1.00  0.00     0.031 C 
ATOM     43  C   UNL A   1      38.328  28.892  28.461  1.00  0.00     0.029 A 
ATOM     44  N   UNL A   1      39.824  30.020  29.680  1.00  0.00    -0.354 N 
ATOM     45  C   UNL A   1      43.640  28.280  30.711  1.00  0.00     0.074 A 
ATOM     46  C   UNL A   1      43.766  26.943  30.176  1.00  0.00     0.031 C 
ATOM     47  C   UNL A   1      37.784  30.081  28.767  1.00  0.00     0.029 A 
ATOM     48  C   UNL A   1      38.724  30.839  29.586  1.00  0.00     0.049 A 
ATOM     49  H   UNL A   1      40.640  30.268  30.172  1.00  0.00     0.167 HD
ATOM     50  C   UNL A   1      44.599  28.900  31.440  1.00  0.00     0.031 A 
ATOM     51  C   UNL A   1      38.493  32.062  30.104  1.00  0.00     0.031 A 
ATOM     52  C   UNL A   1      44.476  30.234  31.963  1.00  0.00     0.049 A 
ATOM     53  C   UNL A   1      39.568  32.727  30.922  1.00  0.00     0.074 A 
ATOM     54  C   UNL A   1      45.409  30.970  32.671  1.00  0.00     0.029 A 
ATOM     55  N   UNL A   1      43.349  31.033  31.837  1.00  0.00    -0.354 N 
ATOM     56  N   UNL A   1      40.757  32.276  31.242  1.00  0.00    -0.248 NA
ATOM     57  C   UNL A   1      39.274  34.071  31.437  1.00  0.00     0.031 C 
ATOM     58  C   UNL A   1      44.827  32.193  33.020  1.00  0.00     0.029 A 
ATOM     59  C   UNL A   1      43.556  32.246  32.471  1.00  0.00     0.049 A 
ATOM     60  H   UNL A   1      42.524  30.775  31.365  1.00  0.00     0.167 HD
ATOM     61  C   UNL A   1      41.367  33.297  31.964  1.00  0.00     0.074 A 
ATOM     62  C   UNL A   1      40.419  34.390  32.025  1.00  0.00     0.031 C 
ATOM     63  C   UNL A   1      42.604  33.328  32.521  1.00  0.00     0.031 A 
BRANCH  50  64
ATOM     64  C   UNL A   1      45.865  28.130  31.719  1.00  0.00    -0.014 A 
ATOM     65  C   UNL A   1      46.995  28.260  30.889  1.00  0.00     0.010 A 
ATOM     66  C   UNL A   1      45.937  27.283  32.840  1.00  0.00     0.010 A 
ATOM     67  C   UNL A   1      48.152  27.521  31.145  1.00  0.00     0.020 A 
ATOM     68  C   UNL A   1      47.105  26.567  33.118  1.00  0.00     0.020 A 
ATOM     69  C   UNL A   1      48.198  26.675  32.257  1.00  0.00     0.054 A 
BRANCH  69  70
ATOM     70  S   UNL A   1      49.718  25.738  32.571  1.00  0.00     0.124 S 
ATOM     71  O   UNL A   1      50.680  26.804  32.839  1.00  0.00    -0.237 OA
ATOM     72  O   UNL A   1      49.355  24.916  33.723  1.00  0.00    -0.237 OA
ATOM     73  O   UNL A   1      49.935  25.001  31.328  1.00  0.00    -0.744 OA
ENDBRANCH  69  70
ENDBRANCH  50  64
BRANCH  51  74
ATOM     74  C   UNL A   1      37.198  32.750  29.841  1.00  0.00    -0.014 A 
ATOM     75  C   UNL A   1      36.121  32.612  30.735  1.00  0.00     0.010 A 
ATOM     76  C   UNL A   1      37.038  33.560  28.702  1.00  0.00     0.010 A 
ATOM     77  C   UNL A   1      34.905  33.255  30.487  1.00  0.00     0.020 A 
ATOM     78  C   UNL A   1      35.833  34.228  28.465  1.00  0.00     0.020 A 
ATOM     79  C   UNL A   1      34.770  34.063  29.355  1.00  0.00     0.054 A 
BRANCH  79  80
ATOM     80  S   UNL A   1      33.200  34.932  29.084  1.00  0.00     0.124 S 
ATOM     81  O   UNL A   1      33.651  36.220  28.567  1.00  0.00    -0.237 OA
ATOM     82  O   UNL A   1      32.521  34.065  28.125  1.00  0.00    -0.237 OA
ATOM     83  O   UNL A   1      32.596  34.969  30.414  1.00  0.00    -0.744 OA
ENDBRANCH  79  80
ENDBRANCH  51  74
BRANCH  63  84
ATOM     84  C   UNL A   1      43.029  34.602  33.202  1.00  0.00    -0.014 A 
ATOM     85  C   UNL A   1      42.688  34.872  34.539  1.00  0.00     0.010 A 
ATOM     86  C   UNL A   1      43.833  35.522  32.502  1.00  0.00     0.010 A 
ATOM     87  C   UNL A   1      43.113  36.054  35.151  1.00  0.00     0.020 A 
ATOM     88  C   UNL A   1      44.286  36.689  33.120  1.00  0.00     0.020 A 
ATOM     89  C   UNL A   1      43.910  36.956  34.437  1.00  0.00     0.054 A 
BRANCH  89  90
ATOM     90  S   UNL A   1      44.482  38.463  35.266  1.00  0.00     0.124 S 
ATOM     91  O   UNL A   1      45.932  38.353  35.131  1.00  0.00    -0.237 OA
ATOM     92  O   UNL A   1      43.857  39.521  34.476  1.00  0.00    -0.237 OA
ATOM     93  O   UNL A   1      43.972  38.327  36.629  1.00  0.00    -0.744 OA
ENDBRANCH  89  90
ENDBRANCH  63  84
ENDBRANCH  37  38
ENDBRANCH  29  32
ENDBRANCH  27  28
ENDBRANCH   1  27
TORSDOF 16
ENDMDL
