MODEL 1
REMARK VINA RESULT:      -6.6      0.000      0.000
REMARK SMILES COC[C@@H](C)CC(=O)Nc1cccc(/C=C/C(=O)NCCCCNC(=O)c2ccc(-c3c4nc(c(-c5ccc(S(=O)(=O)[O-])cc5)c5ccc([nH]5)c(-c5ccc(S(=O)(=O)[O-])cc5)c5nc(c(-c6ccc(S(=O)(=O)[O-])cc6)c6ccc3[nH]6)C=C5)C=C4)cc2)c1
REMARK SMILES IDX 20 1 19 2 17 3 18 4 16 6 15 7 14 8 10 9 11 10 87 11 12 12
REMARK SMILES IDX 13 13 9 14 7 15 8 16 6 18 4 19 5 20 3 21 2 22 1 23 21 24
REMARK SMILES IDX 22 25 23 26 24 27 25 28 26 30 27 31 28 32 86 33 29 34 85 35
REMARK SMILES IDX 30 36 31 37 32 38 79 39 33 40 84 41 78 42 80 43 34 44 83 45
REMARK SMILES IDX 77 46 76 47 35 49 65 50 46 51 64 52 47 53 50 54 63 55 81 56
REMARK SMILES IDX 48 57 49 58 62 60 82 61 51 62 36 63 37 64 45 65 38 66 44 67
REMARK SMILES IDX 39 68 40 69 41 70 42 71 43 72 66 73 67 74 75 75 68 76 74 77
REMARK SMILES IDX 69 78 70 79 71 80 72 81 73 82 52 83 53 84 61 85 54 86 60 87
REMARK SMILES IDX 55 88 56 89 57 90 58 91 59 92
REMARK H PARENT 19 5 9 17 24 29 80 48 50 59
REMARK Flexibility Score: inf
ROOT
ATOM      1  C   UNL A   1      37.788  34.267  32.018  1.00  0.00     0.116 C 
ENDROOT
BRANCH   1   2
ATOM      2  N   UNL A   1      38.137  34.779  30.706  1.00  0.00    -0.353 N 
ATOM      3  C   UNL A   1      39.286  34.591  29.992  1.00  0.00     0.243 C 
ATOM      4  O   UNL A   1      39.308  34.832  28.786  1.00  0.00    -0.270 OA
ATOM      5  H   UNL A   1      37.453  35.338  30.272  1.00  0.00     0.163 HD
BRANCH   3   6
ATOM      6  C   UNL A   1      40.492  34.004  30.627  1.00  0.00     0.072 C 
ATOM      7  C   UNL A   1      41.360  33.193  30.001  1.00  0.00     0.014 C 
BRANCH   7   8
ATOM      8  C   UNL A   1      42.572  32.670  30.654  1.00  0.00    -0.023 A 
ATOM      9  C   UNL A   1      44.324  30.971  30.698  1.00  0.00     0.041 A 
ATOM     10  C   UNL A   1      44.937  31.621  31.764  1.00  0.00     0.026 A 
ATOM     11  C   UNL A   1      43.103  31.448  30.216  1.00  0.00     0.034 A 
ATOM     12  C   UNL A   1      44.394  32.815  32.249  1.00  0.00     0.003 A 
ATOM     13  C   UNL A   1      43.231  33.349  31.683  1.00  0.00     0.008 A 
BRANCH   9  14
ATOM     14  N   UNL A   1      44.893  29.798  30.181  1.00  0.00    -0.326 N 
ATOM     15  C   UNL A   1      45.680  29.662  29.060  1.00  0.00     0.224 C 
ATOM     16  O   UNL A   1      45.626  28.624  28.399  1.00  0.00    -0.275 OA
ATOM     17  H   UNL A   1      44.705  28.970  30.679  1.00  0.00     0.169 HD
BRANCH  15  18
ATOM     18  C   UNL A   1      46.794  30.687  28.833  1.00  0.00     0.106 C 
BRANCH  18  19
ATOM     19  C   UNL A   1      46.514  31.813  27.820  1.00  0.00     0.021 C 
ATOM     20  C   UNL A   1      46.956  33.169  28.381  1.00  0.00     0.010 C 
BRANCH  19  21
ATOM     21  C   UNL A   1      45.029  31.823  27.432  1.00  0.00     0.163 C 
BRANCH  21  22
ATOM     22  O   UNL A   1      44.800  31.689  26.032  1.00  0.00    -0.384 OA
ATOM     23  C   UNL A   1      44.333  32.905  25.449  1.00  0.00     0.194 C 
ENDBRANCH  21  22
ENDBRANCH  19  21
ENDBRANCH  18  19
ENDBRANCH  15  18
ENDBRANCH   9  14
ENDBRANCH   7   8
ENDBRANCH   3   6
ENDBRANCH   1   2
BRANCH   1  24
ATOM     24  C   UNL A   1      36.292  34.291  32.316  1.00  0.00     0.023 C 
BRANCH  24  25
ATOM     25  C   UNL A   1      35.387  34.072  31.103  1.00  0.00     0.023 C 
BRANCH  25  26
ATOM     26  C   UNL A   1      34.638  32.739  31.057  1.00  0.00     0.116 C 
BRANCH  26  27
ATOM     27  N   UNL A   1      34.274  32.313  29.713  1.00  0.00    -0.352 N 
ATOM     28  C   UNL A   1      34.950  31.509  28.820  1.00  0.00     0.251 C 
ATOM     29  H   UNL A   1      33.407  32.653  29.391  1.00  0.00     0.163 HD
ATOM     30  O   UNL A   1      34.520  31.357  27.684  1.00  0.00    -0.269 OA
BRANCH  28  31
ATOM     31  C   UNL A   1      36.219  30.853  29.220  1.00  0.00     0.039 A 
ATOM     32  C   UNL A   1      37.427  31.372  28.747  1.00  0.00     0.014 A 
ATOM     33  C   UNL A   1      36.226  29.741  30.065  1.00  0.00     0.014 A 
ATOM     34  C   UNL A   1      38.638  30.841  29.204  1.00  0.00     0.010 A 
ATOM     35  C   UNL A   1      37.430  29.269  30.585  1.00  0.00     0.010 A 
ATOM     36  C   UNL A   1      38.652  29.822  30.172  1.00  0.00    -0.014 A 
BRANCH  36  37
ATOM     37  C   UNL A   1      39.927  29.360  30.789  1.00  0.00     0.031 A 
ATOM     38  C   UNL A   1      40.465  30.022  32.031  1.00  0.00     0.074 A 
ATOM     39  C   UNL A   1      40.641  28.385  30.187  1.00  0.00     0.049 A 
ATOM     40  N   UNL A   1      41.579  29.780  32.676  1.00  0.00    -0.248 NA
ATOM     41  C   UNL A   1      39.663  31.111  32.613  1.00  0.00     0.031 C 
ATOM     42  C   UNL A   1      40.263  27.699  28.947  1.00  0.00     0.029 A 
ATOM     43  N   UNL A   1      41.838  27.805  30.530  1.00  0.00    -0.354 N 
ATOM     44  C   UNL A   1      41.619  30.694  33.724  1.00  0.00     0.074 A 
ATOM     45  C   UNL A   1      40.442  31.525  33.602  1.00  0.00     0.031 C 
ATOM     46  C   UNL A   1      41.191  26.774  28.654  1.00  0.00     0.029 A 
ATOM     47  C   UNL A   1      42.253  26.828  29.653  1.00  0.00     0.049 A 
ATOM     48  H   UNL A   1      42.351  28.063  31.330  1.00  0.00     0.167 HD
ATOM     49  C   UNL A   1      42.541  30.816  34.708  1.00  0.00     0.031 A 
ATOM     50  C   UNL A   1      43.365  26.066  29.643  1.00  0.00     0.031 A 
ATOM     51  C   UNL A   1      43.704  29.978  34.839  1.00  0.00     0.049 A 
ATOM     52  C   UNL A   1      44.374  26.225  30.749  1.00  0.00     0.074 A 
ATOM     53  C   UNL A   1      44.657  29.982  35.843  1.00  0.00     0.029 A 
ATOM     54  N   UNL A   1      44.078  28.991  33.940  1.00  0.00    -0.354 N 
ATOM     55  N   UNL A   1      44.347  27.039  31.778  1.00  0.00    -0.248 NA
ATOM     56  C   UNL A   1      45.557  25.355  30.700  1.00  0.00     0.031 C 
ATOM     57  C   UNL A   1      45.639  29.042  35.519  1.00  0.00     0.029 A 
ATOM     58  C   UNL A   1      45.262  28.402  34.349  1.00  0.00     0.049 A 
ATOM     59  H   UNL A   1      43.576  28.746  33.129  1.00  0.00     0.167 HD
ATOM     60  C   UNL A   1      45.493  26.757  32.512  1.00  0.00     0.074 A 
ATOM     61  C   UNL A   1      46.180  25.685  31.822  1.00  0.00     0.031 C 
ATOM     62  C   UNL A   1      45.938  27.336  33.655  1.00  0.00     0.031 A 
BRANCH  49  63
ATOM     63  C   UNL A   1      42.335  31.902  35.735  1.00  0.00    -0.014 A 
ATOM     64  C   UNL A   1      41.590  31.666  36.904  1.00  0.00     0.010 A 
ATOM     65  C   UNL A   1      42.962  33.151  35.565  1.00  0.00     0.010 A 
ATOM     66  C   UNL A   1      41.452  32.667  37.870  1.00  0.00     0.020 A 
ATOM     67  C   UNL A   1      42.851  34.144  36.542  1.00  0.00     0.020 A 
ATOM     68  C   UNL A   1      42.086  33.899  37.683  1.00  0.00     0.054 A 
BRANCH  68  69
ATOM     69  S   UNL A   1      41.930  35.160  38.979  1.00  0.00     0.124 S 
ATOM     70  O   UNL A   1      41.581  36.348  38.203  1.00  0.00    -0.237 OA
ATOM     71  O   UNL A   1      40.862  34.624  39.819  1.00  0.00    -0.237 OA
ATOM     72  O   UNL A   1      43.253  35.188  39.597  1.00  0.00    -0.744 OA
ENDBRANCH  68  69
ENDBRANCH  49  63
BRANCH  50  73
ATOM     73  C   UNL A   1      43.590  25.081  28.547  1.00  0.00    -0.014 A 
ATOM     74  C   UNL A   1      44.353  25.423  27.417  1.00  0.00     0.010 A 
ATOM     75  C   UNL A   1      43.027  23.793  28.624  1.00  0.00     0.010 A 
ATOM     76  C   UNL A   1      44.523  24.510  26.371  1.00  0.00     0.020 A 
ATOM     77  C   UNL A   1      43.222  22.866  27.596  1.00  0.00     0.020 A 
ATOM     78  C   UNL A   1      43.955  23.237  26.467  1.00  0.00     0.054 A 
BRANCH  78  79
ATOM     79  S   UNL A   1      44.211  22.058  25.111  1.00  0.00     0.124 S 
ATOM     80  O   UNL A   1      43.324  20.963  25.490  1.00  0.00    -0.237 OA
ATOM     81  O   UNL A   1      43.800  22.832  23.941  1.00  0.00    -0.237 OA
ATOM     82  O   UNL A   1      45.640  21.761  25.182  1.00  0.00    -0.744 OA
ENDBRANCH  78  79
ENDBRANCH  50  73
BRANCH  62  83
ATOM     83  C   UNL A   1      47.211  26.798  34.257  1.00  0.00    -0.014 A 
ATOM     84  C   UNL A   1      48.467  27.320  33.901  1.00  0.00     0.010 A 
ATOM     85  C   UNL A   1      47.142  25.785  35.232  1.00  0.00     0.010 A 
ATOM     86  C   UNL A   1      49.633  26.814  34.482  1.00  0.00     0.020 A 
ATOM     87  C   UNL A   1      48.303  25.300  35.838  1.00  0.00     0.020 A 
ATOM     88  C   UNL A   1      49.543  25.806  35.448  1.00  0.00     0.054 A 
BRANCH  88  89
ATOM     89  S   UNL A   1      51.069  25.191  36.211  1.00  0.00     0.124 S 
ATOM     90  O   UNL A   1      51.215  26.081  37.360  1.00  0.00    -0.237 OA
ATOM     91  O   UNL A   1      50.731  23.806  36.529  1.00  0.00    -0.237 OA
ATOM     92  O   UNL A   1      52.073  25.357  35.163  1.00  0.00    -0.744 OA
ENDBRANCH  88  89
ENDBRANCH  62  83
ENDBRANCH  36  37
ENDBRANCH  28  31
ENDBRANCH  26  27
ENDBRANCH  25  26
ENDBRANCH  24  25
ENDBRANCH   1  24
TORSDOF 20
ENDMDL
MODEL 2
REMARK VINA RESULT:      -6.4      7.072     10.938
REMARK SMILES COC[C@@H](C)CC(=O)Nc1cccc(/C=C/C(=O)NCCCCNC(=O)c2ccc(-c3c4nc(c(-c5ccc(S(=O)(=O)[O-])cc5)c5ccc([nH]5)c(-c5ccc(S(=O)(=O)[O-])cc5)c5nc(c(-c6ccc(S(=O)(=O)[O-])cc6)c6ccc3[nH]6)C=C5)C=C4)cc2)c1
REMARK SMILES IDX 20 1 19 2 17 3 18 4 16 6 15 7 14 8 10 9 11 10 87 11 12 12
REMARK SMILES IDX 13 13 9 14 7 15 8 16 6 18 4 19 5 20 3 21 2 22 1 23 21 24
REMARK SMILES IDX 22 25 23 26 24 27 25 28 26 30 27 31 28 32 86 33 29 34 85 35
REMARK SMILES IDX 30 36 31 37 32 38 79 39 33 40 84 41 78 42 80 43 34 44 83 45
REMARK SMILES IDX 77 46 76 47 35 49 65 50 46 51 64 52 47 53 50 54 63 55 81 56
REMARK SMILES IDX 48 57 49 58 62 60 82 61 51 62 36 63 37 64 45 65 38 66 44 67
REMARK SMILES IDX 39 68 40 69 41 70 42 71 43 72 66 73 67 74 75 75 68 76 74 77
REMARK SMILES IDX 69 78 70 79 71 80 72 81 73 82 52 83 53 84 61 85 54 86 60 87
REMARK SMILES IDX 55 88 56 89 57 90 58 91 59 92
REMARK H PARENT 19 5 9 17 24 29 80 48 50 59
REMARK Flexibility Score: inf
ROOT
ATOM      1  C   UNL A   1      43.995  40.641  27.240  1.00  0.00     0.116 C 
ENDROOT
BRANCH   1   2
ATOM      2  N   UNL A   1      42.563  40.875  27.233  1.00  0.00    -0.353 N 
ATOM      3  C   UNL A   1      41.730  41.055  26.167  1.00  0.00     0.243 C 
ATOM      4  O   UNL A   1      40.515  40.937  26.308  1.00  0.00    -0.270 OA
ATOM      5  H   UNL A   1      42.134  40.909  28.119  1.00  0.00     0.163 HD
BRANCH   3   6
ATOM      6  C   UNL A   1      42.273  41.294  24.806  1.00  0.00     0.072 C 
ATOM      7  C   UNL A   1      42.148  42.448  24.132  1.00  0.00     0.014 C 
BRANCH   7   8
ATOM      8  C   UNL A   1      42.744  42.661  22.801  1.00  0.00    -0.023 A 
ATOM      9  C   UNL A   1      42.389  43.067  20.421  1.00  0.00     0.041 A 
ATOM     10  C   UNL A   1      43.763  43.157  20.225  1.00  0.00     0.026 A 
ATOM     11  C   UNL A   1      41.899  42.729  21.684  1.00  0.00     0.034 A 
ATOM     12  C   UNL A   1      44.626  43.041  21.319  1.00  0.00     0.003 A 
ATOM     13  C   UNL A   1      44.119  42.816  22.604  1.00  0.00     0.008 A 
BRANCH   9  14
ATOM     14  N   UNL A   1      41.520  43.230  19.332  1.00  0.00    -0.326 N 
ATOM     15  C   UNL A   1      41.533  44.224  18.380  1.00  0.00     0.224 C 
ATOM     16  O   UNL A   1      40.474  44.601  17.878  1.00  0.00    -0.275 OA
ATOM     17  H   UNL A   1      40.814  42.552  19.238  1.00  0.00     0.169 HD
BRANCH  15  18
ATOM     18  C   UNL A   1      42.881  44.629  17.779  1.00  0.00     0.106 C 
BRANCH  18  19
ATOM     19  C   UNL A   1      43.305  46.101  17.937  1.00  0.00     0.021 C 
ATOM     20  C   UNL A   1      42.817  46.935  16.747  1.00  0.00     0.010 C 
BRANCH  19  21
ATOM     21  C   UNL A   1      44.827  46.202  18.107  1.00  0.00     0.163 C 
BRANCH  21  22
ATOM     22  O   UNL A   1      45.232  47.132  19.108  1.00  0.00    -0.384 OA
ATOM     23  C   UNL A   1      45.274  46.535  20.404  1.00  0.00     0.194 C 
ENDBRANCH  21  22
ENDBRANCH  19  21
ENDBRANCH  18  19
ENDBRANCH  15  18
ENDBRANCH   9  14
ENDBRANCH   7   8
ENDBRANCH   3   6
ENDBRANCH   1   2
BRANCH   1  24
ATOM     24  C   UNL A   1      44.421  39.370  26.512  1.00  0.00     0.023 C 
BRANCH  24  25
ATOM     25  C   UNL A   1      44.076  38.066  27.232  1.00  0.00     0.023 C 
BRANCH  25  26
ATOM     26  C   UNL A   1      44.756  37.845  28.584  1.00  0.00     0.116 C 
BRANCH  26  27
ATOM     27  N   UNL A   1      46.183  38.134  28.581  1.00  0.00    -0.352 N 
ATOM     28  C   UNL A   1      47.264  37.281  28.505  1.00  0.00     0.251 C 
ATOM     29  H   UNL A   1      46.413  39.090  28.643  1.00  0.00     0.163 HD
ATOM     30  O   UNL A   1      48.401  37.719  28.630  1.00  0.00    -0.269 OA
BRANCH  28  31
ATOM     31  C   UNL A   1      47.053  35.826  28.309  1.00  0.00     0.039 A 
ATOM     32  C   UNL A   1      47.165  34.971  29.408  1.00  0.00     0.014 A 
ATOM     33  C   UNL A   1      46.736  35.302  27.053  1.00  0.00     0.014 A 
ATOM     34  C   UNL A   1      46.856  33.614  29.269  1.00  0.00     0.010 A 
ATOM     35  C   UNL A   1      46.347  33.968  26.934  1.00  0.00     0.010 A 
ATOM     36  C   UNL A   1      46.389  33.110  28.043  1.00  0.00    -0.014 A 
BRANCH  36  37
ATOM     37  C   UNL A   1      45.902  31.708  27.920  1.00  0.00     0.031 A 
ATOM     38  C   UNL A   1      44.488  31.349  28.296  1.00  0.00     0.074 A 
ATOM     39  C   UNL A   1      46.758  30.739  27.534  1.00  0.00     0.049 A 
ATOM     40  N   UNL A   1      43.909  30.174  28.295  1.00  0.00    -0.248 NA
ATOM     41  C   UNL A   1      43.616  32.443  28.755  1.00  0.00     0.031 C 
ATOM     42  C   UNL A   1      48.171  30.940  27.196  1.00  0.00     0.029 A 
ATOM     43  N   UNL A   1      46.572  29.387  27.367  1.00  0.00    -0.354 N 
ATOM     44  C   UNL A   1      42.617  30.384  28.766  1.00  0.00     0.074 A 
ATOM     45  C   UNL A   1      42.511  31.791  29.088  1.00  0.00     0.031 C 
ATOM     46  C   UNL A   1      48.711  29.765  26.833  1.00  0.00     0.029 A 
ATOM     47  C   UNL A   1      47.702  28.718  26.956  1.00  0.00     0.049 A 
ATOM     48  H   UNL A   1      45.710  28.940  27.526  1.00  0.00     0.167 HD
ATOM     49  C   UNL A   1      41.607  29.493  28.901  1.00  0.00     0.031 A 
ATOM     50  C   UNL A   1      47.913  27.408  26.714  1.00  0.00     0.031 A 
ATOM     51  C   UNL A   1      41.707  28.097  28.566  1.00  0.00     0.049 A 
ATOM     52  C   UNL A   1      46.772  26.440  26.873  1.00  0.00     0.074 A 
ATOM     53  C   UNL A   1      40.716  27.131  28.602  1.00  0.00     0.029 A 
ATOM     54  N   UNL A   1      42.864  27.463  28.138  1.00  0.00    -0.354 N 
ATOM     55  N   UNL A   1      45.534  26.678  27.239  1.00  0.00    -0.248 NA
ATOM     56  C   UNL A   1      47.051  25.028  26.576  1.00  0.00     0.031 C 
ATOM     57  C   UNL A   1      41.287  25.903  28.258  1.00  0.00     0.029 A 
ATOM     58  C   UNL A   1      42.618  26.115  27.937  1.00  0.00     0.049 A 
ATOM     59  H   UNL A   1      43.732  27.906  27.998  1.00  0.00     0.167 HD
ATOM     60  C   UNL A   1      44.883  25.450  27.186  1.00  0.00     0.074 A 
ATOM     61  C   UNL A   1      45.855  24.478  26.734  1.00  0.00     0.031 C 
ATOM     62  C   UNL A   1      43.594  25.155  27.487  1.00  0.00     0.031 A 
BRANCH  49  63
ATOM     63  C   UNL A   1      40.290  29.997  29.436  1.00  0.00    -0.014 A 
ATOM     64  C   UNL A   1      40.109  30.246  30.809  1.00  0.00     0.010 A 
ATOM     65  C   UNL A   1      39.244  30.299  28.544  1.00  0.00     0.010 A 
ATOM     66  C   UNL A   1      38.899  30.761  31.282  1.00  0.00     0.020 A 
ATOM     67  C   UNL A   1      38.043  30.842  29.010  1.00  0.00     0.020 A 
ATOM     68  C   UNL A   1      37.874  31.058  30.379  1.00  0.00     0.054 A 
BRANCH  68  69
ATOM     69  S   UNL A   1      36.334  31.774  31.019  1.00  0.00     0.124 S 
ATOM     70  O   UNL A   1      35.941  30.791  32.025  1.00  0.00    -0.237 OA
ATOM     71  O   UNL A   1      36.775  33.065  31.541  1.00  0.00    -0.237 OA
ATOM     72  O   UNL A   1      35.469  31.842  29.844  1.00  0.00    -0.744 OA
ENDBRANCH  68  69
ENDBRANCH  49  63
BRANCH  50  73
ATOM     73  C   UNL A   1      49.261  26.930  26.294  1.00  0.00    -0.014 A 
ATOM     74  C   UNL A   1      50.164  26.406  27.237  1.00  0.00     0.010 A 
ATOM     75  C   UNL A   1      49.655  27.008  24.946  1.00  0.00     0.010 A 
ATOM     76  C   UNL A   1      51.444  26.001  26.845  1.00  0.00     0.020 A 
ATOM     77  C   UNL A   1      50.921  26.573  24.545  1.00  0.00     0.020 A 
ATOM     78  C   UNL A   1      51.814  26.088  25.502  1.00  0.00     0.054 A 
BRANCH  78  79
ATOM     79  S   UNL A   1      53.471  25.531  25.011  1.00  0.00     0.124 S 
ATOM     80  O   UNL A   1      53.657  26.217  23.736  1.00  0.00    -0.237 OA
ATOM     81  O   UNL A   1      54.302  26.006  26.115  1.00  0.00    -0.237 OA
ATOM     82  O   UNL A   1      53.331  24.078  24.927  1.00  0.00    -0.744 OA
ENDBRANCH  78  79
ENDBRANCH  50  73
BRANCH  62  83
ATOM     83  C   UNL A   1      43.145  23.728  27.303  1.00  0.00    -0.014 A 
ATOM     84  C   UNL A   1      42.904  22.888  28.404  1.00  0.00     0.010 A 
ATOM     85  C   UNL A   1      42.916  23.237  26.003  1.00  0.00     0.010 A 
ATOM     86  C   UNL A   1      42.477  21.572  28.208  1.00  0.00     0.020 A 
ATOM     87  C   UNL A   1      42.459  21.932  25.806  1.00  0.00     0.020 A 
ATOM     88  C   UNL A   1      42.257  21.102  26.909  1.00  0.00     0.054 A 
BRANCH  88  89
ATOM     89  S   UNL A   1      41.669  19.401  26.685  1.00  0.00     0.124 S 
ATOM     90  O   UNL A   1      40.787  19.229  27.835  1.00  0.00    -0.237 OA
ATOM     91  O   UNL A   1      41.002  19.462  25.386  1.00  0.00    -0.237 OA
ATOM     92  O   UNL A   1      42.894  18.604  26.713  1.00  0.00    -0.744 OA
ENDBRANCH  88  89
ENDBRANCH  62  83
ENDBRANCH  36  37
ENDBRANCH  28  31
ENDBRANCH  26  27
ENDBRANCH  25  26
ENDBRANCH  24  25
ENDBRANCH   1  24
TORSDOF 20
ENDMDL
MODEL 3
REMARK VINA RESULT:      -6.4      3.410     10.337
REMARK SMILES COC[C@@H](C)CC(=O)Nc1cccc(/C=C/C(=O)NCCCCNC(=O)c2ccc(-c3c4nc(c(-c5ccc(S(=O)(=O)[O-])cc5)c5ccc([nH]5)c(-c5ccc(S(=O)(=O)[O-])cc5)c5nc(c(-c6ccc(S(=O)(=O)[O-])cc6)c6ccc3[nH]6)C=C5)C=C4)cc2)c1
REMARK SMILES IDX 20 1 19 2 17 3 18 4 16 6 15 7 14 8 10 9 11 10 87 11 12 12
REMARK SMILES IDX 13 13 9 14 7 15 8 16 6 18 4 19 5 20 3 21 2 22 1 23 21 24
REMARK SMILES IDX 22 25 23 26 24 27 25 28 26 30 27 31 28 32 86 33 29 34 85 35
REMARK SMILES IDX 30 36 31 37 32 38 79 39 33 40 84 41 78 42 80 43 34 44 83 45
REMARK SMILES IDX 77 46 76 47 35 49 65 50 46 51 64 52 47 53 50 54 63 55 81 56
REMARK SMILES IDX 48 57 49 58 62 60 82 61 51 62 36 63 37 64 45 65 38 66 44 67
REMARK SMILES IDX 39 68 40 69 41 70 42 71 43 72 66 73 67 74 75 75 68 76 74 77
REMARK SMILES IDX 69 78 70 79 71 80 72 81 73 82 52 83 53 84 61 85 54 86 60 87
REMARK SMILES IDX 55 88 56 89 57 90 58 91 59 92
REMARK H PARENT 19 5 9 17 24 29 80 48 50 59
REMARK Flexibility Score: inf
ROOT
ATOM      1  C   UNL A   1      45.116  22.620  26.453  1.00  0.00     0.116 C 
ENDROOT
BRANCH   1   2
ATOM      2  N   UNL A   1      43.782  22.311  26.930  1.00  0.00    -0.353 N 
ATOM      3  C   UNL A   1      43.189  22.668  28.107  1.00  0.00     0.243 C 
ATOM      4  O   UNL A   1      41.968  22.591  28.230  1.00  0.00    -0.270 OA
ATOM      5  H   UNL A   1      43.228  21.770  26.322  1.00  0.00     0.163 HD
BRANCH   3   6
ATOM      6  C   UNL A   1      43.986  23.245  29.218  1.00  0.00     0.072 C 
ATOM      7  C   UNL A   1      43.851  24.501  29.675  1.00  0.00     0.014 C 
BRANCH   7   8
ATOM      8  C   UNL A   1      44.629  25.020  30.813  1.00  0.00    -0.023 A 
ATOM      9  C   UNL A   1      45.032  24.996  33.220  1.00  0.00     0.041 A 
ATOM     10  C   UNL A   1      46.098  25.875  33.057  1.00  0.00     0.026 A 
ATOM     11  C   UNL A   1      44.254  24.652  32.113  1.00  0.00     0.034 A 
ATOM     12  C   UNL A   1      46.457  26.295  31.772  1.00  0.00     0.003 A 
ATOM     13  C   UNL A   1      45.740  25.852  30.654  1.00  0.00     0.008 A 
BRANCH   9  14
ATOM     14  N   UNL A   1      44.701  24.538  34.504  1.00  0.00    -0.326 N 
ATOM     15  C   UNL A   1      45.083  23.361  35.107  1.00  0.00     0.224 C 
ATOM     16  O   UNL A   1      44.323  22.811  35.906  1.00  0.00    -0.275 OA
ATOM     17  H   UNL A   1      44.124  25.129  35.038  1.00  0.00     0.169 HD
BRANCH  15  18
ATOM     18  C   UNL A   1      46.544  22.925  34.978  1.00  0.00     0.106 C 
BRANCH  18  19
ATOM     19  C   UNL A   1      46.920  21.553  35.567  1.00  0.00     0.021 C 
ATOM     20  C   UNL A   1      47.348  21.692  37.033  1.00  0.00     0.010 C 
BRANCH  19  21
ATOM     21  C   UNL A   1      48.019  20.893  34.722  1.00  0.00     0.163 C 
BRANCH  21  22
ATOM     22  O   UNL A   1      47.607  19.686  34.086  1.00  0.00    -0.384 OA
ATOM     23  C   UNL A   1      48.448  19.352  32.981  1.00  0.00     0.194 C 
ENDBRANCH  21  22
ENDBRANCH  19  21
ENDBRANCH  18  19
ENDBRANCH  15  18
ENDBRANCH   9  14
ENDBRANCH   7   8
ENDBRANCH   3   6
ENDBRANCH   1   2
BRANCH   1  24
ATOM     24  C   UNL A   1      45.180  23.825  25.519  1.00  0.00     0.023 C 
BRANCH  24  25
ATOM     25  C   UNL A   1      45.521  25.152  26.197  1.00  0.00     0.023 C 
BRANCH  25  26
ATOM     26  C   UNL A   1      44.360  26.131  26.378  1.00  0.00     0.116 C 
BRANCH  26  27
ATOM     27  N   UNL A   1      43.211  25.848  25.529  1.00  0.00    -0.352 N 
ATOM     28  C   UNL A   1      41.880  26.168  25.695  1.00  0.00     0.251 C 
ATOM     29  H   UNL A   1      43.418  25.349  24.705  1.00  0.00     0.163 HD
ATOM     30  O   UNL A   1      41.044  25.739  24.911  1.00  0.00    -0.269 OA
BRANCH  28  31
ATOM     31  C   UNL A   1      41.452  27.005  26.843  1.00  0.00     0.039 A 
ATOM     32  C   UNL A   1      40.729  26.411  27.880  1.00  0.00     0.014 A 
ATOM     33  C   UNL A   1      41.769  28.364  26.908  1.00  0.00     0.014 A 
ATOM     34  C   UNL A   1      40.417  27.153  29.025  1.00  0.00     0.010 A 
ATOM     35  C   UNL A   1      41.533  29.078  28.082  1.00  0.00     0.010 A 
ATOM     36  C   UNL A   1      40.866  28.478  29.161  1.00  0.00    -0.014 A 
BRANCH  36  37
ATOM     37  C   UNL A   1      40.685  29.227  30.436  1.00  0.00     0.031 A 
ATOM     38  C   UNL A   1      39.581  30.241  30.582  1.00  0.00     0.074 A 
ATOM     39  C   UNL A   1      41.563  29.043  31.445  1.00  0.00     0.049 A 
ATOM     40  N   UNL A   1      39.303  31.016  31.601  1.00  0.00    -0.248 NA
ATOM     41  C   UNL A   1      38.685  30.430  29.428  1.00  0.00     0.031 C 
ATOM     42  C   UNL A   1      42.712  28.133  31.415  1.00  0.00     0.029 A 
ATOM     43  N   UNL A   1      41.633  29.617  32.692  1.00  0.00    -0.354 N 
ATOM     44  C   UNL A   1      38.218  31.791  31.208  1.00  0.00     0.074 A 
ATOM     45  C   UNL A   1      37.916  31.428  29.841  1.00  0.00     0.031 C 
ATOM     46  C   UNL A   1      43.350  28.188  32.595  1.00  0.00     0.029 A 
ATOM     47  C   UNL A   1      42.689  29.167  33.451  1.00  0.00     0.049 A 
ATOM     48  H   UNL A   1      40.987  30.286  33.012  1.00  0.00     0.167 HD
ATOM     49  C   UNL A   1      37.525  32.707  31.924  1.00  0.00     0.031 A 
ATOM     50  C   UNL A   1      43.092  29.507  34.692  1.00  0.00     0.031 A 
ATOM     51  C   UNL A   1      37.815  33.057  33.290  1.00  0.00     0.049 A 
ATOM     52  C   UNL A   1      42.303  30.529  35.465  1.00  0.00     0.074 A 
ATOM     53  C   UNL A   1      37.124  33.923  34.120  1.00  0.00     0.029 A 
ATOM     54  N   UNL A   1      38.883  32.567  34.026  1.00  0.00    -0.354 N 
ATOM     55  N   UNL A   1      41.227  31.188  35.101  1.00  0.00    -0.248 NA
ATOM     56  C   UNL A   1      42.774  30.847  36.820  1.00  0.00     0.031 C 
ATOM     57  C   UNL A   1      37.809  34.004  35.336  1.00  0.00     0.029 A 
ATOM     58  C   UNL A   1      38.886  33.135  35.289  1.00  0.00     0.049 A 
ATOM     59  H   UNL A   1      39.541  31.912  33.700  1.00  0.00     0.167 HD
ATOM     60  C   UNL A   1      40.878  31.973  36.194  1.00  0.00     0.074 A 
ATOM     61  C   UNL A   1      41.843  31.694  37.237  1.00  0.00     0.031 C 
ATOM     62  C   UNL A   1      39.852  32.850  36.321  1.00  0.00     0.031 A 
BRANCH  49  63
ATOM     63  C   UNL A   1      36.372  33.406  31.247  1.00  0.00    -0.014 A 
ATOM     64  C   UNL A   1      35.326  33.977  31.994  1.00  0.00     0.010 A 
ATOM     65  C   UNL A   1      36.376  33.562  29.848  1.00  0.00     0.010 A 
ATOM     66  C   UNL A   1      34.292  34.666  31.354  1.00  0.00     0.020 A 
ATOM     67  C   UNL A   1      35.359  34.275  29.207  1.00  0.00     0.020 A 
ATOM     68  C   UNL A   1      34.317  34.812  29.964  1.00  0.00     0.054 A 
BRANCH  68  69
ATOM     69  S   UNL A   1      32.987  35.756  29.168  1.00  0.00     0.124 S 
ATOM     70  O   UNL A   1      33.731  36.824  28.506  1.00  0.00    -0.237 OA
ATOM     71  O   UNL A   1      32.382  34.768  28.279  1.00  0.00    -0.237 OA
ATOM     72  O   UNL A   1      32.148  36.183  30.285  1.00  0.00    -0.744 OA
ENDBRANCH  68  69
ENDBRANCH  49  63
BRANCH  50  73
ATOM     73  C   UNL A   1      44.305  28.876  35.287  1.00  0.00    -0.014 A 
ATOM     74  C   UNL A   1      45.589  29.376  35.003  1.00  0.00     0.010 A 
ATOM     75  C   UNL A   1      44.182  27.760  36.134  1.00  0.00     0.010 A 
ATOM     76  C   UNL A   1      46.725  28.753  35.527  1.00  0.00     0.020 A 
ATOM     77  C   UNL A   1      45.313  27.154  36.687  1.00  0.00     0.020 A 
ATOM     78  C   UNL A   1      46.580  27.645  36.366  1.00  0.00     0.054 A 
BRANCH  78  79
ATOM     79  S   UNL A   1      48.068  26.868  37.057  1.00  0.00     0.124 S 
ATOM     80  O   UNL A   1      48.266  27.631  38.285  1.00  0.00    -0.237 OA
ATOM     81  O   UNL A   1      47.644  25.480  37.234  1.00  0.00    -0.237 OA
ATOM     82  O   UNL A   1      49.076  27.077  36.019  1.00  0.00    -0.744 OA
ENDBRANCH  78  79
ENDBRANCH  50  73
BRANCH  62  83
ATOM     83  C   UNL A   1      39.691  33.546  37.648  1.00  0.00    -0.014 A 
ATOM     84  C   UNL A   1      38.999  32.943  38.712  1.00  0.00     0.010 A 
ATOM     85  C   UNL A   1      40.288  34.806  37.845  1.00  0.00     0.010 A 
ATOM     86  C   UNL A   1      38.873  33.603  39.938  1.00  0.00     0.020 A 
ATOM     87  C   UNL A   1      40.191  35.454  39.079  1.00  0.00     0.020 A 
ATOM     88  C   UNL A   1      39.471  34.856  40.113  1.00  0.00     0.054 A 
BRANCH  88  89
ATOM     89  S   UNL A   1      39.323  35.675  41.724  1.00  0.00     0.124 S 
ATOM     90  O   UNL A   1      37.894  35.970  41.787  1.00  0.00    -0.237 OA
ATOM     91  O   UNL A   1      39.793  34.647  42.650  1.00  0.00    -0.237 OA
ATOM     92  O   UNL A   1      40.195  36.841  41.602  1.00  0.00    -0.744 OA
ENDBRANCH  88  89
ENDBRANCH  62  83
ENDBRANCH  36  37
ENDBRANCH  28  31
ENDBRANCH  26  27
ENDBRANCH  25  26
ENDBRANCH  24  25
ENDBRANCH   1  24
TORSDOF 20
ENDMDL
