MODEL 1
REMARK VINA RESULT:     -10.9      0.000      0.000
REMARK SMILES NC(=O)c1ccc(Nc2ccc(C(=O)NCCCCNC(=O)c3ccc(-c4c5nc(c(-c6ccc(S(=O)(=O)[O-])cc6)c6ccc([nH]6)c(-c6ccc(S(=O)(=O)[O-])cc6)c6nc(c(-c7ccc(S(=O)(=O)[O-])cc7)c7ccc4[nH]7)C=C6)C=C5)cc3)c(Cl)c2)nn1
REMARK SMILES IDX 17 1 16 2 15 3 13 4 14 5 12 7 9 8 10 9 85 10 11 11 83 12
REMARK SMILES IDX 84 13 8 14 7 16 4 17 5 18 87 19 6 20 86 21 2 22 1 23 3 26
REMARK SMILES IDX 18 27 19 28 20 29 21 30 22 32 23 33 24 34 82 35 25 36 81 37
REMARK SMILES IDX 26 38 27 39 28 40 75 41 29 42 80 43 74 44 76 45 30 46 79 47
REMARK SMILES IDX 73 48 72 49 31 51 61 52 42 53 60 54 43 55 46 56 59 57 77 58
REMARK SMILES IDX 44 59 45 60 58 62 78 63 47 64 32 65 33 66 41 67 34 68 40 69
REMARK SMILES IDX 35 70 36 71 37 72 38 73 39 74 62 75 63 76 71 77 64 78 70 79
REMARK SMILES IDX 65 80 66 81 67 82 68 83 69 84 48 85 49 86 57 87 50 88 56 89
REMARK SMILES IDX 51 90 52 91 53 92 54 93 55 94
REMARK H PARENT 15 6 8 15 1 24 1 25 20 31 76 50 46 61
REMARK Flexibility Score: inf
ROOT
ATOM      1  C   UNL A   1      35.440  21.965  26.094  1.00  0.00     0.023 C 
ENDROOT
BRANCH   1   2
ATOM      2  C   UNL A   1      35.326  21.075  24.850  1.00  0.00     0.116 C 
BRANCH   2   3
ATOM      3  N   UNL A   1      34.100  20.318  24.907  1.00  0.00    -0.352 N 
ATOM      4  C   UNL A   1      32.771  20.627  24.952  1.00  0.00     0.252 C 
ATOM      5  O   UNL A   1      32.034  19.643  25.104  1.00  0.00    -0.269 OA
ATOM      6  H   UNL A   1      34.259  19.346  24.913  1.00  0.00     0.163 HD
BRANCH   4   7
ATOM      7  C   UNL A   1      32.113  21.965  24.764  1.00  0.00     0.058 A 
ATOM      8  C   UNL A   1      30.877  24.545  24.952  1.00  0.00     0.041 A 
ATOM      9  C   UNL A   1      30.952  23.721  26.065  1.00  0.00     0.027 A 
ATOM     10  C   UNL A   1      31.410  24.077  23.754  1.00  0.00     0.047 A 
ATOM     11  C   UNL A   1      31.523  22.447  25.960  1.00  0.00     0.017 A 
ATOM     12  C   UNL A   1      32.071  22.835  23.666  1.00  0.00     0.055 A 
ATOM     13  Cl  UNL A   1      32.927  22.691  22.183  1.00  0.00    -0.083 Cl
BRANCH   8  14
ATOM     14  N   UNL A   1      30.508  25.900  25.054  1.00  0.00    -0.339 N 
ATOM     15  H   UNL A   1      29.617  26.173  24.737  1.00  0.00     0.168 HD
BRANCH  14  16
ATOM     16  C   UNL A   1      31.368  26.882  25.595  1.00  0.00     0.153 A 
ATOM     17  C   UNL A   1      33.026  28.793  26.645  1.00  0.00     0.150 A 
ATOM     18  C   UNL A   1      31.969  28.338  27.415  1.00  0.00     0.040 A 
ATOM     19  N   UNL A   1      33.252  28.323  25.405  1.00  0.00    -0.143 NA
ATOM     20  C   UNL A   1      31.130  27.360  26.879  1.00  0.00     0.051 A 
ATOM     21  N   UNL A   1      32.421  27.353  24.890  1.00  0.00    -0.132 NA
BRANCH  17  22
ATOM     22  C   UNL A   1      33.988  29.807  27.151  1.00  0.00     0.269 C 
ATOM     23  N   UNL A   1      33.457  30.892  27.805  1.00  0.00    -0.364 N 
ATOM     24  H   UNL A   1      34.051  31.592  28.159  1.00  0.00     0.160 HD
ATOM     25  H   UNL A   1      32.483  30.970  27.918  1.00  0.00     0.160 HD
ATOM     26  O   UNL A   1      35.201  29.698  27.018  1.00  0.00    -0.268 OA
ENDBRANCH  17  22
ENDBRANCH  14  16
ENDBRANCH   8  14
ENDBRANCH   4   7
ENDBRANCH   2   3
ENDBRANCH   1   2
BRANCH   1  27
ATOM     27  C   UNL A   1      35.690  23.444  25.815  1.00  0.00     0.023 C 
BRANCH  27  28
ATOM     28  C   UNL A   1      37.011  23.741  25.119  1.00  0.00     0.116 C 
BRANCH  28  29
ATOM     29  N   UNL A   1      38.059  22.773  25.412  1.00  0.00    -0.352 N 
ATOM     30  C   UNL A   1      39.201  22.952  26.155  1.00  0.00     0.251 C 
ATOM     31  H   UNL A   1      37.933  21.874  25.030  1.00  0.00     0.163 HD
ATOM     32  O   UNL A   1      40.034  22.056  26.242  1.00  0.00    -0.269 OA
BRANCH  30  33
ATOM     33  C   UNL A   1      39.432  24.258  26.800  1.00  0.00     0.039 A 
ATOM     34  C   UNL A   1      38.970  24.450  28.102  1.00  0.00     0.014 A 
ATOM     35  C   UNL A   1      40.159  25.256  26.146  1.00  0.00     0.014 A 
ATOM     36  C   UNL A   1      39.300  25.624  28.777  1.00  0.00     0.010 A 
ATOM     37  C   UNL A   1      40.552  26.390  26.848  1.00  0.00     0.010 A 
ATOM     38  C   UNL A   1      40.127  26.584  28.170  1.00  0.00    -0.014 A 
BRANCH  38  39
ATOM     39  C   UNL A   1      40.574  27.782  28.921  1.00  0.00     0.031 A 
ATOM     40  C   UNL A   1      41.936  27.819  29.554  1.00  0.00     0.074 A 
ATOM     41  C   UNL A   1      39.725  28.820  29.069  1.00  0.00     0.049 A 
ATOM     42  N   UNL A   1      42.501  28.783  30.232  1.00  0.00    -0.248 NA
ATOM     43  C   UNL A   1      42.764  26.608  29.430  1.00  0.00     0.031 C 
ATOM     44  C   UNL A   1      38.353  28.873  28.557  1.00  0.00     0.029 A 
ATOM     45  N   UNL A   1      39.893  30.030  29.691  1.00  0.00    -0.354 N 
ATOM     46  C   UNL A   1      43.741  28.294  30.625  1.00  0.00     0.074 A 
ATOM     47  C   UNL A   1      43.825  26.928  30.156  1.00  0.00     0.031 C 
ATOM     48  C   UNL A   1      37.820  30.069  28.852  1.00  0.00     0.029 A 
ATOM     49  C   UNL A   1      38.796  30.853  29.601  1.00  0.00     0.049 A 
ATOM     50  H   UNL A   1      40.721  30.285  30.161  1.00  0.00     0.167 HD
ATOM     51  C   UNL A   1      44.729  28.933  31.294  1.00  0.00     0.031 A 
ATOM     52  C   UNL A   1      38.599  32.103  30.062  1.00  0.00     0.031 A 
ATOM     53  C   UNL A   1      44.643  30.295  31.749  1.00  0.00     0.049 A 
ATOM     54  C   UNL A   1      39.718  32.795  30.790  1.00  0.00     0.074 A 
ATOM     55  C   UNL A   1      45.613  31.054  32.378  1.00  0.00     0.029 A 
ATOM     56  N   UNL A   1      43.521  31.099  31.629  1.00  0.00    -0.354 N 
ATOM     57  N   UNL A   1      40.917  32.346  31.075  1.00  0.00    -0.248 NA
ATOM     58  C   UNL A   1      39.461  34.169  31.245  1.00  0.00     0.031 C 
ATOM     59  C   UNL A   1      45.061  32.303  32.683  1.00  0.00     0.029 A 
ATOM     60  C   UNL A   1      43.765  32.339  32.194  1.00  0.00     0.049 A 
ATOM     61  H   UNL A   1      42.674  30.829  31.204  1.00  0.00     0.167 HD
ATOM     62  C   UNL A   1      41.566  33.389  31.726  1.00  0.00     0.074 A 
ATOM     63  C   UNL A   1      40.633  34.498  31.772  1.00  0.00     0.031 C 
ATOM     64  C   UNL A   1      42.820  33.427  32.241  1.00  0.00     0.031 A 
BRANCH  51  65
ATOM     65  C   UNL A   1      45.991  28.158  31.573  1.00  0.00    -0.014 A 
ATOM     66  C   UNL A   1      47.062  28.162  30.660  1.00  0.00     0.010 A 
ATOM     67  C   UNL A   1      46.125  27.448  32.779  1.00  0.00     0.010 A 
ATOM     68  C   UNL A   1      48.224  27.436  30.927  1.00  0.00     0.020 A 
ATOM     69  C   UNL A   1      47.297  26.742  33.064  1.00  0.00     0.020 A 
ATOM     70  C   UNL A   1      48.334  26.728  32.127  1.00  0.00     0.054 A 
BRANCH  70  71
ATOM     71  S   UNL A   1      49.864  25.813  32.459  1.00  0.00     0.124 S 
ATOM     72  O   UNL A   1      49.527  25.097  33.686  1.00  0.00    -0.237 OA
ATOM     73  O   UNL A   1      50.005  24.981  31.266  1.00  0.00    -0.237 OA
ATOM     74  O   UNL A   1      50.871  26.861  32.606  1.00  0.00    -0.744 OA
ENDBRANCH  70  71
ENDBRANCH  51  65
BRANCH  52  75
ATOM     75  C   UNL A   1      37.299  32.787  29.823  1.00  0.00    -0.014 A 
ATOM     76  C   UNL A   1      37.046  33.429  28.599  1.00  0.00     0.010 A 
ATOM     77  C   UNL A   1      36.301  32.785  30.814  1.00  0.00     0.010 A 
ATOM     78  C   UNL A   1      35.825  34.072  28.375  1.00  0.00     0.020 A 
ATOM     79  C   UNL A   1      35.069  33.403  30.584  1.00  0.00     0.020 A 
ATOM     80  C   UNL A   1      34.842  34.053  29.370  1.00  0.00     0.054 A 
BRANCH  80  81
ATOM     81  S   UNL A   1      33.245  34.850  29.039  1.00  0.00     0.124 S 
ATOM     82  O   UNL A   1      32.673  33.969  28.026  1.00  0.00    -0.237 OA
ATOM     83  O   UNL A   1      32.597  34.815  30.348  1.00  0.00    -0.237 OA
ATOM     84  O   UNL A   1      33.620  36.182  28.573  1.00  0.00    -0.744 OA
ENDBRANCH  80  81
ENDBRANCH  52  75
BRANCH  64  85
ATOM     85  C   UNL A   1      43.260  34.715  32.884  1.00  0.00    -0.014 A 
ATOM     86  C   UNL A   1      43.895  35.721  32.135  1.00  0.00     0.010 A 
ATOM     87  C   UNL A   1      43.002  34.934  34.249  1.00  0.00     0.010 A 
ATOM     88  C   UNL A   1      44.300  36.908  32.749  1.00  0.00     0.020 A 
ATOM     89  C   UNL A   1      43.379  36.132  34.860  1.00  0.00     0.020 A 
ATOM     90  C   UNL A   1      44.042  37.105  34.109  1.00  0.00     0.054 A 
BRANCH  90  91
ATOM     91  S   UNL A   1      44.551  38.666  34.878  1.00  0.00     0.124 S 
ATOM     92  O   UNL A   1      43.578  39.607  34.329  1.00  0.00    -0.237 OA
ATOM     93  O   UNL A   1      44.414  38.382  36.305  1.00  0.00    -0.237 OA
ATOM     94  O   UNL A   1      45.924  38.849  34.414  1.00  0.00    -0.744 OA
ENDBRANCH  90  91
ENDBRANCH  64  85
ENDBRANCH  38  39
ENDBRANCH  30  33
ENDBRANCH  28  29
ENDBRANCH  27  28
ENDBRANCH   1  27
TORSDOF 17
ENDMDL
MODEL 2
REMARK VINA RESULT:     -10.7      3.152      8.936
REMARK SMILES NC(=O)c1ccc(Nc2ccc(C(=O)NCCCCNC(=O)c3ccc(-c4c5nc(c(-c6ccc(S(=O)(=O)[O-])cc6)c6ccc([nH]6)c(-c6ccc(S(=O)(=O)[O-])cc6)c6nc(c(-c7ccc(S(=O)(=O)[O-])cc7)c7ccc4[nH]7)C=C6)C=C5)cc3)c(Cl)c2)nn1
REMARK SMILES IDX 17 1 16 2 15 3 13 4 14 5 12 7 9 8 10 9 85 10 11 11 83 12
REMARK SMILES IDX 84 13 8 14 7 16 4 17 5 18 87 19 6 20 86 21 2 22 1 23 3 26
REMARK SMILES IDX 18 27 19 28 20 29 21 30 22 32 23 33 24 34 82 35 25 36 81 37
REMARK SMILES IDX 26 38 27 39 28 40 75 41 29 42 80 43 74 44 76 45 30 46 79 47
REMARK SMILES IDX 73 48 72 49 31 51 61 52 42 53 60 54 43 55 46 56 59 57 77 58
REMARK SMILES IDX 44 59 45 60 58 62 78 63 47 64 32 65 33 66 41 67 34 68 40 69
REMARK SMILES IDX 35 70 36 71 37 72 38 73 39 74 62 75 63 76 71 77 64 78 70 79
REMARK SMILES IDX 65 80 66 81 67 82 68 83 69 84 48 85 49 86 57 87 50 88 56 89
REMARK SMILES IDX 51 90 52 91 53 92 54 93 55 94
REMARK H PARENT 15 6 8 15 1 24 1 25 20 31 76 50 46 61
REMARK Flexibility Score: inf
ROOT
ATOM      1  C   UNL A   1      31.951  29.155  26.623  1.00  0.00     0.023 C 
ENDROOT
BRANCH   1   2
ATOM      2  C   UNL A   1      32.023  30.081  25.403  1.00  0.00     0.116 C 
BRANCH   2   3
ATOM      3  N   UNL A   1      30.979  29.732  24.469  1.00  0.00    -0.352 N 
ATOM      4  C   UNL A   1      30.788  28.734  23.558  1.00  0.00     0.252 C 
ATOM      5  O   UNL A   1      29.768  28.875  22.870  1.00  0.00    -0.269 OA
ATOM      6  H   UNL A   1      30.225  30.365  24.497  1.00  0.00     0.163 HD
BRANCH   4   7
ATOM      7  C   UNL A   1      31.597  27.485  23.353  1.00  0.00     0.058 A 
ATOM      8  C   UNL A   1      32.656  24.868  22.854  1.00  0.00     0.041 A 
ATOM      9  C   UNL A   1      31.303  25.040  23.103  1.00  0.00     0.027 A 
ATOM     10  C   UNL A   1      33.472  25.996  22.862  1.00  0.00     0.047 A 
ATOM     11  C   UNL A   1      30.796  26.314  23.384  1.00  0.00     0.017 A 
ATOM     12  C   UNL A   1      32.951  27.292  23.048  1.00  0.00     0.055 A 
ATOM     13  Cl  UNL A   1      34.115  28.492  22.650  1.00  0.00    -0.083 Cl
BRANCH   8  14
ATOM     14  N   UNL A   1      33.172  23.653  22.364  1.00  0.00    -0.339 N 
ATOM     15  H   UNL A   1      33.633  23.650  21.494  1.00  0.00     0.168 HD
BRANCH  14  16
ATOM     16  C   UNL A   1      33.054  22.437  23.074  1.00  0.00     0.153 A 
ATOM     17  C   UNL A   1      32.838  20.078  24.449  1.00  0.00     0.150 A 
ATOM     18  C   UNL A   1      33.660  21.069  24.960  1.00  0.00     0.040 A 
ATOM     19  N   UNL A   1      32.153  20.247  23.304  1.00  0.00    -0.143 NA
ATOM     20  C   UNL A   1      33.764  22.271  24.259  1.00  0.00     0.051 A 
ATOM     21  N   UNL A   1      32.257  21.440  22.627  1.00  0.00    -0.132 NA
BRANCH  17  22
ATOM     22  C   UNL A   1      32.643  18.781  25.149  1.00  0.00     0.269 C 
ATOM     23  N   UNL A   1      32.903  18.760  26.497  1.00  0.00    -0.364 N 
ATOM     24  H   UNL A   1      32.790  17.926  27.007  1.00  0.00     0.160 HD
ATOM     25  H   UNL A   1      33.202  19.579  26.954  1.00  0.00     0.160 HD
ATOM     26  O   UNL A   1      32.258  17.768  24.578  1.00  0.00    -0.268 OA
ENDBRANCH  17  22
ENDBRANCH  14  16
ENDBRANCH   8  14
ENDBRANCH   4   7
ENDBRANCH   2   3
ENDBRANCH   1   2
BRANCH   1  27
ATOM     27  C   UNL A   1      33.098  28.156  26.749  1.00  0.00     0.023 C 
BRANCH  27  28
ATOM     28  C   UNL A   1      34.424  28.768  27.180  1.00  0.00     0.116 C 
BRANCH  28  29
ATOM     29  N   UNL A   1      34.280  29.969  27.991  1.00  0.00    -0.352 N 
ATOM     30  C   UNL A   1      35.227  30.591  28.767  1.00  0.00     0.251 C 
ATOM     31  H   UNL A   1      33.389  30.389  27.982  1.00  0.00     0.163 HD
ATOM     32  O   UNL A   1      34.926  31.557  29.461  1.00  0.00    -0.269 OA
BRANCH  30  33
ATOM     33  C   UNL A   1      36.597  30.046  28.790  1.00  0.00     0.039 A 
ATOM     34  C   UNL A   1      37.357  30.100  27.621  1.00  0.00     0.014 A 
ATOM     35  C   UNL A   1      37.147  29.551  29.976  1.00  0.00     0.014 A 
ATOM     36  C   UNL A   1      38.697  29.719  27.661  1.00  0.00     0.010 A 
ATOM     37  C   UNL A   1      38.502  29.247  30.031  1.00  0.00     0.010 A 
ATOM     38  C   UNL A   1      39.290  29.329  28.874  1.00  0.00    -0.014 A 
BRANCH  38  39
ATOM     39  C   UNL A   1      40.741  29.030  28.947  1.00  0.00     0.031 A 
ATOM     40  C   UNL A   1      41.257  27.673  28.560  1.00  0.00     0.074 A 
ATOM     41  C   UNL A   1      41.584  29.975  29.409  1.00  0.00     0.049 A 
ATOM     42  N   UNL A   1      42.490  27.238  28.546  1.00  0.00    -0.248 NA
ATOM     43  C   UNL A   1      40.260  26.667  28.161  1.00  0.00     0.031 C 
ATOM     44  C   UNL A   1      41.192  31.307  29.877  1.00  0.00     0.029 A 
ATOM     45  N   UNL A   1      42.947  29.961  29.558  1.00  0.00    -0.354 N 
ATOM     46  C   UNL A   1      42.417  25.908  28.148  1.00  0.00     0.074 A 
ATOM     47  C   UNL A   1      41.015  25.592  27.984  1.00  0.00     0.031 C 
ATOM     48  C   UNL A   1      42.292  31.994  30.223  1.00  0.00     0.029 A 
ATOM     49  C   UNL A   1      43.462  31.143  30.034  1.00  0.00     0.049 A 
ATOM     50  H   UNL A   1      43.505  29.176  29.346  1.00  0.00     0.167 HD
ATOM     51  C   UNL A   1      43.427  25.037  27.918  1.00  0.00     0.031 A 
ATOM     52  C   UNL A   1      44.735  31.505  30.284  1.00  0.00     0.031 A 
ATOM     53  C   UNL A   1      44.820  25.361  28.074  1.00  0.00     0.049 A 
ATOM     54  C   UNL A   1      45.839  30.524  30.006  1.00  0.00     0.074 A 
ATOM     55  C   UNL A   1      45.923  24.570  27.803  1.00  0.00     0.029 A 
ATOM     56  N   UNL A   1      45.303  26.571  28.547  1.00  0.00    -0.354 N 
ATOM     57  N   UNL A   1      45.756  29.298  29.546  1.00  0.00    -0.248 NA
ATOM     58  C   UNL A   1      47.212  30.981  30.267  1.00  0.00     0.031 C 
ATOM     59  C   UNL A   1      47.071  25.285  28.159  1.00  0.00     0.029 A 
ATOM     60  C   UNL A   1      46.686  26.541  28.599  1.00  0.00     0.049 A 
ATOM     61  H   UNL A   1      44.744  27.340  28.807  1.00  0.00     0.167 HD
ATOM     62  C   UNL A   1      47.066  28.843  29.444  1.00  0.00     0.074 A 
ATOM     63  C   UNL A   1      47.922  29.934  29.869  1.00  0.00     0.031 C 
ATOM     64  C   UNL A   1      47.521  27.632  29.036  1.00  0.00     0.031 A 
BRANCH  51  65
ATOM     65  C   UNL A   1      43.056  23.646  27.472  1.00  0.00    -0.014 A 
ATOM     66  C   UNL A   1      43.196  23.254  26.127  1.00  0.00     0.010 A 
ATOM     67  C   UNL A   1      42.597  22.708  28.413  1.00  0.00     0.010 A 
ATOM     68  C   UNL A   1      42.844  21.964  25.725  1.00  0.00     0.020 A 
ATOM     69  C   UNL A   1      42.270  21.407  28.020  1.00  0.00     0.020 A 
ATOM     70  C   UNL A   1      42.380  21.049  26.674  1.00  0.00     0.054 A 
BRANCH  70  71
ATOM     71  S   UNL A   1      41.952  19.373  26.128  1.00  0.00     0.124 S 
ATOM     72  O   UNL A   1      42.859  19.183  24.999  1.00  0.00    -0.237 OA
ATOM     73  O   UNL A   1      42.244  18.566  27.310  1.00  0.00    -0.237 OA
ATOM     74  O   UNL A   1      40.537  19.472  25.779  1.00  0.00    -0.744 OA
ENDBRANCH  70  71
ENDBRANCH  51  65
BRANCH  52  75
ATOM     75  C   UNL A   1      45.031  32.869  30.801  1.00  0.00    -0.014 A 
ATOM     76  C   UNL A   1      45.262  33.934  29.912  1.00  0.00     0.010 A 
ATOM     77  C   UNL A   1      45.068  33.114  32.185  1.00  0.00     0.010 A 
ATOM     78  C   UNL A   1      45.541  35.214  30.398  1.00  0.00     0.020 A 
ATOM     79  C   UNL A   1      45.320  34.398  32.675  1.00  0.00     0.020 A 
ATOM     80  C   UNL A   1      45.566  35.439  31.778  1.00  0.00     0.054 A 
BRANCH  80  81
ATOM     81  S   UNL A   1      45.879  37.120  32.386  1.00  0.00     0.124 S 
ATOM     82  O   UNL A   1      44.525  37.613  32.621  1.00  0.00    -0.237 OA
ATOM     83  O   UNL A   1      46.682  36.880  33.582  1.00  0.00    -0.237 OA
ATOM     84  O   UNL A   1      46.595  37.753  31.281  1.00  0.00    -0.744 OA
ENDBRANCH  80  81
ENDBRANCH  52  75
BRANCH  64  85
ATOM     85  C   UNL A   1      49.012  27.430  29.016  1.00  0.00    -0.014 A 
ATOM     86  C   UNL A   1      49.684  26.870  30.116  1.00  0.00     0.010 A 
ATOM     87  C   UNL A   1      49.744  27.771  27.864  1.00  0.00     0.010 A 
ATOM     88  C   UNL A   1      51.069  26.692  30.081  1.00  0.00     0.020 A 
ATOM     89  C   UNL A   1      51.125  27.569  27.814  1.00  0.00     0.020 A 
ATOM     90  C   UNL A   1      51.781  27.045  28.931  1.00  0.00     0.054 A 
BRANCH  90  91
ATOM     91  S   UNL A   1      53.575  26.779  28.897  1.00  0.00     0.124 S 
ATOM     92  O   UNL A   1      54.083  28.146  28.807  1.00  0.00    -0.237 OA
ATOM     93  O   UNL A   1      53.823  26.098  30.165  1.00  0.00    -0.237 OA
ATOM     94  O   UNL A   1      53.781  25.959  27.705  1.00  0.00    -0.744 OA
ENDBRANCH  90  91
ENDBRANCH  64  85
ENDBRANCH  38  39
ENDBRANCH  30  33
ENDBRANCH  28  29
ENDBRANCH  27  28
ENDBRANCH   1  27
TORSDOF 17
ENDMDL
MODEL 3
REMARK VINA RESULT:     -10.4      4.114      5.303
REMARK SMILES NC(=O)c1ccc(Nc2ccc(C(=O)NCCCCNC(=O)c3ccc(-c4c5nc(c(-c6ccc(S(=O)(=O)[O-])cc6)c6ccc([nH]6)c(-c6ccc(S(=O)(=O)[O-])cc6)c6nc(c(-c7ccc(S(=O)(=O)[O-])cc7)c7ccc4[nH]7)C=C6)C=C5)cc3)c(Cl)c2)nn1
REMARK SMILES IDX 17 1 16 2 15 3 13 4 14 5 12 7 9 8 10 9 85 10 11 11 83 12
REMARK SMILES IDX 84 13 8 14 7 16 4 17 5 18 87 19 6 20 86 21 2 22 1 23 3 26
REMARK SMILES IDX 18 27 19 28 20 29 21 30 22 32 23 33 24 34 82 35 25 36 81 37
REMARK SMILES IDX 26 38 27 39 28 40 75 41 29 42 80 43 74 44 76 45 30 46 79 47
REMARK SMILES IDX 73 48 72 49 31 51 61 52 42 53 60 54 43 55 46 56 59 57 77 58
REMARK SMILES IDX 44 59 45 60 58 62 78 63 47 64 32 65 33 66 41 67 34 68 40 69
REMARK SMILES IDX 35 70 36 71 37 72 38 73 39 74 62 75 63 76 71 77 64 78 70 79
REMARK SMILES IDX 65 80 66 81 67 82 68 83 69 84 48 85 49 86 57 87 50 88 56 89
REMARK SMILES IDX 51 90 52 91 53 92 54 93 55 94
REMARK H PARENT 15 6 8 15 1 24 1 25 20 31 76 50 46 61
REMARK Flexibility Score: inf
ROOT
ATOM      1  C   UNL A   1      37.382  22.670  24.887  1.00  0.00     0.023 C 
ENDROOT
BRANCH   1   2
ATOM      2  C   UNL A   1      36.068  22.515  24.112  1.00  0.00     0.116 C 
BRANCH   2   3
ATOM      3  N   UNL A   1      35.335  21.383  24.624  1.00  0.00    -0.352 N 
ATOM      4  C   UNL A   1      34.098  21.195  25.169  1.00  0.00     0.252 C 
ATOM      5  O   UNL A   1      33.904  20.044  25.583  1.00  0.00    -0.269 OA
ATOM      6  H   UNL A   1      35.850  20.545  24.565  1.00  0.00     0.163 HD
BRANCH   4   7
ATOM      7  C   UNL A   1      32.952  22.164  25.250  1.00  0.00     0.058 A 
ATOM      8  C   UNL A   1      31.001  24.170  25.874  1.00  0.00     0.041 A 
ATOM      9  C   UNL A   1      31.854  23.692  26.858  1.00  0.00     0.027 A 
ATOM     10  C   UNL A   1      31.120  23.642  24.592  1.00  0.00     0.047 A 
ATOM     11  C   UNL A   1      32.780  22.686  26.557  1.00  0.00     0.017 A 
ATOM     12  C   UNL A   1      32.114  22.699  24.262  1.00  0.00     0.055 A 
ATOM     13  Cl  UNL A   1      32.249  22.510  22.560  1.00  0.00    -0.083 Cl
BRANCH   8  14
ATOM     14  N   UNL A   1      30.206  25.315  26.073  1.00  0.00    -0.339 N 
ATOM     15  H   UNL A   1      29.714  25.409  26.920  1.00  0.00     0.168 HD
BRANCH  14  16
ATOM     16  C   UNL A   1      30.090  26.336  25.102  1.00  0.00     0.153 A 
ATOM     17  C   UNL A   1      29.865  28.322  23.230  1.00  0.00     0.150 A 
ATOM     18  C   UNL A   1      30.996  28.291  24.029  1.00  0.00     0.040 A 
ATOM     19  N   UNL A   1      28.886  27.409  23.353  1.00  0.00    -0.143 NA
ATOM     20  C   UNL A   1      31.109  27.274  24.978  1.00  0.00     0.051 A 
ATOM     21  N   UNL A   1      29.013  26.407  24.288  1.00  0.00    -0.132 NA
BRANCH  17  22
ATOM     22  C   UNL A   1      29.680  29.349  22.171  1.00  0.00     0.269 C 
ATOM     23  N   UNL A   1      30.815  29.958  21.694  1.00  0.00    -0.364 N 
ATOM     24  H   UNL A   1      30.747  30.646  20.993  1.00  0.00     0.160 HD
ATOM     25  H   UNL A   1      31.696  29.708  22.054  1.00  0.00     0.160 HD
ATOM     26  O   UNL A   1      28.582  29.647  21.718  1.00  0.00    -0.268 OA
ENDBRANCH  17  22
ENDBRANCH  14  16
ENDBRANCH   8  14
ENDBRANCH   4   7
ENDBRANCH   2   3
ENDBRANCH   1   2
BRANCH   1  27
ATOM     27  C   UNL A   1      37.877  21.406  25.586  1.00  0.00     0.023 C 
BRANCH  27  28
ATOM     28  C   UNL A   1      39.251  21.538  26.230  1.00  0.00     0.116 C 
BRANCH  28  29
ATOM     29  N   UNL A   1      40.102  20.371  26.041  1.00  0.00    -0.352 N 
ATOM     30  C   UNL A   1      41.474  20.304  26.068  1.00  0.00     0.251 C 
ATOM     31  H   UNL A   1      39.634  19.521  25.874  1.00  0.00     0.163 HD
ATOM     32  O   UNL A   1      42.050  19.253  25.808  1.00  0.00    -0.269 OA
BRANCH  30  33
ATOM     33  C   UNL A   1      42.240  21.529  26.363  1.00  0.00     0.039 A 
ATOM     34  C   UNL A   1      42.470  22.438  25.329  1.00  0.00     0.014 A 
ATOM     35  C   UNL A   1      42.666  21.806  27.665  1.00  0.00     0.014 A 
ATOM     36  C   UNL A   1      43.068  23.663  25.619  1.00  0.00     0.010 A 
ATOM     37  C   UNL A   1      43.191  23.058  27.964  1.00  0.00     0.010 A 
ATOM     38  C   UNL A   1      43.396  23.998  26.944  1.00  0.00    -0.014 A 
BRANCH  38  39
ATOM     39  C   UNL A   1      43.929  25.342  27.275  1.00  0.00     0.031 A 
ATOM     40  C   UNL A   1      45.360  25.688  26.971  1.00  0.00     0.074 A 
ATOM     41  C   UNL A   1      43.129  26.233  27.895  1.00  0.00     0.049 A 
ATOM     42  N   UNL A   1      45.993  26.813  27.175  1.00  0.00    -0.248 NA
ATOM     43  C   UNL A   1      46.194  24.627  26.384  1.00  0.00     0.031 C 
ATOM     44  C   UNL A   1      41.743  25.989  28.301  1.00  0.00     0.029 A 
ATOM     45  N   UNL A   1      43.367  27.524  28.290  1.00  0.00    -0.354 N 
ATOM     46  C   UNL A   1      47.300  26.594  26.754  1.00  0.00     0.074 A 
ATOM     47  C   UNL A   1      47.382  25.212  26.333  1.00  0.00     0.031 C 
ATOM     48  C   UNL A   1      41.242  27.106  28.851  1.00  0.00     0.029 A 
ATOM     49  C   UNL A   1      42.278  28.133  28.867  1.00  0.00     0.049 A 
ATOM     50  H   UNL A   1      44.236  27.973  28.172  1.00  0.00     0.167 HD
ATOM     51  C   UNL A   1      48.330  27.470  26.700  1.00  0.00     0.031 A 
ATOM     52  C   UNL A   1      42.127  29.381  29.349  1.00  0.00     0.031 A 
ATOM     53  C   UNL A   1      48.238  28.846  27.110  1.00  0.00     0.049 A 
ATOM     54  C   UNL A   1      43.282  30.340  29.263  1.00  0.00     0.074 A 
ATOM     55  C   UNL A   1      49.205  29.832  27.034  1.00  0.00     0.029 A 
ATOM     56  N   UNL A   1      47.116  29.429  27.679  1.00  0.00    -0.354 N 
ATOM     57  N   UNL A   1      44.485  30.139  28.780  1.00  0.00    -0.248 NA
ATOM     58  C   UNL A   1      43.054  31.698  29.775  1.00  0.00     0.031 C 
ATOM     59  C   UNL A   1      48.684  31.000  27.602  1.00  0.00     0.029 A 
ATOM     60  C   UNL A   1      47.374  30.754  27.981  1.00  0.00     0.049 A 
ATOM     61  H   UNL A   1      46.262  28.967  27.843  1.00  0.00     0.167 HD
ATOM     62  C   UNL A   1      45.153  31.352  28.911  1.00  0.00     0.074 A 
ATOM     63  C   UNL A   1      44.211  32.285  29.499  1.00  0.00     0.031 C 
ATOM     64  C   UNL A   1      46.429  31.665  28.577  1.00  0.00     0.031 A 
BRANCH  51  65
ATOM     65  C   UNL A   1      49.647  26.961  26.175  1.00  0.00    -0.014 A 
ATOM     66  C   UNL A   1      50.583  26.351  27.031  1.00  0.00     0.010 A 
ATOM     67  C   UNL A   1      49.939  27.059  24.803  1.00  0.00     0.010 A 
ATOM     68  C   UNL A   1      51.802  25.887  26.533  1.00  0.00     0.020 A 
ATOM     69  C   UNL A   1      51.147  26.571  24.295  1.00  0.00     0.020 A 
ATOM     70  C   UNL A   1      52.078  26.004  25.168  1.00  0.00     0.054 A 
BRANCH  70  71
ATOM     71  S   UNL A   1      53.660  25.372  24.544  1.00  0.00     0.124 S 
ATOM     72  O   UNL A   1      53.602  25.753  23.136  1.00  0.00    -0.237 OA
ATOM     73  O   UNL A   1      54.636  26.100  25.351  1.00  0.00    -0.237 OA
ATOM     74  O   UNL A   1      53.589  23.937  24.805  1.00  0.00    -0.744 OA
ENDBRANCH  70  71
ENDBRANCH  51  65
BRANCH  52  75
ATOM     75  C   UNL A   1      40.822  29.802  29.928  1.00  0.00    -0.014 A 
ATOM     76  C   UNL A   1      39.759  30.182  29.091  1.00  0.00     0.010 A 
ATOM     77  C   UNL A   1      40.631  29.806  31.322  1.00  0.00     0.010 A 
ATOM     78  C   UNL A   1      38.534  30.577  29.636  1.00  0.00     0.020 A 
ATOM     79  C   UNL A   1      39.399  30.175  31.870  1.00  0.00     0.020 A 
ATOM     80  C   UNL A   1      38.361  30.569  31.024  1.00  0.00     0.054 A 
BRANCH  80  81
ATOM     81  S   UNL A   1      36.746  31.035  31.708  1.00  0.00     0.124 S 
ATOM     82  O   UNL A   1      36.269  29.767  32.249  1.00  0.00    -0.237 OA
ATOM     83  O   UNL A   1      37.102  32.052  32.695  1.00  0.00    -0.237 OA
ATOM     84  O   UNL A   1      36.017  31.536  30.545  1.00  0.00    -0.744 OA
ENDBRANCH  80  81
ENDBRANCH  52  75
BRANCH  64  85
ATOM     85  C   UNL A   1      46.876  33.081  28.825  1.00  0.00    -0.014 A 
ATOM     86  C   UNL A   1      46.695  34.081  27.854  1.00  0.00     0.010 A 
ATOM     87  C   UNL A   1      47.451  33.421  30.063  1.00  0.00     0.010 A 
ATOM     88  C   UNL A   1      47.120  35.389  28.100  1.00  0.00     0.020 A 
ATOM     89  C   UNL A   1      47.850  34.735  30.324  1.00  0.00     0.020 A 
ATOM     90  C   UNL A   1      47.697  35.706  29.333  1.00  0.00     0.054 A 
BRANCH  90  91
ATOM     91  S   UNL A   1      48.214  37.417  29.640  1.00  0.00     0.124 S 
ATOM     92  O   UNL A   1      46.969  38.034  30.093  1.00  0.00    -0.237 OA
ATOM     93  O   UNL A   1      49.247  37.263  30.662  1.00  0.00    -0.237 OA
ATOM     94  O   UNL A   1      48.697  37.873  28.339  1.00  0.00    -0.744 OA
ENDBRANCH  90  91
ENDBRANCH  64  85
ENDBRANCH  38  39
ENDBRANCH  30  33
ENDBRANCH  28  29
ENDBRANCH  27  28
ENDBRANCH   1  27
TORSDOF 17
ENDMDL
