MODEL 1
REMARK VINA RESULT:     -10.9      0.000      0.000
REMARK SMILES CCC(CC)(NC(=O)N[C@H]1CCCNC1=O)C(=O)NCCCCNC(=O)c1ccc(-c2c3nc(c(-c4ccc(S(=O)(=O)[O-])cc4)c4ccc([nH]4)c(-c4ccc(S(=O)(=O)[O-])cc4)c4nc(c(-c5ccc(S(=O)(=O)[O-])cc5)c5ccc2[nH]5)C=C4)C=C3)cc1
REMARK SMILES IDX 22 1 21 2 20 3 19 4 17 5 18 6 3 8 2 9 1 10 4 11 5 12 6 13
REMARK SMILES IDX 7 14 8 16 9 17 10 19 11 20 15 21 12 22 14 23 16 24 13 25
REMARK SMILES IDX 23 27 24 28 25 29 26 31 27 32 28 33 86 34 29 35 85 36 30 37
REMARK SMILES IDX 31 38 32 39 79 40 33 41 84 42 78 43 80 44 34 45 83 46 77 47
REMARK SMILES IDX 76 48 35 50 65 51 46 52 64 53 47 54 50 55 63 56 81 57 48 58
REMARK SMILES IDX 49 59 62 61 82 62 51 63 36 64 37 65 45 66 38 67 44 68 39 69
REMARK SMILES IDX 40 70 41 71 42 72 43 73 66 74 67 75 75 76 68 77 74 78 69 79
REMARK SMILES IDX 70 80 71 81 72 82 73 83 52 84 53 85 61 86 54 87 60 88 55 89
REMARK SMILES IDX 56 90 57 91 58 92 59 93
REMARK H PARENT 19 7 6 15 9 18 14 26 24 30 80 49 50 60
REMARK Flexibility Score: inf
ROOT
ATOM      1  C   UNL A   1      38.334  19.747  24.964  1.00  0.00     0.023 C 
ENDROOT
BRANCH   1   2
ATOM      2  C   UNL A   1      37.390  20.898  24.648  1.00  0.00     0.023 C 
BRANCH   2   3
ATOM      3  C   UNL A   1      35.914  20.818  25.065  1.00  0.00     0.116 C 
BRANCH   3   4
ATOM      4  N   UNL A   1      35.456  21.323  26.363  1.00  0.00    -0.354 N 
ATOM      5  C   UNL A   1      34.349  22.072  26.740  1.00  0.00     0.245 C 
ATOM      6  O   UNL A   1      33.855  21.827  27.847  1.00  0.00    -0.272 OA
ATOM      7  H   UNL A   1      36.047  21.084  27.113  1.00  0.00     0.163 HD
BRANCH   5   8
ATOM      8  C   UNL A   1      33.597  22.948  25.725  1.00  0.00     0.120 C 
BRANCH   8   9
ATOM      9  C   UNL A   1      33.017  24.338  26.088  1.00  0.00     0.035 C 
ATOM     10  C   UNL A   1      31.681  24.405  26.796  1.00  0.00     0.007 C 
ENDBRANCH   8   9
BRANCH   8  11
ATOM     11  C   UNL A   1      32.428  21.938  25.361  1.00  0.00     0.035 C 
ATOM     12  C   UNL A   1      32.589  20.781  24.391  1.00  0.00     0.007 C 
ENDBRANCH   8  11
BRANCH   8  13
ATOM     13  N   UNL A   1      34.610  23.213  24.701  1.00  0.00    -0.324 N 
ATOM     14  C   UNL A   1      34.548  23.561  23.409  1.00  0.00     0.316 C 
ATOM     15  H   UNL A   1      35.532  23.113  25.032  1.00  0.00     0.166 HD
ATOM     16  O   UNL A   1      35.615  23.395  22.799  1.00  0.00    -0.249 OA
ATOM     17  N   UNL A   1      33.586  24.125  22.688  1.00  0.00    -0.326 N 
ATOM     18  H   UNL A   1      34.104  24.538  21.959  1.00  0.00     0.166 HD
BRANCH  17  19
ATOM     19  C   UNL A   1      32.163  24.516  22.312  1.00  0.00     0.173 C 
ATOM     20  C   UNL A   1      30.958  24.853  23.197  1.00  0.00     0.037 C 
ATOM     21  C   UNL A   1      32.364  25.693  21.302  1.00  0.00     0.242 C 
ATOM     22  C   UNL A   1      30.872  26.292  23.700  1.00  0.00     0.024 C 
ATOM     23  N   UNL A   1      31.804  26.920  21.534  1.00  0.00    -0.354 N 
ATOM     24  O   UNL A   1      33.127  25.566  20.341  1.00  0.00    -0.273 OA
ATOM     25  C   UNL A   1      30.812  27.247  22.530  1.00  0.00     0.116 C 
ATOM     26  H   UNL A   1      32.112  27.659  20.961  1.00  0.00     0.163 HD
ENDBRANCH  17  19
ENDBRANCH   8  13
ENDBRANCH   5   8
ENDBRANCH   3   4
ENDBRANCH   2   3
ENDBRANCH   1   2
BRANCH   1  27
ATOM     27  C   UNL A   1      39.470  20.027  25.936  1.00  0.00     0.116 C 
BRANCH  27  28
ATOM     28  N   UNL A   1      40.552  19.063  25.888  1.00  0.00    -0.352 N 
ATOM     29  C   UNL A   1      41.898  19.230  26.104  1.00  0.00     0.251 C 
ATOM     30  H   UNL A   1      40.279  18.144  25.664  1.00  0.00     0.163 HD
ATOM     31  O   UNL A   1      42.638  18.247  26.006  1.00  0.00    -0.269 OA
BRANCH  29  32
ATOM     32  C   UNL A   1      42.490  20.559  26.402  1.00  0.00     0.039 A 
ATOM     33  C   UNL A   1      43.010  21.296  25.331  1.00  0.00     0.014 A 
ATOM     34  C   UNL A   1      42.578  21.083  27.696  1.00  0.00     0.014 A 
ATOM     35  C   UNL A   1      43.554  22.567  25.544  1.00  0.00     0.010 A 
ATOM     36  C   UNL A   1      43.064  22.381  27.899  1.00  0.00     0.010 A 
ATOM     37  C   UNL A   1      43.555  23.139  26.825  1.00  0.00    -0.014 A 
BRANCH  37  38
ATOM     38  C   UNL A   1      44.052  24.529  27.034  1.00  0.00     0.031 A 
ATOM     39  C   UNL A   1      43.116  25.632  27.452  1.00  0.00     0.074 A 
ATOM     40  C   UNL A   1      45.355  24.810  26.823  1.00  0.00     0.049 A 
ATOM     41  N   UNL A   1      43.379  26.894  27.682  1.00  0.00    -0.248 NA
ATOM     42  C   UNL A   1      41.698  25.276  27.618  1.00  0.00     0.031 C 
ATOM     43  C   UNL A   1      46.369  23.844  26.392  1.00  0.00     0.029 A 
ATOM     44  N   UNL A   1      46.054  25.987  26.947  1.00  0.00    -0.354 N 
ATOM     45  C   UNL A   1      42.163  27.485  28.010  1.00  0.00     0.074 A 
ATOM     46  C   UNL A   1      41.155  26.451  27.906  1.00  0.00     0.031 C 
ATOM     47  C   UNL A   1      47.561  24.459  26.320  1.00  0.00     0.029 A 
ATOM     48  C   UNL A   1      47.394  25.869  26.660  1.00  0.00     0.049 A 
ATOM     49  H   UNL A   1      45.634  26.836  27.216  1.00  0.00     0.167 HD
ATOM     50  C   UNL A   1      41.909  28.764  28.379  1.00  0.00     0.031 A 
ATOM     51  C   UNL A   1      48.381  26.787  26.664  1.00  0.00     0.031 A 
ATOM     52  C   UNL A   1      42.911  29.793  28.490  1.00  0.00     0.049 A 
ATOM     53  C   UNL A   1      48.069  28.207  27.053  1.00  0.00     0.074 A 
ATOM     54  C   UNL A   1      42.754  31.104  28.908  1.00  0.00     0.029 A 
ATOM     55  N   UNL A   1      44.252  29.635  28.175  1.00  0.00    -0.354 N 
ATOM     56  N   UNL A   1      46.923  28.727  27.425  1.00  0.00    -0.248 NA
ATOM     57  C   UNL A   1      49.186  29.162  27.034  1.00  0.00     0.031 C 
ATOM     58  C   UNL A   1      43.987  31.754  28.791  1.00  0.00     0.029 A 
ATOM     59  C   UNL A   1      44.926  30.832  28.359  1.00  0.00     0.049 A 
ATOM     60  H   UNL A   1      44.664  28.797  27.864  1.00  0.00     0.167 HD
ATOM     61  C   UNL A   1      47.189  30.062  27.711  1.00  0.00     0.074 A 
ATOM     62  C   UNL A   1      48.605  30.265  27.483  1.00  0.00     0.031 C 
ATOM     63  C   UNL A   1      46.336  31.029  28.129  1.00  0.00     0.031 A 
BRANCH  50  64
ATOM     64  C   UNL A   1      40.478  29.134  28.679  1.00  0.00    -0.014 A 
ATOM     65  C   UNL A   1      39.558  29.389  27.644  1.00  0.00     0.010 A 
ATOM     66  C   UNL A   1      40.033  29.178  30.013  1.00  0.00     0.010 A 
ATOM     67  C   UNL A   1      38.235  29.724  27.940  1.00  0.00     0.020 A 
ATOM     68  C   UNL A   1      38.702  29.485  30.312  1.00  0.00     0.020 A 
ATOM     69  C   UNL A   1      37.816  29.775  29.273  1.00  0.00     0.054 A 
BRANCH  69  70
ATOM     70  S   UNL A   1      36.088  30.201  29.627  1.00  0.00     0.124 S 
ATOM     71  O   UNL A   1      35.385  29.532  28.536  1.00  0.00    -0.237 OA
ATOM     72  O   UNL A   1      35.882  29.624  30.954  1.00  0.00    -0.237 OA
ATOM     73  O   UNL A   1      36.072  31.661  29.576  1.00  0.00    -0.744 OA
ENDBRANCH  69  70
ENDBRANCH  50  64
BRANCH  51  74
ATOM     74  C   UNL A   1      49.769  26.390  26.298  1.00  0.00    -0.014 A 
ATOM     75  C   UNL A   1      50.242  26.571  24.986  1.00  0.00     0.010 A 
ATOM     76  C   UNL A   1      50.628  25.831  27.262  1.00  0.00     0.010 A 
ATOM     77  C   UNL A   1      51.541  26.183  24.641  1.00  0.00     0.020 A 
ATOM     78  C   UNL A   1      51.936  25.469  26.929  1.00  0.00     0.020 A 
ATOM     79  C   UNL A   1      52.380  25.637  25.616  1.00  0.00     0.054 A 
BRANCH  79  80
ATOM     80  S   UNL A   1      54.077  25.185  25.156  1.00  0.00     0.124 S 
ATOM     81  O   UNL A   1      53.960  23.745  24.946  1.00  0.00    -0.237 OA
ATOM     82  O   UNL A   1      54.300  25.984  23.954  1.00  0.00    -0.237 OA
ATOM     83  O   UNL A   1      54.864  25.587  26.319  1.00  0.00    -0.744 OA
ENDBRANCH  79  80
ENDBRANCH  51  74
BRANCH  63  84
ATOM     84  C   UNL A   1      46.910  32.395  28.403  1.00  0.00    -0.014 A 
ATOM     85  C   UNL A   1      46.997  33.369  27.392  1.00  0.00     0.010 A 
ATOM     86  C   UNL A   1      47.320  32.725  29.708  1.00  0.00     0.010 A 
ATOM     87  C   UNL A   1      47.511  34.638  27.675  1.00  0.00     0.020 A 
ATOM     88  C   UNL A   1      47.810  34.002  30.001  1.00  0.00     0.020 A 
ATOM     89  C   UNL A   1      47.915  34.947  28.978  1.00  0.00     0.054 A 
BRANCH  89  90
ATOM     90  S   UNL A   1      48.536  36.614  29.329  1.00  0.00     0.124 S 
ATOM     91  O   UNL A   1      47.305  37.400  29.346  1.00  0.00    -0.237 OA
ATOM     92  O   UNL A   1      49.192  36.446  30.624  1.00  0.00    -0.237 OA
ATOM     93  O   UNL A   1      49.436  36.892  28.213  1.00  0.00    -0.744 OA
ENDBRANCH  89  90
ENDBRANCH  63  84
ENDBRANCH  37  38
ENDBRANCH  29  32
ENDBRANCH  27  28
ENDBRANCH   1  27
TORSDOF 18
ENDMDL
MODEL 2
REMARK VINA RESULT:     -10.7      1.599      8.433
REMARK SMILES CCC(CC)(NC(=O)N[C@H]1CCCNC1=O)C(=O)NCCCCNC(=O)c1ccc(-c2c3nc(c(-c4ccc(S(=O)(=O)[O-])cc4)c4ccc([nH]4)c(-c4ccc(S(=O)(=O)[O-])cc4)c4nc(c(-c5ccc(S(=O)(=O)[O-])cc5)c5ccc2[nH]5)C=C4)C=C3)cc1
REMARK SMILES IDX 22 1 21 2 20 3 19 4 17 5 18 6 3 8 2 9 1 10 4 11 5 12 6 13
REMARK SMILES IDX 7 14 8 16 9 17 10 19 11 20 15 21 12 22 14 23 16 24 13 25
REMARK SMILES IDX 23 27 24 28 25 29 26 31 27 32 28 33 86 34 29 35 85 36 30 37
REMARK SMILES IDX 31 38 32 39 79 40 33 41 84 42 78 43 80 44 34 45 83 46 77 47
REMARK SMILES IDX 76 48 35 50 65 51 46 52 64 53 47 54 50 55 63 56 81 57 48 58
REMARK SMILES IDX 49 59 62 61 82 62 51 63 36 64 37 65 45 66 38 67 44 68 39 69
REMARK SMILES IDX 40 70 41 71 42 72 43 73 66 74 67 75 75 76 68 77 74 78 69 79
REMARK SMILES IDX 70 80 71 81 72 82 73 83 52 84 53 85 61 86 54 87 60 88 55 89
REMARK SMILES IDX 56 90 57 91 58 92 59 93
REMARK H PARENT 19 7 6 15 9 18 14 26 24 30 80 49 50 60
REMARK Flexibility Score: inf
ROOT
ATOM      1  C   UNL A   1      38.157  20.769  24.984  1.00  0.00     0.023 C 
ENDROOT
BRANCH   1   2
ATOM      2  C   UNL A   1      36.842  20.008  25.067  1.00  0.00     0.023 C 
BRANCH   2   3
ATOM      3  C   UNL A   1      35.523  20.714  24.718  1.00  0.00     0.116 C 
BRANCH   3   4
ATOM      4  N   UNL A   1      34.279  20.412  25.434  1.00  0.00    -0.354 N 
ATOM      5  C   UNL A   1      33.109  21.135  25.627  1.00  0.00     0.245 C 
ATOM      6  O   UNL A   1      32.053  20.493  25.672  1.00  0.00    -0.272 OA
ATOM      7  H   UNL A   1      34.271  19.525  25.860  1.00  0.00     0.163 HD
BRANCH   5   8
ATOM      8  C   UNL A   1      33.088  22.666  25.493  1.00  0.00     0.120 C 
BRANCH   8   9
ATOM      9  C   UNL A   1      33.177  23.387  24.125  1.00  0.00     0.035 C 
ATOM     10  C   UNL A   1      32.023  23.249  23.155  1.00  0.00     0.007 C 
ENDBRANCH   8   9
BRANCH   8  11
ATOM     11  C   UNL A   1      34.363  22.999  26.378  1.00  0.00     0.035 C 
ATOM     12  C   UNL A   1      35.472  23.936  25.934  1.00  0.00     0.007 C 
ENDBRANCH   8  11
BRANCH   8  13
ATOM     13  N   UNL A   1      31.774  23.027  26.030  1.00  0.00    -0.324 N 
ATOM     14  C   UNL A   1      31.280  24.137  26.594  1.00  0.00     0.316 C 
ATOM     15  H   UNL A   1      31.114  22.300  25.963  1.00  0.00     0.166 HD
ATOM     16  O   UNL A   1      30.211  23.954  27.196  1.00  0.00    -0.249 OA
ATOM     17  N   UNL A   1      31.679  25.403  26.557  1.00  0.00    -0.326 N 
ATOM     18  H   UNL A   1      30.839  25.879  26.753  1.00  0.00     0.166 HD
BRANCH  17  19
ATOM     19  C   UNL A   1      32.655  26.560  26.393  1.00  0.00     0.173 C 
ATOM     20  C   UNL A   1      33.543  26.951  25.207  1.00  0.00     0.037 C 
ATOM     21  C   UNL A   1      31.807  27.812  26.794  1.00  0.00     0.242 C 
ATOM     22  C   UNL A   1      32.879  27.785  24.114  1.00  0.00     0.024 C 
ATOM     23  N   UNL A   1      31.642  28.855  25.925  1.00  0.00    -0.354 N 
ATOM     24  O   UNL A   1      31.177  27.824  27.855  1.00  0.00    -0.273 OA
ATOM     25  C   UNL A   1      32.361  29.081  24.694  1.00  0.00     0.116 C 
ATOM     26  H   UNL A   1      30.959  29.523  26.164  1.00  0.00     0.163 HD
ENDBRANCH  17  19
ENDBRANCH   8  13
ENDBRANCH   5   8
ENDBRANCH   3   4
ENDBRANCH   2   3
ENDBRANCH   1   2
BRANCH   1  27
ATOM     27  C   UNL A   1      39.109  20.643  26.164  1.00  0.00     0.116 C 
BRANCH  27  28
ATOM     28  N   UNL A   1      40.164  19.666  25.982  1.00  0.00    -0.352 N 
ATOM     29  C   UNL A   1      41.525  19.795  26.120  1.00  0.00     0.251 C 
ATOM     30  H   UNL A   1      39.857  18.769  25.717  1.00  0.00     0.163 HD
ATOM     31  O   UNL A   1      42.235  18.808  25.910  1.00  0.00    -0.269 OA
BRANCH  29  32
ATOM     32  C   UNL A   1      42.163  21.091  26.464  1.00  0.00     0.039 A 
ATOM     33  C   UNL A   1      42.438  21.980  25.419  1.00  0.00     0.014 A 
ATOM     34  C   UNL A   1      42.526  21.440  27.769  1.00  0.00     0.014 A 
ATOM     35  C   UNL A   1      43.012  23.228  25.683  1.00  0.00     0.010 A 
ATOM     36  C   UNL A   1      43.041  22.714  28.040  1.00  0.00     0.010 A 
ATOM     37  C   UNL A   1      43.288  23.624  27.001  1.00  0.00    -0.014 A 
BRANCH  37  38
ATOM     38  C   UNL A   1      43.814  24.989  27.288  1.00  0.00     0.031 A 
ATOM     39  C   UNL A   1      45.266  25.321  27.065  1.00  0.00     0.074 A 
ATOM     40  C   UNL A   1      42.985  25.935  27.775  1.00  0.00     0.049 A 
ATOM     41  N   UNL A   1      45.891  26.456  27.256  1.00  0.00    -0.248 NA
ATOM     42  C   UNL A   1      46.132  24.235  26.579  1.00  0.00     0.031 C 
ATOM     43  C   UNL A   1      41.561  25.744  28.063  1.00  0.00     0.029 A 
ATOM     44  N   UNL A   1      43.216  27.247  28.111  1.00  0.00    -0.354 N 
ATOM     45  C   UNL A   1      47.222  26.220  26.925  1.00  0.00     0.074 A 
ATOM     46  C   UNL A   1      47.321  24.823  26.563  1.00  0.00     0.031 C 
ATOM     47  C   UNL A   1      41.040  26.903  28.498  1.00  0.00     0.029 A 
ATOM     48  C   UNL A   1      42.097  27.909  28.561  1.00  0.00     0.049 A 
ATOM     49  H   UNL A   1      44.100  27.674  28.037  1.00  0.00     0.167 HD
ATOM     50  C   UNL A   1      48.262  27.089  26.908  1.00  0.00     0.031 A 
ATOM     51  C   UNL A   1      41.933  29.180  28.981  1.00  0.00     0.031 A 
ATOM     52  C   UNL A   1      48.166  28.482  27.262  1.00  0.00     0.049 A 
ATOM     53  C   UNL A   1      43.109  30.118  28.977  1.00  0.00     0.074 A 
ATOM     54  C   UNL A   1      49.155  29.450  27.223  1.00  0.00     0.029 A 
ATOM     55  N   UNL A   1      47.018  29.107  27.727  1.00  0.00    -0.354 N 
ATOM     56  N   UNL A   1      44.343  29.890  28.595  1.00  0.00    -0.248 NA
ATOM     57  C   UNL A   1      42.867  31.489  29.450  1.00  0.00     0.031 C 
ATOM     58  C   UNL A   1      48.623  30.644  27.719  1.00  0.00     0.029 A 
ATOM     59  C   UNL A   1      47.284  30.438  28.008  1.00  0.00     0.049 A 
ATOM     60  H   UNL A   1      46.144  28.669  27.841  1.00  0.00     0.167 HD
ATOM     61  C   UNL A   1      45.017  31.097  28.755  1.00  0.00     0.074 A 
ATOM     62  C   UNL A   1      44.050  32.054  29.254  1.00  0.00     0.031 C 
ATOM     63  C   UNL A   1      46.318  31.385  28.506  1.00  0.00     0.031 A 
BRANCH  50  64
ATOM     64  C   UNL A   1      49.613  26.554  26.506  1.00  0.00    -0.014 A 
ATOM     65  C   UNL A   1      50.062  26.630  25.174  1.00  0.00     0.010 A 
ATOM     66  C   UNL A   1      50.469  26.012  27.483  1.00  0.00     0.010 A 
ATOM     67  C   UNL A   1      51.319  26.134  24.820  1.00  0.00     0.020 A 
ATOM     68  C   UNL A   1      51.740  25.541  27.138  1.00  0.00     0.020 A 
ATOM     69  C   UNL A   1      52.148  25.588  25.804  1.00  0.00     0.054 A 
BRANCH  69  70
ATOM     70  S   UNL A   1      53.781  24.963  25.319  1.00  0.00     0.124 S 
ATOM     71  O   UNL A   1      53.542  23.524  25.247  1.00  0.00    -0.237 OA
ATOM     72  O   UNL A   1      54.009  25.626  24.037  1.00  0.00    -0.237 OA
ATOM     73  O   UNL A   1      54.656  25.395  26.405  1.00  0.00    -0.744 OA
ENDBRANCH  69  70
ENDBRANCH  50  64
BRANCH  51  74
ATOM     74  C   UNL A   1      40.592  29.647  29.431  1.00  0.00    -0.014 A 
ATOM     75  C   UNL A   1      40.381  30.035  30.767  1.00  0.00     0.010 A 
ATOM     76  C   UNL A   1      39.518  29.713  28.525  1.00  0.00     0.010 A 
ATOM     77  C   UNL A   1      39.118  30.459  31.191  1.00  0.00     0.020 A 
ATOM     78  C   UNL A   1      38.262  30.165  28.937  1.00  0.00     0.020 A 
ATOM     79  C   UNL A   1      38.067  30.524  30.273  1.00  0.00     0.054 A 
BRANCH  79  80
ATOM     80  S   UNL A   1      36.449  31.123  30.836  1.00  0.00     0.124 S 
ATOM     81  O   UNL A   1      35.999  30.026  31.686  1.00  0.00    -0.237 OA
ATOM     82  O   UNL A   1      36.795  32.361  31.529  1.00  0.00    -0.237 OA
ATOM     83  O   UNL A   1      35.700  31.301  29.594  1.00  0.00    -0.744 OA
ENDBRANCH  79  80
ENDBRANCH  51  74
BRANCH  63  84
ATOM     84  C   UNL A   1      46.775  32.802  28.736  1.00  0.00    -0.014 A 
ATOM     85  C   UNL A   1      46.629  33.789  27.744  1.00  0.00     0.010 A 
ATOM     86  C   UNL A   1      47.310  33.164  29.986  1.00  0.00     0.010 A 
ATOM     87  C   UNL A   1      47.039  35.103  27.988  1.00  0.00     0.020 A 
ATOM     88  C   UNL A   1      47.694  34.483  30.244  1.00  0.00     0.020 A 
ATOM     89  C   UNL A   1      47.569  35.442  29.237  1.00  0.00     0.054 A 
BRANCH  89  90
ATOM     90  S   UNL A   1      48.050  37.164  29.544  1.00  0.00     0.124 S 
ATOM     91  O   UNL A   1      49.487  37.129  29.284  1.00  0.00    -0.237 OA
ATOM     92  O   UNL A   1      47.252  37.899  28.566  1.00  0.00    -0.237 OA
ATOM     93  O   UNL A   1      47.675  37.386  30.939  1.00  0.00    -0.744 OA
ENDBRANCH  89  90
ENDBRANCH  63  84
ENDBRANCH  37  38
ENDBRANCH  29  32
ENDBRANCH  27  28
ENDBRANCH   1  27
TORSDOF 18
ENDMDL
MODEL 3
REMARK VINA RESULT:     -10.7      6.347     10.887
REMARK SMILES CCC(CC)(NC(=O)N[C@H]1CCCNC1=O)C(=O)NCCCCNC(=O)c1ccc(-c2c3nc(c(-c4ccc(S(=O)(=O)[O-])cc4)c4ccc([nH]4)c(-c4ccc(S(=O)(=O)[O-])cc4)c4nc(c(-c5ccc(S(=O)(=O)[O-])cc5)c5ccc2[nH]5)C=C4)C=C3)cc1
REMARK SMILES IDX 22 1 21 2 20 3 19 4 17 5 18 6 3 8 2 9 1 10 4 11 5 12 6 13
REMARK SMILES IDX 7 14 8 16 9 17 10 19 11 20 15 21 12 22 14 23 16 24 13 25
REMARK SMILES IDX 23 27 24 28 25 29 26 31 27 32 28 33 86 34 29 35 85 36 30 37
REMARK SMILES IDX 31 38 32 39 79 40 33 41 84 42 78 43 80 44 34 45 83 46 77 47
REMARK SMILES IDX 76 48 35 50 65 51 46 52 64 53 47 54 50 55 63 56 81 57 48 58
REMARK SMILES IDX 49 59 62 61 82 62 51 63 36 64 37 65 45 66 38 67 44 68 39 69
REMARK SMILES IDX 40 70 41 71 42 72 43 73 66 74 67 75 75 76 68 77 74 78 69 79
REMARK SMILES IDX 70 80 71 81 72 82 73 83 52 84 53 85 61 86 54 87 60 88 55 89
REMARK SMILES IDX 56 90 57 91 58 92 59 93
REMARK H PARENT 19 7 6 15 9 18 14 26 24 30 80 49 50 60
REMARK Flexibility Score: inf
ROOT
ATOM      1  C   UNL A   1      39.658  21.864  26.491  1.00  0.00     0.023 C 
ENDROOT
BRANCH   1   2
ATOM      2  C   UNL A   1      38.227  22.212  26.108  1.00  0.00     0.023 C 
BRANCH   2   3
ATOM      3  C   UNL A   1      37.527  21.446  24.975  1.00  0.00     0.116 C 
BRANCH   3   4
ATOM      4  N   UNL A   1      36.461  20.477  25.249  1.00  0.00    -0.354 N 
ATOM      5  C   UNL A   1      35.093  20.496  25.011  1.00  0.00     0.245 C 
ATOM      6  O   UNL A   1      34.557  19.418  24.730  1.00  0.00    -0.272 OA
ATOM      7  H   UNL A   1      36.777  19.653  25.684  1.00  0.00     0.163 HD
BRANCH   5   8
ATOM      8  C   UNL A   1      34.337  21.820  24.815  1.00  0.00     0.120 C 
BRANCH   8   9
ATOM      9  C   UNL A   1      35.058  23.155  24.497  1.00  0.00     0.035 C 
ATOM     10  C   UNL A   1      35.511  23.415  23.077  1.00  0.00     0.007 C 
ENDBRANCH   8   9
BRANCH   8  11
ATOM     11  C   UNL A   1      33.625  21.899  26.231  1.00  0.00     0.035 C 
ATOM     12  C   UNL A   1      34.323  22.361  27.497  1.00  0.00     0.007 C 
ENDBRANCH   8  11
BRANCH   8  13
ATOM     13  N   UNL A   1      33.498  21.551  23.644  1.00  0.00    -0.324 N 
ATOM     14  C   UNL A   1      32.366  22.092  23.177  1.00  0.00     0.316 C 
ATOM     15  H   UNL A   1      33.838  20.817  23.084  1.00  0.00     0.166 HD
ATOM     16  O   UNL A   1      31.796  21.393  22.325  1.00  0.00    -0.249 OA
ATOM     17  N   UNL A   1      31.789  23.269  23.395  1.00  0.00    -0.326 N 
ATOM     18  H   UNL A   1      31.246  23.375  22.580  1.00  0.00     0.166 HD
BRANCH  17  19
ATOM     19  C   UNL A   1      31.464  24.551  24.148  1.00  0.00     0.173 C 
ATOM     20  C   UNL A   1      31.778  24.963  25.591  1.00  0.00     0.037 C 
ATOM     21  C   UNL A   1      31.993  25.676  23.199  1.00  0.00     0.242 C 
ATOM     22  C   UNL A   1      33.162  25.558  25.836  1.00  0.00     0.024 C 
ATOM     23  N   UNL A   1      32.921  26.582  23.635  1.00  0.00    -0.354 N 
ATOM     24  O   UNL A   1      31.670  25.689  22.009  1.00  0.00    -0.273 OA
ATOM     25  C   UNL A   1      33.350  26.800  24.996  1.00  0.00     0.116 C 
ATOM     26  H   UNL A   1      33.342  27.146  22.946  1.00  0.00     0.163 HD
ENDBRANCH  17  19
ENDBRANCH   8  13
ENDBRANCH   5   8
ENDBRANCH   3   4
ENDBRANCH   2   3
ENDBRANCH   1   2
BRANCH   1  27
ATOM     27  C   UNL A   1      40.530  22.993  27.021  1.00  0.00     0.116 C 
BRANCH  27  28
ATOM     28  N   UNL A   1      41.083  23.855  25.994  1.00  0.00    -0.352 N 
ATOM     29  C   UNL A   1      41.443  25.179  26.050  1.00  0.00     0.251 C 
ATOM     30  H   UNL A   1      41.222  23.423  25.121  1.00  0.00     0.163 HD
ATOM     31  O   UNL A   1      41.899  25.709  25.033  1.00  0.00    -0.269 OA
BRANCH  29  32
ATOM     32  C   UNL A   1      41.253  25.998  27.274  1.00  0.00     0.039 A 
ATOM     33  C   UNL A   1      42.228  26.955  27.576  1.00  0.00     0.014 A 
ATOM     34  C   UNL A   1      40.171  25.829  28.145  1.00  0.00     0.014 A 
ATOM     35  C   UNL A   1      42.090  27.776  28.701  1.00  0.00     0.010 A 
ATOM     36  C   UNL A   1      40.001  26.693  29.233  1.00  0.00     0.010 A 
ATOM     37  C   UNL A   1      40.957  27.679  29.523  1.00  0.00    -0.014 A 
BRANCH  37  38
ATOM     38  C   UNL A   1      40.769  28.615  30.667  1.00  0.00     0.031 A 
ATOM     39  C   UNL A   1      41.622  28.508  31.904  1.00  0.00     0.074 A 
ATOM     40  C   UNL A   1      39.806  29.559  30.605  1.00  0.00     0.049 A 
ATOM     41  N   UNL A   1      41.597  29.242  32.989  1.00  0.00    -0.248 NA
ATOM     42  C   UNL A   1      42.622  27.429  31.934  1.00  0.00     0.031 C 
ATOM     43  C   UNL A   1      38.890  29.760  29.479  1.00  0.00     0.029 A 
ATOM     44  N   UNL A   1      39.438  30.530  31.506  1.00  0.00    -0.354 N 
ATOM     45  C   UNL A   1      42.567  28.710  33.832  1.00  0.00     0.074 A 
ATOM     46  C   UNL A   1      43.131  27.564  33.150  1.00  0.00     0.031 C 
ATOM     47  C   UNL A   1      38.092  30.807  29.743  1.00  0.00     0.029 A 
ATOM     48  C   UNL A   1      38.408  31.329  31.069  1.00  0.00     0.049 A 
ATOM     49  H   UNL A   1      39.872  30.642  32.383  1.00  0.00     0.167 HD
ATOM     50  C   UNL A   1      42.964  29.142  35.054  1.00  0.00     0.031 A 
ATOM     51  C   UNL A   1      37.781  32.364  31.665  1.00  0.00     0.031 A 
ATOM     52  C   UNL A   1      42.409  30.285  35.733  1.00  0.00     0.049 A 
ATOM     53  C   UNL A   1      38.222  32.809  33.032  1.00  0.00     0.074 A 
ATOM     54  C   UNL A   1      42.785  30.828  36.950  1.00  0.00     0.029 A 
ATOM     55  N   UNL A   1      41.357  31.056  35.262  1.00  0.00    -0.354 N 
ATOM     56  N   UNL A   1      39.188  32.332  33.782  1.00  0.00    -0.248 NA
ATOM     57  C   UNL A   1      37.498  33.939  33.630  1.00  0.00     0.031 C 
ATOM     58  C   UNL A   1      41.924  31.891  37.242  1.00  0.00     0.029 A 
ATOM     59  C   UNL A   1      41.051  32.050  36.178  1.00  0.00     0.049 A 
ATOM     60  H   UNL A   1      40.895  30.917  34.404  1.00  0.00     0.167 HD
ATOM     61  C   UNL A   1      39.204  33.124  34.926  1.00  0.00     0.074 A 
ATOM     62  C   UNL A   1      38.162  34.117  34.763  1.00  0.00     0.031 C 
ATOM     63  C   UNL A   1      40.012  33.036  36.011  1.00  0.00     0.031 A 
BRANCH  50  64
ATOM     64  C   UNL A   1      44.049  28.362  35.753  1.00  0.00    -0.014 A 
ATOM     65  C   UNL A   1      45.405  28.706  35.607  1.00  0.00     0.010 A 
ATOM     66  C   UNL A   1      43.703  27.301  36.611  1.00  0.00     0.010 A 
ATOM     67  C   UNL A   1      46.397  27.975  36.267  1.00  0.00     0.020 A 
ATOM     68  C   UNL A   1      44.690  26.586  37.296  1.00  0.00     0.020 A 
ATOM     69  C   UNL A   1      46.033  26.916  37.103  1.00  0.00     0.054 A 
BRANCH  69  70
ATOM     70  S   UNL A   1      47.340  25.993  37.958  1.00  0.00     0.124 S 
ATOM     71  O   UNL A   1      47.449  24.793  37.133  1.00  0.00    -0.237 OA
ATOM     72  O   UNL A   1      48.478  26.908  37.887  1.00  0.00    -0.237 OA
ATOM     73  O   UNL A   1      46.798  25.781  39.298  1.00  0.00    -0.744 OA
ENDBRANCH  69  70
ENDBRANCH  50  64
BRANCH  51  74
ATOM     74  C   UNL A   1      36.670  33.065  30.962  1.00  0.00    -0.014 A 
ATOM     75  C   UNL A   1      35.336  32.870  31.362  1.00  0.00     0.010 A 
ATOM     76  C   UNL A   1      36.941  33.935  29.891  1.00  0.00     0.010 A 
ATOM     77  C   UNL A   1      34.293  33.517  30.691  1.00  0.00     0.020 A 
ATOM     78  C   UNL A   1      35.905  34.607  29.237  1.00  0.00     0.020 A 
ATOM     79  C   UNL A   1      34.585  34.384  29.635  1.00  0.00     0.054 A 
BRANCH  79  80
ATOM     80  S   UNL A   1      33.218  35.249  28.810  1.00  0.00     0.124 S 
ATOM     81  O   UNL A   1      32.568  34.164  28.082  1.00  0.00    -0.237 OA
ATOM     82  O   UNL A   1      32.467  35.795  29.937  1.00  0.00    -0.237 OA
ATOM     83  O   UNL A   1      33.895  36.243  27.980  1.00  0.00    -0.744 OA
ENDBRANCH  79  80
ENDBRANCH  51  74
BRANCH  63  84
ATOM     84  C   UNL A   1      39.831  34.060  37.101  1.00  0.00    -0.014 A 
ATOM     85  C   UNL A   1      39.050  33.789  38.239  1.00  0.00     0.010 A 
ATOM     86  C   UNL A   1      40.498  35.296  37.008  1.00  0.00     0.010 A 
ATOM     87  C   UNL A   1      38.915  34.747  39.248  1.00  0.00     0.020 A 
ATOM     88  C   UNL A   1      40.389  36.245  38.029  1.00  0.00     0.020 A 
ATOM     89  C   UNL A   1      39.586  35.969  39.137  1.00  0.00     0.054 A 
BRANCH  89  90
ATOM     90  S   UNL A   1      39.432  37.177  40.482  1.00  0.00     0.124 S 
ATOM     91  O   UNL A   1      40.830  37.455  40.801  1.00  0.00    -0.237 OA
ATOM     92  O   UNL A   1      38.702  38.272  39.848  1.00  0.00    -0.237 OA
ATOM     93  O   UNL A   1      38.690  36.456  41.513  1.00  0.00    -0.744 OA
ENDBRANCH  89  90
ENDBRANCH  63  84
ENDBRANCH  37  38
ENDBRANCH  29  32
ENDBRANCH  27  28
ENDBRANCH   1  27
TORSDOF 18
ENDMDL
