MODEL 1
REMARK VINA RESULT:     -10.5      0.000      0.000
REMARK SMILES O=C(NCCCCNC(=O)[C@H]1CS[C@H](c2cc(F)ccc2F)[NH2+]1)c1ccc(-c2c3nc(c(-c4ccc(S(=O)(=O)[O-])cc4)c4ccc([nH]4)c(-c4ccc(S(=O)(=O)[O-])cc4)c4nc(c(-c5ccc(S(=O)(=O)[O-])cc5)c5ccc2[nH]5)C=C4)C=C3)cc1
REMARK SMILES IDX 4 1 3 2 1 3 2 4 24 6 25 7 83 8 26 9 82 10 27 11 28 12 29 13
REMARK SMILES IDX 76 14 30 15 81 16 75 17 77 18 31 19 80 20 74 21 73 22 32 24
REMARK SMILES IDX 62 25 43 26 61 27 44 28 47 29 60 30 78 31 45 32 46 33 59 35
REMARK SMILES IDX 79 36 48 37 33 38 34 39 42 40 35 41 41 42 36 43 37 44 38 45
REMARK SMILES IDX 39 46 40 47 63 48 64 49 72 50 65 51 71 52 66 53 67 54 68 55
REMARK SMILES IDX 69 56 70 57 49 58 50 59 58 60 51 61 57 62 52 63 53 64 54 65
REMARK SMILES IDX 55 66 56 67 5 68 6 69 7 70 8 71 9 72 10 74 11 75 12 76 23 77
REMARK SMILES IDX 13 78 14 79 15 82 16 83 21 84 17 85 20 86 22 87 18 88 19 89
REMARK H PARENT 3 5 77 23 47 34 8 73 23 80 23 81
REMARK Flexibility Score: inf
ROOT
ATOM      1  C   UNL A   1      33.936  28.255  26.924  1.00  0.00     0.116 C 
ENDROOT
BRANCH   1   2
ATOM      2  N   UNL A   1      33.683  29.619  27.359  1.00  0.00    -0.352 N 
ATOM      3  O   UNL A   1      34.087  31.544  28.459  1.00  0.00    -0.269 OA
ATOM      4  C   UNL A   1      34.518  30.472  28.039  1.00  0.00     0.251 C 
ATOM      5  H   UNL A   1      32.794  29.980  27.136  1.00  0.00     0.163 HD
BRANCH   4   6
ATOM      6  C   UNL A   1      35.924  30.086  28.283  1.00  0.00     0.039 A 
ATOM      7  C   UNL A   1      36.893  30.258  27.289  1.00  0.00     0.014 A 
ATOM      8  C   UNL A   1      36.278  29.559  29.527  1.00  0.00     0.014 A 
ATOM      9  C   UNL A   1      38.192  29.807  27.504  1.00  0.00     0.010 A 
ATOM     10  C   UNL A   1      37.600  29.169  29.764  1.00  0.00     0.010 A 
ATOM     11  C   UNL A   1      38.563  29.277  28.750  1.00  0.00    -0.014 A 
BRANCH  11  12
ATOM     12  C   UNL A   1      39.985  28.943  29.011  1.00  0.00     0.031 A 
ATOM     13  C   UNL A   1      40.561  27.611  28.620  1.00  0.00     0.074 A 
ATOM     14  C   UNL A   1      40.753  29.862  29.628  1.00  0.00     0.049 A 
ATOM     15  N   UNL A   1      41.775  27.159  28.804  1.00  0.00    -0.248 NA
ATOM     16  C   UNL A   1      39.663  26.662  27.941  1.00  0.00     0.031 C 
ATOM     17  C   UNL A   1      40.296  31.184  30.070  1.00  0.00     0.029 A 
ATOM     18  N   UNL A   1      42.074  29.831  29.997  1.00  0.00    -0.354 N 
ATOM     19  C   UNL A   1      41.784  25.867  28.291  1.00  0.00     0.074 A 
ATOM     20  C   UNL A   1      40.450  25.602  27.793  1.00  0.00     0.031 C 
ATOM     21  C   UNL A   1      41.321  31.842  30.630  1.00  0.00     0.029 A 
ATOM     22  C   UNL A   1      42.489  30.970  30.644  1.00  0.00     0.049 A 
ATOM     23  H   UNL A   1      42.667  29.066  29.816  1.00  0.00     0.167 HD
ATOM     24  C   UNL A   1      42.812  24.986  28.244  1.00  0.00     0.031 A 
ATOM     25  C   UNL A   1      43.668  31.273  31.218  1.00  0.00     0.031 A 
ATOM     26  C   UNL A   1      44.138  25.264  28.733  1.00  0.00     0.049 A 
ATOM     27  C   UNL A   1      44.777  30.263  31.181  1.00  0.00     0.074 A 
ATOM     28  C   UNL A   1      45.265  24.464  28.661  1.00  0.00     0.029 A 
ATOM     29  N   UNL A   1      44.512  26.421  29.400  1.00  0.00    -0.354 N 
ATOM     30  N   UNL A   1      44.787  29.077  30.621  1.00  0.00    -0.248 NA
ATOM     31  C   UNL A   1      46.030  30.626  31.856  1.00  0.00     0.031 C 
ATOM     32  C   UNL A   1      46.304  25.109  29.337  1.00  0.00     0.029 A 
ATOM     33  C   UNL A   1      45.840  26.335  29.785  1.00  0.00     0.049 A 
ATOM     34  H   UNL A   1      43.922  27.189  29.574  1.00  0.00     0.167 HD
ATOM     35  C   UNL A   1      46.049  28.554  30.872  1.00  0.00     0.074 A 
ATOM     36  C   UNL A   1      46.782  29.561  31.611  1.00  0.00     0.031 C 
ATOM     37  C   UNL A   1      46.552  27.344  30.527  1.00  0.00     0.031 A 
BRANCH  24  38
ATOM     38  C   UNL A   1      42.552  23.618  27.670  1.00  0.00    -0.014 A 
ATOM     39  C   UNL A   1      42.772  23.342  26.309  1.00  0.00     0.010 A 
ATOM     40  C   UNL A   1      42.173  22.569  28.529  1.00  0.00     0.010 A 
ATOM     41  C   UNL A   1      42.597  22.045  25.814  1.00  0.00     0.020 A 
ATOM     42  C   UNL A   1      42.018  21.268  28.042  1.00  0.00     0.020 A 
ATOM     43  C   UNL A   1      42.221  21.017  26.685  1.00  0.00     0.054 A 
BRANCH  43  44
ATOM     44  S   UNL A   1      42.050  19.335  26.024  1.00  0.00     0.124 S 
ATOM     45  O   UNL A   1      40.607  19.240  25.814  1.00  0.00    -0.237 OA
ATOM     46  O   UNL A   1      42.859  19.384  24.808  1.00  0.00    -0.237 OA
ATOM     47  O   UNL A   1      42.581  18.487  27.087  1.00  0.00    -0.744 OA
ENDBRANCH  43  44
ENDBRANCH  24  38
BRANCH  25  48
ATOM     48  C   UNL A   1      43.834  32.571  31.924  1.00  0.00    -0.014 A 
ATOM     49  C   UNL A   1      43.517  32.698  33.286  1.00  0.00     0.010 A 
ATOM     50  C   UNL A   1      44.333  33.690  31.228  1.00  0.00     0.010 A 
ATOM     51  C   UNL A   1      43.677  33.925  33.937  1.00  0.00     0.020 A 
ATOM     52  C   UNL A   1      44.521  34.910  31.883  1.00  0.00     0.020 A 
ATOM     53  C   UNL A   1      44.177  35.023  33.230  1.00  0.00     0.054 A 
BRANCH  53  54
ATOM     54  S   UNL A   1      44.418  36.595  34.102  1.00  0.00     0.124 S 
ATOM     55  O   UNL A   1      43.075  36.872  34.600  1.00  0.00    -0.237 OA
ATOM     56  O   UNL A   1      45.410  36.247  35.117  1.00  0.00    -0.237 OA
ATOM     57  O   UNL A   1      44.899  37.494  33.056  1.00  0.00    -0.744 OA
ENDBRANCH  53  54
ENDBRANCH  25  48
BRANCH  37  58
ATOM     58  C   UNL A   1      47.966  27.044  30.941  1.00  0.00    -0.014 A 
ATOM     59  C   UNL A   1      48.233  26.327  32.120  1.00  0.00     0.010 A 
ATOM     60  C   UNL A   1      49.034  27.426  30.109  1.00  0.00     0.010 A 
ATOM     61  C   UNL A   1      49.549  26.014  32.471  1.00  0.00     0.020 A 
ATOM     62  C   UNL A   1      50.348  27.093  30.444  1.00  0.00     0.020 A 
ATOM     63  C   UNL A   1      50.598  26.396  31.629  1.00  0.00     0.054 A 
BRANCH  63  64
ATOM     64  S   UNL A   1      52.291  25.922  32.074  1.00  0.00     0.124 S 
ATOM     65  O   UNL A   1      52.647  26.950  33.049  1.00  0.00    -0.237 OA
ATOM     66  O   UNL A   1      52.116  24.577  32.616  1.00  0.00    -0.237 OA
ATOM     67  O   UNL A   1      53.014  25.988  30.806  1.00  0.00    -0.744 OA
ENDBRANCH  63  64
ENDBRANCH  37  58
ENDBRANCH  11  12
ENDBRANCH   4   6
ENDBRANCH   1   2
BRANCH   1  68
ATOM     68  C   UNL A   1      32.678  27.394  26.923  1.00  0.00     0.023 C 
BRANCH  68  69
ATOM     69  C   UNL A   1      32.016  27.197  25.556  1.00  0.00     0.023 C 
BRANCH  69  70
ATOM     70  C   UNL A   1      31.834  25.743  25.126  1.00  0.00     0.116 C 
BRANCH  70  71
ATOM     71  N   UNL A   1      31.546  24.876  26.254  1.00  0.00    -0.351 N 
ATOM     72  C   UNL A   1      32.179  23.750  26.683  1.00  0.00     0.279 C 
ATOM     73  H   UNL A   1      30.770  25.145  26.795  1.00  0.00     0.163 HD
ATOM     74  O   UNL A   1      31.674  23.128  27.623  1.00  0.00    -0.268 OA
BRANCH  72  75
ATOM     75  C   UNL A   1      33.455  23.246  25.994  1.00  0.00     0.283 C 
ATOM     76  C   UNL A   1      33.082  22.536  24.689  1.00  0.00     0.151 C 
ATOM     77  N   UNL A   1      34.326  24.421  25.716  1.00  0.00    -0.320 N 
ATOM     78  S   UNL A   1      34.198  23.194  23.429  1.00  0.00    -0.087 SA
ATOM     79  C   UNL A   1      35.250  24.051  24.646  1.00  0.00     0.277 C 
ATOM     80  H   UNL A   1      34.850  24.671  26.555  1.00  0.00     0.348 HD
ATOM     81  H   UNL A   1      33.762  25.224  25.437  1.00  0.00     0.348 HD
BRANCH  79  82
ATOM     82  C   UNL A   1      36.460  23.219  25.045  1.00  0.00     0.059 A 
ATOM     83  C   UNL A   1      36.600  21.914  24.522  1.00  0.00     0.053 A 
ATOM     84  C   UNL A   1      37.497  23.685  25.869  1.00  0.00     0.133 A 
ATOM     85  C   UNL A   1      37.683  21.110  24.872  1.00  0.00     0.123 A 
ATOM     86  C   UNL A   1      38.583  22.874  26.216  1.00  0.00     0.043 A 
ATOM     87  F   UNL A   1      37.488  24.927  26.370  1.00  0.00    -0.206 F 
ATOM     88  F   UNL A   1      37.767  19.869  24.378  1.00  0.00    -0.207 F 
ATOM     89  C   UNL A   1      38.672  21.575  25.724  1.00  0.00     0.042 A 
ENDBRANCH  79  82
ENDBRANCH  72  75
ENDBRANCH  70  71
ENDBRANCH  69  70
ENDBRANCH  68  69
ENDBRANCH   1  68
TORSDOF 15
ENDMDL
MODEL 2
REMARK VINA RESULT:     -10.5      3.699     10.361
REMARK SMILES O=C(NCCCCNC(=O)[C@H]1CS[C@H](c2cc(F)ccc2F)[NH2+]1)c1ccc(-c2c3nc(c(-c4ccc(S(=O)(=O)[O-])cc4)c4ccc([nH]4)c(-c4ccc(S(=O)(=O)[O-])cc4)c4nc(c(-c5ccc(S(=O)(=O)[O-])cc5)c5ccc2[nH]5)C=C4)C=C3)cc1
REMARK SMILES IDX 4 1 3 2 1 3 2 4 24 6 25 7 83 8 26 9 82 10 27 11 28 12 29 13
REMARK SMILES IDX 76 14 30 15 81 16 75 17 77 18 31 19 80 20 74 21 73 22 32 24
REMARK SMILES IDX 62 25 43 26 61 27 44 28 47 29 60 30 78 31 45 32 46 33 59 35
REMARK SMILES IDX 79 36 48 37 33 38 34 39 42 40 35 41 41 42 36 43 37 44 38 45
REMARK SMILES IDX 39 46 40 47 63 48 64 49 72 50 65 51 71 52 66 53 67 54 68 55
REMARK SMILES IDX 69 56 70 57 49 58 50 59 58 60 51 61 57 62 52 63 53 64 54 65
REMARK SMILES IDX 55 66 56 67 5 68 6 69 7 70 8 71 9 72 10 74 11 75 12 76 23 77
REMARK SMILES IDX 13 78 14 79 15 82 16 83 21 84 17 85 20 86 22 87 18 88 19 89
REMARK H PARENT 3 5 77 23 47 34 8 73 23 80 23 81
REMARK Flexibility Score: inf
ROOT
ATOM      1  C   UNL A   1      40.310  21.455  27.364  1.00  0.00     0.116 C 
ENDROOT
BRANCH   1   2
ATOM      2  N   UNL A   1      39.361  21.794  26.316  1.00  0.00    -0.352 N 
ATOM      3  O   UNL A   1      37.881  23.084  25.209  1.00  0.00    -0.269 OA
ATOM      4  C   UNL A   1      38.779  23.008  26.045  1.00  0.00     0.251 C 
ATOM      5  H   UNL A   1      39.101  21.054  25.721  1.00  0.00     0.163 HD
BRANCH   4   6
ATOM      6  C   UNL A   1      39.218  24.215  26.779  1.00  0.00     0.039 A 
ATOM      7  C   UNL A   1      38.857  24.406  28.117  1.00  0.00     0.014 A 
ATOM      8  C   UNL A   1      40.015  25.157  26.124  1.00  0.00     0.014 A 
ATOM      9  C   UNL A   1      39.204  25.588  28.765  1.00  0.00     0.010 A 
ATOM     10  C   UNL A   1      40.420  26.312  26.799  1.00  0.00     0.010 A 
ATOM     11  C   UNL A   1      40.006  26.543  28.120  1.00  0.00    -0.014 A 
BRANCH  11  12
ATOM     12  C   UNL A   1      40.492  27.724  28.875  1.00  0.00     0.031 A 
ATOM     13  C   UNL A   1      39.607  28.913  29.123  1.00  0.00     0.074 A 
ATOM     14  C   UNL A   1      41.763  27.715  29.324  1.00  0.00     0.049 A 
ATOM     15  N   UNL A   1      39.893  30.031  29.741  1.00  0.00    -0.248 NA
ATOM     16  C   UNL A   1      38.229  28.847  28.610  1.00  0.00     0.031 C 
ATOM     17  C   UNL A   1      42.719  26.620  29.126  1.00  0.00     0.029 A 
ATOM     18  N   UNL A   1      42.473  28.649  30.033  1.00  0.00    -0.354 N 
ATOM     19  C   UNL A   1      38.745  30.812  29.670  1.00  0.00     0.074 A 
ATOM     20  C   UNL A   1      37.757  30.043  28.941  1.00  0.00     0.031 C 
ATOM     21  C   UNL A   1      43.881  26.938  29.715  1.00  0.00     0.029 A 
ATOM     22  C   UNL A   1      43.774  28.278  30.278  1.00  0.00     0.049 A 
ATOM     23  H   UNL A   1      42.090  29.504  30.336  1.00  0.00     0.167 HD
ATOM     24  C   UNL A   1      38.540  32.055  30.167  1.00  0.00     0.031 A 
ATOM     25  C   UNL A   1      44.785  28.951  30.859  1.00  0.00     0.031 A 
ATOM     26  C   UNL A   1      39.527  32.806  30.899  1.00  0.00     0.049 A 
ATOM     27  C   UNL A   1      44.536  30.341  31.368  1.00  0.00     0.074 A 
ATOM     28  C   UNL A   1      39.388  34.042  31.507  1.00  0.00     0.029 A 
ATOM     29  N   UNL A   1      40.838  32.404  31.107  1.00  0.00    -0.354 N 
ATOM     30  N   UNL A   1      43.420  31.029  31.359  1.00  0.00    -0.248 NA
ATOM     31  C   UNL A   1      45.681  31.047  31.958  1.00  0.00     0.031 C 
ATOM     32  C   UNL A   1      40.630  34.415  32.030  1.00  0.00     0.029 A 
ATOM     33  C   UNL A   1      41.530  33.388  31.794  1.00  0.00     0.049 A 
ATOM     34  H   UNL A   1      41.220  31.547  30.811  1.00  0.00     0.167 HD
ATOM     35  C   UNL A   1      43.727  32.249  31.949  1.00  0.00     0.074 A 
ATOM     36  C   UNL A   1      45.125  32.195  32.324  1.00  0.00     0.031 C 
ATOM     37  C   UNL A   1      42.923  33.321  32.153  1.00  0.00     0.031 A 
BRANCH  24  38
ATOM     38  C   UNL A   1      37.207  32.710  29.918  1.00  0.00    -0.014 A 
ATOM     39  C   UNL A   1      36.173  32.649  30.868  1.00  0.00     0.010 A 
ATOM     40  C   UNL A   1      37.023  33.481  28.754  1.00  0.00     0.010 A 
ATOM     41  C   UNL A   1      34.971  33.330  30.648  1.00  0.00     0.020 A 
ATOM     42  C   UNL A   1      35.830  34.179  28.541  1.00  0.00     0.020 A 
ATOM     43  C   UNL A   1      34.808  34.090  29.486  1.00  0.00     0.054 A 
BRANCH  43  44
ATOM     44  S   UNL A   1      33.256  35.003  29.251  1.00  0.00     0.124 S 
ATOM     45  O   UNL A   1      33.736  36.286  28.743  1.00  0.00    -0.237 OA
ATOM     46  O   UNL A   1      32.540  34.174  28.284  1.00  0.00    -0.237 OA
ATOM     47  O   UNL A   1      32.670  35.042  30.587  1.00  0.00    -0.744 OA
ENDBRANCH  43  44
ENDBRANCH  24  38
BRANCH  25  48
ATOM     48  C   UNL A   1      46.135  28.334  30.937  1.00  0.00    -0.014 A 
ATOM     49  C   UNL A   1      46.574  27.706  32.114  1.00  0.00     0.010 A 
ATOM     50  C   UNL A   1      46.984  28.357  29.813  1.00  0.00     0.010 A 
ATOM     51  C   UNL A   1      47.847  27.130  32.174  1.00  0.00     0.020 A 
ATOM     52  C   UNL A   1      48.245  27.757  29.861  1.00  0.00     0.020 A 
ATOM     53  C   UNL A   1      48.674  27.160  31.047  1.00  0.00     0.054 A 
BRANCH  53  54
ATOM     54  S   UNL A   1      50.304  26.370  31.131  1.00  0.00     0.124 S 
ATOM     55  O   UNL A   1      51.125  27.292  30.353  1.00  0.00    -0.237 OA
ATOM     56  O   UNL A   1      50.571  26.342  32.567  1.00  0.00    -0.237 OA
ATOM     57  O   UNL A   1      50.079  25.061  30.522  1.00  0.00    -0.744 OA
ENDBRANCH  53  54
ENDBRANCH  25  48
BRANCH  37  58
ATOM     58  C   UNL A   1      43.536  34.522  32.817  1.00  0.00    -0.014 A 
ATOM     59  C   UNL A   1      44.139  35.537  32.054  1.00  0.00     0.010 A 
ATOM     60  C   UNL A   1      43.450  34.669  34.213  1.00  0.00     0.010 A 
ATOM     61  C   UNL A   1      44.664  36.671  32.679  1.00  0.00     0.020 A 
ATOM     62  C   UNL A   1      43.951  35.812  34.839  1.00  0.00     0.020 A 
ATOM     63  C   UNL A   1      44.563  36.803  34.068  1.00  0.00     0.054 A 
BRANCH  63  64
ATOM     64  S   UNL A   1      45.195  38.313  34.848  1.00  0.00     0.124 S 
ATOM     65  O   UNL A   1      45.285  37.915  36.251  1.00  0.00    -0.237 OA
ATOM     66  O   UNL A   1      46.473  38.514  34.169  1.00  0.00    -0.237 OA
ATOM     67  O   UNL A   1      44.172  39.312  34.548  1.00  0.00    -0.744 OA
ENDBRANCH  63  64
ENDBRANCH  37  58
ENDBRANCH  11  12
ENDBRANCH   4   6
ENDBRANCH   1   2
BRANCH   1  68
ATOM     68  C   UNL A   1      41.675  22.103  27.156  1.00  0.00     0.023 C 
BRANCH  68  69
ATOM     69  C   UNL A   1      42.546  22.220  28.410  1.00  0.00     0.023 C 
BRANCH  69  70
ATOM     70  C   UNL A   1      43.672  23.248  28.324  1.00  0.00     0.116 C 
BRANCH  70  71
ATOM     71  N   UNL A   1      44.768  22.784  27.494  1.00  0.00    -0.351 N 
ATOM     72  C   UNL A   1      45.632  23.481  26.706  1.00  0.00     0.279 C 
ATOM     73  H   UNL A   1      44.910  21.810  27.501  1.00  0.00     0.163 HD
ATOM     74  O   UNL A   1      46.425  22.837  26.012  1.00  0.00    -0.268 OA
BRANCH  72  75
ATOM     75  C   UNL A   1      45.593  25.014  26.650  1.00  0.00     0.283 C 
ATOM     76  C   UNL A   1      47.002  25.568  26.889  1.00  0.00     0.151 C 
ATOM     77  N   UNL A   1      45.098  25.417  25.306  1.00  0.00    -0.320 N 
ATOM     78  S   UNL A   1      47.273  26.806  25.601  1.00  0.00    -0.087 SA
ATOM     79  C   UNL A   1      45.533  26.790  25.060  1.00  0.00     0.277 C 
ATOM     80  H   UNL A   1      44.079  25.367  25.282  1.00  0.00     0.348 HD
ATOM     81  H   UNL A   1      45.467  24.793  24.588  1.00  0.00     0.348 HD
BRANCH  79  82
ATOM     82  C   UNL A   1      44.717  27.894  25.716  1.00  0.00     0.059 A 
ATOM     83  C   UNL A   1      45.366  28.814  26.571  1.00  0.00     0.053 A 
ATOM     84  C   UNL A   1      43.348  28.102  25.487  1.00  0.00     0.133 A 
ATOM     85  C   UNL A   1      44.657  29.831  27.206  1.00  0.00     0.123 A 
ATOM     86  C   UNL A   1      42.641  29.126  26.127  1.00  0.00     0.043 A 
ATOM     87  F   UNL A   1      42.652  27.321  24.651  1.00  0.00    -0.206 F 
ATOM     88  F   UNL A   1      45.302  30.667  28.029  1.00  0.00    -0.207 F 
ATOM     89  C   UNL A   1      43.296  29.989  27.000  1.00  0.00     0.042 A 
ENDBRANCH  79  82
ENDBRANCH  72  75
ENDBRANCH  70  71
ENDBRANCH  69  70
ENDBRANCH  68  69
ENDBRANCH   1  68
TORSDOF 15
ENDMDL
MODEL 3
REMARK VINA RESULT:     -10.4      1.612      2.231
REMARK SMILES O=C(NCCCCNC(=O)[C@H]1CS[C@H](c2cc(F)ccc2F)[NH2+]1)c1ccc(-c2c3nc(c(-c4ccc(S(=O)(=O)[O-])cc4)c4ccc([nH]4)c(-c4ccc(S(=O)(=O)[O-])cc4)c4nc(c(-c5ccc(S(=O)(=O)[O-])cc5)c5ccc2[nH]5)C=C4)C=C3)cc1
REMARK SMILES IDX 4 1 3 2 1 3 2 4 24 6 25 7 83 8 26 9 82 10 27 11 28 12 29 13
REMARK SMILES IDX 76 14 30 15 81 16 75 17 77 18 31 19 80 20 74 21 73 22 32 24
REMARK SMILES IDX 62 25 43 26 61 27 44 28 47 29 60 30 78 31 45 32 46 33 59 35
REMARK SMILES IDX 79 36 48 37 33 38 34 39 42 40 35 41 41 42 36 43 37 44 38 45
REMARK SMILES IDX 39 46 40 47 63 48 64 49 72 50 65 51 71 52 66 53 67 54 68 55
REMARK SMILES IDX 69 56 70 57 49 58 50 59 58 60 51 61 57 62 52 63 53 64 54 65
REMARK SMILES IDX 55 66 56 67 5 68 6 69 7 70 8 71 9 72 10 74 11 75 12 76 23 77
REMARK SMILES IDX 13 78 14 79 15 82 16 83 21 84 17 85 20 86 22 87 18 88 19 89
REMARK H PARENT 3 5 77 23 47 34 8 73 23 80 23 81
REMARK Flexibility Score: inf
ROOT
ATOM      1  C   UNL A   1      33.576  28.195  27.213  1.00  0.00     0.116 C 
ENDROOT
BRANCH   1   2
ATOM      2  N   UNL A   1      33.374  29.622  27.396  1.00  0.00    -0.352 N 
ATOM      3  O   UNL A   1      33.853  31.698  28.131  1.00  0.00    -0.269 OA
ATOM      4  C   UNL A   1      34.243  30.554  27.910  1.00  0.00     0.251 C 
ATOM      5  H   UNL A   1      32.496  29.968  27.113  1.00  0.00     0.163 HD
BRANCH   4   6
ATOM      6  C   UNL A   1      35.637  30.168  28.217  1.00  0.00     0.039 A 
ATOM      7  C   UNL A   1      36.638  30.280  27.247  1.00  0.00     0.014 A 
ATOM      8  C   UNL A   1      35.947  29.702  29.497  1.00  0.00     0.014 A 
ATOM      9  C   UNL A   1      37.925  29.829  27.525  1.00  0.00     0.010 A 
ATOM     10  C   UNL A   1      37.257  29.313  29.795  1.00  0.00     0.010 A 
ATOM     11  C   UNL A   1      38.252  29.361  28.807  1.00  0.00    -0.014 A 
BRANCH  11  12
ATOM     12  C   UNL A   1      39.662  29.028  29.129  1.00  0.00     0.031 A 
ATOM     13  C   UNL A   1      40.262  27.706  28.741  1.00  0.00     0.074 A 
ATOM     14  C   UNL A   1      40.395  29.939  29.799  1.00  0.00     0.049 A 
ATOM     15  N   UNL A   1      41.469  27.255  28.974  1.00  0.00    -0.248 NA
ATOM     16  C   UNL A   1      39.403  26.766  28.003  1.00  0.00     0.031 C 
ATOM     17  C   UNL A   1      39.910  31.250  30.243  1.00  0.00     0.029 A 
ATOM     18  N   UNL A   1      41.697  29.906  30.229  1.00  0.00    -0.354 N 
ATOM     19  C   UNL A   1      41.509  25.973  28.439  1.00  0.00     0.074 A 
ATOM     20  C   UNL A   1      40.201  25.713  27.873  1.00  0.00     0.031 C 
ATOM     21  C   UNL A   1      40.904  31.901  30.863  1.00  0.00     0.029 A 
ATOM     22  C   UNL A   1      42.075  31.035  30.917  1.00  0.00     0.049 A 
ATOM     23  H   UNL A   1      42.301  29.147  30.063  1.00  0.00     0.167 HD
ATOM     24  C   UNL A   1      42.542  25.098  28.424  1.00  0.00     0.031 A 
ATOM     25  C   UNL A   1      43.224  31.332  31.552  1.00  0.00     0.031 A 
ATOM     26  C   UNL A   1      43.842  25.373  28.981  1.00  0.00     0.049 A 
ATOM     27  C   UNL A   1      44.339  30.328  31.549  1.00  0.00     0.074 A 
ATOM     28  C   UNL A   1      44.975  24.578  28.948  1.00  0.00     0.029 A 
ATOM     29  N   UNL A   1      44.178  26.518  29.686  1.00  0.00    -0.354 N 
ATOM     30  N   UNL A   1      44.381  29.152  30.968  1.00  0.00    -0.248 NA
ATOM     31  C   UNL A   1      45.556  30.683  32.289  1.00  0.00     0.031 C 
ATOM     32  C   UNL A   1      45.978  25.216  29.684  1.00  0.00     0.029 A 
ATOM     33  C   UNL A   1      45.486  26.431  30.132  1.00  0.00     0.049 A 
ATOM     34  H   UNL A   1      43.577  27.281  29.846  1.00  0.00     0.167 HD
ATOM     35  C   UNL A   1      45.633  28.630  31.269  1.00  0.00     0.074 A 
ATOM     36  C   UNL A   1      46.325  29.626  32.060  1.00  0.00     0.031 C 
ATOM     37  C   UNL A   1      46.157  27.429  30.926  1.00  0.00     0.031 A 
BRANCH  24  38
ATOM     38  C   UNL A   1      42.317  23.740  27.813  1.00  0.00    -0.014 A 
ATOM     39  C   UNL A   1      42.573  23.499  26.453  1.00  0.00     0.010 A 
ATOM     40  C   UNL A   1      41.933  22.666  28.639  1.00  0.00     0.010 A 
ATOM     41  C   UNL A   1      42.430  22.211  25.924  1.00  0.00     0.020 A 
ATOM     42  C   UNL A   1      41.810  21.374  28.119  1.00  0.00     0.020 A 
ATOM     43  C   UNL A   1      42.049  21.158  26.762  1.00  0.00     0.054 A 
BRANCH  43  44
ATOM     44  S   UNL A   1      41.919  19.489  26.059  1.00  0.00     0.124 S 
ATOM     45  O   UNL A   1      42.432  18.663  27.150  1.00  0.00    -0.237 OA
ATOM     46  O   UNL A   1      40.488  19.362  25.797  1.00  0.00    -0.237 OA
ATOM     47  O   UNL A   1      42.764  19.545  24.871  1.00  0.00    -0.744 OA
ENDBRANCH  43  44
ENDBRANCH  24  38
BRANCH  25  48
ATOM     48  C   UNL A   1      43.349  32.618  32.288  1.00  0.00    -0.014 A 
ATOM     49  C   UNL A   1      42.921  32.730  33.621  1.00  0.00     0.010 A 
ATOM     50  C   UNL A   1      43.922  33.738  31.654  1.00  0.00     0.010 A 
ATOM     51  C   UNL A   1      43.044  33.946  34.301  1.00  0.00     0.020 A 
ATOM     52  C   UNL A   1      44.072  34.945  32.341  1.00  0.00     0.020 A 
ATOM     53  C   UNL A   1      43.618  35.045  33.656  1.00  0.00     0.054 A 
BRANCH  53  54
ATOM     54  S   UNL A   1      43.809  36.601  34.569  1.00  0.00     0.124 S 
ATOM     55  O   UNL A   1      44.907  37.238  33.850  1.00  0.00    -0.237 OA
ATOM     56  O   UNL A   1      42.499  37.227  34.407  1.00  0.00    -0.237 OA
ATOM     57  O   UNL A   1      44.117  36.162  35.928  1.00  0.00    -0.744 OA
ENDBRANCH  53  54
ENDBRANCH  25  48
BRANCH  37  58
ATOM     58  C   UNL A   1      47.551  27.127  31.401  1.00  0.00    -0.014 A 
ATOM     59  C   UNL A   1      47.767  26.434  32.604  1.00  0.00     0.010 A 
ATOM     60  C   UNL A   1      48.654  27.483  30.604  1.00  0.00     0.010 A 
ATOM     61  C   UNL A   1      49.065  26.119  33.013  1.00  0.00     0.020 A 
ATOM     62  C   UNL A   1      49.951  27.147  30.997  1.00  0.00     0.020 A 
ATOM     63  C   UNL A   1      50.149  26.474  32.205  1.00  0.00     0.054 A 
BRANCH  63  64
ATOM     64  S   UNL A   1      51.820  25.998  32.726  1.00  0.00     0.124 S 
ATOM     65  O   UNL A   1      52.078  24.829  31.889  1.00  0.00    -0.237 OA
ATOM     66  O   UNL A   1      52.607  27.186  32.406  1.00  0.00    -0.237 OA
ATOM     67  O   UNL A   1      51.671  25.721  34.153  1.00  0.00    -0.744 OA
ENDBRANCH  63  64
ENDBRANCH  37  58
ENDBRANCH  11  12
ENDBRANCH   4   6
ENDBRANCH   1   2
BRANCH   1  68
ATOM     68  C   UNL A   1      34.026  27.839  25.800  1.00  0.00     0.023 C 
BRANCH  68  69
ATOM     69  C   UNL A   1      33.481  28.742  24.690  1.00  0.00     0.023 C 
BRANCH  69  70
ATOM     70  C   UNL A   1      33.863  28.326  23.270  1.00  0.00     0.116 C 
BRANCH  70  71
ATOM     71  N   UNL A   1      32.697  28.004  22.467  1.00  0.00    -0.351 N 
ATOM     72  C   UNL A   1      32.045  26.822  22.295  1.00  0.00     0.279 C 
ATOM     73  H   UNL A   1      32.317  28.761  21.966  1.00  0.00     0.163 HD
ATOM     74  O   UNL A   1      31.127  26.785  21.471  1.00  0.00    -0.268 OA
BRANCH  72  75
ATOM     75  C   UNL A   1      32.466  25.565  23.070  1.00  0.00     0.283 C 
ATOM     76  C   UNL A   1      31.602  25.430  24.329  1.00  0.00     0.151 C 
ATOM     77  N   UNL A   1      32.276  24.387  22.180  1.00  0.00    -0.320 N 
ATOM     78  S   UNL A   1      31.050  23.710  24.369  1.00  0.00    -0.087 SA
ATOM     79  C   UNL A   1      32.171  23.200  23.025  1.00  0.00     0.277 C 
ATOM     80  H   UNL A   1      33.074  24.295  21.552  1.00  0.00     0.348 HD
ATOM     81  H   UNL A   1      31.433  24.498  21.617  1.00  0.00     0.348 HD
BRANCH  79  82
ATOM     82  C   UNL A   1      33.473  22.618  23.555  1.00  0.00     0.059 A 
ATOM     83  C   UNL A   1      34.692  23.261  23.240  1.00  0.00     0.053 A 
ATOM     84  C   UNL A   1      33.549  21.496  24.395  1.00  0.00     0.133 A 
ATOM     85  C   UNL A   1      35.910  22.755  23.689  1.00  0.00     0.123 A 
ATOM     86  C   UNL A   1      34.775  20.993  24.844  1.00  0.00     0.043 A 
ATOM     87  F   UNL A   1      32.448  20.848  24.798  1.00  0.00    -0.206 F 
ATOM     88  F   UNL A   1      37.045  23.377  23.347  1.00  0.00    -0.207 F 
ATOM     89  C   UNL A   1      35.964  21.619  24.480  1.00  0.00     0.042 A 
ENDBRANCH  79  82
ENDBRANCH  72  75
ENDBRANCH  70  71
ENDBRANCH  69  70
ENDBRANCH  68  69
ENDBRANCH   1  68
TORSDOF 15
ENDMDL
