MODEL 1
REMARK VINA RESULT:     -11.6      0.000      0.000
REMARK SMILES Cc1[nH]c(=O)sc1S(=O)(=O)NC1(CC(=O)NCCCCNC(=O)c2ccc(-c3c4nc(c(-c5ccc(S(=O)(=O)[O-])cc5)c5ccc([nH]5)c(-c5ccc(S(=O)(=O)[O-])cc5)c5nc(c(-c6ccc(S(=O)(=O)[O-])cc6)c6ccc3[nH]6)C=C5)C=C4)cc2)CCC1
REMARK SMILES IDX 18 1 17 2 16 3 14 4 15 5 13 7 12 8 84 9 86 10 85 11 11 12
REMARK SMILES IDX 8 14 9 15 10 16 7 17 1 18 2 19 3 20 4 21 6 23 5 24 19 25
REMARK SMILES IDX 20 26 21 27 22 28 23 30 24 31 25 32 83 33 26 34 82 35 27 36
REMARK SMILES IDX 28 37 29 38 76 39 30 40 81 41 75 42 77 43 31 44 80 45 74 46
REMARK SMILES IDX 73 47 32 49 62 50 43 51 61 52 44 53 47 54 60 55 78 56 45 57
REMARK SMILES IDX 46 58 59 60 79 61 48 62 33 63 34 64 42 65 35 66 41 67 36 68
REMARK SMILES IDX 37 69 38 70 39 71 40 72 63 73 64 74 72 75 65 76 71 77 66 78
REMARK SMILES IDX 67 79 68 80 69 81 70 82 49 83 50 84 58 85 51 86 57 87 52 88
REMARK SMILES IDX 53 89 54 90 55 91 56 92
REMARK H PARENT 16 6 11 13 3 22 21 29 77 48 47 59
REMARK Flexibility Score: inf
ROOT
ATOM      1  C   UNL A   1      38.216  23.370  26.126  1.00  0.00     0.023 C 
ENDROOT
BRANCH   1   2
ATOM      2  C   UNL A   1      36.739  23.561  25.719  1.00  0.00     0.116 C 
BRANCH   2   3
ATOM      3  N   UNL A   1      35.740  23.245  26.720  1.00  0.00    -0.356 N 
ATOM      4  C   UNL A   1      34.529  22.635  26.599  1.00  0.00     0.221 C 
ATOM      5  O   UNL A   1      34.168  21.960  27.566  1.00  0.00    -0.275 OA
ATOM      6  H   UNL A   1      35.976  23.516  27.637  1.00  0.00     0.163 HD
BRANCH   4   7
ATOM      7  C   UNL A   1      33.635  22.722  25.391  1.00  0.00     0.123 C 
BRANCH   7   8
ATOM      8  C   UNL A   1      33.128  24.089  24.905  1.00  0.00     0.042 C 
ATOM      9  C   UNL A   1      32.061  23.955  23.738  1.00  0.00     0.024 C 
ATOM     10  C   UNL A   1      34.016  24.741  23.793  1.00  0.00     0.024 C 
ATOM     11  C   UNL A   1      33.217  23.992  22.730  1.00  0.00     0.004 C 
BRANCH   8  12
ATOM     12  N   UNL A   1      32.680  25.080  25.973  1.00  0.00    -0.204 NA
ATOM     13  H   UNL A   1      32.605  24.499  26.808  1.00  0.00     0.142 HD
BRANCH  12  14
ATOM     14  S   UNL A   1      31.356  26.145  26.127  1.00  0.00     0.252 S 
ATOM     15  O   UNL A   1      31.682  26.999  27.246  1.00  0.00    -0.206 OA
ATOM     16  O   UNL A   1      30.239  25.221  26.243  1.00  0.00    -0.206 OA
BRANCH  14  17
ATOM     17  C   UNL A   1      31.150  27.040  24.656  1.00  0.00     0.158 A 
ATOM     18  C   UNL A   1      33.420  28.220  24.782  1.00  0.00     0.067 C 
ATOM     19  C   UNL A   1      32.071  27.921  24.223  1.00  0.00     0.046 A 
ATOM     20  N   UNL A   1      31.628  28.651  23.142  1.00  0.00    -0.315 N 
ATOM     21  C   UNL A   1      30.365  28.371  22.692  1.00  0.00     0.305 A 
ATOM     22  H   UNL A   1      32.189  29.339  22.715  1.00  0.00     0.170 HD
ATOM     23  S   UNL A   1      29.768  26.979  23.573  1.00  0.00    -0.061 S 
ATOM     24  O   UNL A   1      29.770  28.998  21.821  1.00  0.00    -0.257 OA
ENDBRANCH  14  17
ENDBRANCH  12  14
ENDBRANCH   8  12
ENDBRANCH   7   8
ENDBRANCH   4   7
ENDBRANCH   2   3
ENDBRANCH   1   2
BRANCH   1  25
ATOM     25  C   UNL A   1      38.878  21.994  26.043  1.00  0.00     0.023 C 
BRANCH  25  26
ATOM     26  C   UNL A   1      40.076  21.798  26.934  1.00  0.00     0.116 C 
BRANCH  26  27
ATOM     27  N   UNL A   1      41.331  21.870  26.184  1.00  0.00    -0.352 N 
ATOM     28  C   UNL A   1      42.050  23.006  25.853  1.00  0.00     0.251 C 
ATOM     29  H   UNL A   1      41.707  21.014  25.880  1.00  0.00     0.163 HD
ATOM     30  O   UNL A   1      42.817  23.016  24.901  1.00  0.00    -0.269 OA
BRANCH  28  31
ATOM     31  C   UNL A   1      41.875  24.184  26.713  1.00  0.00     0.039 A 
ATOM     32  C   UNL A   1      42.447  24.309  27.978  1.00  0.00     0.014 A 
ATOM     33  C   UNL A   1      41.156  25.229  26.145  1.00  0.00     0.014 A 
ATOM     34  C   UNL A   1      42.303  25.526  28.635  1.00  0.00     0.010 A 
ATOM     35  C   UNL A   1      41.311  26.482  26.635  1.00  0.00     0.010 A 
ATOM     36  C   UNL A   1      41.727  26.606  27.943  1.00  0.00    -0.014 A 
BRANCH  36  37
ATOM     37  C   UNL A   1      41.552  27.921  28.521  1.00  0.00     0.031 A 
ATOM     38  C   UNL A   1      42.634  28.865  28.183  1.00  0.00     0.074 A 
ATOM     39  C   UNL A   1      40.411  28.291  29.143  1.00  0.00     0.049 A 
ATOM     40  N   UNL A   1      43.640  29.167  28.928  1.00  0.00    -0.248 NA
ATOM     41  C   UNL A   1      42.738  29.361  26.802  1.00  0.00     0.031 C 
ATOM     42  C   UNL A   1      39.131  27.573  29.275  1.00  0.00     0.029 A 
ATOM     43  N   UNL A   1      40.128  29.477  29.726  1.00  0.00    -0.354 N 
ATOM     44  C   UNL A   1      44.372  30.099  28.210  1.00  0.00     0.074 A 
ATOM     45  C   UNL A   1      43.909  30.003  26.847  1.00  0.00     0.031 C 
ATOM     46  C   UNL A   1      38.163  28.431  29.676  1.00  0.00     0.029 A 
ATOM     47  C   UNL A   1      38.788  29.693  30.018  1.00  0.00     0.049 A 
ATOM     48  H   UNL A   1      40.825  30.143  29.931  1.00  0.00     0.167 HD
ATOM     49  C   UNL A   1      45.097  31.057  28.850  1.00  0.00     0.031 A 
ATOM     50  C   UNL A   1      38.245  30.839  30.502  1.00  0.00     0.031 A 
ATOM     51  C   UNL A   1      45.166  30.799  30.269  1.00  0.00     0.049 A 
ATOM     52  C   UNL A   1      39.362  31.583  31.145  1.00  0.00     0.074 A 
ATOM     53  C   UNL A   1      45.669  29.772  31.043  1.00  0.00     0.029 A 
ATOM     54  N   UNL A   1      44.249  31.460  31.059  1.00  0.00    -0.354 N 
ATOM     55  N   UNL A   1      40.007  31.129  32.188  1.00  0.00    -0.248 NA
ATOM     56  C   UNL A   1      40.095  32.543  30.333  1.00  0.00     0.031 C 
ATOM     57  C   UNL A   1      44.695  29.575  32.066  1.00  0.00     0.029 A 
ATOM     58  C   UNL A   1      43.699  30.546  31.923  1.00  0.00     0.049 A 
ATOM     59  H   UNL A   1      44.028  32.419  31.011  1.00  0.00     0.167 HD
ATOM     60  C   UNL A   1      41.346  31.397  31.928  1.00  0.00     0.074 A 
ATOM     61  C   UNL A   1      41.329  32.342  30.809  1.00  0.00     0.031 C 
ATOM     62  C   UNL A   1      42.344  30.616  32.440  1.00  0.00     0.031 A 
BRANCH  49  63
ATOM     63  C   UNL A   1      45.380  32.421  28.284  1.00  0.00    -0.014 A 
ATOM     64  C   UNL A   1      46.722  32.824  28.150  1.00  0.00     0.010 A 
ATOM     65  C   UNL A   1      44.389  33.412  28.131  1.00  0.00     0.010 A 
ATOM     66  C   UNL A   1      47.058  34.167  27.944  1.00  0.00     0.020 A 
ATOM     67  C   UNL A   1      44.711  34.747  27.885  1.00  0.00     0.020 A 
ATOM     68  C   UNL A   1      46.047  35.121  27.826  1.00  0.00     0.054 A 
BRANCH  68  69
ATOM     69  S   UNL A   1      46.497  36.864  27.663  1.00  0.00     0.124 S 
ATOM     70  O   UNL A   1      47.907  36.847  28.040  1.00  0.00    -0.237 OA
ATOM     71  O   UNL A   1      46.221  37.122  26.252  1.00  0.00    -0.237 OA
ATOM     72  O   UNL A   1      45.604  37.538  28.602  1.00  0.00    -0.744 OA
ENDBRANCH  68  69
ENDBRANCH  49  63
BRANCH  50  73
ATOM     73  C   UNL A   1      36.965  31.472  30.086  1.00  0.00    -0.014 A 
ATOM     74  C   UNL A   1      35.995  31.864  31.028  1.00  0.00     0.010 A 
ATOM     75  C   UNL A   1      36.820  31.952  28.766  1.00  0.00     0.010 A 
ATOM     76  C   UNL A   1      34.950  32.740  30.674  1.00  0.00     0.020 A 
ATOM     77  C   UNL A   1      35.783  32.825  28.407  1.00  0.00     0.020 A 
ATOM     78  C   UNL A   1      34.862  33.231  29.369  1.00  0.00     0.054 A 
BRANCH  78  79
ATOM     79  S   UNL A   1      33.606  34.486  28.964  1.00  0.00     0.124 S 
ATOM     80  O   UNL A   1      34.410  35.551  28.370  1.00  0.00    -0.237 OA
ATOM     81  O   UNL A   1      32.727  33.772  28.043  1.00  0.00    -0.237 OA
ATOM     82  O   UNL A   1      33.010  34.810  30.259  1.00  0.00    -0.744 OA
ENDBRANCH  78  79
ENDBRANCH  50  73
BRANCH  62  83
ATOM     83  C   UNL A   1      41.997  29.591  33.502  1.00  0.00    -0.014 A 
ATOM     84  C   UNL A   1      41.557  28.280  33.223  1.00  0.00     0.010 A 
ATOM     85  C   UNL A   1      42.325  29.915  34.829  1.00  0.00     0.010 A 
ATOM     86  C   UNL A   1      41.448  27.326  34.251  1.00  0.00     0.020 A 
ATOM     87  C   UNL A   1      42.235  28.968  35.851  1.00  0.00     0.020 A 
ATOM     88  C   UNL A   1      41.794  27.678  35.560  1.00  0.00     0.054 A 
BRANCH  88  89
ATOM     89  S   UNL A   1      41.724  26.430  36.880  1.00  0.00     0.124 S 
ATOM     90  O   UNL A   1      40.458  26.737  37.541  1.00  0.00    -0.237 OA
ATOM     91  O   UNL A   1      41.758  25.170  36.141  1.00  0.00    -0.237 OA
ATOM     92  O   UNL A   1      42.919  26.700  37.679  1.00  0.00    -0.744 OA
ENDBRANCH  88  89
ENDBRANCH  62  83
ENDBRANCH  36  37
ENDBRANCH  28  31
ENDBRANCH  26  27
ENDBRANCH  25  26
ENDBRANCH   1  25
TORSDOF 18
ENDMDL
MODEL 2
REMARK VINA RESULT:     -11.5      1.688      2.935
REMARK SMILES Cc1[nH]c(=O)sc1S(=O)(=O)NC1(CC(=O)NCCCCNC(=O)c2ccc(-c3c4nc(c(-c5ccc(S(=O)(=O)[O-])cc5)c5ccc([nH]5)c(-c5ccc(S(=O)(=O)[O-])cc5)c5nc(c(-c6ccc(S(=O)(=O)[O-])cc6)c6ccc3[nH]6)C=C5)C=C4)cc2)CCC1
REMARK SMILES IDX 18 1 17 2 16 3 14 4 15 5 13 7 12 8 84 9 86 10 85 11 11 12
REMARK SMILES IDX 8 14 9 15 10 16 7 17 1 18 2 19 3 20 4 21 6 23 5 24 19 25
REMARK SMILES IDX 20 26 21 27 22 28 23 30 24 31 25 32 83 33 26 34 82 35 27 36
REMARK SMILES IDX 28 37 29 38 76 39 30 40 81 41 75 42 77 43 31 44 80 45 74 46
REMARK SMILES IDX 73 47 32 49 62 50 43 51 61 52 44 53 47 54 60 55 78 56 45 57
REMARK SMILES IDX 46 58 59 60 79 61 48 62 33 63 34 64 42 65 35 66 41 67 36 68
REMARK SMILES IDX 37 69 38 70 39 71 40 72 63 73 64 74 72 75 65 76 71 77 66 78
REMARK SMILES IDX 67 79 68 80 69 81 70 82 49 83 50 84 58 85 51 86 57 87 52 88
REMARK SMILES IDX 53 89 54 90 55 91 56 92
REMARK H PARENT 16 6 11 13 3 22 21 29 77 48 47 59
REMARK Flexibility Score: inf
ROOT
ATOM      1  C   UNL A   1      37.903  22.381  25.606  1.00  0.00     0.023 C 
ENDROOT
BRANCH   1   2
ATOM      2  C   UNL A   1      36.565  21.639  25.397  1.00  0.00     0.116 C 
BRANCH   2   3
ATOM      3  N   UNL A   1      35.751  22.064  24.276  1.00  0.00    -0.356 N 
ATOM      4  C   UNL A   1      35.285  23.298  23.939  1.00  0.00     0.221 C 
ATOM      5  O   UNL A   1      35.169  23.517  22.731  1.00  0.00    -0.275 OA
ATOM      6  H   UNL A   1      35.492  21.343  23.658  1.00  0.00     0.163 HD
BRANCH   4   7
ATOM      7  C   UNL A   1      34.924  24.383  24.919  1.00  0.00     0.123 C 
BRANCH   7   8
ATOM      8  C   UNL A   1      33.485  24.921  24.975  1.00  0.00     0.042 C 
ATOM      9  C   UNL A   1      33.249  26.114  23.955  1.00  0.00     0.024 C 
ATOM     10  C   UNL A   1      33.257  26.025  26.061  1.00  0.00     0.024 C 
ATOM     11  C   UNL A   1      33.688  27.089  25.055  1.00  0.00     0.004 C 
BRANCH   8  12
ATOM     12  N   UNL A   1      32.360  23.894  24.917  1.00  0.00    -0.204 NA
ATOM     13  H   UNL A   1      31.521  24.470  24.990  1.00  0.00     0.142 HD
BRANCH  12  14
ATOM     14  S   UNL A   1      31.960  22.515  25.837  1.00  0.00     0.252 S 
ATOM     15  O   UNL A   1      30.534  22.606  26.059  1.00  0.00    -0.206 OA
ATOM     16  O   UNL A   1      32.861  22.636  26.970  1.00  0.00    -0.206 OA
BRANCH  14  17
ATOM     17  C   UNL A   1      32.398  21.082  24.965  1.00  0.00     0.158 A 
ATOM     18  C   UNL A   1      31.920  22.064  22.648  1.00  0.00     0.067 C 
ATOM     19  C   UNL A   1      32.289  21.001  23.625  1.00  0.00     0.046 A 
ATOM     20  N   UNL A   1      32.512  19.724  23.159  1.00  0.00    -0.315 N 
ATOM     21  C   UNL A   1      32.804  18.773  24.099  1.00  0.00     0.305 A 
ATOM     22  H   UNL A   1      32.464  19.506  22.200  1.00  0.00     0.170 HD
ATOM     23  S   UNL A   1      32.983  19.573  25.648  1.00  0.00    -0.061 S 
ATOM     24  O   UNL A   1      32.917  17.571  23.878  1.00  0.00    -0.257 OA
ENDBRANCH  14  17
ENDBRANCH  12  14
ENDBRANCH   8  12
ENDBRANCH   7   8
ENDBRANCH   4   7
ENDBRANCH   2   3
ENDBRANCH   1   2
BRANCH   1  25
ATOM     25  C   UNL A   1      39.133  21.640  26.134  1.00  0.00     0.023 C 
BRANCH  25  26
ATOM     26  C   UNL A   1      40.014  22.431  27.063  1.00  0.00     0.116 C 
BRANCH  26  27
ATOM     27  N   UNL A   1      41.433  22.140  26.848  1.00  0.00    -0.352 N 
ATOM     28  C   UNL A   1      42.425  23.025  26.461  1.00  0.00     0.251 C 
ATOM     29  H   UNL A   1      41.713  21.209  26.995  1.00  0.00     0.163 HD
ATOM     30  O   UNL A   1      43.443  22.634  25.910  1.00  0.00    -0.269 OA
BRANCH  28  31
ATOM     31  C   UNL A   1      42.213  24.445  26.769  1.00  0.00     0.039 A 
ATOM     32  C   UNL A   1      41.422  25.294  25.996  1.00  0.00     0.014 A 
ATOM     33  C   UNL A   1      42.793  24.885  27.953  1.00  0.00     0.014 A 
ATOM     34  C   UNL A   1      41.206  26.584  26.469  1.00  0.00     0.010 A 
ATOM     35  C   UNL A   1      42.308  26.000  28.553  1.00  0.00     0.010 A 
ATOM     36  C   UNL A   1      41.662  26.919  27.756  1.00  0.00    -0.014 A 
BRANCH  36  37
ATOM     37  C   UNL A   1      41.469  28.223  28.355  1.00  0.00     0.031 A 
ATOM     38  C   UNL A   1      42.531  29.191  28.020  1.00  0.00     0.074 A 
ATOM     39  C   UNL A   1      40.327  28.565  28.991  1.00  0.00     0.049 A 
ATOM     40  N   UNL A   1      43.539  29.499  28.761  1.00  0.00    -0.248 NA
ATOM     41  C   UNL A   1      42.616  29.707  26.646  1.00  0.00     0.031 C 
ATOM     42  C   UNL A   1      39.061  27.823  29.124  1.00  0.00     0.029 A 
ATOM     43  N   UNL A   1      40.029  29.738  29.593  1.00  0.00    -0.354 N 
ATOM     44  C   UNL A   1      44.248  30.454  28.051  1.00  0.00     0.074 A 
ATOM     45  C   UNL A   1      43.775  30.368  26.690  1.00  0.00     0.031 C 
ATOM     46  C   UNL A   1      38.082  28.658  29.544  1.00  0.00     0.029 A 
ATOM     47  C   UNL A   1      38.688  29.926  29.898  1.00  0.00     0.049 A 
ATOM     48  H   UNL A   1      40.716  30.412  29.801  1.00  0.00     0.167 HD
ATOM     49  C   UNL A   1      44.963  31.415  28.698  1.00  0.00     0.031 A 
ATOM     50  C   UNL A   1      38.129  31.055  30.403  1.00  0.00     0.031 A 
ATOM     51  C   UNL A   1      45.047  31.139  30.112  1.00  0.00     0.049 A 
ATOM     52  C   UNL A   1      39.239  31.810  31.048  1.00  0.00     0.074 A 
ATOM     53  C   UNL A   1      45.575  30.110  30.868  1.00  0.00     0.029 A 
ATOM     54  N   UNL A   1      44.126  31.773  30.919  1.00  0.00    -0.354 N 
ATOM     55  N   UNL A   1      39.900  31.353  32.078  1.00  0.00    -0.248 NA
ATOM     56  C   UNL A   1      39.948  32.793  30.242  1.00  0.00     0.031 C 
ATOM     57  C   UNL A   1      44.614  29.882  31.896  1.00  0.00     0.029 A 
ATOM     58  C   UNL A   1      43.599  30.838  31.775  1.00  0.00     0.049 A 
ATOM     59  H   UNL A   1      43.889  32.729  30.887  1.00  0.00     0.167 HD
ATOM     60  C   UNL A   1      41.232  31.647  31.811  1.00  0.00     0.074 A 
ATOM     61  C   UNL A   1      41.189  32.608  30.706  1.00  0.00     0.031 C 
ATOM     62  C   UNL A   1      42.248  30.877  32.304  1.00  0.00     0.031 A 
BRANCH  49  63
ATOM     63  C   UNL A   1      45.217  32.792  28.148  1.00  0.00    -0.014 A 
ATOM     64  C   UNL A   1      46.548  33.243  28.066  1.00  0.00     0.010 A 
ATOM     65  C   UNL A   1      44.198  33.747  27.963  1.00  0.00     0.010 A 
ATOM     66  C   UNL A   1      46.842  34.598  27.878  1.00  0.00     0.020 A 
ATOM     67  C   UNL A   1      44.480  35.094  27.735  1.00  0.00     0.020 A 
ATOM     68  C   UNL A   1      45.803  35.516  27.727  1.00  0.00     0.054 A 
BRANCH  68  69
ATOM     69  S   UNL A   1      46.196  37.275  27.588  1.00  0.00     0.124 S 
ATOM     70  O   UNL A   1      46.770  37.350  26.248  1.00  0.00    -0.237 OA
ATOM     71  O   UNL A   1      44.885  37.897  27.753  1.00  0.00    -0.237 OA
ATOM     72  O   UNL A   1      47.132  37.505  28.686  1.00  0.00    -0.744 OA
ENDBRANCH  68  69
ENDBRANCH  49  63
BRANCH  50  73
ATOM     73  C   UNL A   1      36.835  31.672  30.006  1.00  0.00    -0.014 A 
ATOM     74  C   UNL A   1      35.857  32.012  30.960  1.00  0.00     0.010 A 
ATOM     75  C   UNL A   1      36.678  32.189  28.702  1.00  0.00     0.010 A 
ATOM     76  C   UNL A   1      34.792  32.875  30.634  1.00  0.00     0.020 A 
ATOM     77  C   UNL A   1      35.622  33.050  28.370  1.00  0.00     0.020 A 
ATOM     78  C   UNL A   1      34.692  33.405  29.344  1.00  0.00     0.054 A 
BRANCH  78  79
ATOM     79  S   UNL A   1      33.408  34.642  28.978  1.00  0.00     0.124 S 
ATOM     80  O   UNL A   1      32.829  34.889  30.295  1.00  0.00    -0.237 OA
ATOM     81  O   UNL A   1      34.181  35.745  28.412  1.00  0.00    -0.237 OA
ATOM     82  O   UNL A   1      32.528  33.959  28.033  1.00  0.00    -0.744 OA
ENDBRANCH  78  79
ENDBRANCH  50  73
BRANCH  62  83
ATOM     83  C   UNL A   1      41.928  29.832  33.354  1.00  0.00    -0.014 A 
ATOM     84  C   UNL A   1      41.524  28.512  33.060  1.00  0.00     0.010 A 
ATOM     85  C   UNL A   1      42.245  30.151  34.686  1.00  0.00     0.010 A 
ATOM     86  C   UNL A   1      41.440  27.544  34.079  1.00  0.00     0.020 A 
ATOM     87  C   UNL A   1      42.180  29.190  35.697  1.00  0.00     0.020 A 
ATOM     88  C   UNL A   1      41.774  27.891  35.392  1.00  0.00     0.054 A 
BRANCH  88  89
ATOM     89  S   UNL A   1      41.737  26.629  36.698  1.00  0.00     0.124 S 
ATOM     90  O   UNL A   1      42.976  26.889  37.427  1.00  0.00    -0.237 OA
ATOM     91  O   UNL A   1      40.505  26.941  37.420  1.00  0.00    -0.237 OA
ATOM     92  O   UNL A   1      41.707  25.365  35.962  1.00  0.00    -0.744 OA
ENDBRANCH  88  89
ENDBRANCH  62  83
ENDBRANCH  36  37
ENDBRANCH  28  31
ENDBRANCH  26  27
ENDBRANCH  25  26
ENDBRANCH   1  25
TORSDOF 18
ENDMDL
MODEL 3
REMARK VINA RESULT:     -11.4      3.970      8.702
REMARK SMILES Cc1[nH]c(=O)sc1S(=O)(=O)NC1(CC(=O)NCCCCNC(=O)c2ccc(-c3c4nc(c(-c5ccc(S(=O)(=O)[O-])cc5)c5ccc([nH]5)c(-c5ccc(S(=O)(=O)[O-])cc5)c5nc(c(-c6ccc(S(=O)(=O)[O-])cc6)c6ccc3[nH]6)C=C5)C=C4)cc2)CCC1
REMARK SMILES IDX 18 1 17 2 16 3 14 4 15 5 13 7 12 8 84 9 86 10 85 11 11 12
REMARK SMILES IDX 8 14 9 15 10 16 7 17 1 18 2 19 3 20 4 21 6 23 5 24 19 25
REMARK SMILES IDX 20 26 21 27 22 28 23 30 24 31 25 32 83 33 26 34 82 35 27 36
REMARK SMILES IDX 28 37 29 38 76 39 30 40 81 41 75 42 77 43 31 44 80 45 74 46
REMARK SMILES IDX 73 47 32 49 62 50 43 51 61 52 44 53 47 54 60 55 78 56 45 57
REMARK SMILES IDX 46 58 59 60 79 61 48 62 33 63 34 64 42 65 35 66 41 67 36 68
REMARK SMILES IDX 37 69 38 70 39 71 40 72 63 73 64 74 72 75 65 76 71 77 66 78
REMARK SMILES IDX 67 79 68 80 69 81 70 82 49 83 50 84 58 85 51 86 57 87 52 88
REMARK SMILES IDX 53 89 54 90 55 91 56 92
REMARK H PARENT 16 6 11 13 3 22 21 29 77 48 47 59
REMARK Flexibility Score: inf
ROOT
ATOM      1  C   UNL A   1      37.304  22.944  25.662  1.00  0.00     0.023 C 
ENDROOT
BRANCH   1   2
ATOM      2  C   UNL A   1      35.909  23.366  26.169  1.00  0.00     0.116 C 
BRANCH   2   3
ATOM      3  N   UNL A   1      35.282  22.503  27.150  1.00  0.00    -0.356 N 
ATOM      4  C   UNL A   1      33.970  22.206  27.357  1.00  0.00     0.221 C 
ATOM      5  O   UNL A   1      33.736  21.072  27.781  1.00  0.00    -0.275 OA
ATOM      6  H   UNL A   1      35.907  22.061  27.769  1.00  0.00     0.163 HD
BRANCH   4   7
ATOM      7  C   UNL A   1      32.819  23.142  27.095  1.00  0.00     0.123 C 
BRANCH   7   8
ATOM      8  C   UNL A   1      31.696  22.729  26.131  1.00  0.00     0.042 C 
ATOM      9  C   UNL A   1      31.419  23.831  25.023  1.00  0.00     0.024 C 
ATOM     10  C   UNL A   1      30.259  23.103  26.626  1.00  0.00     0.024 C 
ATOM     11  C   UNL A   1      30.404  24.477  25.976  1.00  0.00     0.004 C 
BRANCH   8  12
ATOM     12  N   UNL A   1      31.779  21.331  25.530  1.00  0.00    -0.204 NA
ATOM     13  H   UNL A   1      32.050  20.754  26.327  1.00  0.00     0.142 HD
BRANCH  12  14
ATOM     14  S   UNL A   1      32.657  20.640  24.242  1.00  0.00     0.252 S 
ATOM     15  O   UNL A   1      33.965  21.252  24.300  1.00  0.00    -0.206 OA
ATOM     16  O   UNL A   1      31.796  20.920  23.105  1.00  0.00    -0.206 OA
BRANCH  14  17
ATOM     17  C   UNL A   1      32.729  18.919  24.438  1.00  0.00     0.158 A 
ATOM     18  C   UNL A   1      32.538  18.391  21.939  1.00  0.00     0.067 C 
ATOM     19  C   UNL A   1      32.617  18.077  23.394  1.00  0.00     0.046 A 
ATOM     20  N   UNL A   1      32.515  16.761  23.791  1.00  0.00    -0.315 N 
ATOM     21  C   UNL A   1      32.548  16.527  25.140  1.00  0.00     0.305 A 
ATOM     22  H   UNL A   1      32.423  16.028  23.140  1.00  0.00     0.170 HD
ATOM     23  S   UNL A   1      32.907  18.039  25.948  1.00  0.00    -0.061 S 
ATOM     24  O   UNL A   1      32.356  15.438  25.673  1.00  0.00    -0.257 OA
ENDBRANCH  14  17
ENDBRANCH  12  14
ENDBRANCH   8  12
ENDBRANCH   7   8
ENDBRANCH   4   7
ENDBRANCH   2   3
ENDBRANCH   1   2
BRANCH   1  25
ATOM     25  C   UNL A   1      37.891  21.580  26.034  1.00  0.00     0.023 C 
BRANCH  25  26
ATOM     26  C   UNL A   1      38.567  20.839  24.911  1.00  0.00     0.116 C 
BRANCH  26  27
ATOM     27  N   UNL A   1      39.284  19.657  25.393  1.00  0.00    -0.352 N 
ATOM     28  C   UNL A   1      40.587  19.594  25.859  1.00  0.00     0.251 C 
ATOM     29  H   UNL A   1      38.783  18.811  25.385  1.00  0.00     0.163 HD
ATOM     30  O   UNL A   1      41.218  18.548  25.833  1.00  0.00    -0.269 OA
BRANCH  28  31
ATOM     31  C   UNL A   1      41.161  20.828  26.411  1.00  0.00     0.039 A 
ATOM     32  C   UNL A   1      41.858  21.763  25.649  1.00  0.00     0.014 A 
ATOM     33  C   UNL A   1      40.890  21.055  27.755  1.00  0.00     0.014 A 
ATOM     34  C   UNL A   1      42.243  22.947  26.272  1.00  0.00     0.010 A 
ATOM     35  C   UNL A   1      40.968  22.318  28.240  1.00  0.00     0.010 A 
ATOM     36  C   UNL A   1      41.785  23.205  27.576  1.00  0.00    -0.014 A 
BRANCH  36  37
ATOM     37  C   UNL A   1      42.104  24.413  28.306  1.00  0.00     0.031 A 
ATOM     38  C   UNL A   1      41.111  25.491  28.130  1.00  0.00     0.074 A 
ATOM     39  C   UNL A   1      43.106  24.468  29.210  1.00  0.00     0.049 A 
ATOM     40  N   UNL A   1      41.210  26.491  27.324  1.00  0.00    -0.248 NA
ATOM     41  C   UNL A   1      39.780  25.337  28.737  1.00  0.00     0.031 C 
ATOM     42  C   UNL A   1      43.972  23.394  29.728  1.00  0.00     0.029 A 
ATOM     43  N   UNL A   1      43.505  25.530  29.946  1.00  0.00    -0.354 N 
ATOM     44  C   UNL A   1      40.062  27.242  27.517  1.00  0.00     0.074 A 
ATOM     45  C   UNL A   1      39.134  26.379  28.206  1.00  0.00     0.031 C 
ATOM     46  C   UNL A   1      44.606  23.816  30.848  1.00  0.00     0.029 A 
ATOM     47  C   UNL A   1      44.350  25.234  31.007  1.00  0.00     0.049 A 
ATOM     48  H   UNL A   1      43.217  26.449  29.744  1.00  0.00     0.167 HD
ATOM     49  C   UNL A   1      40.075  28.591  27.336  1.00  0.00     0.031 A 
ATOM     50  C   UNL A   1      44.797  26.106  31.947  1.00  0.00     0.031 A 
ATOM     51  C   UNL A   1      41.309  29.024  26.725  1.00  0.00     0.049 A 
ATOM     52  C   UNL A   1      44.668  27.461  31.344  1.00  0.00     0.074 A 
ATOM     53  C   UNL A   1      41.936  28.767  25.522  1.00  0.00     0.029 A 
ATOM     54  N   UNL A   1      42.291  29.481  27.579  1.00  0.00    -0.354 N 
ATOM     55  N   UNL A   1      45.345  27.832  30.288  1.00  0.00    -0.248 NA
ATOM     56  C   UNL A   1      43.433  28.194  31.579  1.00  0.00     0.031 C 
ATOM     57  C   UNL A   1      43.315  28.620  25.853  1.00  0.00     0.029 A 
ATOM     58  C   UNL A   1      43.474  28.886  27.217  1.00  0.00     0.049 A 
ATOM     59  H   UNL A   1      42.165  30.120  28.318  1.00  0.00     0.167 HD
ATOM     60  C   UNL A   1      44.431  28.523  29.500  1.00  0.00     0.074 A 
ATOM     61  C   UNL A   1      43.293  28.783  30.385  1.00  0.00     0.031 C 
ATOM     62  C   UNL A   1      44.549  28.566  28.139  1.00  0.00     0.031 A 
BRANCH  49  63
ATOM     63  C   UNL A   1      39.185  29.550  28.077  1.00  0.00    -0.014 A 
ATOM     64  C   UNL A   1      39.621  30.040  29.323  1.00  0.00     0.010 A 
ATOM     65  C   UNL A   1      37.838  29.776  27.730  1.00  0.00     0.010 A 
ATOM     66  C   UNL A   1      38.734  30.664  30.207  1.00  0.00     0.020 A 
ATOM     67  C   UNL A   1      36.954  30.432  28.587  1.00  0.00     0.020 A 
ATOM     68  C   UNL A   1      37.401  30.843  29.836  1.00  0.00     0.054 A 
BRANCH  68  69
ATOM     69  S   UNL A   1      36.244  31.556  31.027  1.00  0.00     0.124 S 
ATOM     70  O   UNL A   1      37.031  32.646  31.595  1.00  0.00    -0.237 OA
ATOM     71  O   UNL A   1      35.130  31.956  30.172  1.00  0.00    -0.237 OA
ATOM     72  O   UNL A   1      35.960  30.448  31.936  1.00  0.00    -0.744 OA
ENDBRANCH  68  69
ENDBRANCH  49  63
BRANCH  50  73
ATOM     73  C   UNL A   1      44.924  25.864  33.408  1.00  0.00    -0.014 A 
ATOM     74  C   UNL A   1      45.811  26.613  34.207  1.00  0.00     0.010 A 
ATOM     75  C   UNL A   1      43.958  25.078  34.074  1.00  0.00     0.010 A 
ATOM     76  C   UNL A   1      45.701  26.614  35.611  1.00  0.00     0.020 A 
ATOM     77  C   UNL A   1      43.843  25.074  35.472  1.00  0.00     0.020 A 
ATOM     78  C   UNL A   1      44.704  25.858  36.235  1.00  0.00     0.054 A 
BRANCH  78  79
ATOM     79  S   UNL A   1      44.469  25.992  38.035  1.00  0.00     0.124 S 
ATOM     80  O   UNL A   1      43.112  26.522  38.134  1.00  0.00    -0.237 OA
ATOM     81  O   UNL A   1      44.641  24.613  38.482  1.00  0.00    -0.237 OA
ATOM     82  O   UNL A   1      45.525  26.912  38.454  1.00  0.00    -0.744 OA
ENDBRANCH  78  79
ENDBRANCH  50  73
BRANCH  62  83
ATOM     83  C   UNL A   1      45.827  28.058  27.501  1.00  0.00    -0.014 A 
ATOM     84  C   UNL A   1      46.045  26.716  27.124  1.00  0.00     0.010 A 
ATOM     85  C   UNL A   1      46.759  29.025  27.089  1.00  0.00     0.010 A 
ATOM     86  C   UNL A   1      47.170  26.360  26.358  1.00  0.00     0.020 A 
ATOM     87  C   UNL A   1      47.869  28.681  26.314  1.00  0.00     0.020 A 
ATOM     88  C   UNL A   1      48.073  27.349  25.954  1.00  0.00     0.054 A 
BRANCH  88  89
ATOM     89  S   UNL A   1      49.489  26.907  24.904  1.00  0.00     0.124 S 
ATOM     90  O   UNL A   1      50.114  28.202  24.651  1.00  0.00    -0.237 OA
ATOM     91  O   UNL A   1      50.253  25.995  25.753  1.00  0.00    -0.237 OA
ATOM     92  O   UNL A   1      48.874  26.279  23.735  1.00  0.00    -0.744 OA
ENDBRANCH  88  89
ENDBRANCH  62  83
ENDBRANCH  36  37
ENDBRANCH  28  31
ENDBRANCH  26  27
ENDBRANCH  25  26
ENDBRANCH   1  25
TORSDOF 18
ENDMDL
