MODEL 1
REMARK VINA RESULT:     -11.6      0.000      0.000
REMARK SMILES NS(=O)(=O)c1ccc(/N=N/c2ccc(O)c(C(=O)NCCCCNC(=O)c3ccc(-c4c5nc(c(-c6ccc(S(=O)(=O)[O-])cc6)c6ccc([nH]6)c(-c6ccc(S(=O)(=O)[O-])cc6)c6nc(c(-c7ccc(S(=O)(=O)[O-])cc7)c7ccc4[nH]7)C=C6)C=C5)cc3)c2)cc1
REMARK SMILES IDX 21 1 20 2 19 3 17 4 18 5 16 7 11 8 12 9 87 10 13 11 14 12
REMARK SMILES IDX 10 13 9 14 8 15 5 16 6 17 89 18 7 19 88 20 2 21 3 22 4 23
REMARK SMILES IDX 1 24 15 27 22 29 23 30 24 31 25 32 26 34 27 35 28 36 86 37
REMARK SMILES IDX 29 38 85 39 30 40 31 41 32 42 79 43 33 44 84 45 78 46 80 47
REMARK SMILES IDX 34 48 83 49 77 50 76 51 35 53 65 54 46 55 64 56 47 57 50 58
REMARK SMILES IDX 63 59 81 60 48 61 49 62 62 64 82 65 51 66 36 67 37 68 45 69
REMARK SMILES IDX 38 70 44 71 39 72 40 73 41 74 42 75 43 76 66 77 67 78 75 79
REMARK SMILES IDX 68 80 74 81 69 82 70 83 71 84 72 85 73 86 52 87 53 88 61 89
REMARK SMILES IDX 54 90 60 91 55 92 56 93 57 94 58 95 59 96
REMARK H PARENT 19 6 1 25 1 26 15 28 24 33 80 52 50 63
REMARK Flexibility Score: inf
ROOT
ATOM      1  C   UNL A   1      34.712  24.080  25.054  1.00  0.00     0.023 C 
ENDROOT
BRANCH   1   2
ATOM      2  C   UNL A   1      34.526  23.956  23.548  1.00  0.00     0.116 C 
BRANCH   2   3
ATOM      3  N   UNL A   1      33.960  22.688  23.103  1.00  0.00    -0.352 N 
ATOM      4  C   UNL A   1      32.769  22.068  23.421  1.00  0.00     0.255 C 
ATOM      5  O   UNL A   1      32.528  20.948  22.968  1.00  0.00    -0.269 OA
ATOM      6  H   UNL A   1      34.524  22.188  22.470  1.00  0.00     0.163 HD
BRANCH   4   7
ATOM      7  C   UNL A   1      31.785  22.658  24.365  1.00  0.00     0.083 A 
ATOM      8  C   UNL A   1      30.524  24.607  25.134  1.00  0.00     0.087 A 
ATOM      9  C   UNL A   1      30.254  23.935  26.331  1.00  0.00     0.034 A 
ATOM     10  C   UNL A   1      31.203  23.901  24.126  1.00  0.00     0.048 A 
ATOM     11  C   UNL A   1      30.676  22.612  26.518  1.00  0.00     0.049 A 
ATOM     12  C   UNL A   1      31.451  21.984  25.543  1.00  0.00     0.128 A 
BRANCH   8  13
ATOM     13  N   UNL A   1      30.174  25.979  25.000  1.00  0.00    -0.151 NA
ATOM     14  N   UNL A   1      29.457  26.138  23.987  1.00  0.00    -0.151 NA
BRANCH  14  15
ATOM     15  C   UNL A   1      29.167  27.467  23.653  1.00  0.00     0.086 A 
ATOM     16  C   UNL A   1      28.474  29.982  22.632  1.00  0.00     0.082 A 
ATOM     17  C   UNL A   1      27.471  29.055  22.917  1.00  0.00     0.024 A 
ATOM     18  C   UNL A   1      29.818  29.669  22.853  1.00  0.00     0.024 A 
ATOM     19  C   UNL A   1      27.826  27.803  23.425  1.00  0.00     0.031 A 
ATOM     20  C   UNL A   1      30.161  28.411  23.363  1.00  0.00     0.031 A 
BRANCH  16  21
ATOM     21  S   UNL A   1      28.044  31.553  21.943  1.00  0.00     0.238 S 
ATOM     22  O   UNL A   1      27.279  32.313  22.902  1.00  0.00    -0.207 OA
ATOM     23  O   UNL A   1      27.620  31.363  20.574  1.00  0.00    -0.207 OA
BRANCH  21  24
ATOM     24  N   UNL A   1      29.536  32.322  21.863  1.00  0.00    -0.225 NA
ATOM     25  H   UNL A   1      30.237  31.669  21.512  1.00  0.00     0.137 HD
ATOM     26  H   UNL A   1      29.804  32.642  22.794  1.00  0.00     0.137 HD
ENDBRANCH  21  24
ENDBRANCH  16  21
ENDBRANCH  14  15
ENDBRANCH   8  13
BRANCH  12  27
ATOM     27  O   UNL A   1      31.853  20.703  25.809  1.00  0.00    -0.507 OA
ATOM     28  H   UNL A   1      32.716  20.424  25.575  1.00  0.00     0.293 HD
ENDBRANCH  12  27
ENDBRANCH   4   7
ENDBRANCH   2   3
ENDBRANCH   1   2
BRANCH   1  29
ATOM     29  C   UNL A   1      35.863  23.289  25.660  1.00  0.00     0.023 C 
BRANCH  29  30
ATOM     30  C   UNL A   1      37.203  23.419  24.947  1.00  0.00     0.116 C 
BRANCH  30  31
ATOM     31  N   UNL A   1      38.226  22.505  25.440  1.00  0.00    -0.352 N 
ATOM     32  C   UNL A   1      39.294  22.769  26.271  1.00  0.00     0.251 C 
ATOM     33  H   UNL A   1      38.144  21.571  25.138  1.00  0.00     0.163 HD
ATOM     34  O   UNL A   1      40.117  21.897  26.524  1.00  0.00    -0.269 OA
BRANCH  32  35
ATOM     35  C   UNL A   1      39.453  24.133  26.817  1.00  0.00     0.039 A 
ATOM     36  C   UNL A   1      38.983  24.413  28.101  1.00  0.00     0.014 A 
ATOM     37  C   UNL A   1      40.156  25.096  26.092  1.00  0.00     0.014 A 
ATOM     38  C   UNL A   1      39.312  25.630  28.702  1.00  0.00     0.010 A 
ATOM     39  C   UNL A   1      40.558  26.266  26.726  1.00  0.00     0.010 A 
ATOM     40  C   UNL A   1      40.152  26.542  28.041  1.00  0.00    -0.014 A 
BRANCH  40  41
ATOM     41  C   UNL A   1      40.637  27.784  28.698  1.00  0.00     0.031 A 
ATOM     42  C   UNL A   1      42.012  27.815  29.309  1.00  0.00     0.074 A 
ATOM     43  C   UNL A   1      39.812  28.843  28.834  1.00  0.00     0.049 A 
ATOM     44  N   UNL A   1      42.570  28.747  30.037  1.00  0.00    -0.248 NA
ATOM     45  C   UNL A   1      42.857  26.627  29.102  1.00  0.00     0.031 C 
ATOM     46  C   UNL A   1      38.445  28.928  28.316  1.00  0.00     0.029 A 
ATOM     47  N   UNL A   1      39.999  30.048  29.466  1.00  0.00    -0.354 N 
ATOM     48  C   UNL A   1      43.819  28.250  30.391  1.00  0.00     0.074 A 
ATOM     49  C   UNL A   1      43.914  26.914  29.845  1.00  0.00     0.031 C 
ATOM     50  C   UNL A   1      37.926  30.126  28.632  1.00  0.00     0.029 A 
ATOM     51  C   UNL A   1      38.900  30.875  29.420  1.00  0.00     0.049 A 
ATOM     52  H   UNL A   1      40.842  30.297  29.910  1.00  0.00     0.167 HD
ATOM     53  C   UNL A   1      44.804  28.857  31.093  1.00  0.00     0.031 A 
ATOM     54  C   UNL A   1      38.689  32.090  29.966  1.00  0.00     0.031 A 
ATOM     55  C   UNL A   1      44.707  30.189  31.628  1.00  0.00     0.049 A 
ATOM     56  C   UNL A   1      39.789  32.733  30.769  1.00  0.00     0.074 A 
ATOM     57  C   UNL A   1      45.672  30.914  32.305  1.00  0.00     0.029 A 
ATOM     58  N   UNL A   1      43.582  30.994  31.548  1.00  0.00    -0.354 N 
ATOM     59  N   UNL A   1      40.988  32.272  31.040  1.00  0.00    -0.248 NA
ATOM     60  C   UNL A   1      39.514  34.062  31.332  1.00  0.00     0.031 C 
ATOM     61  C   UNL A   1      45.107  32.132  32.693  1.00  0.00     0.029 A 
ATOM     62  C   UNL A   1      43.817  32.198  32.190  1.00  0.00     0.049 A 
ATOM     63  H   UNL A   1      42.739  30.747  31.101  1.00  0.00     0.167 HD
ATOM     64  C   UNL A   1      41.619  33.269  31.775  1.00  0.00     0.074 A 
ATOM     65  C   UNL A   1      40.676  34.361  31.898  1.00  0.00     0.031 C 
ATOM     66  C   UNL A   1      42.871  33.281  32.296  1.00  0.00     0.031 A 
BRANCH  53  67
ATOM     67  C   UNL A   1      46.072  28.078  31.335  1.00  0.00    -0.014 A 
ATOM     68  C   UNL A   1      46.159  27.128  32.370  1.00  0.00     0.010 A 
ATOM     69  C   UNL A   1      47.179  28.267  30.489  1.00  0.00     0.010 A 
ATOM     70  C   UNL A   1      47.342  26.416  32.580  1.00  0.00     0.020 A 
ATOM     71  C   UNL A   1      48.354  27.533  30.673  1.00  0.00     0.020 A 
ATOM     72  C   UNL A   1      48.432  26.623  31.730  1.00  0.00     0.054 A 
BRANCH  72  73
ATOM     73  S   UNL A   1      49.946  25.665  32.013  1.00  0.00     0.124 S 
ATOM     74  O   UNL A   1      50.931  26.718  32.241  1.00  0.00    -0.237 OA
ATOM     75  O   UNL A   1      49.601  24.864  33.184  1.00  0.00    -0.237 OA
ATOM     76  O   UNL A   1      50.117  24.911  30.773  1.00  0.00    -0.744 OA
ENDBRANCH  72  73
ENDBRANCH  53  67
BRANCH  54  77
ATOM     77  C   UNL A   1      37.383  32.781  29.771  1.00  0.00    -0.014 A 
ATOM     78  C   UNL A   1      36.346  32.628  30.708  1.00  0.00     0.010 A 
ATOM     79  C   UNL A   1      37.170  33.602  28.648  1.00  0.00     0.010 A 
ATOM     80  C   UNL A   1      35.116  33.266  30.517  1.00  0.00     0.020 A 
ATOM     81  C   UNL A   1      35.953  34.267  28.469  1.00  0.00     0.020 A 
ATOM     82  C   UNL A   1      34.929  34.085  29.400  1.00  0.00     0.054 A 
BRANCH  82  83
ATOM     83  S   UNL A   1      33.341  34.941  29.200  1.00  0.00     0.124 S 
ATOM     84  O   UNL A   1      33.761  36.251  28.714  1.00  0.00    -0.237 OA
ATOM     85  O   UNL A   1      32.652  34.095  28.227  1.00  0.00    -0.237 OA
ATOM     86  O   UNL A   1      32.770  34.922  30.545  1.00  0.00    -0.744 OA
ENDBRANCH  82  83
ENDBRANCH  54  77
BRANCH  66  87
ATOM     87  C   UNL A   1      43.325  34.528  33.008  1.00  0.00    -0.014 A 
ATOM     88  C   UNL A   1      43.984  35.565  32.327  1.00  0.00     0.010 A 
ATOM     89  C   UNL A   1      43.004  34.698  34.369  1.00  0.00     0.010 A 
ATOM     90  C   UNL A   1      44.326  36.744  32.997  1.00  0.00     0.020 A 
ATOM     91  C   UNL A   1      43.316  35.885  35.033  1.00  0.00     0.020 A 
ATOM     92  C   UNL A   1      43.984  36.899  34.345  1.00  0.00     0.054 A 
BRANCH  92  93
ATOM     93  S   UNL A   1      44.373  38.467  35.168  1.00  0.00     0.124 S 
ATOM     94  O   UNL A   1      45.796  38.617  34.878  1.00  0.00    -0.237 OA
ATOM     95  O   UNL A   1      43.489  39.411  34.489  1.00  0.00    -0.237 OA
ATOM     96  O   UNL A   1      44.047  38.214  36.570  1.00  0.00    -0.744 OA
ENDBRANCH  92  93
ENDBRANCH  66  87
ENDBRANCH  40  41
ENDBRANCH  32  35
ENDBRANCH  30  31
ENDBRANCH  29  30
ENDBRANCH   1  29
TORSDOF 19
ENDMDL
MODEL 2
REMARK VINA RESULT:     -11.4      3.976      5.085
REMARK SMILES NS(=O)(=O)c1ccc(/N=N/c2ccc(O)c(C(=O)NCCCCNC(=O)c3ccc(-c4c5nc(c(-c6ccc(S(=O)(=O)[O-])cc6)c6ccc([nH]6)c(-c6ccc(S(=O)(=O)[O-])cc6)c6nc(c(-c7ccc(S(=O)(=O)[O-])cc7)c7ccc4[nH]7)C=C6)C=C5)cc3)c2)cc1
REMARK SMILES IDX 21 1 20 2 19 3 17 4 18 5 16 7 11 8 12 9 87 10 13 11 14 12
REMARK SMILES IDX 10 13 9 14 8 15 5 16 6 17 89 18 7 19 88 20 2 21 3 22 4 23
REMARK SMILES IDX 1 24 15 27 22 29 23 30 24 31 25 32 26 34 27 35 28 36 86 37
REMARK SMILES IDX 29 38 85 39 30 40 31 41 32 42 79 43 33 44 84 45 78 46 80 47
REMARK SMILES IDX 34 48 83 49 77 50 76 51 35 53 65 54 46 55 64 56 47 57 50 58
REMARK SMILES IDX 63 59 81 60 48 61 49 62 62 64 82 65 51 66 36 67 37 68 45 69
REMARK SMILES IDX 38 70 44 71 39 72 40 73 41 74 42 75 43 76 66 77 67 78 75 79
REMARK SMILES IDX 68 80 74 81 69 82 70 83 71 84 72 85 73 86 52 87 53 88 61 89
REMARK SMILES IDX 54 90 60 91 55 92 56 93 57 94 58 95 59 96
REMARK H PARENT 19 6 1 25 1 26 15 28 24 33 80 52 50 63
REMARK Flexibility Score: inf
ROOT
ATOM      1  C   UNL A   1      37.143  23.561  25.575  1.00  0.00     0.023 C 
ENDROOT
BRANCH   1   2
ATOM      2  C   UNL A   1      36.382  22.275  25.281  1.00  0.00     0.116 C 
BRANCH   2   3
ATOM      3  N   UNL A   1      35.528  21.807  26.367  1.00  0.00    -0.352 N 
ATOM      4  C   UNL A   1      34.252  22.178  26.738  1.00  0.00     0.255 C 
ATOM      5  O   UNL A   1      33.747  21.686  27.747  1.00  0.00    -0.269 OA
ATOM      6  H   UNL A   1      35.931  21.109  26.931  1.00  0.00     0.163 HD
BRANCH   4   7
ATOM      7  C   UNL A   1      33.479  23.221  26.015  1.00  0.00     0.083 A 
ATOM      8  C   UNL A   1      32.673  25.526  25.891  1.00  0.00     0.087 A 
ATOM      9  C   UNL A   1      31.732  25.126  24.937  1.00  0.00     0.034 A 
ATOM     10  C   UNL A   1      33.604  24.572  26.334  1.00  0.00     0.048 A 
ATOM     11  C   UNL A   1      31.710  23.805  24.466  1.00  0.00     0.049 A 
ATOM     12  C   UNL A   1      32.572  22.857  25.016  1.00  0.00     0.128 A 
BRANCH   8  13
ATOM     13  N   UNL A   1      32.618  26.843  26.428  1.00  0.00    -0.151 NA
ATOM     14  N   UNL A   1      33.723  27.410  26.278  1.00  0.00    -0.151 NA
BRANCH  14  15
ATOM     15  C   UNL A   1      33.851  28.659  26.899  1.00  0.00     0.086 A 
ATOM     16  C   UNL A   1      34.058  31.310  27.778  1.00  0.00     0.082 A 
ATOM     17  C   UNL A   1      32.826  30.827  27.336  1.00  0.00     0.024 A 
ATOM     18  C   UNL A   1      35.187  30.485  27.789  1.00  0.00     0.024 A 
ATOM     19  C   UNL A   1      32.732  29.503  26.898  1.00  0.00     0.031 A 
ATOM     20  C   UNL A   1      35.079  29.161  27.349  1.00  0.00     0.031 A 
BRANCH  16  21
ATOM     21  S   UNL A   1      34.203  32.997  28.289  1.00  0.00     0.238 S 
ATOM     22  O   UNL A   1      34.520  33.055  29.695  1.00  0.00    -0.207 OA
ATOM     23  O   UNL A   1      33.129  33.761  27.694  1.00  0.00    -0.207 OA
BRANCH  21  24
ATOM     24  N   UNL A   1      35.607  33.483  27.503  1.00  0.00    -0.225 NA
ATOM     25  H   UNL A   1      35.365  33.923  26.615  1.00  0.00     0.137 HD
ATOM     26  H   UNL A   1      36.199  32.670  27.330  1.00  0.00     0.137 HD
ENDBRANCH  21  24
ENDBRANCH  16  21
ENDBRANCH  14  15
ENDBRANCH   8  13
BRANCH  12  27
ATOM     27  O   UNL A   1      32.471  21.581  24.530  1.00  0.00    -0.507 OA
ATOM     28  H   UNL A   1      32.570  21.419  23.613  1.00  0.00     0.293 HD
ENDBRANCH  12  27
ENDBRANCH   4   7
ENDBRANCH   2   3
ENDBRANCH   1   2
BRANCH   1  29
ATOM     29  C   UNL A   1      38.346  23.438  26.500  1.00  0.00     0.023 C 
BRANCH  29  30
ATOM     30  C   UNL A   1      38.921  24.751  27.016  1.00  0.00     0.116 C 
BRANCH  30  31
ATOM     31  N   UNL A   1      39.989  25.296  26.185  1.00  0.00    -0.352 N 
ATOM     32  C   UNL A   1      40.684  26.476  26.335  1.00  0.00     0.251 C 
ATOM     33  H   UNL A   1      40.247  24.746  25.410  1.00  0.00     0.163 HD
ATOM     34  O   UNL A   1      41.501  26.829  25.493  1.00  0.00    -0.269 OA
BRANCH  32  35
ATOM     35  C   UNL A   1      40.397  27.329  27.507  1.00  0.00     0.039 A 
ATOM     36  C   UNL A   1      39.893  26.745  28.670  1.00  0.00     0.014 A 
ATOM     37  C   UNL A   1      40.725  28.686  27.479  1.00  0.00     0.014 A 
ATOM     38  C   UNL A   1      39.816  27.501  29.842  1.00  0.00     0.010 A 
ATOM     39  C   UNL A   1      40.734  29.409  28.666  1.00  0.00     0.010 A 
ATOM     40  C   UNL A   1      40.292  28.824  29.863  1.00  0.00    -0.014 A 
BRANCH  40  41
ATOM     41  C   UNL A   1      40.356  29.617  31.118  1.00  0.00     0.031 A 
ATOM     42  C   UNL A   1      41.458  29.356  32.108  1.00  0.00     0.074 A 
ATOM     43  C   UNL A   1      39.374  30.494  31.414  1.00  0.00     0.049 A 
ATOM     44  N   UNL A   1      41.618  29.842  33.312  1.00  0.00    -0.248 NA
ATOM     45  C   UNL A   1      42.501  28.398  31.704  1.00  0.00     0.031 C 
ATOM     46  C   UNL A   1      38.232  30.814  30.555  1.00  0.00     0.029 A 
ATOM     47  N   UNL A   1      39.171  31.267  32.531  1.00  0.00    -0.354 N 
ATOM     48  C   UNL A   1      42.762  29.233  33.814  1.00  0.00     0.074 A 
ATOM     49  C   UNL A   1      43.225  28.304  32.808  1.00  0.00     0.031 C 
ATOM     50  C   UNL A   1      37.462  31.730  31.165  1.00  0.00     0.029 A 
ATOM     51  C   UNL A   1      38.023  32.024  32.480  1.00  0.00     0.049 A 
ATOM     52  H   UNL A   1      39.790  31.279  33.296  1.00  0.00     0.167 HD
ATOM     53  C   UNL A   1      43.382  29.442  35.000  1.00  0.00     0.031 A 
ATOM     54  C   UNL A   1      37.471  32.847  33.394  1.00  0.00     0.031 A 
ATOM     55  C   UNL A   1      42.922  30.374  35.994  1.00  0.00     0.049 A 
ATOM     56  C   UNL A   1      38.162  33.040  34.718  1.00  0.00     0.074 A 
ATOM     57  C   UNL A   1      43.510  30.698  37.204  1.00  0.00     0.029 A 
ATOM     58  N   UNL A   1      41.762  31.128  35.897  1.00  0.00    -0.354 N 
ATOM     59  N   UNL A   1      39.278  32.503  35.150  1.00  0.00    -0.248 NA
ATOM     60  C   UNL A   1      37.525  33.957  35.675  1.00  0.00     0.031 C 
ATOM     61  C   UNL A   1      42.673  31.599  37.866  1.00  0.00     0.029 A 
ATOM     62  C   UNL A   1      41.602  31.895  37.038  1.00  0.00     0.049 A 
ATOM     63  H   UNL A   1      41.144  31.119  35.130  1.00  0.00     0.167 HD
ATOM     64  C   UNL A   1      39.494  33.043  36.414  1.00  0.00     0.074 A 
ATOM     65  C   UNL A   1      38.400  33.955  36.672  1.00  0.00     0.031 C 
ATOM     66  C   UNL A   1      40.512  32.807  37.278  1.00  0.00     0.031 A 
BRANCH  53  67
ATOM     67  C   UNL A   1      44.622  28.636  35.291  1.00  0.00    -0.014 A 
ATOM     68  C   UNL A   1      45.902  29.124  34.968  1.00  0.00     0.010 A 
ATOM     69  C   UNL A   1      44.509  27.392  35.937  1.00  0.00     0.010 A 
ATOM     70  C   UNL A   1      47.040  28.364  35.244  1.00  0.00     0.020 A 
ATOM     71  C   UNL A   1      45.648  26.643  36.247  1.00  0.00     0.020 A 
ATOM     72  C   UNL A   1      46.906  27.127  35.882  1.00  0.00     0.054 A 
BRANCH  72  73
ATOM     73  S   UNL A   1      48.405  26.176  36.251  1.00  0.00     0.124 S 
ATOM     74  O   UNL A   1      49.415  26.893  35.478  1.00  0.00    -0.237 OA
ATOM     75  O   UNL A   1      48.515  26.305  37.701  1.00  0.00    -0.237 OA
ATOM     76  O   UNL A   1      48.092  24.832  35.770  1.00  0.00    -0.744 OA
ENDBRANCH  72  73
ENDBRANCH  53  67
BRANCH  54  77
ATOM     77  C   UNL A   1      36.194  33.554  33.089  1.00  0.00    -0.014 A 
ATOM     78  C   UNL A   1      36.206  34.866  32.583  1.00  0.00     0.010 A 
ATOM     79  C   UNL A   1      34.957  32.916  33.297  1.00  0.00     0.010 A 
ATOM     80  C   UNL A   1      35.007  35.533  32.310  1.00  0.00     0.020 A 
ATOM     81  C   UNL A   1      33.757  33.568  32.996  1.00  0.00     0.020 A 
ATOM     82  C   UNL A   1      33.790  34.878  32.514  1.00  0.00     0.054 A 
BRANCH  82  83
ATOM     83  S   UNL A   1      32.250  35.747  32.107  1.00  0.00     0.124 S 
ATOM     84  O   UNL A   1      32.204  35.620  30.654  1.00  0.00    -0.237 OA
ATOM     85  O   UNL A   1      31.251  34.974  32.842  1.00  0.00    -0.237 OA
ATOM     86  O   UNL A   1      32.476  37.099  32.613  1.00  0.00    -0.744 OA
ENDBRANCH  82  83
ENDBRANCH  54  77
BRANCH  66  87
ATOM     87  C   UNL A   1      40.529  33.580  38.571  1.00  0.00    -0.014 A 
ATOM     88  C   UNL A   1      40.054  33.020  39.769  1.00  0.00     0.010 A 
ATOM     89  C   UNL A   1      41.116  34.859  38.599  1.00  0.00     0.010 A 
ATOM     90  C   UNL A   1      40.152  33.731  40.968  1.00  0.00     0.020 A 
ATOM     91  C   UNL A   1      41.244  35.560  39.799  1.00  0.00     0.020 A 
ATOM     92  C   UNL A   1      40.753  34.995  40.977  1.00  0.00     0.054 A 
BRANCH  92  93
ATOM     93  S   UNL A   1      40.935  35.863  42.559  1.00  0.00     0.124 S 
ATOM     94  O   UNL A   1      42.200  36.568  42.375  1.00  0.00    -0.237 OA
ATOM     95  O   UNL A   1      39.744  36.708  42.596  1.00  0.00    -0.237 OA
ATOM     96  O   UNL A   1      40.960  34.786  43.546  1.00  0.00    -0.744 OA
ENDBRANCH  92  93
ENDBRANCH  66  87
ENDBRANCH  40  41
ENDBRANCH  32  35
ENDBRANCH  30  31
ENDBRANCH  29  30
ENDBRANCH   1  29
TORSDOF 19
ENDMDL
MODEL 3
REMARK VINA RESULT:     -11.3      3.381      4.237
REMARK SMILES NS(=O)(=O)c1ccc(/N=N/c2ccc(O)c(C(=O)NCCCCNC(=O)c3ccc(-c4c5nc(c(-c6ccc(S(=O)(=O)[O-])cc6)c6ccc([nH]6)c(-c6ccc(S(=O)(=O)[O-])cc6)c6nc(c(-c7ccc(S(=O)(=O)[O-])cc7)c7ccc4[nH]7)C=C6)C=C5)cc3)c2)cc1
REMARK SMILES IDX 21 1 20 2 19 3 17 4 18 5 16 7 11 8 12 9 87 10 13 11 14 12
REMARK SMILES IDX 10 13 9 14 8 15 5 16 6 17 89 18 7 19 88 20 2 21 3 22 4 23
REMARK SMILES IDX 1 24 15 27 22 29 23 30 24 31 25 32 26 34 27 35 28 36 86 37
REMARK SMILES IDX 29 38 85 39 30 40 31 41 32 42 79 43 33 44 84 45 78 46 80 47
REMARK SMILES IDX 34 48 83 49 77 50 76 51 35 53 65 54 46 55 64 56 47 57 50 58
REMARK SMILES IDX 63 59 81 60 48 61 49 62 62 64 82 65 51 66 36 67 37 68 45 69
REMARK SMILES IDX 38 70 44 71 39 72 40 73 41 74 42 75 43 76 66 77 67 78 75 79
REMARK SMILES IDX 68 80 74 81 69 82 70 83 71 84 72 85 73 86 52 87 53 88 61 89
REMARK SMILES IDX 54 90 60 91 55 92 56 93 57 94 58 95 59 96
REMARK H PARENT 19 6 1 25 1 26 15 28 24 33 80 52 50 63
REMARK Flexibility Score: inf
ROOT
ATOM      1  C   UNL A   1      38.009  23.626  26.190  1.00  0.00     0.023 C 
ENDROOT
BRANCH   1   2
ATOM      2  C   UNL A   1      36.730  22.925  25.754  1.00  0.00     0.116 C 
BRANCH   2   3
ATOM      3  N   UNL A   1      36.892  21.519  25.401  1.00  0.00    -0.352 N 
ATOM      4  C   UNL A   1      35.981  20.589  24.947  1.00  0.00     0.255 C 
ATOM      5  O   UNL A   1      36.337  19.423  24.776  1.00  0.00    -0.269 OA
ATOM      6  H   UNL A   1      37.809  21.174  25.507  1.00  0.00     0.163 HD
BRANCH   4   7
ATOM      7  C   UNL A   1      34.547  20.912  24.730  1.00  0.00     0.083 A 
ATOM      8  C   UNL A   1      32.825  22.570  24.213  1.00  0.00     0.087 A 
ATOM      9  C   UNL A   1      31.855  21.684  24.695  1.00  0.00     0.034 A 
ATOM     10  C   UNL A   1      34.152  22.114  24.144  1.00  0.00     0.048 A 
ATOM     11  C   UNL A   1      32.212  20.397  25.119  1.00  0.00     0.049 A 
ATOM     12  C   UNL A   1      33.555  20.021  25.148  1.00  0.00     0.128 A 
BRANCH   8  13
ATOM     13  N   UNL A   1      32.459  23.904  23.879  1.00  0.00    -0.151 NA
ATOM     14  N   UNL A   1      31.217  24.035  23.952  1.00  0.00    -0.151 NA
BRANCH  14  15
ATOM     15  C   UNL A   1      30.711  25.260  23.501  1.00  0.00     0.086 A 
ATOM     16  C   UNL A   1      29.982  27.878  22.821  1.00  0.00     0.082 A 
ATOM     17  C   UNL A   1      31.183  27.353  22.343  1.00  0.00     0.024 A 
ATOM     18  C   UNL A   1      29.140  27.112  23.631  1.00  0.00     0.024 A 
ATOM     19  C   UNL A   1      31.540  26.047  22.689  1.00  0.00     0.031 A 
ATOM     20  C   UNL A   1      29.507  25.804  23.969  1.00  0.00     0.031 A 
BRANCH  16  21
ATOM     21  S   UNL A   1      29.542  29.547  22.433  1.00  0.00     0.238 S 
ATOM     22  O   UNL A   1      29.677  30.372  23.608  1.00  0.00    -0.207 OA
ATOM     23  O   UNL A   1      28.351  29.538  21.612  1.00  0.00    -0.207 OA
BRANCH  21  24
ATOM     24  N   UNL A   1      30.798  30.016  21.420  1.00  0.00    -0.225 NA
ATOM     25  H   UNL A   1      30.903  31.030  21.456  1.00  0.00     0.137 HD
ATOM     26  H   UNL A   1      30.590  29.728  20.464  1.00  0.00     0.137 HD
ENDBRANCH  21  24
ENDBRANCH  16  21
ENDBRANCH  14  15
ENDBRANCH   8  13
BRANCH  12  27
ATOM     27  O   UNL A   1      33.830  18.760  25.605  1.00  0.00    -0.507 OA
ATOM     28  H   UNL A   1      34.431  18.638  26.312  1.00  0.00     0.293 HD
ENDBRANCH  12  27
ENDBRANCH   4   7
ENDBRANCH   2   3
ENDBRANCH   1   2
BRANCH   1  29
ATOM     29  C   UNL A   1      39.172  22.727  26.587  1.00  0.00     0.023 C 
BRANCH  29  30
ATOM     30  C   UNL A   1      40.458  23.442  26.980  1.00  0.00     0.116 C 
BRANCH  30  31
ATOM     31  N   UNL A   1      41.036  24.249  25.911  1.00  0.00    -0.352 N 
ATOM     32  C   UNL A   1      41.502  25.545  25.962  1.00  0.00     0.251 C 
ATOM     33  H   UNL A   1      41.102  23.807  25.033  1.00  0.00     0.163 HD
ATOM     34  O   UNL A   1      41.884  26.110  24.943  1.00  0.00    -0.269 OA
BRANCH  32  35
ATOM     35  C   UNL A   1      41.493  26.256  27.257  1.00  0.00     0.039 A 
ATOM     36  C   UNL A   1      42.547  27.116  27.571  1.00  0.00     0.014 A 
ATOM     37  C   UNL A   1      40.392  26.143  28.107  1.00  0.00     0.014 A 
ATOM     38  C   UNL A   1      42.446  27.946  28.689  1.00  0.00     0.010 A 
ATOM     39  C   UNL A   1      40.254  27.034  29.165  1.00  0.00     0.010 A 
ATOM     40  C   UNL A   1      41.273  27.953  29.463  1.00  0.00    -0.014 A 
BRANCH  40  41
ATOM     41  C   UNL A   1      41.070  28.916  30.576  1.00  0.00     0.031 A 
ATOM     42  C   UNL A   1      41.893  28.790  31.829  1.00  0.00     0.074 A 
ATOM     43  C   UNL A   1      40.084  29.834  30.504  1.00  0.00     0.049 A 
ATOM     44  N   UNL A   1      41.782  29.441  32.958  1.00  0.00    -0.248 NA
ATOM     45  C   UNL A   1      42.960  27.776  31.823  1.00  0.00     0.031 C 
ATOM     46  C   UNL A   1      39.193  30.038  29.358  1.00  0.00     0.029 A 
ATOM     47  N   UNL A   1      39.653  30.761  31.422  1.00  0.00    -0.354 N 
ATOM     48  C   UNL A   1      42.747  28.901  33.800  1.00  0.00     0.074 A 
ATOM     49  C   UNL A   1      43.396  27.834  33.072  1.00  0.00     0.031 C 
ATOM     50  C   UNL A   1      38.340  31.038  29.634  1.00  0.00     0.029 A 
ATOM     51  C   UNL A   1      38.583  31.512  30.992  1.00  0.00     0.049 A 
ATOM     52  H   UNL A   1      40.072  30.876  32.305  1.00  0.00     0.167 HD
ATOM     53  C   UNL A   1      43.074  29.272  35.060  1.00  0.00     0.031 A 
ATOM     54  C   UNL A   1      37.864  32.461  31.625  1.00  0.00     0.031 A 
ATOM     55  C   UNL A   1      42.430  30.339  35.777  1.00  0.00     0.049 A 
ATOM     56  C   UNL A   1      38.228  32.835  33.038  1.00  0.00     0.074 A 
ATOM     57  C   UNL A   1      42.727  30.828  37.038  1.00  0.00     0.029 A 
ATOM     58  N   UNL A   1      41.360  31.081  35.301  1.00  0.00    -0.354 N 
ATOM     59  N   UNL A   1      39.186  32.356  33.796  1.00  0.00    -0.248 NA
ATOM     60  C   UNL A   1      37.421  33.884  33.678  1.00  0.00     0.031 C 
ATOM     61  C   UNL A   1      41.795  31.821  37.349  1.00  0.00     0.029 A 
ATOM     62  C   UNL A   1      40.965  32.004  36.254  1.00  0.00     0.049 A 
ATOM     63  H   UNL A   1      40.942  30.968  34.416  1.00  0.00     0.167 HD
ATOM     64  C   UNL A   1      39.117  33.068  34.988  1.00  0.00     0.074 A 
ATOM     65  C   UNL A   1      38.032  34.017  34.847  1.00  0.00     0.031 C 
ATOM     66  C   UNL A   1      39.889  32.950  36.097  1.00  0.00     0.031 A 
BRANCH  53  67
ATOM     67  C   UNL A   1      44.174  28.506  35.750  1.00  0.00    -0.014 A 
ATOM     68  C   UNL A   1      43.893  27.366  36.527  1.00  0.00     0.010 A 
ATOM     69  C   UNL A   1      45.512  28.906  35.586  1.00  0.00     0.010 A 
ATOM     70  C   UNL A   1      44.924  26.669  37.160  1.00  0.00     0.020 A 
ATOM     71  C   UNL A   1      46.551  28.192  36.190  1.00  0.00     0.020 A 
ATOM     72  C   UNL A   1      46.247  27.087  36.987  1.00  0.00     0.054 A 
BRANCH  72  73
ATOM     73  S   UNL A   1      47.566  26.145  37.801  1.00  0.00     0.124 S 
ATOM     74  O   UNL A   1      47.562  26.721  39.144  1.00  0.00    -0.237 OA
ATOM     75  O   UNL A   1      47.083  24.771  37.706  1.00  0.00    -0.237 OA
ATOM     76  O   UNL A   1      48.752  26.443  37.001  1.00  0.00    -0.744 OA
ENDBRANCH  72  73
ENDBRANCH  53  67
BRANCH  54  77
ATOM     77  C   UNL A   1      36.728  33.127  30.927  1.00  0.00    -0.014 A 
ATOM     78  C   UNL A   1      35.399  32.827  31.276  1.00  0.00     0.010 A 
ATOM     79  C   UNL A   1      36.968  34.072  29.913  1.00  0.00     0.010 A 
ATOM     80  C   UNL A   1      34.333  33.443  30.612  1.00  0.00     0.020 A 
ATOM     81  C   UNL A   1      35.906  34.713  29.267  1.00  0.00     0.020 A 
ATOM     82  C   UNL A   1      34.594  34.386  29.614  1.00  0.00     0.054 A 
BRANCH  82  83
ATOM     83  S   UNL A   1      33.195  35.206  28.800  1.00  0.00     0.124 S 
ATOM     84  O   UNL A   1      32.636  34.127  27.994  1.00  0.00    -0.237 OA
ATOM     85  O   UNL A   1      32.382  35.637  29.935  1.00  0.00    -0.237 OA
ATOM     86  O   UNL A   1      33.825  36.290  28.048  1.00  0.00    -0.744 OA
ENDBRANCH  82  83
ENDBRANCH  54  77
BRANCH  66  87
ATOM     87  C   UNL A   1      39.630  33.899  37.238  1.00  0.00    -0.014 A 
ATOM     88  C   UNL A   1      38.886  33.510  38.364  1.00  0.00     0.010 A 
ATOM     89  C   UNL A   1      40.222  35.177  37.217  1.00  0.00     0.010 A 
ATOM     90  C   UNL A   1      38.726  34.385  39.442  1.00  0.00     0.020 A 
ATOM     91  C   UNL A   1      40.091  36.042  38.304  1.00  0.00     0.020 A 
ATOM     92  C   UNL A   1      39.336  35.644  39.408  1.00  0.00     0.054 A 
BRANCH  92  93
ATOM     93  S   UNL A   1      39.175  36.731  40.851  1.00  0.00     0.124 S 
ATOM     94  O   UNL A   1      38.376  37.830  40.316  1.00  0.00    -0.237 OA
ATOM     95  O   UNL A   1      38.496  35.874  41.820  1.00  0.00    -0.237 OA
ATOM     96  O   UNL A   1      40.555  37.070  41.187  1.00  0.00    -0.744 OA
ENDBRANCH  92  93
ENDBRANCH  66  87
ENDBRANCH  40  41
ENDBRANCH  32  35
ENDBRANCH  30  31
ENDBRANCH  29  30
ENDBRANCH   1  29
TORSDOF 19
ENDMDL
