MODEL 1
REMARK VINA RESULT:     -11.8      0.000      0.000
REMARK SMILES CC(C)[N@H+](C)Cc1cc2c(cc1Cl)C=C(C(=O)NCCCCNC(=O)c1ccc(-c3c4nc(c(-c5ccc(S(=O)(=O)[O-])cc5)c5ccc([nH]5)c(-c5ccc(S(=O)(=O)[O-])cc5)c5nc(c(-c6ccc(S(=O)(=O)[O-])cc6)c6ccc3[nH]6)C=C5)C=C4)cc1)[C@@H](C(F)(F)F)O2
REMARK SMILES IDX 20 1 19 2 18 3 16 4 17 5 15 7 7 8 8 9 12 10 9 11 11 12 13 13
REMARK SMILES IDX 10 14 91 15 14 16 86 17 6 18 4 19 5 20 2 22 1 23 3 24 87 25
REMARK SMILES IDX 88 26 89 27 90 28 21 29 22 30 23 31 24 32 25 34 26 35 27 36
REMARK SMILES IDX 85 37 28 38 84 39 29 40 30 41 31 42 78 43 32 44 83 45 77 46
REMARK SMILES IDX 79 47 33 48 82 49 76 50 75 51 34 53 64 54 45 55 63 56 46 57
REMARK SMILES IDX 49 58 62 59 80 60 47 61 48 62 61 64 81 65 50 66 35 67 36 68
REMARK SMILES IDX 44 69 37 70 43 71 38 72 39 73 40 74 41 75 42 76 65 77 66 78
REMARK SMILES IDX 74 79 67 80 73 81 68 82 69 83 70 84 71 85 72 86 51 87 52 88
REMARK SMILES IDX 60 89 53 90 59 91 54 92 55 93 56 94 57 95 58 96
REMARK H PARENT 18 6 4 21 23 33 79 52 49 63
REMARK Flexibility Score: inf
ROOT
ATOM      1  C   UNL A   1      37.768  22.979  25.384  1.00  0.00     0.023 C 
ENDROOT
BRANCH   1   2
ATOM      2  C   UNL A   1      37.048  21.638  25.296  1.00  0.00     0.116 C 
BRANCH   2   3
ATOM      3  N   UNL A   1      36.040  21.474  26.324  1.00  0.00    -0.352 N 
ATOM      4  C   UNL A   1      34.790  21.951  26.530  1.00  0.00     0.251 C 
ATOM      5  O   UNL A   1      34.216  21.560  27.550  1.00  0.00    -0.270 OA
ATOM      6  H   UNL A   1      36.335  20.871  27.044  1.00  0.00     0.163 HD
BRANCH   4   7
ATOM      7  C   UNL A   1      34.100  22.911  25.621  1.00  0.00     0.067 C 
ATOM      8  C   UNL A   1      31.810  27.080  23.873  1.00  0.00     0.029 A 
ATOM      9  C   UNL A   1      32.064  25.793  23.358  1.00  0.00     0.058 A 
ATOM     10  C   UNL A   1      32.346  27.394  25.134  1.00  0.00     0.050 A 
ATOM     11  C   UNL A   1      32.760  24.838  24.101  1.00  0.00     0.128 A 
ATOM     12  C   UNL A   1      32.994  26.413  25.897  1.00  0.00     0.033 A 
ATOM     13  Cl  UNL A   1      32.317  28.979  25.825  1.00  0.00    -0.084 Cl
ATOM     14  C   UNL A   1      33.196  25.132  25.385  1.00  0.00     0.019 A 
ATOM     15  O   UNL A   1      32.989  23.651  23.480  1.00  0.00    -0.475 OA
ATOM     16  C   UNL A   1      33.880  24.119  26.166  1.00  0.00     0.025 C 
ATOM     17  C   UNL A   1      33.631  22.579  24.229  1.00  0.00     0.314 C 
BRANCH   8  18
ATOM     18  C   UNL A   1      31.059  28.039  22.969  1.00  0.00     0.300 C 
BRANCH  18  19
ATOM     19  N   UNL A   1      29.815  28.581  23.519  1.00  0.00    -0.332 N 
ATOM     20  C   UNL A   1      29.794  30.038  23.465  1.00  0.00     0.333 C 
ATOM     21  H   UNL A   1      29.854  28.289  24.495  1.00  0.00     0.348 HD
BRANCH  19  22
ATOM     22  C   UNL A   1      28.546  27.959  23.110  1.00  0.00     0.177 C 
ATOM     23  C   UNL A   1      28.184  26.662  23.842  1.00  0.00     0.075 C 
ATOM     24  C   UNL A   1      27.367  28.936  23.173  1.00  0.00     0.075 C 
ENDBRANCH  19  22
ENDBRANCH  18  19
ENDBRANCH   8  18
BRANCH  17  25
ATOM     25  C   UNL A   1      32.685  21.368  24.154  1.00  0.00     0.429 C 
ATOM     26  F   UNL A   1      32.022  21.373  22.967  1.00  0.00    -0.167 F 
ATOM     27  F   UNL A   1      33.319  20.180  24.229  1.00  0.00    -0.167 F 
ATOM     28  F   UNL A   1      31.752  21.387  25.133  1.00  0.00    -0.167 F 
ENDBRANCH  17  25
ENDBRANCH   4   7
ENDBRANCH   2   3
ENDBRANCH   1   2
BRANCH   1  29
ATOM     29  C   UNL A   1      38.833  23.058  26.478  1.00  0.00     0.023 C 
BRANCH  29  30
ATOM     30  C   UNL A   1      39.203  24.469  26.927  1.00  0.00     0.116 C 
BRANCH  30  31
ATOM     31  N   UNL A   1      40.179  25.144  26.078  1.00  0.00    -0.352 N 
ATOM     32  C   UNL A   1      40.676  26.421  26.238  1.00  0.00     0.251 C 
ATOM     33  H   UNL A   1      40.518  24.634  25.306  1.00  0.00     0.163 HD
ATOM     34  O   UNL A   1      41.453  26.908  25.424  1.00  0.00    -0.269 OA
BRANCH  32  35
ATOM     35  C   UNL A   1      40.186  27.205  27.389  1.00  0.00     0.039 A 
ATOM     36  C   UNL A   1      40.533  28.550  27.496  1.00  0.00     0.014 A 
ATOM     37  C   UNL A   1      39.548  26.542  28.439  1.00  0.00     0.014 A 
ATOM     38  C   UNL A   1      40.437  29.173  28.732  1.00  0.00     0.010 A 
ATOM     39  C   UNL A   1      39.366  27.205  29.654  1.00  0.00     0.010 A 
ATOM     40  C   UNL A   1      39.879  28.499  29.834  1.00  0.00    -0.014 A 
BRANCH  40  41
ATOM     41  C   UNL A   1      39.897  29.161  31.166  1.00  0.00     0.031 A 
ATOM     42  C   UNL A   1      41.059  28.970  32.109  1.00  0.00     0.074 A 
ATOM     43  C   UNL A   1      38.910  30.022  31.480  1.00  0.00     0.049 A 
ATOM     44  N   UNL A   1      41.277  29.542  33.266  1.00  0.00    -0.248 NA
ATOM     45  C   UNL A   1      42.109  28.017  31.710  1.00  0.00     0.031 C 
ATOM     46  C   UNL A   1      37.748  30.306  30.635  1.00  0.00     0.029 A 
ATOM     47  N   UNL A   1      38.747  30.852  32.560  1.00  0.00    -0.354 N 
ATOM     48  C   UNL A   1      42.471  29.009  33.740  1.00  0.00     0.074 A 
ATOM     49  C   UNL A   1      42.919  28.044  32.761  1.00  0.00     0.031 C 
ATOM     50  C   UNL A   1      37.041  31.303  31.185  1.00  0.00     0.029 A 
ATOM     51  C   UNL A   1      37.657  31.683  32.453  1.00  0.00     0.049 A 
ATOM     52  H   UNL A   1      39.353  30.853  33.337  1.00  0.00     0.167 HD
ATOM     53  C   UNL A   1      43.139  29.305  34.881  1.00  0.00     0.031 A 
ATOM     54  C   UNL A   1      37.200  32.650  33.273  1.00  0.00     0.031 A 
ATOM     55  C   UNL A   1      42.698  30.281  35.842  1.00  0.00     0.049 A 
ATOM     56  C   UNL A   1      37.954  32.957  34.533  1.00  0.00     0.074 A 
ATOM     57  C   UNL A   1      43.303  30.645  37.033  1.00  0.00     0.029 A 
ATOM     58  N   UNL A   1      41.558  31.061  35.719  1.00  0.00    -0.354 N 
ATOM     59  N   UNL A   1      39.067  32.423  34.973  1.00  0.00    -0.248 NA
ATOM     60  C   UNL A   1      37.398  33.999  35.406  1.00  0.00     0.031 C 
ATOM     61  C   UNL A   1      42.505  31.609  37.654  1.00  0.00     0.029 A 
ATOM     62  C   UNL A   1      41.438  31.898  36.817  1.00  0.00     0.049 A 
ATOM     63  H   UNL A   1      40.927  31.026  34.965  1.00  0.00     0.167 HD
ATOM     64  C   UNL A   1      39.355  33.074  36.166  1.00  0.00     0.074 A 
ATOM     65  C   UNL A   1      38.307  34.053  36.371  1.00  0.00     0.031 C 
ATOM     66  C   UNL A   1      40.395  32.872  37.012  1.00  0.00     0.031 A 
BRANCH  53  67
ATOM     67  C   UNL A   1      44.422  28.570  35.169  1.00  0.00    -0.014 A 
ATOM     68  C   UNL A   1      45.644  29.090  34.703  1.00  0.00     0.010 A 
ATOM     69  C   UNL A   1      44.414  27.315  35.804  1.00  0.00     0.010 A 
ATOM     70  C   UNL A   1      46.830  28.361  34.842  1.00  0.00     0.020 A 
ATOM     71  C   UNL A   1      45.602  26.595  35.970  1.00  0.00     0.020 A 
ATOM     72  C   UNL A   1      46.798  27.113  35.468  1.00  0.00     0.054 A 
BRANCH  72  73
ATOM     73  S   UNL A   1      48.343  26.176  35.638  1.00  0.00     0.124 S 
ATOM     74  O   UNL A   1      48.486  25.575  34.315  1.00  0.00    -0.237 OA
ATOM     75  O   UNL A   1      49.315  27.216  35.968  1.00  0.00    -0.237 OA
ATOM     76  O   UNL A   1      48.056  25.241  36.724  1.00  0.00    -0.744 OA
ENDBRANCH  72  73
ENDBRANCH  53  67
BRANCH  54  77
ATOM     77  C   UNL A   1      35.984  33.410  32.877  1.00  0.00    -0.014 A 
ATOM     78  C   UNL A   1      36.103  34.623  32.173  1.00  0.00     0.010 A 
ATOM     79  C   UNL A   1      34.712  32.986  33.299  1.00  0.00     0.010 A 
ATOM     80  C   UNL A   1      34.987  35.432  31.959  1.00  0.00     0.020 A 
ATOM     81  C   UNL A   1      33.585  33.778  33.057  1.00  0.00     0.020 A 
ATOM     82  C   UNL A   1      33.736  35.012  32.418  1.00  0.00     0.054 A 
BRANCH  82  83
ATOM     83  S   UNL A   1      32.309  36.108  32.189  1.00  0.00     0.124 S 
ATOM     84  O   UNL A   1      32.386  36.403  30.761  1.00  0.00    -0.237 OA
ATOM     85  O   UNL A   1      31.188  35.264  32.598  1.00  0.00    -0.237 OA
ATOM     86  O   UNL A   1      32.595  37.231  33.078  1.00  0.00    -0.744 OA
ENDBRANCH  82  83
ENDBRANCH  54  77
BRANCH  66  87
ATOM     87  C   UNL A   1      40.483  33.734  38.244  1.00  0.00    -0.014 A 
ATOM     88  C   UNL A   1      39.834  33.324  39.423  1.00  0.00     0.010 A 
ATOM     89  C   UNL A   1      41.097  34.998  38.202  1.00  0.00     0.010 A 
ATOM     90  C   UNL A   1      39.772  34.172  40.531  1.00  0.00     0.020 A 
ATOM     91  C   UNL A   1      41.062  35.839  39.318  1.00  0.00     0.020 A 
ATOM     92  C   UNL A   1      40.379  35.429  40.467  1.00  0.00     0.054 A 
BRANCH  92  93
ATOM     93  S   UNL A   1      40.274  36.527  41.908  1.00  0.00     0.124 S 
ATOM     94  O   UNL A   1      41.654  36.984  42.046  1.00  0.00    -0.237 OA
ATOM     95  O   UNL A   1      39.314  37.540  41.474  1.00  0.00    -0.237 OA
ATOM     96  O   UNL A   1      39.798  35.647  42.973  1.00  0.00    -0.744 OA
ENDBRANCH  92  93
ENDBRANCH  66  87
ENDBRANCH  40  41
ENDBRANCH  32  35
ENDBRANCH  30  31
ENDBRANCH  29  30
ENDBRANCH   1  29
TORSDOF 18
ENDMDL
MODEL 2
REMARK VINA RESULT:     -11.4      2.051      8.236
REMARK SMILES CC(C)[N@H+](C)Cc1cc2c(cc1Cl)C=C(C(=O)NCCCCNC(=O)c1ccc(-c3c4nc(c(-c5ccc(S(=O)(=O)[O-])cc5)c5ccc([nH]5)c(-c5ccc(S(=O)(=O)[O-])cc5)c5nc(c(-c6ccc(S(=O)(=O)[O-])cc6)c6ccc3[nH]6)C=C5)C=C4)cc1)[C@@H](C(F)(F)F)O2
REMARK SMILES IDX 20 1 19 2 18 3 16 4 17 5 15 7 7 8 8 9 12 10 9 11 11 12 13 13
REMARK SMILES IDX 10 14 91 15 14 16 86 17 6 18 4 19 5 20 2 22 1 23 3 24 87 25
REMARK SMILES IDX 88 26 89 27 90 28 21 29 22 30 23 31 24 32 25 34 26 35 27 36
REMARK SMILES IDX 85 37 28 38 84 39 29 40 30 41 31 42 78 43 32 44 83 45 77 46
REMARK SMILES IDX 79 47 33 48 82 49 76 50 75 51 34 53 64 54 45 55 63 56 46 57
REMARK SMILES IDX 49 58 62 59 80 60 47 61 48 62 61 64 81 65 50 66 35 67 36 68
REMARK SMILES IDX 44 69 37 70 43 71 38 72 39 73 40 74 41 75 42 76 65 77 66 78
REMARK SMILES IDX 74 79 67 80 73 81 68 82 69 83 70 84 71 85 72 86 51 87 52 88
REMARK SMILES IDX 60 89 53 90 59 91 54 92 55 93 56 94 57 95 58 96
REMARK H PARENT 18 6 4 21 23 33 79 52 49 63
REMARK Flexibility Score: inf
ROOT
ATOM      1  C   UNL A   1      38.023  21.389  25.121  1.00  0.00     0.023 C 
ENDROOT
BRANCH   1   2
ATOM      2  C   UNL A   1      36.644  21.485  25.764  1.00  0.00     0.116 C 
BRANCH   2   3
ATOM      3  N   UNL A   1      35.759  20.413  25.357  1.00  0.00    -0.352 N 
ATOM      4  C   UNL A   1      34.489  20.336  24.893  1.00  0.00     0.251 C 
ATOM      5  O   UNL A   1      34.069  19.206  24.632  1.00  0.00    -0.270 OA
ATOM      6  H   UNL A   1      36.183  19.527  25.435  1.00  0.00     0.163 HD
BRANCH   4   7
ATOM      7  C   UNL A   1      33.594  21.515  24.707  1.00  0.00     0.067 C 
ATOM      8  C   UNL A   1      31.480  25.688  22.758  1.00  0.00     0.029 A 
ATOM      9  C   UNL A   1      31.318  24.952  23.949  1.00  0.00     0.058 A 
ATOM     10  C   UNL A   1      32.363  25.175  21.792  1.00  0.00     0.050 A 
ATOM     11  C   UNL A   1      32.059  23.795  24.195  1.00  0.00     0.128 A 
ATOM     12  C   UNL A   1      33.145  24.045  22.069  1.00  0.00     0.033 A 
ATOM     13  Cl  UNL A   1      32.528  25.823  20.197  1.00  0.00    -0.084 Cl
ATOM     14  C   UNL A   1      33.000  23.358  23.274  1.00  0.00     0.019 A 
ATOM     15  O   UNL A   1      31.779  23.144  25.354  1.00  0.00    -0.475 OA
ATOM     16  C   UNL A   1      33.797  22.179  23.558  1.00  0.00     0.025 C 
ATOM     17  C   UNL A   1      32.577  21.979  25.715  1.00  0.00     0.314 C 
BRANCH   8  18
ATOM     18  C   UNL A   1      30.609  26.918  22.594  1.00  0.00     0.300 C 
BRANCH  18  19
ATOM     19  N   UNL A   1      31.324  28.195  22.545  1.00  0.00    -0.332 N 
ATOM     20  C   UNL A   1      30.407  29.317  22.378  1.00  0.00     0.333 C 
ATOM     21  H   UNL A   1      31.889  28.104  21.701  1.00  0.00     0.348 HD
BRANCH  19  22
ATOM     22  C   UNL A   1      32.377  28.439  23.542  1.00  0.00     0.177 C 
ATOM     23  C   UNL A   1      33.708  28.951  22.980  1.00  0.00     0.075 C 
ATOM     24  C   UNL A   1      31.908  29.355  24.679  1.00  0.00     0.075 C 
ENDBRANCH  19  22
ENDBRANCH  18  19
ENDBRANCH   8  18
BRANCH  17  25
ATOM     25  C   UNL A   1      33.158  22.266  27.111  1.00  0.00     0.429 C 
ATOM     26  F   UNL A   1      32.181  22.740  27.929  1.00  0.00    -0.167 F 
ATOM     27  F   UNL A   1      33.667  21.176  27.721  1.00  0.00    -0.167 F 
ATOM     28  F   UNL A   1      34.137  23.199  27.075  1.00  0.00    -0.167 F 
ENDBRANCH  17  25
ENDBRANCH   4   7
ENDBRANCH   2   3
ENDBRANCH   1   2
BRANCH   1  29
ATOM     29  C   UNL A   1      39.186  21.370  26.114  1.00  0.00     0.023 C 
BRANCH  29  30
ATOM     30  C   UNL A   1      39.826  22.726  26.395  1.00  0.00     0.116 C 
BRANCH  30  31
ATOM     31  N   UNL A   1      41.121  22.935  25.757  1.00  0.00    -0.352 N 
ATOM     32  C   UNL A   1      41.930  24.048  25.864  1.00  0.00     0.251 C 
ATOM     33  H   UNL A   1      41.454  22.203  25.188  1.00  0.00     0.163 HD
ATOM     34  O   UNL A   1      42.977  24.137  25.233  1.00  0.00    -0.269 OA
BRANCH  32  35
ATOM     35  C   UNL A   1      41.455  25.157  26.715  1.00  0.00     0.039 A 
ATOM     36  C   UNL A   1      41.957  26.440  26.506  1.00  0.00     0.014 A 
ATOM     37  C   UNL A   1      40.663  24.868  27.827  1.00  0.00     0.014 A 
ATOM     38  C   UNL A   1      41.845  27.379  27.522  1.00  0.00     0.010 A 
ATOM     39  C   UNL A   1      40.472  25.848  28.803  1.00  0.00     0.010 A 
ATOM     40  C   UNL A   1      41.126  27.085  28.695  1.00  0.00    -0.014 A 
BRANCH  40  41
ATOM     41  C   UNL A   1      41.125  28.075  29.806  1.00  0.00     0.031 A 
ATOM     42  C   UNL A   1      40.046  29.123  29.907  1.00  0.00     0.074 A 
ATOM     43  C   UNL A   1      42.044  27.957  30.785  1.00  0.00     0.049 A 
ATOM     44  N   UNL A   1      39.845  30.003  30.856  1.00  0.00    -0.248 NA
ATOM     45  C   UNL A   1      39.069  29.203  28.807  1.00  0.00     0.031 C 
ATOM     46  C   UNL A   1      43.121  26.965  30.807  1.00  0.00     0.029 A 
ATOM     47  N   UNL A   1      42.191  28.634  31.968  1.00  0.00    -0.354 N 
ATOM     48  C   UNL A   1      38.737  30.746  30.463  1.00  0.00     0.074 A 
ATOM     49  C   UNL A   1      38.325  30.238  29.174  1.00  0.00     0.031 C 
ATOM     50  C   UNL A   1      43.761  27.041  31.981  1.00  0.00     0.029 A 
ATOM     51  C   UNL A   1      43.190  28.130  32.767  1.00  0.00     0.049 A 
ATOM     52  H   UNL A   1      41.636  29.408  32.221  1.00  0.00     0.167 HD
ATOM     53  C   UNL A   1      38.114  31.753  31.121  1.00  0.00     0.031 A 
ATOM     54  C   UNL A   1      43.601  28.489  33.999  1.00  0.00     0.031 A 
ATOM     55  C   UNL A   1      38.518  32.242  32.414  1.00  0.00     0.049 A 
ATOM     56  C   UNL A   1      42.898  29.610  34.707  1.00  0.00     0.074 A 
ATOM     57  C   UNL A   1      37.954  33.264  33.157  1.00  0.00     0.029 A 
ATOM     58  N   UNL A   1      39.569  31.736  33.163  1.00  0.00    -0.354 N 
ATOM     59  N   UNL A   1      41.869  30.316  34.305  1.00  0.00    -0.248 NA
ATOM     60  C   UNL A   1      43.405  29.982  36.035  1.00  0.00     0.031 C 
ATOM     61  C   UNL A   1      38.692  33.410  34.334  1.00  0.00     0.029 A 
ATOM     62  C   UNL A   1      39.674  32.432  34.357  1.00  0.00     0.049 A 
ATOM     63  H   UNL A   1      40.154  30.994  32.889  1.00  0.00     0.167 HD
ATOM     64  C   UNL A   1      41.594  31.206  35.336  1.00  0.00     0.074 A 
ATOM     65  C   UNL A   1      42.554  30.938  36.387  1.00  0.00     0.031 C 
ATOM     66  C   UNL A   1      40.630  32.157  35.399  1.00  0.00     0.031 A 
BRANCH  53  67
ATOM     67  C   UNL A   1      36.926  32.409  30.465  1.00  0.00    -0.014 A 
ATOM     68  C   UNL A   1      37.120  33.517  29.619  1.00  0.00     0.010 A 
ATOM     69  C   UNL A   1      35.614  32.003  30.767  1.00  0.00     0.010 A 
ATOM     70  C   UNL A   1      36.028  34.224  29.107  1.00  0.00     0.020 A 
ATOM     71  C   UNL A   1      34.518  32.690  30.234  1.00  0.00     0.020 A 
ATOM     72  C   UNL A   1      34.732  33.809  29.425  1.00  0.00     0.054 A 
BRANCH  72  73
ATOM     73  S   UNL A   1      33.323  34.737  28.757  1.00  0.00     0.124 S 
ATOM     74  O   UNL A   1      32.529  34.994  29.954  1.00  0.00    -0.237 OA
ATOM     75  O   UNL A   1      33.963  35.907  28.160  1.00  0.00    -0.237 OA
ATOM     76  O   UNL A   1      32.729  33.809  27.797  1.00  0.00    -0.744 OA
ENDBRANCH  72  73
ENDBRANCH  53  67
BRANCH  54  77
ATOM     77  C   UNL A   1      44.713  27.731  34.633  1.00  0.00    -0.014 A 
ATOM     78  C   UNL A   1      44.439  26.613  35.443  1.00  0.00     0.010 A 
ATOM     79  C   UNL A   1      46.038  28.189  34.525  1.00  0.00     0.010 A 
ATOM     80  C   UNL A   1      45.454  26.009  36.186  1.00  0.00     0.020 A 
ATOM     81  C   UNL A   1      47.064  27.566  35.243  1.00  0.00     0.020 A 
ATOM     82  C   UNL A   1      46.758  26.502  36.095  1.00  0.00     0.054 A 
BRANCH  82  83
ATOM     83  S   UNL A   1      48.050  25.746  37.120  1.00  0.00     0.124 S 
ATOM     84  O   UNL A   1      49.262  26.127  36.400  1.00  0.00    -0.237 OA
ATOM     85  O   UNL A   1      47.855  26.397  38.413  1.00  0.00    -0.237 OA
ATOM     86  O   UNL A   1      47.722  24.323  37.087  1.00  0.00    -0.744 OA
ENDBRANCH  82  83
ENDBRANCH  54  77
BRANCH  66  87
ATOM     87  C   UNL A   1      40.535  32.986  36.652  1.00  0.00    -0.014 A 
ATOM     88  C   UNL A   1      39.536  32.698  37.600  1.00  0.00     0.010 A 
ATOM     89  C   UNL A   1      41.348  34.120  36.835  1.00  0.00     0.010 A 
ATOM     90  C   UNL A   1      39.329  33.541  38.693  1.00  0.00     0.020 A 
ATOM     91  C   UNL A   1      41.163  34.951  37.943  1.00  0.00     0.020 A 
ATOM     92  C   UNL A   1      40.139  34.669  38.852  1.00  0.00     0.054 A 
BRANCH  92  93
ATOM     93  S   UNL A   1      39.846  35.765  40.268  1.00  0.00     0.124 S 
ATOM     94  O   UNL A   1      39.905  34.836  41.393  1.00  0.00    -0.237 OA
ATOM     95  O   UNL A   1      40.952  36.715  40.176  1.00  0.00    -0.237 OA
ATOM     96  O   UNL A   1      38.527  36.331  39.994  1.00  0.00    -0.744 OA
ENDBRANCH  92  93
ENDBRANCH  66  87
ENDBRANCH  40  41
ENDBRANCH  32  35
ENDBRANCH  30  31
ENDBRANCH  29  30
ENDBRANCH   1  29
TORSDOF 18
ENDMDL
MODEL 3
REMARK VINA RESULT:     -11.4      6.345      8.547
REMARK SMILES CC(C)[N@H+](C)Cc1cc2c(cc1Cl)C=C(C(=O)NCCCCNC(=O)c1ccc(-c3c4nc(c(-c5ccc(S(=O)(=O)[O-])cc5)c5ccc([nH]5)c(-c5ccc(S(=O)(=O)[O-])cc5)c5nc(c(-c6ccc(S(=O)(=O)[O-])cc6)c6ccc3[nH]6)C=C5)C=C4)cc1)[C@@H](C(F)(F)F)O2
REMARK SMILES IDX 20 1 19 2 18 3 16 4 17 5 15 7 7 8 8 9 12 10 9 11 11 12 13 13
REMARK SMILES IDX 10 14 91 15 14 16 86 17 6 18 4 19 5 20 2 22 1 23 3 24 87 25
REMARK SMILES IDX 88 26 89 27 90 28 21 29 22 30 23 31 24 32 25 34 26 35 27 36
REMARK SMILES IDX 85 37 28 38 84 39 29 40 30 41 31 42 78 43 32 44 83 45 77 46
REMARK SMILES IDX 79 47 33 48 82 49 76 50 75 51 34 53 64 54 45 55 63 56 46 57
REMARK SMILES IDX 49 58 62 59 80 60 47 61 48 62 61 64 81 65 50 66 35 67 36 68
REMARK SMILES IDX 44 69 37 70 43 71 38 72 39 73 40 74 41 75 42 76 65 77 66 78
REMARK SMILES IDX 74 79 67 80 73 81 68 82 69 83 70 84 71 85 72 86 51 87 52 88
REMARK SMILES IDX 60 89 53 90 59 91 54 92 55 93 56 94 57 95 58 96
REMARK H PARENT 18 6 4 21 23 33 79 52 49 63
REMARK Flexibility Score: inf
ROOT
ATOM      1  C   UNL A   1      37.371  23.033  26.092  1.00  0.00     0.023 C 
ENDROOT
BRANCH   1   2
ATOM      2  C   UNL A   1      36.031  22.550  25.548  1.00  0.00     0.116 C 
BRANCH   2   3
ATOM      3  N   UNL A   1      34.965  22.637  26.525  1.00  0.00    -0.352 N 
ATOM      4  C   UNL A   1      33.787  23.300  26.608  1.00  0.00     0.251 C 
ATOM      5  O   UNL A   1      33.119  23.103  27.626  1.00  0.00    -0.270 OA
ATOM      6  H   UNL A   1      35.138  22.080  27.318  1.00  0.00     0.163 HD
BRANCH   4   7
ATOM      7  C   UNL A   1      33.282  24.242  25.567  1.00  0.00     0.067 C 
ATOM      8  C   UNL A   1      31.334  28.360  23.348  1.00  0.00     0.029 A 
ATOM      9  C   UNL A   1      31.708  27.074  22.908  1.00  0.00     0.058 A 
ATOM     10  C   UNL A   1      31.596  28.691  24.688  1.00  0.00     0.050 A 
ATOM     11  C   UNL A   1      32.252  26.136  23.787  1.00  0.00     0.128 A 
ATOM     12  C   UNL A   1      32.090  27.727  25.577  1.00  0.00     0.033 A 
ATOM     13  Cl  UNL A   1      31.402  30.280  25.344  1.00  0.00    -0.084 Cl
ATOM     14  C   UNL A   1      32.412  26.446  25.130  1.00  0.00     0.019 A 
ATOM     15  O   UNL A   1      32.621  24.949  23.237  1.00  0.00    -0.475 OA
ATOM     16  C   UNL A   1      32.937  25.449  26.044  1.00  0.00     0.025 C 
ATOM     17  C   UNL A   1      33.113  23.893  24.113  1.00  0.00     0.314 C 
BRANCH   8  18
ATOM     18  C   UNL A   1      30.768  29.299  22.300  1.00  0.00     0.300 C 
BRANCH  18  19
ATOM     19  N   UNL A   1      29.312  29.449  22.308  1.00  0.00    -0.332 N 
ATOM     20  C   UNL A   1      28.671  28.426  23.126  1.00  0.00     0.333 C 
ATOM     21  H   UNL A   1      29.064  29.291  21.331  1.00  0.00     0.348 HD
BRANCH  19  22
ATOM     22  C   UNL A   1      28.754  30.796  22.506  1.00  0.00     0.177 C 
ATOM     23  C   UNL A   1      28.266  31.499  21.235  1.00  0.00     0.075 C 
ATOM     24  C   UNL A   1      27.649  30.822  23.569  1.00  0.00     0.075 C 
ENDBRANCH  19  22
ENDBRANCH  18  19
ENDBRANCH   8  18
BRANCH  17  25
ATOM     25  C   UNL A   1      32.221  22.665  23.858  1.00  0.00     0.429 C 
ATOM     26  F   UNL A   1      31.478  22.860  22.736  1.00  0.00    -0.167 F 
ATOM     27  F   UNL A   1      32.913  21.524  23.661  1.00  0.00    -0.167 F 
ATOM     28  F   UNL A   1      31.358  22.441  24.875  1.00  0.00    -0.167 F 
ENDBRANCH  17  25
ENDBRANCH   4   7
ENDBRANCH   2   3
ENDBRANCH   1   2
BRANCH   1  29
ATOM     29  C   UNL A   1      38.584  22.263  25.567  1.00  0.00     0.023 C 
BRANCH  29  30
ATOM     30  C   UNL A   1      39.452  21.606  26.636  1.00  0.00     0.116 C 
BRANCH  30  31
ATOM     31  N   UNL A   1      40.002  20.307  26.264  1.00  0.00    -0.352 N 
ATOM     32  C   UNL A   1      41.335  19.980  26.120  1.00  0.00     0.251 C 
ATOM     33  H   UNL A   1      39.352  19.585  26.096  1.00  0.00     0.163 HD
ATOM     34  O   UNL A   1      41.680  18.865  25.745  1.00  0.00    -0.269 OA
BRANCH  32  35
ATOM     35  C   UNL A   1      42.329  21.043  26.370  1.00  0.00     0.039 A 
ATOM     36  C   UNL A   1      42.664  21.368  27.683  1.00  0.00     0.014 A 
ATOM     37  C   UNL A   1      42.767  21.826  25.301  1.00  0.00     0.014 A 
ATOM     38  C   UNL A   1      43.258  22.596  27.940  1.00  0.00     0.010 A 
ATOM     39  C   UNL A   1      43.450  23.016  25.561  1.00  0.00     0.010 A 
ATOM     40  C   UNL A   1      43.631  23.448  26.885  1.00  0.00    -0.014 A 
BRANCH  40  41
ATOM     41  C   UNL A   1      44.160  24.801  27.206  1.00  0.00     0.031 A 
ATOM     42  C   UNL A   1      45.600  25.154  26.935  1.00  0.00     0.074 A 
ATOM     43  C   UNL A   1      43.306  25.748  27.643  1.00  0.00     0.049 A 
ATOM     44  N   UNL A   1      46.201  26.310  27.070  1.00  0.00    -0.248 NA
ATOM     45  C   UNL A   1      46.486  24.078  26.455  1.00  0.00     0.031 C 
ATOM     46  C   UNL A   1      41.884  25.529  27.917  1.00  0.00     0.029 A 
ATOM     47  N   UNL A   1      43.490  27.085  27.885  1.00  0.00    -0.354 N 
ATOM     48  C   UNL A   1      47.528  26.099  26.711  1.00  0.00     0.074 A 
ATOM     49  C   UNL A   1      47.657  24.697  26.382  1.00  0.00     0.031 C 
ATOM     50  C   UNL A   1      41.308  26.705  28.204  1.00  0.00     0.029 A 
ATOM     51  C   UNL A   1      42.328  27.749  28.203  1.00  0.00     0.049 A 
ATOM     52  H   UNL A   1      44.369  27.527  27.835  1.00  0.00     0.167 HD
ATOM     53  C   UNL A   1      48.543  26.993  26.652  1.00  0.00     0.031 A 
ATOM     54  C   UNL A   1      42.098  29.052  28.460  1.00  0.00     0.031 A 
ATOM     55  C   UNL A   1      48.404  28.392  26.963  1.00  0.00     0.049 A 
ATOM     56  C   UNL A   1      43.239  30.024  28.392  1.00  0.00     0.074 A 
ATOM     57  C   UNL A   1      49.377  29.376  26.940  1.00  0.00     0.029 A 
ATOM     58  N   UNL A   1      47.219  29.011  27.334  1.00  0.00    -0.354 N 
ATOM     59  N   UNL A   1      44.491  29.797  28.076  1.00  0.00    -0.248 NA
ATOM     60  C   UNL A   1      42.941  31.426  28.709  1.00  0.00     0.031 C 
ATOM     61  C   UNL A   1      48.794  30.579  27.343  1.00  0.00     0.029 A 
ATOM     62  C   UNL A   1      47.441  30.362  27.550  1.00  0.00     0.049 A 
ATOM     63  H   UNL A   1      46.351  28.560  27.429  1.00  0.00     0.167 HD
ATOM     64  C   UNL A   1      45.128  31.030  28.140  1.00  0.00     0.074 A 
ATOM     65  C   UNL A   1      44.119  32.002  28.509  1.00  0.00     0.031 C 
ATOM     66  C   UNL A   1      46.432  31.323  27.914  1.00  0.00     0.031 A 
BRANCH  53  67
ATOM     67  C   UNL A   1      49.906  26.502  26.239  1.00  0.00    -0.014 A 
ATOM     68  C   UNL A   1      50.792  26.001  27.212  1.00  0.00     0.010 A 
ATOM     69  C   UNL A   1      50.355  26.633  24.913  1.00  0.00     0.010 A 
ATOM     70  C   UNL A   1      52.107  25.664  26.875  1.00  0.00     0.020 A 
ATOM     71  C   UNL A   1      51.661  26.271  24.565  1.00  0.00     0.020 A 
ATOM     72  C   UNL A   1      52.534  25.809  25.553  1.00  0.00     0.054 A 
BRANCH  72  73
ATOM     73  S   UNL A   1      54.244  25.373  25.130  1.00  0.00     0.124 S 
ATOM     74  O   UNL A   1      54.448  26.102  23.882  1.00  0.00    -0.237 OA
ATOM     75  O   UNL A   1      54.997  25.867  26.281  1.00  0.00    -0.237 OA
ATOM     76  O   UNL A   1      54.203  23.917  25.007  1.00  0.00    -0.744 OA
ENDBRANCH  72  73
ENDBRANCH  53  67
BRANCH  54  77
ATOM     77  C   UNL A   1      40.708  29.488  28.759  1.00  0.00    -0.014 A 
ATOM     78  C   UNL A   1      40.313  29.740  30.086  1.00  0.00     0.010 A 
ATOM     79  C   UNL A   1      39.745  29.543  27.737  1.00  0.00     0.010 A 
ATOM     80  C   UNL A   1      38.972  29.971  30.396  1.00  0.00     0.020 A 
ATOM     81  C   UNL A   1      38.405  29.805  28.039  1.00  0.00     0.020 A 
ATOM     82  C   UNL A   1      38.023  29.984  29.371  1.00  0.00     0.054 A 
BRANCH  82  83
ATOM     83  S   UNL A   1      36.276  30.218  29.802  1.00  0.00     0.124 S 
ATOM     84  O   UNL A   1      36.168  29.446  31.037  1.00  0.00    -0.237 OA
ATOM     85  O   UNL A   1      36.175  31.667  29.956  1.00  0.00    -0.237 OA
ATOM     86  O   UNL A   1      35.565  29.666  28.653  1.00  0.00    -0.744 OA
ENDBRANCH  82  83
ENDBRANCH  54  77
BRANCH  66  87
ATOM     87  C   UNL A   1      46.866  32.760  28.036  1.00  0.00    -0.014 A 
ATOM     88  C   UNL A   1      46.866  33.583  26.895  1.00  0.00     0.010 A 
ATOM     89  C   UNL A   1      47.387  33.260  29.243  1.00  0.00     0.010 A 
ATOM     90  C   UNL A   1      47.405  34.870  26.947  1.00  0.00     0.020 A 
ATOM     91  C   UNL A   1      47.902  34.557  29.307  1.00  0.00     0.020 A 
ATOM     92  C   UNL A   1      47.929  35.345  28.153  1.00  0.00     0.054 A 
BRANCH  92  93
ATOM     93  S   UNL A   1      48.643  37.013  28.201  1.00  0.00     0.124 S 
ATOM     94  O   UNL A   1      47.909  37.691  27.136  1.00  0.00    -0.237 OA
ATOM     95  O   UNL A   1      48.337  37.457  29.559  1.00  0.00    -0.237 OA
ATOM     96  O   UNL A   1      50.061  36.784  27.934  1.00  0.00    -0.744 OA
ENDBRANCH  92  93
ENDBRANCH  66  87
ENDBRANCH  40  41
ENDBRANCH  32  35
ENDBRANCH  30  31
ENDBRANCH  29  30
ENDBRANCH   1  29
TORSDOF 18
ENDMDL
