MODEL 1
REMARK VINA RESULT:     -11.2      0.000      0.000
REMARK SMILES O=C(NCCCCNC(=O)[C@H]1CCCN1S(=O)(=O)c1ccccc1Cl)c1ccc(-c2c3nc(c(-c4ccc(S(=O)(=O)[O-])cc4)c4ccc([nH]4)c(-c4ccc(S(=O)(=O)[O-])cc4)c4nc(c(-c5ccc(S(=O)(=O)[O-])cc5)c5ccc2[nH]5)C=C4)C=C3)cc1
REMARK SMILES IDX 5 1 4 2 3 3 1 4 2 5 26 7 27 8 85 9 28 10 84 11 29 12 30 13
REMARK SMILES IDX 31 14 78 15 32 16 83 17 77 18 79 19 33 20 82 21 76 22 75 23
REMARK SMILES IDX 34 25 64 26 45 27 63 28 46 29 49 30 62 31 80 32 47 33 48 34
REMARK SMILES IDX 61 36 81 37 50 38 35 39 36 40 44 41 37 42 43 43 38 44 39 45
REMARK SMILES IDX 40 46 41 47 42 48 65 49 66 50 74 51 67 52 73 53 68 54 69 55
REMARK SMILES IDX 70 56 71 57 72 58 51 59 52 60 60 61 53 62 59 63 54 64 55 65
REMARK SMILES IDX 56 66 57 67 58 68 6 69 7 70 8 71 9 72 10 74 11 75 12 76
REMARK SMILES IDX 15 77 13 78 14 79 16 80 17 81 18 82 19 83 20 84 24 85 21 86
REMARK SMILES IDX 23 87 25 88 22 89
REMARK H PARENT 3 6 79 24 49 35 8 73
REMARK Flexibility Score: inf
ROOT
ATOM      1  C   UNL A   1      32.773  27.737  25.942  1.00  0.00     0.023 C 
ENDROOT
BRANCH   1   2
ATOM      2  C   UNL A   1      33.824  28.222  26.934  1.00  0.00     0.116 C 
BRANCH   2   3
ATOM      3  N   UNL A   1      33.599  29.589  27.385  1.00  0.00    -0.352 N 
ATOM      4  O   UNL A   1      34.077  31.508  28.473  1.00  0.00    -0.269 OA
ATOM      5  C   UNL A   1      34.467  30.427  28.046  1.00  0.00     0.251 C 
ATOM      6  H   UNL A   1      32.708  29.962  27.191  1.00  0.00     0.163 HD
BRANCH   5   7
ATOM      7  C   UNL A   1      35.862  29.990  28.263  1.00  0.00     0.039 A 
ATOM      8  C   UNL A   1      36.265  29.534  29.520  1.00  0.00     0.014 A 
ATOM      9  C   UNL A   1      36.781  30.078  27.215  1.00  0.00     0.014 A 
ATOM     10  C   UNL A   1      37.614  29.315  29.770  1.00  0.00     0.010 A 
ATOM     11  C   UNL A   1      38.125  29.771  27.446  1.00  0.00     0.010 A 
ATOM     12  C   UNL A   1      38.558  29.420  28.735  1.00  0.00    -0.014 A 
BRANCH  12  13
ATOM     13  C   UNL A   1      39.980  29.102  29.024  1.00  0.00     0.031 A 
ATOM     14  C   UNL A   1      40.883  30.092  29.707  1.00  0.00     0.074 A 
ATOM     15  C   UNL A   1      40.437  27.874  28.705  1.00  0.00     0.049 A 
ATOM     16  N   UNL A   1      42.135  29.950  30.063  1.00  0.00    -0.248 NA
ATOM     17  C   UNL A   1      40.315  31.411  30.031  1.00  0.00     0.031 C 
ATOM     18  C   UNL A   1      39.653  26.830  28.037  1.00  0.00     0.029 A 
ATOM     19  N   UNL A   1      41.655  27.284  28.922  1.00  0.00    -0.354 N 
ATOM     20  C   UNL A   1      42.509  31.157  30.642  1.00  0.00     0.074 A 
ATOM     21  C   UNL A   1      41.360  32.034  30.563  1.00  0.00     0.031 C 
ATOM     22  C   UNL A   1      40.391  25.714  27.947  1.00  0.00     0.029 A 
ATOM     23  C   UNL A   1      41.717  25.981  28.489  1.00  0.00     0.049 A 
ATOM     24  H   UNL A   1      42.411  27.748  29.347  1.00  0.00     0.167 HD
ATOM     25  C   UNL A   1      43.699  31.501  31.193  1.00  0.00     0.031 A 
ATOM     26  C   UNL A   1      42.733  25.098  28.506  1.00  0.00     0.031 A 
ATOM     27  C   UNL A   1      44.842  30.626  31.261  1.00  0.00     0.049 A 
ATOM     28  C   UNL A   1      44.048  25.517  29.094  1.00  0.00     0.074 A 
ATOM     29  C   UNL A   1      46.092  30.882  31.799  1.00  0.00     0.029 A 
ATOM     30  N   UNL A   1      44.876  29.327  30.777  1.00  0.00    -0.354 N 
ATOM     31  N   UNL A   1      44.376  26.662  29.643  1.00  0.00    -0.248 NA
ATOM     32  C   UNL A   1      45.131  24.525  29.065  1.00  0.00     0.031 C 
ATOM     33  C   UNL A   1      46.894  29.752  31.604  1.00  0.00     0.029 A 
ATOM     34  C   UNL A   1      46.129  28.773  30.992  1.00  0.00     0.049 A 
ATOM     35  H   UNL A   1      44.122  28.865  30.345  1.00  0.00     0.167 HD
ATOM     36  C   UNL A   1      45.701  26.523  30.037  1.00  0.00     0.074 A 
ATOM     37  C   UNL A   1      46.103  25.177  29.687  1.00  0.00     0.031 C 
ATOM     38  C   UNL A   1      46.513  27.433  30.630  1.00  0.00     0.031 A 
BRANCH  25  39
ATOM     39  C   UNL A   1      43.834  32.892  31.757  1.00  0.00    -0.014 A 
ATOM     40  C   UNL A   1      44.182  33.977  30.933  1.00  0.00     0.010 A 
ATOM     41  C   UNL A   1      43.554  33.129  33.115  1.00  0.00     0.010 A 
ATOM     42  C   UNL A   1      44.280  35.268  31.464  1.00  0.00     0.020 A 
ATOM     43  C   UNL A   1      43.627  34.421  33.645  1.00  0.00     0.020 A 
ATOM     44  C   UNL A   1      44.005  35.480  32.818  1.00  0.00     0.054 A 
BRANCH  44  45
ATOM     45  S   UNL A   1      44.117  37.168  33.474  1.00  0.00     0.124 S 
ATOM     46  O   UNL A   1      45.233  37.052  34.410  1.00  0.00    -0.237 OA
ATOM     47  O   UNL A   1      44.383  37.962  32.278  1.00  0.00    -0.237 OA
ATOM     48  O   UNL A   1      42.810  37.390  34.087  1.00  0.00    -0.744 OA
ENDBRANCH  44  45
ENDBRANCH  25  39
BRANCH  26  49
ATOM     49  C   UNL A   1      42.545  23.745  27.921  1.00  0.00    -0.014 A 
ATOM     50  C   UNL A   1      42.125  22.666  28.719  1.00  0.00     0.010 A 
ATOM     51  C   UNL A   1      42.771  23.534  26.548  1.00  0.00     0.010 A 
ATOM     52  C   UNL A   1      41.958  21.397  28.158  1.00  0.00     0.020 A 
ATOM     53  C   UNL A   1      42.574  22.276  25.978  1.00  0.00     0.020 A 
ATOM     54  C   UNL A   1      42.184  21.210  26.790  1.00  0.00     0.054 A 
BRANCH  54  55
ATOM     55  S   UNL A   1      41.921  19.566  26.072  1.00  0.00     0.124 S 
ATOM     56  O   UNL A   1      42.770  19.617  24.886  1.00  0.00    -0.237 OA
ATOM     57  O   UNL A   1      42.373  18.677  27.139  1.00  0.00    -0.237 OA
ATOM     58  O   UNL A   1      40.483  19.534  25.814  1.00  0.00    -0.744 OA
ENDBRANCH  54  55
ENDBRANCH  26  49
BRANCH  38  59
ATOM     59  C   UNL A   1      47.911  26.984  30.958  1.00  0.00    -0.014 A 
ATOM     60  C   UNL A   1      48.181  26.232  32.116  1.00  0.00     0.010 A 
ATOM     61  C   UNL A   1      48.966  27.302  30.083  1.00  0.00     0.010 A 
ATOM     62  C   UNL A   1      49.488  25.840  32.414  1.00  0.00     0.020 A 
ATOM     63  C   UNL A   1      50.270  26.888  30.364  1.00  0.00     0.020 A 
ATOM     64  C   UNL A   1      50.525  26.175  31.538  1.00  0.00     0.054 A 
BRANCH  64  65
ATOM     65  S   UNL A   1      52.210  25.635  31.931  1.00  0.00     0.124 S 
ATOM     66  O   UNL A   1      52.536  26.471  33.083  1.00  0.00    -0.237 OA
ATOM     67  O   UNL A   1      52.034  24.213  32.217  1.00  0.00    -0.237 OA
ATOM     68  O   UNL A   1      52.962  25.930  30.712  1.00  0.00    -0.744 OA
ENDBRANCH  64  65
ENDBRANCH  38  59
ENDBRANCH  12  13
ENDBRANCH   5   7
ENDBRANCH   2   3
ENDBRANCH   1   2
BRANCH   1  69
ATOM     69  C   UNL A   1      31.421  27.371  26.556  1.00  0.00     0.023 C 
BRANCH  69  70
ATOM     70  C   UNL A   1      30.639  26.316  25.781  1.00  0.00     0.116 C 
BRANCH  70  71
ATOM     71  N   UNL A   1      30.261  25.201  26.626  1.00  0.00    -0.355 N 
ATOM     72  C   UNL A   1      30.725  23.920  26.662  1.00  0.00     0.238 C 
ATOM     73  H   UNL A   1      29.553  25.403  27.281  1.00  0.00     0.163 HD
ATOM     74  O   UNL A   1      30.210  23.161  27.488  1.00  0.00    -0.273 OA
BRANCH  72  75
ATOM     75  C   UNL A   1      31.844  23.459  25.710  1.00  0.00     0.162 C 
ATOM     76  C   UNL A   1      33.176  24.073  26.123  1.00  0.00     0.032 C 
ATOM     77  N   UNL A   1      32.056  21.983  25.837  1.00  0.00    -0.185 NA
ATOM     78  C   UNL A   1      33.706  23.148  27.202  1.00  0.00     0.019 C 
ATOM     79  C   UNL A   1      33.005  21.810  26.989  1.00  0.00     0.103 C 
BRANCH  77  80
ATOM     80  S   UNL A   1      32.541  21.133  24.437  1.00  0.00     0.245 S 
ATOM     81  O   UNL A   1      32.281  19.724  24.652  1.00  0.00    -0.207 OA
ATOM     82  O   UNL A   1      31.927  21.799  23.306  1.00  0.00    -0.207 OA
BRANCH  80  83
ATOM     83  C   UNL A   1      34.290  21.423  24.303  1.00  0.00     0.101 A 
ATOM     84  C   UNL A   1      35.130  20.540  25.012  1.00  0.00     0.023 A 
ATOM     85  C   UNL A   1      34.854  22.521  23.649  1.00  0.00     0.061 A 
ATOM     86  C   UNL A   1      36.512  20.728  25.031  1.00  0.00     0.002 A 
ATOM     87  C   UNL A   1      36.249  22.679  23.645  1.00  0.00     0.022 A 
ATOM     88  Cl  UNL A   1      33.975  23.743  22.803  1.00  0.00    -0.083 Cl
ATOM     89  C   UNL A   1      37.075  21.790  24.333  1.00  0.00     0.002 A 
ENDBRANCH  80  83
ENDBRANCH  77  80
ENDBRANCH  72  75
ENDBRANCH  70  71
ENDBRANCH  69  70
ENDBRANCH   1  69
TORSDOF 16
ENDMDL
MODEL 2
REMARK VINA RESULT:     -11.2      4.551     10.180
REMARK SMILES O=C(NCCCCNC(=O)[C@H]1CCCN1S(=O)(=O)c1ccccc1Cl)c1ccc(-c2c3nc(c(-c4ccc(S(=O)(=O)[O-])cc4)c4ccc([nH]4)c(-c4ccc(S(=O)(=O)[O-])cc4)c4nc(c(-c5ccc(S(=O)(=O)[O-])cc5)c5ccc2[nH]5)C=C4)C=C3)cc1
REMARK SMILES IDX 5 1 4 2 3 3 1 4 2 5 26 7 27 8 85 9 28 10 84 11 29 12 30 13
REMARK SMILES IDX 31 14 78 15 32 16 83 17 77 18 79 19 33 20 82 21 76 22 75 23
REMARK SMILES IDX 34 25 64 26 45 27 63 28 46 29 49 30 62 31 80 32 47 33 48 34
REMARK SMILES IDX 61 36 81 37 50 38 35 39 36 40 44 41 37 42 43 43 38 44 39 45
REMARK SMILES IDX 40 46 41 47 42 48 65 49 66 50 74 51 67 52 73 53 68 54 69 55
REMARK SMILES IDX 70 56 71 57 72 58 51 59 52 60 60 61 53 62 59 63 54 64 55 65
REMARK SMILES IDX 56 66 57 67 58 68 6 69 7 70 8 71 9 72 10 74 11 75 12 76
REMARK SMILES IDX 15 77 13 78 14 79 16 80 17 81 18 82 19 83 20 84 24 85 21 86
REMARK SMILES IDX 23 87 25 88 22 89
REMARK H PARENT 3 6 79 24 49 35 8 73
REMARK Flexibility Score: inf
ROOT
ATOM      1  C   UNL A   1      40.369  22.209  27.482  1.00  0.00     0.023 C 
ENDROOT
BRANCH   1   2
ATOM      2  C   UNL A   1      41.538  23.184  27.410  1.00  0.00     0.116 C 
BRANCH   2   3
ATOM      3  N   UNL A   1      41.519  24.017  26.216  1.00  0.00    -0.352 N 
ATOM      4  O   UNL A   1      41.218  25.913  25.027  1.00  0.00    -0.269 OA
ATOM      5  C   UNL A   1      41.338  25.378  26.125  1.00  0.00     0.251 C 
ATOM      6  H   UNL A   1      41.652  23.545  25.363  1.00  0.00     0.163 HD
BRANCH   5   7
ATOM      7  C   UNL A   1      41.257  26.177  27.365  1.00  0.00     0.039 A 
ATOM      8  C   UNL A   1      40.185  25.999  28.243  1.00  0.00     0.014 A 
ATOM      9  C   UNL A   1      42.234  27.140  27.628  1.00  0.00     0.014 A 
ATOM     10  C   UNL A   1      40.010  26.885  29.298  1.00  0.00     0.010 A 
ATOM     11  C   UNL A   1      42.101  27.974  28.743  1.00  0.00     0.010 A 
ATOM     12  C   UNL A   1      40.970  27.875  29.567  1.00  0.00    -0.014 A 
BRANCH  12  13
ATOM     13  C   UNL A   1      40.785  28.753  30.752  1.00  0.00     0.031 A 
ATOM     14  C   UNL A   1      41.684  28.650  31.953  1.00  0.00     0.074 A 
ATOM     15  C   UNL A   1      39.815  29.688  30.708  1.00  0.00     0.049 A 
ATOM     16  N   UNL A   1      41.676  29.370  33.047  1.00  0.00    -0.248 NA
ATOM     17  C   UNL A   1      42.724  27.609  31.930  1.00  0.00     0.031 C 
ATOM     18  C   UNL A   1      38.878  29.880  29.596  1.00  0.00     0.029 A 
ATOM     19  N   UNL A   1      39.472  30.670  31.601  1.00  0.00    -0.354 N 
ATOM     20  C   UNL A   1      42.696  28.867  33.846  1.00  0.00     0.074 A 
ATOM     21  C   UNL A   1      43.286  27.759  33.123  1.00  0.00     0.031 C 
ATOM     22  C   UNL A   1      38.106  30.946  29.849  1.00  0.00     0.029 A 
ATOM     23  C   UNL A   1      38.444  31.471  31.166  1.00  0.00     0.049 A 
ATOM     24  H   UNL A   1      39.919  30.789  32.469  1.00  0.00     0.167 HD
ATOM     25  C   UNL A   1      43.107  29.292  35.066  1.00  0.00     0.031 A 
ATOM     26  C   UNL A   1      37.824  32.506  31.763  1.00  0.00     0.031 A 
ATOM     27  C   UNL A   1      42.511  30.390  35.782  1.00  0.00     0.049 A 
ATOM     28  C   UNL A   1      38.280  32.935  33.127  1.00  0.00     0.074 A 
ATOM     29  C   UNL A   1      42.855  30.897  37.024  1.00  0.00     0.029 A 
ATOM     30  N   UNL A   1      41.446  31.152  35.324  1.00  0.00    -0.354 N 
ATOM     31  N   UNL A   1      39.253  32.449  33.859  1.00  0.00    -0.248 NA
ATOM     32  C   UNL A   1      37.553  34.052  33.745  1.00  0.00     0.031 C 
ATOM     33  C   UNL A   1      41.973  31.938  37.334  1.00  0.00     0.029 A 
ATOM     34  C   UNL A   1      41.113  32.116  36.263  1.00  0.00     0.049 A 
ATOM     35  H   UNL A   1      40.994  31.028  34.458  1.00  0.00     0.167 HD
ATOM     36  C   UNL A   1      39.264  33.210  35.021  1.00  0.00     0.074 A 
ATOM     37  C   UNL A   1      38.220  34.204  34.881  1.00  0.00     0.031 C 
ATOM     38  C   UNL A   1      40.065  33.092  36.109  1.00  0.00     0.031 A 
BRANCH  25  39
ATOM     39  C   UNL A   1      44.252  28.558  35.714  1.00  0.00    -0.014 A 
ATOM     40  C   UNL A   1      44.029  27.401  36.482  1.00  0.00     0.010 A 
ATOM     41  C   UNL A   1      45.573  28.996  35.507  1.00  0.00     0.010 A 
ATOM     42  C   UNL A   1      45.103  26.715  37.059  1.00  0.00     0.020 A 
ATOM     43  C   UNL A   1      46.652  28.299  36.062  1.00  0.00     0.020 A 
ATOM     44  C   UNL A   1      46.407  27.171  36.848  1.00  0.00     0.054 A 
BRANCH  44  45
ATOM     45  S   UNL A   1      47.783  26.247  37.588  1.00  0.00     0.124 S 
ATOM     46  O   UNL A   1      47.738  24.993  36.839  1.00  0.00    -0.237 OA
ATOM     47  O   UNL A   1      48.933  27.103  37.308  1.00  0.00    -0.237 OA
ATOM     48  O   UNL A   1      47.415  26.144  38.997  1.00  0.00    -0.744 OA
ENDBRANCH  44  45
ENDBRANCH  25  39
BRANCH  26  49
ATOM     49  C   UNL A   1      36.690  33.182  31.080  1.00  0.00    -0.014 A 
ATOM     50  C   UNL A   1      35.410  33.207  31.660  1.00  0.00     0.010 A 
ATOM     51  C   UNL A   1      36.895  33.822  29.843  1.00  0.00     0.010 A 
ATOM     52  C   UNL A   1      34.351  33.841  31.004  1.00  0.00     0.020 A 
ATOM     53  C   UNL A   1      35.847  34.484  29.201  1.00  0.00     0.020 A 
ATOM     54  C   UNL A   1      34.577  34.475  29.778  1.00  0.00     0.054 A 
BRANCH  54  55
ATOM     55  S   UNL A   1      33.199  35.328  28.963  1.00  0.00     0.124 S 
ATOM     56  O   UNL A   1      32.375  35.725  30.100  1.00  0.00    -0.237 OA
ATOM     57  O   UNL A   1      33.871  36.414  28.256  1.00  0.00    -0.237 OA
ATOM     58  O   UNL A   1      32.624  34.297  28.101  1.00  0.00    -0.744 OA
ENDBRANCH  54  55
ENDBRANCH  26  49
BRANCH  38  59
ATOM     59  C   UNL A   1      39.851  34.083  37.220  1.00  0.00    -0.014 A 
ATOM     60  C   UNL A   1      39.057  33.765  38.336  1.00  0.00     0.010 A 
ATOM     61  C   UNL A   1      40.474  35.344  37.156  1.00  0.00     0.010 A 
ATOM     62  C   UNL A   1      38.855  34.704  39.350  1.00  0.00     0.020 A 
ATOM     63  C   UNL A   1      40.295  36.276  38.181  1.00  0.00     0.020 A 
ATOM     64  C   UNL A   1      39.472  35.956  39.263  1.00  0.00     0.054 A 
BRANCH  64  65
ATOM     65  S   UNL A   1      39.216  37.151  40.602  1.00  0.00     0.124 S 
ATOM     66  O   UNL A   1      38.289  38.099  39.990  1.00  0.00    -0.237 OA
ATOM     67  O   UNL A   1      38.657  36.325  41.669  1.00  0.00    -0.237 OA
ATOM     68  O   UNL A   1      40.558  37.670  40.864  1.00  0.00    -0.744 OA
ENDBRANCH  64  65
ENDBRANCH  38  59
ENDBRANCH  12  13
ENDBRANCH   5   7
ENDBRANCH   2   3
ENDBRANCH   1   2
BRANCH   1  69
ATOM     69  C   UNL A   1      39.679  21.923  26.147  1.00  0.00     0.023 C 
BRANCH  69  70
ATOM     70  C   UNL A   1      38.243  22.426  26.057  1.00  0.00     0.116 C 
BRANCH  70  71
ATOM     71  N   UNL A   1      37.789  22.509  24.684  1.00  0.00    -0.355 N 
ATOM     72  C   UNL A   1      36.531  22.641  24.174  1.00  0.00     0.238 C 
ATOM     73  H   UNL A   1      38.505  22.464  24.010  1.00  0.00     0.163 HD
ATOM     74  O   UNL A   1      36.427  22.676  22.945  1.00  0.00    -0.273 OA
BRANCH  72  75
ATOM     75  C   UNL A   1      35.308  22.742  25.105  1.00  0.00     0.162 C 
ATOM     76  C   UNL A   1      35.328  24.064  25.862  1.00  0.00     0.032 C 
ATOM     77  N   UNL A   1      34.048  22.790  24.299  1.00  0.00    -0.185 NA
ATOM     78  C   UNL A   1      34.694  25.060  24.911  1.00  0.00     0.019 C 
ATOM     79  C   UNL A   1      33.856  24.236  23.938  1.00  0.00     0.103 C 
BRANCH  77  80
ATOM     80  S   UNL A   1      32.652  22.079  24.979  1.00  0.00     0.245 S 
ATOM     81  O   UNL A   1      32.768  22.146  26.422  1.00  0.00    -0.207 OA
ATOM     82  O   UNL A   1      31.510  22.693  24.334  1.00  0.00    -0.207 OA
BRANCH  80  83
ATOM     83  C   UNL A   1      32.685  20.385  24.437  1.00  0.00     0.101 A 
ATOM     84  C   UNL A   1      33.173  19.439  25.361  1.00  0.00     0.023 A 
ATOM     85  C   UNL A   1      32.376  19.972  23.138  1.00  0.00     0.061 A 
ATOM     86  C   UNL A   1      33.309  18.097  25.006  1.00  0.00     0.002 A 
ATOM     87  C   UNL A   1      32.483  18.613  22.805  1.00  0.00     0.022 A 
ATOM     88  Cl  UNL A   1      31.844  21.003  21.860  1.00  0.00    -0.083 Cl
ATOM     89  C   UNL A   1      32.949  17.679  23.731  1.00  0.00     0.002 A 
ENDBRANCH  80  83
ENDBRANCH  77  80
ENDBRANCH  72  75
ENDBRANCH  70  71
ENDBRANCH  69  70
ENDBRANCH   1  69
TORSDOF 16
ENDMDL
MODEL 3
REMARK VINA RESULT:     -11.2      1.532      8.468
REMARK SMILES O=C(NCCCCNC(=O)[C@H]1CCCN1S(=O)(=O)c1ccccc1Cl)c1ccc(-c2c3nc(c(-c4ccc(S(=O)(=O)[O-])cc4)c4ccc([nH]4)c(-c4ccc(S(=O)(=O)[O-])cc4)c4nc(c(-c5ccc(S(=O)(=O)[O-])cc5)c5ccc2[nH]5)C=C4)C=C3)cc1
REMARK SMILES IDX 5 1 4 2 3 3 1 4 2 5 26 7 27 8 85 9 28 10 84 11 29 12 30 13
REMARK SMILES IDX 31 14 78 15 32 16 83 17 77 18 79 19 33 20 82 21 76 22 75 23
REMARK SMILES IDX 34 25 64 26 45 27 63 28 46 29 49 30 62 31 80 32 47 33 48 34
REMARK SMILES IDX 61 36 81 37 50 38 35 39 36 40 44 41 37 42 43 43 38 44 39 45
REMARK SMILES IDX 40 46 41 47 42 48 65 49 66 50 74 51 67 52 73 53 68 54 69 55
REMARK SMILES IDX 70 56 71 57 72 58 51 59 52 60 60 61 53 62 59 63 54 64 55 65
REMARK SMILES IDX 56 66 57 67 58 68 6 69 7 70 8 71 9 72 10 74 11 75 12 76
REMARK SMILES IDX 15 77 13 78 14 79 16 80 17 81 18 82 19 83 20 84 24 85 21 86
REMARK SMILES IDX 23 87 25 88 22 89
REMARK H PARENT 3 6 79 24 49 35 8 73
REMARK Flexibility Score: inf
ROOT
ATOM      1  C   UNL A   1      33.785  27.995  25.498  1.00  0.00     0.023 C 
ENDROOT
BRANCH   1   2
ATOM      2  C   UNL A   1      33.753  28.211  27.006  1.00  0.00     0.116 C 
BRANCH   2   3
ATOM      3  N   UNL A   1      33.537  29.601  27.383  1.00  0.00    -0.352 N 
ATOM      4  O   UNL A   1      34.022  31.570  28.375  1.00  0.00    -0.269 OA
ATOM      5  C   UNL A   1      34.406  30.464  28.010  1.00  0.00     0.251 C 
ATOM      6  H   UNL A   1      32.653  29.972  27.159  1.00  0.00     0.163 HD
BRANCH   5   7
ATOM      7  C   UNL A   1      35.794  30.025  28.266  1.00  0.00     0.039 A 
ATOM      8  C   UNL A   1      36.163  29.578  29.537  1.00  0.00     0.014 A 
ATOM      9  C   UNL A   1      36.741  30.104  27.242  1.00  0.00     0.014 A 
ATOM     10  C   UNL A   1      37.504  29.358  29.822  1.00  0.00     0.010 A 
ATOM     11  C   UNL A   1      38.077  29.796  27.510  1.00  0.00     0.010 A 
ATOM     12  C   UNL A   1      38.476  29.454  28.812  1.00  0.00    -0.014 A 
BRANCH  12  13
ATOM     13  C   UNL A   1      39.889  29.134  29.140  1.00  0.00     0.031 A 
ATOM     14  C   UNL A   1      40.494  27.801  28.793  1.00  0.00     0.074 A 
ATOM     15  C   UNL A   1      40.642  30.092  29.717  1.00  0.00     0.049 A 
ATOM     16  N   UNL A   1      41.721  27.385  28.977  1.00  0.00    -0.248 NA
ATOM     17  C   UNL A   1      39.614  26.806  28.159  1.00  0.00     0.031 C 
ATOM     18  C   UNL A   1      40.163  31.423  30.103  1.00  0.00     0.029 A 
ATOM     19  N   UNL A   1      41.971  30.109  30.053  1.00  0.00    -0.354 N 
ATOM     20  C   UNL A   1      41.762  26.082  28.496  1.00  0.00     0.074 A 
ATOM     21  C   UNL A   1      40.427  25.764  28.037  1.00  0.00     0.031 C 
ATOM     22  C   UNL A   1      41.192  32.143  30.573  1.00  0.00     0.029 A 
ATOM     23  C   UNL A   1      42.386  31.307  30.583  1.00  0.00     0.049 A 
ATOM     24  H   UNL A   1      42.569  29.339  29.927  1.00  0.00     0.167 HD
ATOM     25  C   UNL A   1      42.817  25.232  28.437  1.00  0.00     0.031 A 
ATOM     26  C   UNL A   1      43.589  31.692  31.046  1.00  0.00     0.031 A 
ATOM     27  C   UNL A   1      44.141  25.553  28.903  1.00  0.00     0.049 A 
ATOM     28  C   UNL A   1      44.731  30.719  30.998  1.00  0.00     0.074 A 
ATOM     29  C   UNL A   1      45.276  24.759  28.888  1.00  0.00     0.029 A 
ATOM     30  N   UNL A   1      44.512  26.764  29.469  1.00  0.00    -0.354 N 
ATOM     31  N   UNL A   1      44.747  29.495  30.530  1.00  0.00    -0.248 NA
ATOM     32  C   UNL A   1      46.016  31.180  31.539  1.00  0.00     0.031 C 
ATOM     33  C   UNL A   1      46.322  25.475  29.481  1.00  0.00     0.029 A 
ATOM     34  C   UNL A   1      45.853  26.734  29.818  1.00  0.00     0.049 A 
ATOM     35  H   UNL A   1      43.910  27.532  29.602  1.00  0.00     0.167 HD
ATOM     36  C   UNL A   1      46.048  29.041  30.709  1.00  0.00     0.074 A 
ATOM     37  C   UNL A   1      46.793  30.133  31.303  1.00  0.00     0.031 C 
ATOM     38  C   UNL A   1      46.576  27.828  30.414  1.00  0.00     0.031 A 
BRANCH  25  39
ATOM     39  C   UNL A   1      42.579  23.861  27.859  1.00  0.00    -0.014 A 
ATOM     40  C   UNL A   1      42.739  23.616  26.483  1.00  0.00     0.010 A 
ATOM     41  C   UNL A   1      42.249  22.789  28.709  1.00  0.00     0.010 A 
ATOM     42  C   UNL A   1      42.539  22.333  25.963  1.00  0.00     0.020 A 
ATOM     43  C   UNL A   1      42.072  21.499  28.196  1.00  0.00     0.020 A 
ATOM     44  C   UNL A   1      42.203  21.284  26.823  1.00  0.00     0.054 A 
BRANCH  44  45
ATOM     45  S   UNL A   1      41.973  19.625  26.124  1.00  0.00     0.124 S 
ATOM     46  O   UNL A   1      42.863  19.663  24.965  1.00  0.00    -0.237 OA
ATOM     47  O   UNL A   1      42.402  18.754  27.214  1.00  0.00    -0.237 OA
ATOM     48  O   UNL A   1      40.547  19.573  25.812  1.00  0.00    -0.744 OA
ENDBRANCH  44  45
ENDBRANCH  25  39
BRANCH  26  49
ATOM     49  C   UNL A   1      43.759  33.053  31.620  1.00  0.00    -0.014 A 
ATOM     50  C   UNL A   1      44.113  34.141  30.803  1.00  0.00     0.010 A 
ATOM     51  C   UNL A   1      43.549  33.268  32.995  1.00  0.00     0.010 A 
ATOM     52  C   UNL A   1      44.275  35.414  31.356  1.00  0.00     0.020 A 
ATOM     53  C   UNL A   1      43.679  34.544  33.545  1.00  0.00     0.020 A 
ATOM     54  C   UNL A   1      44.058  35.608  32.724  1.00  0.00     0.054 A 
BRANCH  54  55
ATOM     55  S   UNL A   1      44.233  37.275  33.416  1.00  0.00     0.124 S 
ATOM     56  O   UNL A   1      44.591  38.054  32.235  1.00  0.00    -0.237 OA
ATOM     57  O   UNL A   1      42.906  37.532  33.968  1.00  0.00    -0.237 OA
ATOM     58  O   UNL A   1      45.293  37.120  34.410  1.00  0.00    -0.744 OA
ENDBRANCH  54  55
ENDBRANCH  26  49
BRANCH  38  59
ATOM     59  C   UNL A   1      48.038  27.633  30.709  1.00  0.00    -0.014 A 
ATOM     60  C   UNL A   1      48.467  27.086  31.932  1.00  0.00     0.010 A 
ATOM     61  C   UNL A   1      48.995  27.983  29.739  1.00  0.00     0.010 A 
ATOM     62  C   UNL A   1      49.829  26.930  32.196  1.00  0.00     0.020 A 
ATOM     63  C   UNL A   1      50.358  27.803  29.990  1.00  0.00     0.020 A 
ATOM     64  C   UNL A   1      50.766  27.294  31.225  1.00  0.00     0.054 A 
BRANCH  64  65
ATOM     65  S   UNL A   1      52.529  27.059  31.579  1.00  0.00     0.124 S 
ATOM     66  O   UNL A   1      53.156  27.937  30.595  1.00  0.00    -0.237 OA
ATOM     67  O   UNL A   1      52.639  27.493  32.969  1.00  0.00    -0.237 OA
ATOM     68  O   UNL A   1      52.738  25.628  31.362  1.00  0.00    -0.744 OA
ENDBRANCH  64  65
ENDBRANCH  38  59
ENDBRANCH  12  13
ENDBRANCH   5   7
ENDBRANCH   2   3
ENDBRANCH   1   2
BRANCH   1  69
ATOM     69  C   UNL A   1      32.661  28.682  24.720  1.00  0.00     0.023 C 
BRANCH  69  70
ATOM     70  C   UNL A   1      31.857  27.752  23.818  1.00  0.00     0.116 C 
BRANCH  70  71
ATOM     71  N   UNL A   1      32.677  27.181  22.770  1.00  0.00    -0.355 N 
ATOM     72  C   UNL A   1      33.144  25.910  22.604  1.00  0.00     0.238 C 
ATOM     73  H   UNL A   1      32.939  27.813  22.061  1.00  0.00     0.163 HD
ATOM     74  O   UNL A   1      33.841  25.696  21.609  1.00  0.00    -0.273 OA
BRANCH  72  75
ATOM     75  C   UNL A   1      32.803  24.806  23.622  1.00  0.00     0.162 C 
ATOM     76  C   UNL A   1      31.843  23.796  23.005  1.00  0.00     0.032 C 
ATOM     77  N   UNL A   1      34.027  24.008  23.948  1.00  0.00    -0.185 NA
ATOM     78  C   UNL A   1      32.735  22.831  22.248  1.00  0.00     0.019 C 
ATOM     79  C   UNL A   1      34.118  22.955  22.880  1.00  0.00     0.103 C 
BRANCH  77  80
ATOM     80  S   UNL A   1      34.154  23.372  25.528  1.00  0.00     0.245 S 
ATOM     81  O   UNL A   1      33.784  24.413  26.465  1.00  0.00    -0.207 OA
ATOM     82  O   UNL A   1      33.423  22.122  25.539  1.00  0.00    -0.207 OA
BRANCH  80  83
ATOM     83  C   UNL A   1      35.872  22.952  25.721  1.00  0.00     0.101 A 
ATOM     84  C   UNL A   1      36.740  24.004  26.073  1.00  0.00     0.023 A 
ATOM     85  C   UNL A   1      36.408  21.695  25.430  1.00  0.00     0.061 A 
ATOM     86  C   UNL A   1      38.116  23.794  26.175  1.00  0.00     0.002 A 
ATOM     87  C   UNL A   1      37.789  21.486  25.571  1.00  0.00     0.022 A 
ATOM     88  Cl  UNL A   1      35.507  20.318  24.907  1.00  0.00    -0.083 Cl
ATOM     89  C   UNL A   1      38.640  22.529  25.939  1.00  0.00     0.002 A 
ENDBRANCH  80  83
ENDBRANCH  77  80
ENDBRANCH  72  75
ENDBRANCH  70  71
ENDBRANCH  69  70
ENDBRANCH   1  69
TORSDOF 16
ENDMDL
