MODEL 1
REMARK VINA RESULT:     -12.2      0.000      0.000
REMARK SMILES Cc1nn(C)cc1C[NH+]1CCN(C(=O)c2cnn(CC(=O)NCCCCNC(=O)c3ccc(-c4c5nc(c(-c6ccc(S(=O)(=O)[O-])cc6)c6ccc([nH]6)c(-c6ccc(S(=O)(=O)[O-])cc6)c6nc(c(-c7ccc(S(=O)(=O)[O-])cc7)c7ccc4[nH]7)C=C6)C=C5)cc3)c2)CC1
REMARK SMILES IDX 24 1 23 2 22 3 20 4 21 5 19 7 18 8 15 9 16 10 90 11 17 12
REMARK SMILES IDX 13 13 9 14 10 15 92 16 11 18 91 19 12 20 14 21 8 22 7 23
REMARK SMILES IDX 1 24 2 25 3 26 4 27 6 28 5 29 25 30 26 31 27 32 28 33 29 35
REMARK SMILES IDX 30 36 31 37 89 38 32 39 88 40 33 41 34 42 35 43 82 44 36 45
REMARK SMILES IDX 87 46 81 47 83 48 37 49 86 50 80 51 79 52 38 54 68 55 49 56
REMARK SMILES IDX 67 57 50 58 53 59 66 60 84 61 51 62 52 63 65 65 85 66 54 67
REMARK SMILES IDX 39 68 40 69 48 70 41 71 47 72 42 73 43 74 44 75 45 76 46 77
REMARK SMILES IDX 69 78 70 79 78 80 71 81 77 82 72 83 73 84 74 85 75 86 76 87
REMARK SMILES IDX 55 88 56 89 64 90 57 91 63 92 58 93 59 94 60 95 61 96 62 97
REMARK H PARENT 22 6 9 17 27 34 83 53 53 64
REMARK Flexibility Score: inf
ROOT
ATOM      1  C   UNL A   1      39.010  23.685  26.514  1.00  0.00     0.023 C 
ENDROOT
BRANCH   1   2
ATOM      2  C   UNL A   1      37.519  23.726  26.160  1.00  0.00     0.116 C 
BRANCH   2   3
ATOM      3  N   UNL A   1      37.302  23.663  24.730  1.00  0.00    -0.354 N 
ATOM      4  C   UNL A   1      36.642  22.726  23.983  1.00  0.00     0.241 C 
ATOM      5  O   UNL A   1      36.677  22.860  22.756  1.00  0.00    -0.273 OA
ATOM      6  H   UNL A   1      37.689  24.409  24.217  1.00  0.00     0.163 HD
BRANCH   4   7
ATOM      7  C   UNL A   1      35.796  21.646  24.625  1.00  0.00     0.243 C 
BRANCH   7   8
ATOM      8  N   UNL A   1      34.697  22.154  25.426  1.00  0.00    -0.262 N 
ATOM      9  C   UNL A   1      32.974  23.337  26.133  1.00  0.00     0.078 A 
ATOM     10  C   UNL A   1      33.457  22.436  27.108  1.00  0.00     0.149 A 
ATOM     11  C   UNL A   1      33.736  23.039  25.018  1.00  0.00     0.123 A 
ATOM     12  N   UNL A   1      34.514  21.737  26.693  1.00  0.00    -0.180 NA
BRANCH   9  13
ATOM     13  C   UNL A   1      31.896  24.311  26.181  1.00  0.00     0.257 C 
ATOM     14  N   UNL A   1      32.703  28.600  25.951  1.00  0.00    -0.328 N 
ATOM     15  C   UNL A   1      31.418  28.070  26.422  1.00  0.00     0.284 C 
ATOM     16  C   UNL A   1      33.791  27.672  26.256  1.00  0.00     0.284 C 
ATOM     17  H   UNL A   1      32.873  29.440  26.503  1.00  0.00     0.348 HD
ATOM     18  C   UNL A   1      31.109  26.606  26.054  1.00  0.00     0.181 C 
ATOM     19  C   UNL A   1      33.561  26.192  25.913  1.00  0.00     0.181 C 
ATOM     20  N   UNL A   1      32.227  25.675  26.234  1.00  0.00    -0.327 N 
ATOM     21  O   UNL A   1      30.729  23.932  26.109  1.00  0.00    -0.269 OA
BRANCH  14  22
ATOM     22  C   UNL A   1      32.724  29.218  24.620  1.00  0.00     0.302 C 
BRANCH  22  23
ATOM     23  C   UNL A   1      31.524  28.934  23.784  1.00  0.00     0.047 A 
ATOM     24  C   UNL A   1      32.246  26.795  22.432  1.00  0.00     0.069 C 
ATOM     25  C   UNL A   1      31.342  27.905  22.814  1.00  0.00     0.068 A 
ATOM     26  N   UNL A   1      30.187  28.045  22.154  1.00  0.00    -0.178 NA
ATOM     27  N   UNL A   1      29.614  29.117  22.716  1.00  0.00    -0.275 N 
ATOM     28  C   UNL A   1      30.310  29.591  23.787  1.00  0.00     0.118 A 
ATOM     29  C   UNL A   1      28.478  29.732  22.075  1.00  0.00     0.173 C 
ENDBRANCH  22  23
ENDBRANCH  14  22
ENDBRANCH   9  13
ENDBRANCH   7   8
ENDBRANCH   4   7
ENDBRANCH   2   3
ENDBRANCH   1   2
BRANCH   1  30
ATOM     30  C   UNL A   1      39.686  22.307  26.530  1.00  0.00     0.023 C 
BRANCH  30  31
ATOM     31  C   UNL A   1      41.084  22.256  27.134  1.00  0.00     0.116 C 
BRANCH  31  32
ATOM     32  N   UNL A   1      42.166  22.153  26.147  1.00  0.00    -0.352 N 
ATOM     33  C   UNL A   1      42.776  23.178  25.427  1.00  0.00     0.251 C 
ATOM     34  H   UNL A   1      42.503  21.245  25.971  1.00  0.00     0.163 HD
ATOM     35  O   UNL A   1      43.378  22.946  24.396  1.00  0.00    -0.269 OA
BRANCH  33  36
ATOM     36  C   UNL A   1      42.681  24.550  25.958  1.00  0.00     0.039 A 
ATOM     37  C   UNL A   1      41.855  25.534  25.409  1.00  0.00     0.014 A 
ATOM     38  C   UNL A   1      43.400  24.794  27.115  1.00  0.00     0.014 A 
ATOM     39  C   UNL A   1      41.692  26.734  26.106  1.00  0.00     0.010 A 
ATOM     40  C   UNL A   1      43.036  25.836  27.912  1.00  0.00     0.010 A 
ATOM     41  C   UNL A   1      42.276  26.865  27.375  1.00  0.00    -0.014 A 
BRANCH  41  42
ATOM     42  C   UNL A   1      42.085  28.029  28.227  1.00  0.00     0.031 A 
ATOM     43  C   UNL A   1      43.114  29.093  28.092  1.00  0.00     0.074 A 
ATOM     44  C   UNL A   1      40.909  28.260  28.856  1.00  0.00     0.049 A 
ATOM     45  N   UNL A   1      44.005  29.443  28.956  1.00  0.00    -0.248 NA
ATOM     46  C   UNL A   1      43.255  29.763  26.788  1.00  0.00     0.031 C 
ATOM     47  C   UNL A   1      39.659  27.485  28.788  1.00  0.00     0.029 A 
ATOM     48  N   UNL A   1      40.534  29.344  29.577  1.00  0.00    -0.354 N 
ATOM     49  C   UNL A   1      44.671  30.532  28.401  1.00  0.00     0.074 A 
ATOM     50  C   UNL A   1      44.315  30.545  27.003  1.00  0.00     0.031 C 
ATOM     51  C   UNL A   1      38.625  28.251  29.201  1.00  0.00     0.029 A 
ATOM     52  C   UNL A   1      39.159  29.482  29.749  1.00  0.00     0.049 A 
ATOM     53  H   UNL A   1      41.181  29.984  29.951  1.00  0.00     0.167 HD
ATOM     54  C   UNL A   1      45.257  31.488  29.177  1.00  0.00     0.031 A 
ATOM     55  C   UNL A   1      38.516  30.552  30.276  1.00  0.00     0.031 A 
ATOM     56  C   UNL A   1      45.316  31.085  30.560  1.00  0.00     0.049 A 
ATOM     57  C   UNL A   1      39.527  31.309  31.058  1.00  0.00     0.074 A 
ATOM     58  C   UNL A   1      45.871  30.017  31.239  1.00  0.00     0.029 A 
ATOM     59  N   UNL A   1      44.367  31.614  31.406  1.00  0.00    -0.354 N 
ATOM     60  N   UNL A   1      40.115  30.829  32.120  1.00  0.00    -0.248 NA
ATOM     61  C   UNL A   1      40.236  32.389  30.389  1.00  0.00     0.031 C 
ATOM     62  C   UNL A   1      44.888  29.654  32.208  1.00  0.00     0.029 A 
ATOM     63  C   UNL A   1      43.836  30.570  32.122  1.00  0.00     0.049 A 
ATOM     64  H   UNL A   1      44.115  32.562  31.483  1.00  0.00     0.167 HD
ATOM     65  C   UNL A   1      41.438  31.231  32.009  1.00  0.00     0.074 A 
ATOM     66  C   UNL A   1      41.431  32.265  30.973  1.00  0.00     0.031 C 
ATOM     67  C   UNL A   1      42.455  30.496  32.552  1.00  0.00     0.031 A 
BRANCH  54  68
ATOM     68  C   UNL A   1      45.412  32.933  28.772  1.00  0.00    -0.014 A 
ATOM     69  C   UNL A   1      46.702  33.503  28.766  1.00  0.00     0.010 A 
ATOM     70  C   UNL A   1      44.322  33.821  28.656  1.00  0.00     0.010 A 
ATOM     71  C   UNL A   1      46.885  34.891  28.722  1.00  0.00     0.020 A 
ATOM     72  C   UNL A   1      44.495  35.203  28.564  1.00  0.00     0.020 A 
ATOM     73  C   UNL A   1      45.777  35.732  28.636  1.00  0.00     0.054 A 
BRANCH  73  74
ATOM     74  S   UNL A   1      46.016  37.524  28.691  1.00  0.00     0.124 S 
ATOM     75  O   UNL A   1      46.473  37.722  30.063  1.00  0.00    -0.237 OA
ATOM     76  O   UNL A   1      47.019  37.734  27.650  1.00  0.00    -0.237 OA
ATOM     77  O   UNL A   1      44.690  38.056  28.386  1.00  0.00    -0.744 OA
ENDBRANCH  73  74
ENDBRANCH  54  68
BRANCH  55  78
ATOM     78  C   UNL A   1      37.203  31.128  29.889  1.00  0.00    -0.014 A 
ATOM     79  C   UNL A   1      36.299  31.573  30.873  1.00  0.00     0.010 A 
ATOM     80  C   UNL A   1      36.964  31.520  28.556  1.00  0.00     0.010 A 
ATOM     81  C   UNL A   1      35.246  32.445  30.548  1.00  0.00     0.020 A 
ATOM     82  C   UNL A   1      35.912  32.385  28.223  1.00  0.00     0.020 A 
ATOM     83  C   UNL A   1      35.076  32.869  29.227  1.00  0.00     0.054 A 
BRANCH  83  84
ATOM     84  S   UNL A   1      33.851  34.161  28.854  1.00  0.00     0.124 S 
ATOM     85  O   UNL A   1      33.335  34.493  30.179  1.00  0.00    -0.237 OA
ATOM     86  O   UNL A   1      34.663  35.192  28.215  1.00  0.00    -0.237 OA
ATOM     87  O   UNL A   1      32.901  33.488  27.970  1.00  0.00    -0.744 OA
ENDBRANCH  83  84
ENDBRANCH  55  78
BRANCH  67  88
ATOM     88  C   UNL A   1      42.110  29.363  33.496  1.00  0.00    -0.014 A 
ATOM     89  C   UNL A   1      41.677  28.089  33.074  1.00  0.00     0.010 A 
ATOM     90  C   UNL A   1      42.402  29.550  34.858  1.00  0.00     0.010 A 
ATOM     91  C   UNL A   1      41.520  27.041  33.996  1.00  0.00     0.020 A 
ATOM     92  C   UNL A   1      42.264  28.507  35.778  1.00  0.00     0.020 A 
ATOM     93  C   UNL A   1      41.816  27.260  35.345  1.00  0.00     0.054 A 
BRANCH  93  94
ATOM     94  S   UNL A   1      41.654  25.894  36.531  1.00  0.00     0.124 S 
ATOM     95  O   UNL A   1      42.782  25.035  36.182  1.00  0.00    -0.237 OA
ATOM     96  O   UNL A   1      41.757  26.571  37.823  1.00  0.00    -0.237 OA
ATOM     97  O   UNL A   1      40.336  25.332  36.239  1.00  0.00    -0.744 OA
ENDBRANCH  93  94
ENDBRANCH  67  88
ENDBRANCH  41  42
ENDBRANCH  33  36
ENDBRANCH  31  32
ENDBRANCH  30  31
ENDBRANCH   1  30
TORSDOF 18
ENDMDL
MODEL 2
REMARK VINA RESULT:     -11.9      2.897      7.464
REMARK SMILES Cc1nn(C)cc1C[NH+]1CCN(C(=O)c2cnn(CC(=O)NCCCCNC(=O)c3ccc(-c4c5nc(c(-c6ccc(S(=O)(=O)[O-])cc6)c6ccc([nH]6)c(-c6ccc(S(=O)(=O)[O-])cc6)c6nc(c(-c7ccc(S(=O)(=O)[O-])cc7)c7ccc4[nH]7)C=C6)C=C5)cc3)c2)CC1
REMARK SMILES IDX 24 1 23 2 22 3 20 4 21 5 19 7 18 8 15 9 16 10 90 11 17 12
REMARK SMILES IDX 13 13 9 14 10 15 92 16 11 18 91 19 12 20 14 21 8 22 7 23
REMARK SMILES IDX 1 24 2 25 3 26 4 27 6 28 5 29 25 30 26 31 27 32 28 33 29 35
REMARK SMILES IDX 30 36 31 37 89 38 32 39 88 40 33 41 34 42 35 43 82 44 36 45
REMARK SMILES IDX 87 46 81 47 83 48 37 49 86 50 80 51 79 52 38 54 68 55 49 56
REMARK SMILES IDX 67 57 50 58 53 59 66 60 84 61 51 62 52 63 65 65 85 66 54 67
REMARK SMILES IDX 39 68 40 69 48 70 41 71 47 72 42 73 43 74 44 75 45 76 46 77
REMARK SMILES IDX 69 78 70 79 78 80 71 81 77 82 72 83 73 84 74 85 75 86 76 87
REMARK SMILES IDX 55 88 56 89 64 90 57 91 63 92 58 93 59 94 60 95 61 96 62 97
REMARK H PARENT 22 6 9 17 27 34 83 53 53 64
REMARK Flexibility Score: inf
ROOT
ATOM      1  C   UNL A   1      39.351  22.157  25.953  1.00  0.00     0.023 C 
ENDROOT
BRANCH   1   2
ATOM      2  C   UNL A   1      38.047  22.962  25.963  1.00  0.00     0.116 C 
BRANCH   2   3
ATOM      3  N   UNL A   1      37.554  23.207  24.624  1.00  0.00    -0.354 N 
ATOM      4  C   UNL A   1      36.585  22.555  23.913  1.00  0.00     0.241 C 
ATOM      5  O   UNL A   1      36.413  22.909  22.743  1.00  0.00    -0.273 OA
ATOM      6  H   UNL A   1      37.982  23.960  24.155  1.00  0.00     0.163 HD
BRANCH   4   7
ATOM      7  C   UNL A   1      35.673  21.533  24.559  1.00  0.00     0.243 C 
BRANCH   7   8
ATOM      8  N   UNL A   1      34.649  22.110  25.410  1.00  0.00    -0.262 N 
ATOM      9  C   UNL A   1      32.994  23.356  26.170  1.00  0.00     0.078 A 
ATOM     10  C   UNL A   1      33.561  22.532  27.167  1.00  0.00     0.149 A 
ATOM     11  C   UNL A   1      33.655  22.966  25.020  1.00  0.00     0.123 A 
ATOM     12  N   UNL A   1      34.578  21.796  26.717  1.00  0.00    -0.180 NA
BRANCH   9  13
ATOM     13  C   UNL A   1      31.925  24.339  26.235  1.00  0.00     0.257 C 
ATOM     14  N   UNL A   1      32.727  28.603  25.717  1.00  0.00    -0.328 N 
ATOM     15  C   UNL A   1      31.475  28.108  26.300  1.00  0.00     0.284 C 
ATOM     16  C   UNL A   1      33.830  27.687  26.001  1.00  0.00     0.284 C 
ATOM     17  H   UNL A   1      32.936  29.471  26.210  1.00  0.00     0.348 HD
ATOM     18  C   UNL A   1      31.138  26.629  26.034  1.00  0.00     0.181 C 
ATOM     19  C   UNL A   1      33.573  26.192  25.755  1.00  0.00     0.181 C 
ATOM     20  N   UNL A   1      32.262  25.702  26.191  1.00  0.00    -0.327 N 
ATOM     21  O   UNL A   1      30.754  23.964  26.260  1.00  0.00    -0.269 OA
BRANCH  14  22
ATOM     22  C   UNL A   1      32.662  29.148  24.356  1.00  0.00     0.302 C 
BRANCH  22  23
ATOM     23  C   UNL A   1      31.325  29.045  23.709  1.00  0.00     0.047 A 
ATOM     24  C   UNL A   1      31.529  26.836  22.292  1.00  0.00     0.069 C 
ATOM     25  C   UNL A   1      30.857  28.060  22.789  1.00  0.00     0.068 A 
ATOM     26  N   UNL A   1      29.649  28.369  22.304  1.00  0.00    -0.178 NA
ATOM     27  N   UNL A   1      29.324  29.507  22.930  1.00  0.00    -0.275 N 
ATOM     28  C   UNL A   1      30.229  29.868  23.882  1.00  0.00     0.118 A 
ATOM     29  C   UNL A   1      28.204  30.282  22.456  1.00  0.00     0.173 C 
ENDBRANCH  22  23
ENDBRANCH  14  22
ENDBRANCH   9  13
ENDBRANCH   7   8
ENDBRANCH   4   7
ENDBRANCH   2   3
ENDBRANCH   1   2
BRANCH   1  30
ATOM     30  C   UNL A   1      39.260  20.685  25.524  1.00  0.00     0.023 C 
BRANCH  30  31
ATOM     31  C   UNL A   1      39.833  19.668  26.504  1.00  0.00     0.116 C 
BRANCH  31  32
ATOM     32  N   UNL A   1      41.013  18.949  26.006  1.00  0.00    -0.352 N 
ATOM     33  C   UNL A   1      42.263  19.468  25.676  1.00  0.00     0.251 C 
ATOM     34  H   UNL A   1      40.907  17.977  25.892  1.00  0.00     0.163 HD
ATOM     35  O   UNL A   1      43.019  18.861  24.942  1.00  0.00    -0.269 OA
BRANCH  33  36
ATOM     36  C   UNL A   1      42.649  20.768  26.255  1.00  0.00     0.039 A 
ATOM     37  C   UNL A   1      43.085  21.853  25.489  1.00  0.00     0.014 A 
ATOM     38  C   UNL A   1      42.463  20.894  27.620  1.00  0.00     0.014 A 
ATOM     39  C   UNL A   1      43.234  23.094  26.115  1.00  0.00     0.010 A 
ATOM     40  C   UNL A   1      42.352  22.139  28.160  1.00  0.00     0.010 A 
ATOM     41  C   UNL A   1      42.841  23.228  27.455  1.00  0.00    -0.014 A 
BRANCH  41  42
ATOM     42  C   UNL A   1      42.858  24.496  28.170  1.00  0.00     0.031 A 
ATOM     43  C   UNL A   1      41.671  25.363  27.958  1.00  0.00     0.074 A 
ATOM     44  C   UNL A   1      43.728  24.724  29.182  1.00  0.00     0.049 A 
ATOM     45  N   UNL A   1      41.619  26.488  27.329  1.00  0.00    -0.248 NA
ATOM     46  C   UNL A   1      40.354  24.859  28.384  1.00  0.00     0.031 C 
ATOM     47  C   UNL A   1      44.727  23.812  29.764  1.00  0.00     0.029 A 
ATOM     48  N   UNL A   1      43.793  25.789  30.018  1.00  0.00    -0.354 N 
ATOM     49  C   UNL A   1      40.314  26.950  27.476  1.00  0.00     0.074 A 
ATOM     50  C   UNL A   1      39.544  25.823  27.942  1.00  0.00     0.031 C 
ATOM     51  C   UNL A   1      45.085  24.251  30.991  1.00  0.00     0.029 A 
ATOM     52  C   UNL A   1      44.505  25.564  31.193  1.00  0.00     0.049 A 
ATOM     53  H   UNL A   1      43.370  26.653  29.812  1.00  0.00     0.167 HD
ATOM     54  C   UNL A   1      40.015  28.281  27.451  1.00  0.00     0.031 A 
ATOM     55  C   UNL A   1      44.578  26.394  32.262  1.00  0.00     0.031 A 
ATOM     56  C   UNL A   1      41.138  29.068  27.007  1.00  0.00     0.049 A 
ATOM     57  C   UNL A   1      44.186  27.742  31.777  1.00  0.00     0.074 A 
ATOM     58  C   UNL A   1      41.916  29.094  25.865  1.00  0.00     0.029 A 
ATOM     59  N   UNL A   1      41.877  29.707  27.977  1.00  0.00    -0.354 N 
ATOM     60  N   UNL A   1      44.877  28.414  30.898  1.00  0.00    -0.248 NA
ATOM     61  C   UNL A   1      42.789  28.129  31.899  1.00  0.00     0.031 C 
ATOM     62  C   UNL A   1      43.250  29.274  26.340  1.00  0.00     0.029 A 
ATOM     63  C   UNL A   1      43.198  29.433  27.727  1.00  0.00     0.049 A 
ATOM     64  H   UNL A   1      41.524  30.257  28.714  1.00  0.00     0.167 HD
ATOM     65  C   UNL A   1      43.930  28.993  30.066  1.00  0.00     0.074 A 
ATOM     66  C   UNL A   1      42.663  28.858  30.786  1.00  0.00     0.031 C 
ATOM     67  C   UNL A   1      44.205  29.267  28.755  1.00  0.00     0.031 A 
BRANCH  54  68
ATOM     68  C   UNL A   1      38.863  28.906  28.199  1.00  0.00    -0.014 A 
ATOM     69  C   UNL A   1      37.995  29.776  27.506  1.00  0.00     0.010 A 
ATOM     70  C   UNL A   1      38.756  28.886  29.605  1.00  0.00     0.010 A 
ATOM     71  C   UNL A   1      37.122  30.631  28.190  1.00  0.00     0.020 A 
ATOM     72  C   UNL A   1      37.856  29.700  30.295  1.00  0.00     0.020 A 
ATOM     73  C   UNL A   1      37.070  30.596  29.583  1.00  0.00     0.054 A 
BRANCH  73  74
ATOM     74  S   UNL A   1      36.022  31.779  30.462  1.00  0.00     0.124 S 
ATOM     75  O   UNL A   1      36.876  32.962  30.501  1.00  0.00    -0.237 OA
ATOM     76  O   UNL A   1      34.855  31.867  29.588  1.00  0.00    -0.237 OA
ATOM     77  O   UNL A   1      35.782  31.133  31.750  1.00  0.00    -0.744 OA
ENDBRANCH  73  74
ENDBRANCH  54  68
BRANCH  55  78
ATOM     78  C   UNL A   1      44.642  26.045  33.704  1.00  0.00    -0.014 A 
ATOM     79  C   UNL A   1      45.524  26.724  34.567  1.00  0.00     0.010 A 
ATOM     80  C   UNL A   1      43.628  25.261  34.291  1.00  0.00     0.010 A 
ATOM     81  C   UNL A   1      45.346  26.688  35.961  1.00  0.00     0.020 A 
ATOM     82  C   UNL A   1      43.447  25.215  35.681  1.00  0.00     0.020 A 
ATOM     83  C   UNL A   1      44.289  25.956  36.508  1.00  0.00     0.054 A 
BRANCH  83  84
ATOM     84  S   UNL A   1      43.937  26.090  38.288  1.00  0.00     0.124 S 
ATOM     85  O   UNL A   1      44.554  24.878  38.819  1.00  0.00    -0.237 OA
ATOM     86  O   UNL A   1      44.594  27.344  38.646  1.00  0.00    -0.237 OA
ATOM     87  O   UNL A   1      42.477  26.120  38.347  1.00  0.00    -0.744 OA
ENDBRANCH  83  84
ENDBRANCH  55  78
BRANCH  67  88
ATOM     88  C   UNL A   1      45.638  29.165  28.275  1.00  0.00    -0.014 A 
ATOM     89  C   UNL A   1      46.323  27.947  28.093  1.00  0.00     0.010 A 
ATOM     90  C   UNL A   1      46.252  30.348  27.829  1.00  0.00     0.010 A 
ATOM     91  C   UNL A   1      47.598  27.920  27.503  1.00  0.00     0.020 A 
ATOM     92  C   UNL A   1      47.513  30.327  27.226  1.00  0.00     0.020 A 
ATOM     93  C   UNL A   1      48.184  29.114  27.073  1.00  0.00     0.054 A 
BRANCH  93  94
ATOM     94  S   UNL A   1      49.813  29.075  26.271  1.00  0.00     0.124 S 
ATOM     95  O   UNL A   1      49.505  28.525  24.953  1.00  0.00    -0.237 OA
ATOM     96  O   UNL A   1      50.215  30.481  26.286  1.00  0.00    -0.237 OA
ATOM     97  O   UNL A   1      50.607  28.203  27.135  1.00  0.00    -0.744 OA
ENDBRANCH  93  94
ENDBRANCH  67  88
ENDBRANCH  41  42
ENDBRANCH  33  36
ENDBRANCH  31  32
ENDBRANCH  30  31
ENDBRANCH   1  30
TORSDOF 18
ENDMDL
MODEL 3
REMARK VINA RESULT:     -11.8      2.759      9.385
REMARK SMILES Cc1nn(C)cc1C[NH+]1CCN(C(=O)c2cnn(CC(=O)NCCCCNC(=O)c3ccc(-c4c5nc(c(-c6ccc(S(=O)(=O)[O-])cc6)c6ccc([nH]6)c(-c6ccc(S(=O)(=O)[O-])cc6)c6nc(c(-c7ccc(S(=O)(=O)[O-])cc7)c7ccc4[nH]7)C=C6)C=C5)cc3)c2)CC1
REMARK SMILES IDX 24 1 23 2 22 3 20 4 21 5 19 7 18 8 15 9 16 10 90 11 17 12
REMARK SMILES IDX 13 13 9 14 10 15 92 16 11 18 91 19 12 20 14 21 8 22 7 23
REMARK SMILES IDX 1 24 2 25 3 26 4 27 6 28 5 29 25 30 26 31 27 32 28 33 29 35
REMARK SMILES IDX 30 36 31 37 89 38 32 39 88 40 33 41 34 42 35 43 82 44 36 45
REMARK SMILES IDX 87 46 81 47 83 48 37 49 86 50 80 51 79 52 38 54 68 55 49 56
REMARK SMILES IDX 67 57 50 58 53 59 66 60 84 61 51 62 52 63 65 65 85 66 54 67
REMARK SMILES IDX 39 68 40 69 48 70 41 71 47 72 42 73 43 74 44 75 45 76 46 77
REMARK SMILES IDX 69 78 70 79 78 80 71 81 77 82 72 83 73 84 74 85 75 86 76 87
REMARK SMILES IDX 55 88 56 89 64 90 57 91 63 92 58 93 59 94 60 95 61 96 62 97
REMARK H PARENT 22 6 9 17 27 34 83 53 53 64
REMARK Flexibility Score: inf
ROOT
ATOM      1  C   UNL A   1      32.343  30.444  26.762  1.00  0.00     0.023 C 
ENDROOT
BRANCH   1   2
ATOM      2  C   UNL A   1      32.241  29.764  25.392  1.00  0.00     0.116 C 
BRANCH   2   3
ATOM      3  N   UNL A   1      31.119  30.261  24.625  1.00  0.00    -0.354 N 
ATOM      4  C   UNL A   1      30.235  29.589  23.826  1.00  0.00     0.241 C 
ATOM      5  O   UNL A   1      29.412  30.267  23.205  1.00  0.00    -0.273 OA
ATOM      6  H   UNL A   1      30.968  31.232  24.688  1.00  0.00     0.163 HD
BRANCH   4   7
ATOM      7  C   UNL A   1      30.177  28.076  23.798  1.00  0.00     0.243 C 
BRANCH   7   8
ATOM      8  N   UNL A   1      31.318  27.452  23.155  1.00  0.00    -0.262 N 
ATOM      9  C   UNL A   1      32.809  25.973  22.476  1.00  0.00     0.078 A 
ATOM     10  C   UNL A   1      33.150  27.296  22.121  1.00  0.00     0.149 A 
ATOM     11  C   UNL A   1      31.555  26.108  23.045  1.00  0.00     0.123 A 
ATOM     12  N   UNL A   1      32.265  28.196  22.552  1.00  0.00    -0.180 NA
BRANCH   9  13
ATOM     13  C   UNL A   1      33.505  24.715  22.262  1.00  0.00     0.257 C 
ATOM     14  N   UNL A   1      35.821  22.831  25.453  1.00  0.00    -0.328 N 
ATOM     15  C   UNL A   1      35.973  22.447  24.046  1.00  0.00     0.284 C 
ATOM     16  C   UNL A   1      35.434  24.236  25.569  1.00  0.00     0.284 C 
ATOM     17  H   UNL A   1      36.751  22.751  25.863  1.00  0.00     0.348 HD
ATOM     18  C   UNL A   1      34.828  22.857  23.100  1.00  0.00     0.181 C 
ATOM     19  C   UNL A   1      34.293  24.722  24.662  1.00  0.00     0.181 C 
ATOM     20  N   UNL A   1      34.337  24.226  23.282  1.00  0.00    -0.327 N 
ATOM     21  O   UNL A   1      33.304  24.075  21.231  1.00  0.00    -0.269 OA
BRANCH  14  22
ATOM     22  C   UNL A   1      35.124  21.885  26.333  1.00  0.00     0.302 C 
BRANCH  22  23
ATOM     23  C   UNL A   1      34.051  21.094  25.669  1.00  0.00     0.047 A 
ATOM     24  C   UNL A   1      31.914  22.587  26.030  1.00  0.00     0.069 C 
ATOM     25  C   UNL A   1      32.659  21.389  25.576  1.00  0.00     0.068 A 
ATOM     26  N   UNL A   1      31.973  20.378  25.032  1.00  0.00    -0.178 NA
ATOM     27  N   UNL A   1      32.908  19.465  24.739  1.00  0.00    -0.275 N 
ATOM     28  C   UNL A   1      34.175  19.910  24.970  1.00  0.00     0.118 A 
ATOM     29  C   UNL A   1      32.507  18.125  24.388  1.00  0.00     0.173 C 
ENDBRANCH  22  23
ENDBRANCH  14  22
ENDBRANCH   9  13
ENDBRANCH   7   8
ENDBRANCH   4   7
ENDBRANCH   2   3
ENDBRANCH   1   2
BRANCH   1  30
ATOM     30  C   UNL A   1      33.593  30.142  27.600  1.00  0.00     0.023 C 
BRANCH  30  31
ATOM     31  C   UNL A   1      34.640  31.248  27.661  1.00  0.00     0.116 C 
BRANCH  31  32
ATOM     32  N   UNL A   1      34.411  32.239  28.720  1.00  0.00    -0.352 N 
ATOM     33  C   UNL A   1      34.872  32.217  30.035  1.00  0.00     0.251 C 
ATOM     34  H   UNL A   1      33.862  33.017  28.470  1.00  0.00     0.163 HD
ATOM     35  O   UNL A   1      34.326  32.875  30.900  1.00  0.00    -0.269 OA
BRANCH  33  36
ATOM     36  C   UNL A   1      36.049  31.384  30.343  1.00  0.00     0.039 A 
ATOM     37  C   UNL A   1      35.987  30.000  30.523  1.00  0.00     0.014 A 
ATOM     38  C   UNL A   1      37.264  32.046  30.354  1.00  0.00     0.014 A 
ATOM     39  C   UNL A   1      37.185  29.285  30.614  1.00  0.00     0.010 A 
ATOM     40  C   UNL A   1      38.408  31.330  30.175  1.00  0.00     0.010 A 
ATOM     41  C   UNL A   1      38.395  29.965  30.416  1.00  0.00    -0.014 A 
BRANCH  41  42
ATOM     42  C   UNL A   1      39.690  29.301  30.389  1.00  0.00     0.031 A 
ATOM     43  C   UNL A   1      40.310  29.058  31.717  1.00  0.00     0.074 A 
ATOM     44  C   UNL A   1      40.143  28.679  29.275  1.00  0.00     0.049 A 
ATOM     45  N   UNL A   1      41.361  29.619  32.212  1.00  0.00    -0.248 NA
ATOM     46  C   UNL A   1      39.604  28.179  32.665  1.00  0.00     0.031 C 
ATOM     47  C   UNL A   1      39.470  28.510  27.976  1.00  0.00     0.029 A 
ATOM     48  N   UNL A   1      41.256  27.922  29.120  1.00  0.00    -0.354 N 
ATOM     49  C   UNL A   1      41.585  29.000  33.438  1.00  0.00     0.074 A 
ATOM     50  C   UNL A   1      40.371  28.287  33.752  1.00  0.00     0.031 C 
ATOM     51  C   UNL A   1      40.050  27.499  27.291  1.00  0.00     0.029 A 
ATOM     52  C   UNL A   1      41.246  27.093  28.002  1.00  0.00     0.049 A 
ATOM     53  H   UNL A   1      42.012  27.955  29.749  1.00  0.00     0.167 HD
ATOM     54  C   UNL A   1      42.834  28.908  33.979  1.00  0.00     0.031 A 
ATOM     55  C   UNL A   1      42.146  26.122  27.711  1.00  0.00     0.031 A 
ATOM     56  C   UNL A   1      43.781  29.731  33.270  1.00  0.00     0.049 A 
ATOM     57  C   UNL A   1      43.364  26.424  28.506  1.00  0.00     0.074 A 
ATOM     58  C   UNL A   1      43.871  31.079  32.979  1.00  0.00     0.029 A 
ATOM     59  N   UNL A   1      44.609  29.098  32.370  1.00  0.00    -0.354 N 
ATOM     60  N   UNL A   1      44.089  27.493  28.326  1.00  0.00    -0.248 NA
ATOM     61  C   UNL A   1      43.496  25.794  29.812  1.00  0.00     0.031 C 
ATOM     62  C   UNL A   1      44.323  31.128  31.627  1.00  0.00     0.029 A 
ATOM     63  C   UNL A   1      44.565  29.819  31.203  1.00  0.00     0.049 A 
ATOM     64  H   UNL A   1      45.134  28.282  32.532  1.00  0.00     0.167 HD
ATOM     65  C   UNL A   1      44.427  27.916  29.603  1.00  0.00     0.074 A 
ATOM     66  C   UNL A   1      44.112  26.780  30.471  1.00  0.00     0.031 C 
ATOM     67  C   UNL A   1      44.656  29.234  29.881  1.00  0.00     0.031 A 
BRANCH  54  68
ATOM     68  C   UNL A   1      43.288  27.786  34.881  1.00  0.00    -0.014 A 
ATOM     69  C   UNL A   1      43.669  28.090  36.204  1.00  0.00     0.010 A 
ATOM     70  C   UNL A   1      43.608  26.497  34.405  1.00  0.00     0.010 A 
ATOM     71  C   UNL A   1      44.396  27.178  36.981  1.00  0.00     0.020 A 
ATOM     72  C   UNL A   1      44.291  25.564  35.187  1.00  0.00     0.020 A 
ATOM     73  C   UNL A   1      44.714  25.925  36.458  1.00  0.00     0.054 A 
BRANCH  73  74
ATOM     74  S   UNL A   1      45.747  24.798  37.425  1.00  0.00     0.124 S 
ATOM     75  O   UNL A   1      45.422  23.507  36.825  1.00  0.00    -0.237 OA
ATOM     76  O   UNL A   1      47.091  25.302  37.156  1.00  0.00    -0.237 OA
ATOM     77  O   UNL A   1      45.276  24.992  38.794  1.00  0.00    -0.744 OA
ENDBRANCH  73  74
ENDBRANCH  54  68
BRANCH  55  78
ATOM     78  C   UNL A   1      41.914  24.807  27.062  1.00  0.00    -0.014 A 
ATOM     79  C   UNL A   1      42.972  24.122  26.434  1.00  0.00     0.010 A 
ATOM     80  C   UNL A   1      40.731  24.085  27.323  1.00  0.00     0.010 A 
ATOM     81  C   UNL A   1      42.880  22.747  26.154  1.00  0.00     0.020 A 
ATOM     82  C   UNL A   1      40.629  22.715  27.041  1.00  0.00     0.020 A 
ATOM     83  C   UNL A   1      41.718  22.045  26.487  1.00  0.00     0.054 A 
BRANCH  83  84
ATOM     84  S   UNL A   1      41.691  20.234  26.321  1.00  0.00     0.124 S 
ATOM     85  O   UNL A   1      40.299  19.975  25.965  1.00  0.00    -0.237 OA
ATOM     86  O   UNL A   1      42.669  19.998  25.263  1.00  0.00    -0.237 OA
ATOM     87  O   UNL A   1      42.090  19.763  27.646  1.00  0.00    -0.744 OA
ENDBRANCH  83  84
ENDBRANCH  55  78
BRANCH  67  88
ATOM     88  C   UNL A   1      44.785  30.209  28.728  1.00  0.00    -0.014 A 
ATOM     89  C   UNL A   1      43.701  30.644  27.938  1.00  0.00     0.010 A 
ATOM     90  C   UNL A   1      46.031  30.836  28.553  1.00  0.00     0.010 A 
ATOM     91  C   UNL A   1      43.869  31.661  26.985  1.00  0.00     0.020 A 
ATOM     92  C   UNL A   1      46.201  31.861  27.618  1.00  0.00     0.020 A 
ATOM     93  C   UNL A   1      45.121  32.263  26.832  1.00  0.00     0.054 A 
BRANCH  93  94
ATOM     94  S   UNL A   1      45.329  33.609  25.630  1.00  0.00     0.124 S 
ATOM     95  O   UNL A   1      44.682  33.071  24.436  1.00  0.00    -0.237 OA
ATOM     96  O   UNL A   1      44.637  34.726  26.270  1.00  0.00    -0.237 OA
ATOM     97  O   UNL A   1      46.779  33.766  25.529  1.00  0.00    -0.744 OA
ENDBRANCH  93  94
ENDBRANCH  67  88
ENDBRANCH  41  42
ENDBRANCH  33  36
ENDBRANCH  31  32
ENDBRANCH  30  31
ENDBRANCH   1  30
TORSDOF 18
ENDMDL
