MODEL 1
REMARK VINA RESULT:     -12.3      0.000      0.000
REMARK SMILES COc1ccc(-c2ccc(CCC(=O)NCCCCNC(=O)c3ccc(-c4c5nc(c(-c6ccc(S(=O)(=O)[O-])cc6)c6ccc([nH]6)c(-c6ccc(S(=O)(=O)[O-])cc6)c6nc(c(-c7ccc(S(=O)(=O)[O-])cc7)c7ccc4[nH]7)C=C6)C=C5)cc3)n2-c2ccc(C(C)=O)cc2)cc1
REMARK SMILES IDX 17 1 16 2 15 3 13 4 14 5 12 7 11 8 10 9 7 10 8 11 83 12 9 13
REMARK SMILES IDX 6 14 3 15 4 16 94 17 5 18 93 19 2 20 1 21 84 22 85 23 92 24
REMARK SMILES IDX 86 25 91 26 87 27 88 28 89 29 90 30 18 31 19 32 20 33 21 34
REMARK SMILES IDX 22 36 23 37 24 38 82 39 25 40 81 41 26 42 27 43 28 44 75 45
REMARK SMILES IDX 29 46 80 47 74 48 76 49 30 50 79 51 73 52 72 53 31 55 61 56
REMARK SMILES IDX 42 57 60 58 43 59 46 60 59 61 77 62 44 63 45 64 58 66 78 67
REMARK SMILES IDX 47 68 32 69 33 70 41 71 34 72 40 73 35 74 36 75 37 76 38 77
REMARK SMILES IDX 39 78 62 79 63 80 71 81 64 82 70 83 65 84 66 85 67 86 68 87
REMARK SMILES IDX 69 88 48 89 49 90 57 91 50 92 56 93 51 94 52 95 53 96 54 97
REMARK SMILES IDX 55 98
REMARK H PARENT 15 6 20 35 76 54 46 65
REMARK Flexibility Score: inf
ROOT
ATOM      1  C   UNL A   1      31.963  30.375  26.843  1.00  0.00     0.023 C 
ENDROOT
BRANCH   1   2
ATOM      2  C   UNL A   1      33.275  29.912  26.217  1.00  0.00     0.116 C 
BRANCH   2   3
ATOM      3  N   UNL A   1      33.157  29.905  24.769  1.00  0.00    -0.356 N 
ATOM      4  C   UNL A   1      33.385  28.884  23.894  1.00  0.00     0.220 C 
ATOM      5  O   UNL A   1      33.516  29.149  22.696  1.00  0.00    -0.275 OA
ATOM      6  H   UNL A   1      32.874  30.756  24.363  1.00  0.00     0.163 HD
BRANCH   4   7
ATOM      7  C   UNL A   1      33.446  27.447  24.375  1.00  0.00     0.106 C 
BRANCH   7   8
ATOM      8  C   UNL A   1      33.394  26.428  23.234  1.00  0.00     0.064 C 
BRANCH   8   9
ATOM      9  C   UNL A   1      32.577  25.204  23.556  1.00  0.00     0.024 A 
ATOM     10  C   UNL A   1      32.014  23.016  23.565  1.00  0.00     0.053 A 
ATOM     11  C   UNL A   1      30.889  23.762  23.891  1.00  0.00     0.029 A 
ATOM     12  N   UNL A   1      33.089  23.906  23.602  1.00  0.00    -0.314 N 
ATOM     13  C   UNL A   1      31.247  25.124  23.916  1.00  0.00     0.024 A 
BRANCH  10  14
ATOM     14  C   UNL A   1      32.088  21.555  23.530  1.00  0.00    -0.001 A 
ATOM     15  C   UNL A   1      32.483  18.775  23.369  1.00  0.00     0.118 A 
ATOM     16  C   UNL A   1      32.214  19.520  22.221  1.00  0.00     0.047 A 
ATOM     17  C   UNL A   1      32.559  19.422  24.603  1.00  0.00     0.047 A 
ATOM     18  C   UNL A   1      32.011  20.898  22.300  1.00  0.00     0.014 A 
ATOM     19  C   UNL A   1      32.364  20.810  24.684  1.00  0.00     0.014 A 
BRANCH  15  20
ATOM     20  O   UNL A   1      32.707  17.445  23.142  1.00  0.00    -0.497 OA
ATOM     21  C   UNL A   1      34.044  16.995  23.319  1.00  0.00     0.278 C 
ENDBRANCH  15  20
ENDBRANCH  10  14
BRANCH  12  22
ATOM     22  C   UNL A   1      34.392  23.578  24.055  1.00  0.00     0.046 A 
ATOM     23  C   UNL A   1      34.660  23.799  25.413  1.00  0.00     0.027 A 
ATOM     24  C   UNL A   1      35.327  22.941  23.244  1.00  0.00     0.027 A 
ATOM     25  C   UNL A   1      35.861  23.376  25.971  1.00  0.00     0.014 A 
ATOM     26  C   UNL A   1      36.546  22.540  23.807  1.00  0.00     0.014 A 
ATOM     27  C   UNL A   1      36.815  22.737  25.176  1.00  0.00     0.017 A 
BRANCH  27  28
ATOM     28  C   UNL A   1      38.109  22.231  25.733  1.00  0.00     0.159 C 
ATOM     29  C   UNL A   1      38.658  20.885  25.325  1.00  0.00     0.093 C 
ATOM     30  O   UNL A   1      38.743  22.935  26.519  1.00  0.00    -0.295 OA
ENDBRANCH  27  28
ENDBRANCH  12  22
ENDBRANCH   8   9
ENDBRANCH   7   8
ENDBRANCH   4   7
ENDBRANCH   2   3
ENDBRANCH   1   2
BRANCH   1  31
ATOM     31  C   UNL A   1      31.689  31.876  26.827  1.00  0.00     0.023 C 
BRANCH  31  32
ATOM     32  C   UNL A   1      32.802  32.690  27.467  1.00  0.00     0.116 C 
BRANCH  32  33
ATOM     33  N   UNL A   1      32.443  34.098  27.618  1.00  0.00    -0.352 N 
ATOM     34  C   UNL A   1      32.951  34.998  28.523  1.00  0.00     0.251 C 
ATOM     35  H   UNL A   1      31.757  34.442  27.001  1.00  0.00     0.163 HD
ATOM     36  O   UNL A   1      32.418  36.086  28.718  1.00  0.00    -0.269 OA
BRANCH  34  37
ATOM     37  C   UNL A   1      34.142  34.604  29.289  1.00  0.00     0.039 A 
ATOM     38  C   UNL A   1      33.974  34.041  30.556  1.00  0.00     0.014 A 
ATOM     39  C   UNL A   1      35.404  34.699  28.692  1.00  0.00     0.014 A 
ATOM     40  C   UNL A   1      35.072  33.467  31.184  1.00  0.00     0.010 A 
ATOM     41  C   UNL A   1      36.491  34.093  29.301  1.00  0.00     0.010 A 
ATOM     42  C   UNL A   1      36.315  33.451  30.533  1.00  0.00    -0.014 A 
BRANCH  42  43
ATOM     43  C   UNL A   1      37.410  32.632  31.097  1.00  0.00     0.031 A 
ATOM     44  C   UNL A   1      37.713  31.393  30.250  1.00  0.00     0.074 A 
ATOM     45  C   UNL A   1      37.958  33.053  32.272  1.00  0.00     0.049 A 
ATOM     46  N   UNL A   1      38.090  30.214  30.632  1.00  0.00    -0.248 NA
ATOM     47  C   UNL A   1      37.463  31.430  28.784  1.00  0.00     0.031 C 
ATOM     48  C   UNL A   1      37.559  34.292  32.972  1.00  0.00     0.029 A 
ATOM     49  N   UNL A   1      38.938  32.563  33.109  1.00  0.00    -0.354 N 
ATOM     50  C   UNL A   1      38.269  29.419  29.477  1.00  0.00     0.074 A 
ATOM     51  C   UNL A   1      37.760  30.189  28.380  1.00  0.00     0.031 C 
ATOM     52  C   UNL A   1      38.230  34.424  34.132  1.00  0.00     0.029 A 
ATOM     53  C   UNL A   1      39.123  33.297  34.307  1.00  0.00     0.049 A 
ATOM     54  H   UNL A   1      39.469  31.764  32.892  1.00  0.00     0.167 HD
ATOM     55  C   UNL A   1      38.953  28.235  29.488  1.00  0.00     0.031 A 
ATOM     56  C   UNL A   1      39.895  33.005  35.395  1.00  0.00     0.031 A 
ATOM     57  C   UNL A   1      39.447  27.976  30.801  1.00  0.00     0.049 A 
ATOM     58  C   UNL A   1      40.664  31.792  35.070  1.00  0.00     0.074 A 
ATOM     59  C   UNL A   1      38.846  27.646  31.988  1.00  0.00     0.029 A 
ATOM     60  N   UNL A   1      40.725  28.421  31.051  1.00  0.00    -0.354 N 
ATOM     61  N   UNL A   1      41.645  31.729  34.222  1.00  0.00    -0.248 NA
ATOM     62  C   UNL A   1      40.273  30.519  35.693  1.00  0.00     0.031 C 
ATOM     63  C   UNL A   1      39.595  28.373  32.941  1.00  0.00     0.029 A 
ATOM     64  C   UNL A   1      40.715  28.939  32.319  1.00  0.00     0.049 A 
ATOM     65  H   UNL A   1      41.494  28.376  30.438  1.00  0.00     0.167 HD
ATOM     66  C   UNL A   1      41.692  30.388  33.927  1.00  0.00     0.074 A 
ATOM     67  C   UNL A   1      41.093  29.694  35.047  1.00  0.00     0.031 C 
ATOM     68  C   UNL A   1      41.647  29.999  32.627  1.00  0.00     0.031 A 
BRANCH  55  69
ATOM     69  C   UNL A   1      39.514  27.372  28.384  1.00  0.00    -0.014 A 
ATOM     70  C   UNL A   1      39.652  25.985  28.668  1.00  0.00     0.010 A 
ATOM     71  C   UNL A   1      40.199  27.870  27.269  1.00  0.00     0.010 A 
ATOM     72  C   UNL A   1      40.550  25.173  27.973  1.00  0.00     0.020 A 
ATOM     73  C   UNL A   1      41.073  27.047  26.536  1.00  0.00     0.020 A 
ATOM     74  C   UNL A   1      41.285  25.723  26.930  1.00  0.00     0.054 A 
BRANCH  74  75
ATOM     75  S   UNL A   1      42.572  24.703  26.159  1.00  0.00     0.124 S 
ATOM     76  O   UNL A   1      42.832  25.426  24.918  1.00  0.00    -0.237 OA
ATOM     77  O   UNL A   1      43.649  24.750  27.148  1.00  0.00    -0.237 OA
ATOM     78  O   UNL A   1      41.932  23.399  26.011  1.00  0.00    -0.744 OA
ENDBRANCH  74  75
ENDBRANCH  55  69
BRANCH  56  79
ATOM     79  C   UNL A   1      40.008  33.504  36.816  1.00  0.00    -0.014 A 
ATOM     80  C   UNL A   1      38.968  33.543  37.752  1.00  0.00     0.010 A 
ATOM     81  C   UNL A   1      41.304  33.805  37.317  1.00  0.00     0.010 A 
ATOM     82  C   UNL A   1      39.234  33.701  39.130  1.00  0.00     0.020 A 
ATOM     83  C   UNL A   1      41.589  33.906  38.680  1.00  0.00     0.020 A 
ATOM     84  C   UNL A   1      40.547  33.818  39.588  1.00  0.00     0.054 A 
BRANCH  84  85
ATOM     85  S   UNL A   1      40.921  33.695  41.358  1.00  0.00     0.124 S 
ATOM     86  O   UNL A   1      42.318  33.277  41.353  1.00  0.00    -0.237 OA
ATOM     87  O   UNL A   1      40.668  35.053  41.836  1.00  0.00    -0.237 OA
ATOM     88  O   UNL A   1      39.967  32.695  41.836  1.00  0.00    -0.744 OA
ENDBRANCH  84  85
ENDBRANCH  56  79
BRANCH  68  89
ATOM     89  C   UNL A   1      42.217  30.994  31.625  1.00  0.00    -0.014 A 
ATOM     90  C   UNL A   1      43.613  31.108  31.476  1.00  0.00     0.010 A 
ATOM     91  C   UNL A   1      41.416  31.882  30.879  1.00  0.00     0.010 A 
ATOM     92  C   UNL A   1      44.187  32.069  30.631  1.00  0.00     0.020 A 
ATOM     93  C   UNL A   1      41.982  32.848  30.025  1.00  0.00     0.020 A 
ATOM     94  C   UNL A   1      43.368  32.936  29.907  1.00  0.00     0.054 A 
BRANCH  94  95
ATOM     95  S   UNL A   1      44.145  34.176  28.828  1.00  0.00     0.124 S 
ATOM     96  O   UNL A   1      43.920  33.628  27.493  1.00  0.00    -0.237 OA
ATOM     97  O   UNL A   1      43.390  35.386  29.141  1.00  0.00    -0.237 OA
ATOM     98  O   UNL A   1      45.543  34.189  29.258  1.00  0.00    -0.744 OA
ENDBRANCH  94  95
ENDBRANCH  68  89
ENDBRANCH  42  43
ENDBRANCH  34  37
ENDBRANCH  32  33
ENDBRANCH  31  32
ENDBRANCH   1  31
TORSDOF 20
ENDMDL
MODEL 2
REMARK VINA RESULT:     -12.2      3.178      8.703
REMARK SMILES COc1ccc(-c2ccc(CCC(=O)NCCCCNC(=O)c3ccc(-c4c5nc(c(-c6ccc(S(=O)(=O)[O-])cc6)c6ccc([nH]6)c(-c6ccc(S(=O)(=O)[O-])cc6)c6nc(c(-c7ccc(S(=O)(=O)[O-])cc7)c7ccc4[nH]7)C=C6)C=C5)cc3)n2-c2ccc(C(C)=O)cc2)cc1
REMARK SMILES IDX 17 1 16 2 15 3 13 4 14 5 12 7 11 8 10 9 7 10 8 11 83 12 9 13
REMARK SMILES IDX 6 14 3 15 4 16 94 17 5 18 93 19 2 20 1 21 84 22 85 23 92 24
REMARK SMILES IDX 86 25 91 26 87 27 88 28 89 29 90 30 18 31 19 32 20 33 21 34
REMARK SMILES IDX 22 36 23 37 24 38 82 39 25 40 81 41 26 42 27 43 28 44 75 45
REMARK SMILES IDX 29 46 80 47 74 48 76 49 30 50 79 51 73 52 72 53 31 55 61 56
REMARK SMILES IDX 42 57 60 58 43 59 46 60 59 61 77 62 44 63 45 64 58 66 78 67
REMARK SMILES IDX 47 68 32 69 33 70 41 71 34 72 40 73 35 74 36 75 37 76 38 77
REMARK SMILES IDX 39 78 62 79 63 80 71 81 64 82 70 83 65 84 66 85 67 86 68 87
REMARK SMILES IDX 69 88 48 89 49 90 57 91 50 92 56 93 51 94 52 95 53 96 54 97
REMARK SMILES IDX 55 98
REMARK H PARENT 15 6 20 35 76 54 46 65
REMARK Flexibility Score: inf
ROOT
ATOM      1  C   UNL A   1      32.404  29.668  26.005  1.00  0.00     0.023 C 
ENDROOT
BRANCH   1   2
ATOM      2  C   UNL A   1      33.660  29.028  25.421  1.00  0.00     0.116 C 
BRANCH   2   3
ATOM      3  N   UNL A   1      33.645  29.140  23.972  1.00  0.00    -0.356 N 
ATOM      4  C   UNL A   1      33.923  28.190  23.035  1.00  0.00     0.220 C 
ATOM      5  O   UNL A   1      34.141  28.548  21.875  1.00  0.00    -0.275 OA
ATOM      6  H   UNL A   1      33.400  30.026  23.619  1.00  0.00     0.163 HD
BRANCH   4   7
ATOM      7  C   UNL A   1      33.933  26.717  23.401  1.00  0.00     0.106 C 
BRANCH   7   8
ATOM      8  C   UNL A   1      33.217  25.838  22.373  1.00  0.00     0.064 C 
BRANCH   8   9
ATOM      9  C   UNL A   1      32.475  24.678  22.985  1.00  0.00     0.024 A 
ATOM     10  C   UNL A   1      32.052  22.527  23.531  1.00  0.00     0.053 A 
ATOM     11  C   UNL A   1      30.875  23.255  23.663  1.00  0.00     0.029 A 
ATOM     12  N   UNL A   1      33.066  23.468  23.350  1.00  0.00    -0.314 N 
ATOM     13  C   UNL A   1      31.146  24.602  23.352  1.00  0.00     0.024 A 
BRANCH  10  14
ATOM     14  C   UNL A   1      32.219  21.111  23.857  1.00  0.00    -0.001 A 
ATOM     15  C   UNL A   1      32.791  18.407  24.380  1.00  0.00     0.118 A 
ATOM     16  C   UNL A   1      32.477  18.827  23.087  1.00  0.00     0.047 A 
ATOM     17  C   UNL A   1      32.823  19.342  25.415  1.00  0.00     0.047 A 
ATOM     18  C   UNL A   1      32.186  20.167  22.827  1.00  0.00     0.014 A 
ATOM     19  C   UNL A   1      32.540  20.692  25.154  1.00  0.00     0.014 A 
BRANCH  15  20
ATOM     20  O   UNL A   1      33.100  17.078  24.484  1.00  0.00    -0.497 OA
ATOM     21  C   UNL A   1      33.986  16.561  23.501  1.00  0.00     0.278 C 
ENDBRANCH  15  20
ENDBRANCH  10  14
BRANCH  12  22
ATOM     22  C   UNL A   1      34.380  23.347  23.870  1.00  0.00     0.046 A 
ATOM     23  C   UNL A   1      34.572  23.762  25.194  1.00  0.00     0.027 A 
ATOM     24  C   UNL A   1      35.408  22.726  23.167  1.00  0.00     0.027 A 
ATOM     25  C   UNL A   1      35.791  23.549  25.829  1.00  0.00     0.014 A 
ATOM     26  C   UNL A   1      36.643  22.537  23.804  1.00  0.00     0.014 A 
ATOM     27  C   UNL A   1      36.838  22.929  25.143  1.00  0.00     0.017 A 
BRANCH  27  28
ATOM     28  C   UNL A   1      38.157  22.645  25.789  1.00  0.00     0.159 C 
ATOM     29  C   UNL A   1      38.821  23.664  26.684  1.00  0.00     0.093 C 
ATOM     30  O   UNL A   1      38.698  21.555  25.602  1.00  0.00    -0.295 OA
ENDBRANCH  27  28
ENDBRANCH  12  22
ENDBRANCH   8   9
ENDBRANCH   7   8
ENDBRANCH   4   7
ENDBRANCH   2   3
ENDBRANCH   1   2
BRANCH   1  31
ATOM     31  C   UNL A   1      32.602  30.929  26.840  1.00  0.00     0.023 C 
BRANCH  31  32
ATOM     32  C   UNL A   1      33.875  30.896  27.672  1.00  0.00     0.116 C 
BRANCH  32  33
ATOM     33  N   UNL A   1      33.838  31.850  28.778  1.00  0.00    -0.352 N 
ATOM     34  C   UNL A   1      34.743  31.974  29.805  1.00  0.00     0.251 C 
ATOM     35  H   UNL A   1      33.078  32.476  28.789  1.00  0.00     0.163 HD
ATOM     36  O   UNL A   1      34.498  32.648  30.801  1.00  0.00    -0.269 OA
BRANCH  34  37
ATOM     37  C   UNL A   1      36.012  31.240  29.696  1.00  0.00     0.039 A 
ATOM     38  C   UNL A   1      36.931  31.625  28.718  1.00  0.00     0.014 A 
ATOM     39  C   UNL A   1      36.316  30.251  30.638  1.00  0.00     0.014 A 
ATOM     40  C   UNL A   1      38.211  31.087  28.754  1.00  0.00     0.010 A 
ATOM     41  C   UNL A   1      37.604  29.744  30.698  1.00  0.00     0.010 A 
ATOM     42  C   UNL A   1      38.558  30.186  29.773  1.00  0.00    -0.014 A 
BRANCH  42  43
ATOM     43  C   UNL A   1      39.977  29.810  29.946  1.00  0.00     0.031 A 
ATOM     44  C   UNL A   1      40.796  30.906  30.633  1.00  0.00     0.074 A 
ATOM     45  C   UNL A   1      40.362  28.597  29.457  1.00  0.00     0.049 A 
ATOM     46  N   UNL A   1      42.032  31.245  30.440  1.00  0.00    -0.248 NA
ATOM     47  C   UNL A   1      40.128  31.829  31.589  1.00  0.00     0.031 C 
ATOM     48  C   UNL A   1      39.440  27.633  28.821  1.00  0.00     0.029 A 
ATOM     49  N   UNL A   1      41.562  27.920  29.390  1.00  0.00    -0.354 N 
ATOM     50  C   UNL A   1      42.340  32.295  31.334  1.00  0.00     0.074 A 
ATOM     51  C   UNL A   1      41.097  32.685  31.935  1.00  0.00     0.031 C 
ATOM     52  C   UNL A   1      40.107  26.547  28.386  1.00  0.00     0.029 A 
ATOM     53  C   UNL A   1      41.516  26.690  28.689  1.00  0.00     0.049 A 
ATOM     54  H   UNL A   1      42.388  28.266  29.798  1.00  0.00     0.167 HD
ATOM     55  C   UNL A   1      43.621  32.677  31.621  1.00  0.00     0.031 A 
ATOM     56  C   UNL A   1      42.537  25.860  28.322  1.00  0.00     0.031 A 
ATOM     57  C   UNL A   1      44.540  31.851  30.909  1.00  0.00     0.049 A 
ATOM     58  C   UNL A   1      43.771  26.402  28.914  1.00  0.00     0.074 A 
ATOM     59  C   UNL A   1      44.867  31.725  29.584  1.00  0.00     0.029 A 
ATOM     60  N   UNL A   1      44.992  30.745  31.592  1.00  0.00    -0.354 N 
ATOM     61  N   UNL A   1      44.069  26.387  30.177  1.00  0.00    -0.248 NA
ATOM     62  C   UNL A   1      44.738  27.077  28.036  1.00  0.00     0.031 C 
ATOM     63  C   UNL A   1      45.054  30.333  29.429  1.00  0.00     0.029 A 
ATOM     64  C   UNL A   1      45.027  29.717  30.686  1.00  0.00     0.049 A 
ATOM     65  H   UNL A   1      45.240  30.701  32.544  1.00  0.00     0.167 HD
ATOM     66  C   UNL A   1      45.014  27.379  30.268  1.00  0.00     0.074 A 
ATOM     67  C   UNL A   1      45.596  27.523  28.951  1.00  0.00     0.031 C 
ATOM     68  C   UNL A   1      44.840  28.372  31.178  1.00  0.00     0.031 A 
BRANCH  55  69
ATOM     69  C   UNL A   1      44.208  33.539  32.712  1.00  0.00    -0.014 A 
ATOM     70  C   UNL A   1      43.994  33.105  34.051  1.00  0.00     0.010 A 
ATOM     71  C   UNL A   1      44.636  34.859  32.526  1.00  0.00     0.010 A 
ATOM     72  C   UNL A   1      44.049  33.986  35.132  1.00  0.00     0.020 A 
ATOM     73  C   UNL A   1      44.736  35.742  33.617  1.00  0.00     0.020 A 
ATOM     74  C   UNL A   1      44.385  35.314  34.900  1.00  0.00     0.054 A 
BRANCH  74  75
ATOM     75  S   UNL A   1      44.277  36.479  36.286  1.00  0.00     0.124 S 
ATOM     76  O   UNL A   1      45.273  37.482  35.923  1.00  0.00    -0.237 OA
ATOM     77  O   UNL A   1      42.886  36.926  36.217  1.00  0.00    -0.237 OA
ATOM     78  O   UNL A   1      44.600  35.657  37.449  1.00  0.00    -0.744 OA
ENDBRANCH  74  75
ENDBRANCH  55  69
BRANCH  56  79
ATOM     79  C   UNL A   1      42.707  24.695  27.377  1.00  0.00    -0.014 A 
ATOM     80  C   UNL A   1      42.594  24.751  25.983  1.00  0.00     0.010 A 
ATOM     81  C   UNL A   1      43.187  23.467  27.910  1.00  0.00     0.010 A 
ATOM     82  C   UNL A   1      43.093  23.712  25.169  1.00  0.00     0.020 A 
ATOM     83  C   UNL A   1      43.736  22.456  27.119  1.00  0.00     0.020 A 
ATOM     84  C   UNL A   1      43.717  22.602  25.742  1.00  0.00     0.054 A 
BRANCH  84  85
ATOM     85  S   UNL A   1      44.642  21.430  24.713  1.00  0.00     0.124 S 
ATOM     86  O   UNL A   1      45.957  21.433  25.342  1.00  0.00    -0.237 OA
ATOM     87  O   UNL A   1      43.873  20.195  24.860  1.00  0.00    -0.237 OA
ATOM     88  O   UNL A   1      44.581  22.029  23.380  1.00  0.00    -0.744 OA
ENDBRANCH  84  85
ENDBRANCH  56  79
BRANCH  68  89
ATOM     89  C   UNL A   1      44.053  27.987  32.424  1.00  0.00    -0.014 A 
ATOM     90  C   UNL A   1      42.776  28.540  32.638  1.00  0.00     0.010 A 
ATOM     91  C   UNL A   1      44.569  27.152  33.435  1.00  0.00     0.010 A 
ATOM     92  C   UNL A   1      42.049  28.285  33.810  1.00  0.00     0.020 A 
ATOM     93  C   UNL A   1      43.847  26.885  34.614  1.00  0.00     0.020 A 
ATOM     94  C   UNL A   1      42.588  27.457  34.795  1.00  0.00     0.054 A 
BRANCH  94  95
ATOM     95  S   UNL A   1      41.625  27.153  36.306  1.00  0.00     0.124 S 
ATOM     96  O   UNL A   1      42.658  27.050  37.333  1.00  0.00    -0.237 OA
ATOM     97  O   UNL A   1      40.781  28.343  36.388  1.00  0.00    -0.237 OA
ATOM     98  O   UNL A   1      40.913  25.906  36.025  1.00  0.00    -0.744 OA
ENDBRANCH  94  95
ENDBRANCH  68  89
ENDBRANCH  42  43
ENDBRANCH  34  37
ENDBRANCH  32  33
ENDBRANCH  31  32
ENDBRANCH   1  31
TORSDOF 20
ENDMDL
MODEL 3
REMARK VINA RESULT:     -12.0      5.018     11.063
REMARK SMILES COc1ccc(-c2ccc(CCC(=O)NCCCCNC(=O)c3ccc(-c4c5nc(c(-c6ccc(S(=O)(=O)[O-])cc6)c6ccc([nH]6)c(-c6ccc(S(=O)(=O)[O-])cc6)c6nc(c(-c7ccc(S(=O)(=O)[O-])cc7)c7ccc4[nH]7)C=C6)C=C5)cc3)n2-c2ccc(C(C)=O)cc2)cc1
REMARK SMILES IDX 17 1 16 2 15 3 13 4 14 5 12 7 11 8 10 9 7 10 8 11 83 12 9 13
REMARK SMILES IDX 6 14 3 15 4 16 94 17 5 18 93 19 2 20 1 21 84 22 85 23 92 24
REMARK SMILES IDX 86 25 91 26 87 27 88 28 89 29 90 30 18 31 19 32 20 33 21 34
REMARK SMILES IDX 22 36 23 37 24 38 82 39 25 40 81 41 26 42 27 43 28 44 75 45
REMARK SMILES IDX 29 46 80 47 74 48 76 49 30 50 79 51 73 52 72 53 31 55 61 56
REMARK SMILES IDX 42 57 60 58 43 59 46 60 59 61 77 62 44 63 45 64 58 66 78 67
REMARK SMILES IDX 47 68 32 69 33 70 41 71 34 72 40 73 35 74 36 75 37 76 38 77
REMARK SMILES IDX 39 78 62 79 63 80 71 81 64 82 70 83 65 84 66 85 67 86 68 87
REMARK SMILES IDX 69 88 48 89 49 90 57 91 50 92 56 93 51 94 52 95 53 96 54 97
REMARK SMILES IDX 55 98
REMARK H PARENT 15 6 20 35 76 54 46 65
REMARK Flexibility Score: inf
ROOT
ATOM      1  C   UNL A   1      36.722  20.525  25.092  1.00  0.00     0.023 C 
ENDROOT
BRANCH   1   2
ATOM      2  C   UNL A   1      35.515  21.209  25.726  1.00  0.00     0.116 C 
BRANCH   2   3
ATOM      3  N   UNL A   1      34.355  21.064  24.864  1.00  0.00    -0.356 N 
ATOM      4  C   UNL A   1      33.133  21.661  24.962  1.00  0.00     0.220 C 
ATOM      5  O   UNL A   1      32.192  21.195  24.314  1.00  0.00    -0.275 OA
ATOM      6  H   UNL A   1      34.467  20.449  24.103  1.00  0.00     0.163 HD
BRANCH   4   7
ATOM      7  C   UNL A   1      32.937  22.894  25.825  1.00  0.00     0.106 C 
BRANCH   7   8
ATOM      8  C   UNL A   1      33.594  24.146  25.241  1.00  0.00     0.064 C 
BRANCH   8   9
ATOM      9  C   UNL A   1      32.782  24.803  24.155  1.00  0.00     0.024 A 
ATOM     10  C   UNL A   1      31.151  26.082  23.255  1.00  0.00     0.053 A 
ATOM     11  C   UNL A   1      31.625  25.217  22.276  1.00  0.00     0.029 A 
ATOM     12  N   UNL A   1      32.041  25.974  24.325  1.00  0.00    -0.314 N 
ATOM     13  C   UNL A   1      32.663  24.441  22.829  1.00  0.00     0.024 A 
BRANCH  10  14
ATOM     14  C   UNL A   1      30.140  27.120  23.058  1.00  0.00    -0.001 A 
ATOM     15  C   UNL A   1      28.231  29.183  22.940  1.00  0.00     0.118 A 
ATOM     16  C   UNL A   1      27.915  27.958  23.527  1.00  0.00     0.047 A 
ATOM     17  C   UNL A   1      29.509  29.381  22.413  1.00  0.00     0.047 A 
ATOM     18  C   UNL A   1      28.859  26.931  23.580  1.00  0.00     0.014 A 
ATOM     19  C   UNL A   1      30.462  28.352  22.474  1.00  0.00     0.014 A 
BRANCH  15  20
ATOM     20  O   UNL A   1      27.231  30.114  22.999  1.00  0.00    -0.497 OA
ATOM     21  C   UNL A   1      27.617  31.426  23.388  1.00  0.00     0.278 C 
ENDBRANCH  15  20
ENDBRANCH  10  14
BRANCH  12  22
ATOM     22  C   UNL A   1      32.431  27.051  25.160  1.00  0.00     0.046 A 
ATOM     23  C   UNL A   1      33.449  27.884  24.677  1.00  0.00     0.027 A 
ATOM     24  C   UNL A   1      31.760  27.364  26.338  1.00  0.00     0.027 A 
ATOM     25  C   UNL A   1      33.796  29.042  25.363  1.00  0.00     0.014 A 
ATOM     26  C   UNL A   1      32.132  28.520  27.039  1.00  0.00     0.014 A 
ATOM     27  C   UNL A   1      33.138  29.376  26.549  1.00  0.00     0.017 A 
BRANCH  27  28
ATOM     28  C   UNL A   1      33.447  30.627  27.309  1.00  0.00     0.159 C 
ATOM     29  C   UNL A   1      34.754  30.785  28.050  1.00  0.00     0.093 C 
ATOM     30  O   UNL A   1      32.631  31.549  27.312  1.00  0.00    -0.295 OA
ENDBRANCH  27  28
ENDBRANCH  12  22
ENDBRANCH   8   9
ENDBRANCH   7   8
ENDBRANCH   4   7
ENDBRANCH   2   3
ENDBRANCH   1   2
BRANCH   1  31
ATOM     31  C   UNL A   1      37.979  21.373  24.920  1.00  0.00     0.023 C 
BRANCH  31  32
ATOM     32  C   UNL A   1      38.977  21.192  26.052  1.00  0.00     0.116 C 
BRANCH  32  33
ATOM     33  N   UNL A   1      39.689  19.919  25.965  1.00  0.00    -0.352 N 
ATOM     34  C   UNL A   1      41.048  19.716  26.003  1.00  0.00     0.251 C 
ATOM     35  H   UNL A   1      39.131  19.114  25.868  1.00  0.00     0.163 HD
ATOM     36  O   UNL A   1      41.547  18.639  25.691  1.00  0.00    -0.269 OA
BRANCH  34  37
ATOM     37  C   UNL A   1      41.901  20.847  26.395  1.00  0.00     0.039 A 
ATOM     38  C   UNL A   1      42.329  21.741  25.411  1.00  0.00     0.014 A 
ATOM     39  C   UNL A   1      42.172  21.065  27.750  1.00  0.00     0.014 A 
ATOM     40  C   UNL A   1      42.943  22.924  25.803  1.00  0.00     0.010 A 
ATOM     41  C   UNL A   1      42.749  22.261  28.144  1.00  0.00     0.010 A 
ATOM     42  C   UNL A   1      43.106  23.202  27.170  1.00  0.00    -0.014 A 
BRANCH  42  43
ATOM     43  C   UNL A   1      43.534  24.557  27.580  1.00  0.00     0.031 A 
ATOM     44  C   UNL A   1      42.351  25.484  27.869  1.00  0.00     0.074 A 
ATOM     45  C   UNL A   1      44.875  24.802  27.609  1.00  0.00     0.049 A 
ATOM     46  N   UNL A   1      42.242  26.759  27.661  1.00  0.00    -0.248 NA
ATOM     47  C   UNL A   1      41.070  24.907  28.359  1.00  0.00     0.031 C 
ATOM     48  C   UNL A   1      45.906  23.786  27.309  1.00  0.00     0.029 A 
ATOM     49  N   UNL A   1      45.648  25.908  27.892  1.00  0.00    -0.354 N 
ATOM     50  C   UNL A   1      40.969  27.167  28.120  1.00  0.00     0.074 A 
ATOM     51  C   UNL A   1      40.254  25.964  28.435  1.00  0.00     0.031 C 
ATOM     52  C   UNL A   1      47.139  24.325  27.363  1.00  0.00     0.029 A 
ATOM     53  C   UNL A   1      47.039  25.731  27.698  1.00  0.00     0.049 A 
ATOM     54  H   UNL A   1      45.261  26.758  28.204  1.00  0.00     0.167 HD
ATOM     55  C   UNL A   1      40.643  28.476  28.342  1.00  0.00     0.031 A 
ATOM     56  C   UNL A   1      48.049  26.650  27.747  1.00  0.00     0.031 A 
ATOM     57  C   UNL A   1      41.768  29.307  28.063  1.00  0.00     0.049 A 
ATOM     58  C   UNL A   1      47.455  27.923  28.188  1.00  0.00     0.074 A 
ATOM     59  C   UNL A   1      42.420  29.658  26.909  1.00  0.00     0.029 A 
ATOM     60  N   UNL A   1      42.573  29.593  29.141  1.00  0.00    -0.354 N 
ATOM     61  N   UNL A   1      47.021  28.176  29.385  1.00  0.00    -0.248 NA
ATOM     62  C   UNL A   1      47.267  28.996  27.200  1.00  0.00     0.031 C 
ATOM     63  C   UNL A   1      43.778  29.673  27.299  1.00  0.00     0.029 A 
ATOM     64  C   UNL A   1      43.865  29.529  28.689  1.00  0.00     0.049 A 
ATOM     65  H   UNL A   1      42.279  29.803  30.057  1.00  0.00     0.167 HD
ATOM     66  C   UNL A   1      46.172  29.235  29.172  1.00  0.00     0.074 A 
ATOM     67  C   UNL A   1      46.600  29.873  27.946  1.00  0.00     0.031 C 
ATOM     68  C   UNL A   1      44.896  29.158  29.631  1.00  0.00     0.031 A 
BRANCH  55  69
ATOM     69  C   UNL A   1      39.498  29.131  29.076  1.00  0.00    -0.014 A 
ATOM     70  C   UNL A   1      38.899  30.258  28.446  1.00  0.00     0.010 A 
ATOM     71  C   UNL A   1      39.217  28.930  30.432  1.00  0.00     0.010 A 
ATOM     72  C   UNL A   1      38.190  31.219  29.168  1.00  0.00     0.020 A 
ATOM     73  C   UNL A   1      38.466  29.873  31.159  1.00  0.00     0.020 A 
ATOM     74  C   UNL A   1      38.010  31.037  30.534  1.00  0.00     0.054 A 
BRANCH  74  75
ATOM     75  S   UNL A   1      37.244  32.379  31.483  1.00  0.00     0.124 S 
ATOM     76  O   UNL A   1      38.380  33.256  31.745  1.00  0.00    -0.237 OA
ATOM     77  O   UNL A   1      36.251  32.904  30.546  1.00  0.00    -0.237 OA
ATOM     78  O   UNL A   1      36.687  31.699  32.649  1.00  0.00    -0.744 OA
ENDBRANCH  74  75
ENDBRANCH  55  69
BRANCH  56  79
ATOM     79  C   UNL A   1      49.496  26.703  27.321  1.00  0.00    -0.014 A 
ATOM     80  C   UNL A   1      50.589  26.917  28.169  1.00  0.00     0.010 A 
ATOM     81  C   UNL A   1      49.812  26.343  25.982  1.00  0.00     0.010 A 
ATOM     82  C   UNL A   1      51.904  26.618  27.752  1.00  0.00     0.020 A 
ATOM     83  C   UNL A   1      51.099  25.990  25.572  1.00  0.00     0.020 A 
ATOM     84  C   UNL A   1      52.141  26.098  26.478  1.00  0.00     0.054 A 
BRANCH  84  85
ATOM     85  S   UNL A   1      53.764  25.412  26.049  1.00  0.00     0.124 S 
ATOM     86  O   UNL A   1      53.417  24.103  25.509  1.00  0.00    -0.237 OA
ATOM     87  O   UNL A   1      54.277  26.381  25.081  1.00  0.00    -0.237 OA
ATOM     88  O   UNL A   1      54.473  25.397  27.328  1.00  0.00    -0.744 OA
ENDBRANCH  84  85
ENDBRANCH  56  79
BRANCH  68  89
ATOM     89  C   UNL A   1      44.696  28.288  30.866  1.00  0.00    -0.014 A 
ATOM     90  C   UNL A   1      44.215  26.973  30.719  1.00  0.00     0.010 A 
ATOM     91  C   UNL A   1      44.893  28.758  32.179  1.00  0.00     0.010 A 
ATOM     92  C   UNL A   1      43.932  26.164  31.829  1.00  0.00     0.020 A 
ATOM     93  C   UNL A   1      44.617  27.954  33.302  1.00  0.00     0.020 A 
ATOM     94  C   UNL A   1      44.135  26.658  33.119  1.00  0.00     0.054 A 
BRANCH  94  95
ATOM     95  S   UNL A   1      43.750  25.587  34.536  1.00  0.00     0.124 S 
ATOM     96  O   UNL A   1      44.868  25.837  35.443  1.00  0.00    -0.237 OA
ATOM     97  O   UNL A   1      42.458  26.104  34.981  1.00  0.00    -0.237 OA
ATOM     98  O   UNL A   1      43.716  24.243  33.962  1.00  0.00    -0.744 OA
ENDBRANCH  94  95
ENDBRANCH  68  89
ENDBRANCH  42  43
ENDBRANCH  34  37
ENDBRANCH  32  33
ENDBRANCH  31  32
ENDBRANCH   1  31
TORSDOF 20
ENDMDL
