MODEL 1
REMARK VINA RESULT:     -10.7      0.000      0.000
REMARK SMILES COCC[N@H+]1C[C@@H]2CN(c3nc(CO)cs3)C[C@]2(C(=O)NCCCCNC(=O)c2ccc(-c3c4nc(c(-c5ccc(S(=O)(=O)[O-])cc5)c5ccc([nH]5)c(-c5ccc(S(=O)(=O)[O-])cc5)c5nc(c(-c6ccc(S(=O)(=O)[O-])cc6)c6ccc3[nH]6)C=C5)C=C4)cc2)C1
REMARK SMILES IDX 23 1 22 2 21 3 19 4 20 5 18 7 5 8 6 9 89 10 7 12 8 13 17 14
REMARK SMILES IDX 9 15 4 16 3 17 2 18 1 19 10 20 11 21 16 22 12 23 15 24 13 25
REMARK SMILES IDX 14 26 24 28 25 29 26 30 27 31 28 33 29 34 30 35 88 36 31 37
REMARK SMILES IDX 87 38 32 39 33 40 34 41 81 42 35 43 86 44 80 45 82 46 36 47
REMARK SMILES IDX 85 48 79 49 78 50 37 52 67 53 48 54 66 55 49 56 52 57 65 58
REMARK SMILES IDX 83 59 50 60 51 61 64 63 84 64 53 65 38 66 39 67 47 68 40 69
REMARK SMILES IDX 46 70 41 71 42 72 43 73 44 74 45 75 68 76 69 77 77 78 70 79
REMARK SMILES IDX 76 80 71 81 72 82 73 83 74 84 75 85 54 86 55 87 63 88 56 89
REMARK SMILES IDX 62 90 57 91 58 92 59 93 60 94 61 95
REMARK H PARENT 21 6 5 11 14 27 26 32 82 51 52 62
REMARK Flexibility Score: inf
ROOT
ATOM      1  C   UNL A   1      37.844  21.353  25.029  1.00  0.00     0.023 C 
ENDROOT
BRANCH   1   2
ATOM      2  C   UNL A   1      36.340  21.154  24.843  1.00  0.00     0.116 C 
BRANCH   2   3
ATOM      3  N   UNL A   1      35.712  20.977  26.132  1.00  0.00    -0.355 N 
ATOM      4  C   UNL A   1      34.405  21.236  26.434  1.00  0.00     0.234 C 
ATOM      5  O   UNL A   1      34.132  21.527  27.602  1.00  0.00    -0.274 OA
ATOM      6  H   UNL A   1      36.280  20.636  26.861  1.00  0.00     0.163 HD
BRANCH   4   7
ATOM      7  C   UNL A   1      33.383  21.181  25.294  1.00  0.00     0.125 C 
ATOM      8  N   UNL A   1      33.130  18.938  24.371  1.00  0.00    -0.332 N 
ATOM      9  C   UNL A   1      32.460  19.810  23.427  1.00  0.00     0.269 C 
ATOM     10  C   UNL A   1      33.094  19.642  25.678  1.00  0.00     0.281 C 
ATOM     11  H   UNL A   1      34.084  18.777  24.051  1.00  0.00     0.348 HD
ATOM     12  C   UNL A   1      32.250  21.037  24.269  1.00  0.00     0.087 C 
ATOM     13  C   UNL A   1      32.200  22.341  23.519  1.00  0.00     0.129 C 
ATOM     14  C   UNL A   1      32.668  22.519  25.851  1.00  0.00     0.142 C 
ATOM     15  N   UNL A   1      32.257  23.268  24.628  1.00  0.00    -0.346 N 
BRANCH   8  16
ATOM     16  C   UNL A   1      32.608  17.568  24.452  1.00  0.00     0.291 C 
BRANCH  16  17
ATOM     17  C   UNL A   1      33.605  16.461  24.040  1.00  0.00     0.221 C 
BRANCH  17  18
ATOM     18  O   UNL A   1      33.496  15.253  24.794  1.00  0.00    -0.379 OA
ATOM     19  C   UNL A   1      32.392  15.238  25.688  1.00  0.00     0.195 C 
ENDBRANCH  17  18
ENDBRANCH  16  17
ENDBRANCH   8  16
BRANCH  15  20
ATOM     20  C   UNL A   1      32.731  24.518  24.388  1.00  0.00     0.185 A 
ATOM     21  N   UNL A   1      32.523  25.191  23.274  1.00  0.00    -0.223 NA
ATOM     22  S   UNL A   1      33.605  25.387  25.593  1.00  0.00    -0.105 S 
ATOM     23  C   UNL A   1      33.160  26.428  23.317  1.00  0.00     0.079 A 
ATOM     24  C   UNL A   1      33.735  26.727  24.537  1.00  0.00     0.095 A 
BRANCH  23  25
ATOM     25  C   UNL A   1      33.201  27.290  22.094  1.00  0.00     0.213 C 
BRANCH  25  26
ATOM     26  O   UNL A   1      33.440  26.536  20.912  1.00  0.00    -0.390 OA
ATOM     27  H   UNL A   1      34.271  26.826  20.505  1.00  0.00     0.211 HD
ENDBRANCH  25  26
ENDBRANCH  23  25
ENDBRANCH  15  20
ENDBRANCH   4   7
ENDBRANCH   2   3
ENDBRANCH   1   2
BRANCH   1  28
ATOM     28  C   UNL A   1      38.670  20.073  25.107  1.00  0.00     0.023 C 
BRANCH  28  29
ATOM     29  C   UNL A   1      39.559  19.981  26.337  1.00  0.00     0.116 C 
BRANCH  29  30
ATOM     30  N   UNL A   1      40.782  19.224  26.099  1.00  0.00    -0.352 N 
ATOM     31  C   UNL A   1      42.080  19.676  26.036  1.00  0.00     0.251 C 
ATOM     32  H   UNL A   1      40.662  18.256  25.966  1.00  0.00     0.163 HD
ATOM     33  O   UNL A   1      42.978  18.930  25.687  1.00  0.00    -0.269 OA
BRANCH  31  34
ATOM     34  C   UNL A   1      42.350  21.088  26.376  1.00  0.00     0.039 A 
ATOM     35  C   UNL A   1      42.696  21.417  27.688  1.00  0.00     0.014 A 
ATOM     36  C   UNL A   1      42.323  22.063  25.377  1.00  0.00     0.014 A 
ATOM     37  C   UNL A   1      43.091  22.723  27.980  1.00  0.00     0.010 A 
ATOM     38  C   UNL A   1      42.803  23.335  25.651  1.00  0.00     0.010 A 
ATOM     39  C   UNL A   1      43.186  23.679  26.955  1.00  0.00    -0.014 A 
BRANCH  39  40
ATOM     40  C   UNL A   1      43.683  25.050  27.217  1.00  0.00     0.031 A 
ATOM     41  C   UNL A   1      45.129  25.381  26.976  1.00  0.00     0.074 A 
ATOM     42  C   UNL A   1      42.857  25.965  27.761  1.00  0.00     0.049 A 
ATOM     43  N   UNL A   1      45.772  26.495  27.215  1.00  0.00    -0.248 NA
ATOM     44  C   UNL A   1      45.974  24.304  26.433  1.00  0.00     0.031 C 
ATOM     45  C   UNL A   1      41.453  25.737  28.112  1.00  0.00     0.029 A 
ATOM     46  N   UNL A   1      43.085  27.266  28.128  1.00  0.00    -0.354 N 
ATOM     47  C   UNL A   1      47.095  26.244  26.877  1.00  0.00     0.074 A 
ATOM     48  C   UNL A   1      47.175  24.857  26.476  1.00  0.00     0.031 C 
ATOM     49  C   UNL A   1      40.938  26.868  28.622  1.00  0.00     0.029 A 
ATOM     50  C   UNL A   1      41.982  27.888  28.664  1.00  0.00     0.049 A 
ATOM     51  H   UNL A   1      43.955  27.712  28.020  1.00  0.00     0.167 HD
ATOM     52  C   UNL A   1      48.148  27.097  26.876  1.00  0.00     0.031 A 
ATOM     53  C   UNL A   1      41.828  29.139  29.137  1.00  0.00     0.031 A 
ATOM     54  C   UNL A   1      48.058  28.478  27.262  1.00  0.00     0.049 A 
ATOM     55  C   UNL A   1      42.993  30.086  29.088  1.00  0.00     0.074 A 
ATOM     56  C   UNL A   1      49.043  29.448  27.234  1.00  0.00     0.029 A 
ATOM     57  N   UNL A   1      46.909  29.087  27.750  1.00  0.00    -0.354 N 
ATOM     58  N   UNL A   1      44.222  29.855  28.687  1.00  0.00    -0.248 NA
ATOM     59  C   UNL A   1      42.749  31.461  29.536  1.00  0.00     0.031 C 
ATOM     60  C   UNL A   1      48.500  30.634  27.741  1.00  0.00     0.029 A 
ATOM     61  C   UNL A   1      47.165  30.415  28.042  1.00  0.00     0.049 A 
ATOM     62  H   UNL A   1      46.042  28.638  27.870  1.00  0.00     0.167 HD
ATOM     63  C   UNL A   1      44.896  31.062  28.822  1.00  0.00     0.074 A 
ATOM     64  C   UNL A   1      43.932  32.023  29.324  1.00  0.00     0.031 C 
ATOM     65  C   UNL A   1      46.194  31.351  28.554  1.00  0.00     0.031 A 
BRANCH  52  66
ATOM     66  C   UNL A   1      49.478  26.537  26.446  1.00  0.00    -0.014 A 
ATOM     67  C   UNL A   1      50.310  25.862  27.360  1.00  0.00     0.010 A 
ATOM     68  C   UNL A   1      49.918  26.709  25.122  1.00  0.00     0.010 A 
ATOM     69  C   UNL A   1      51.585  25.438  26.979  1.00  0.00     0.020 A 
ATOM     70  C   UNL A   1      51.181  26.258  24.728  1.00  0.00     0.020 A 
ATOM     71  C   UNL A   1      52.017  25.651  25.667  1.00  0.00     0.054 A 
BRANCH  71  72
ATOM     72  S   UNL A   1      53.688  25.117  25.203  1.00  0.00     0.124 S 
ATOM     73  O   UNL A   1      53.574  23.664  25.296  1.00  0.00    -0.237 OA
ATOM     74  O   UNL A   1      53.833  25.649  23.851  1.00  0.00    -0.237 OA
ATOM     75  O   UNL A   1      54.541  25.741  26.210  1.00  0.00    -0.744 OA
ENDBRANCH  71  72
ENDBRANCH  52  66
BRANCH  53  76
ATOM     76  C   UNL A   1      40.502  29.563  29.658  1.00  0.00    -0.014 A 
ATOM     77  C   UNL A   1      40.248  29.565  31.041  1.00  0.00     0.010 A 
ATOM     78  C   UNL A   1      39.511  30.038  28.779  1.00  0.00     0.010 A 
ATOM     79  C   UNL A   1      39.030  30.038  31.536  1.00  0.00     0.020 A 
ATOM     80  C   UNL A   1      38.301  30.533  29.272  1.00  0.00     0.020 A 
ATOM     81  C   UNL A   1      38.066  30.527  30.649  1.00  0.00     0.054 A 
BRANCH  81  82
ATOM     82  S   UNL A   1      36.534  31.231  31.322  1.00  0.00     0.124 S 
ATOM     83  O   UNL A   1      35.722  31.394  30.119  1.00  0.00    -0.237 OA
ATOM     84  O   UNL A   1      36.090  30.193  32.248  1.00  0.00    -0.237 OA
ATOM     85  O   UNL A   1      36.976  32.471  31.955  1.00  0.00    -0.744 OA
ENDBRANCH  81  82
ENDBRANCH  53  76
BRANCH  65  86
ATOM     86  C   UNL A   1      46.647  32.765  28.790  1.00  0.00    -0.014 A 
ATOM     87  C   UNL A   1      47.159  33.163  30.038  1.00  0.00     0.010 A 
ATOM     88  C   UNL A   1      46.606  33.694  27.735  1.00  0.00     0.010 A 
ATOM     89  C   UNL A   1      47.598  34.476  30.234  1.00  0.00     0.020 A 
ATOM     90  C   UNL A   1      47.065  34.999  27.919  1.00  0.00     0.020 A 
ATOM     91  C   UNL A   1      47.545  35.386  29.173  1.00  0.00     0.054 A 
BRANCH  91  92
ATOM     92  S   UNL A   1      48.159  37.072  29.438  1.00  0.00     0.124 S 
ATOM     93  O   UNL A   1      48.953  37.297  28.233  1.00  0.00    -0.237 OA
ATOM     94  O   UNL A   1      46.929  37.852  29.536  1.00  0.00    -0.237 OA
ATOM     95  O   UNL A   1      48.925  36.969  30.678  1.00  0.00    -0.744 OA
ENDBRANCH  91  92
ENDBRANCH  65  86
ENDBRANCH  39  40
ENDBRANCH  31  34
ENDBRANCH  29  30
ENDBRANCH  28  29
ENDBRANCH   1  28
TORSDOF 20
ENDMDL
MODEL 2
REMARK VINA RESULT:     -10.5      2.681      9.106
REMARK SMILES COCC[N@H+]1C[C@@H]2CN(c3nc(CO)cs3)C[C@]2(C(=O)NCCCCNC(=O)c2ccc(-c3c4nc(c(-c5ccc(S(=O)(=O)[O-])cc5)c5ccc([nH]5)c(-c5ccc(S(=O)(=O)[O-])cc5)c5nc(c(-c6ccc(S(=O)(=O)[O-])cc6)c6ccc3[nH]6)C=C5)C=C4)cc2)C1
REMARK SMILES IDX 23 1 22 2 21 3 19 4 20 5 18 7 5 8 6 9 89 10 7 12 8 13 17 14
REMARK SMILES IDX 9 15 4 16 3 17 2 18 1 19 10 20 11 21 16 22 12 23 15 24 13 25
REMARK SMILES IDX 14 26 24 28 25 29 26 30 27 31 28 33 29 34 30 35 88 36 31 37
REMARK SMILES IDX 87 38 32 39 33 40 34 41 81 42 35 43 86 44 80 45 82 46 36 47
REMARK SMILES IDX 85 48 79 49 78 50 37 52 67 53 48 54 66 55 49 56 52 57 65 58
REMARK SMILES IDX 83 59 50 60 51 61 64 63 84 64 53 65 38 66 39 67 47 68 40 69
REMARK SMILES IDX 46 70 41 71 42 72 43 73 44 74 45 75 68 76 69 77 77 78 70 79
REMARK SMILES IDX 76 80 71 81 72 82 73 83 74 84 75 85 54 86 55 87 63 88 56 89
REMARK SMILES IDX 62 90 57 91 58 92 59 93 60 94 61 95
REMARK H PARENT 21 6 5 11 14 27 26 32 82 51 52 62
REMARK Flexibility Score: inf
ROOT
ATOM      1  C   UNL A   1      33.935  28.679  26.413  1.00  0.00     0.023 C 
ENDROOT
BRANCH   1   2
ATOM      2  C   UNL A   1      32.836  29.108  25.442  1.00  0.00     0.116 C 
BRANCH   2   3
ATOM      3  N   UNL A   1      33.413  29.380  24.146  1.00  0.00    -0.355 N 
ATOM      4  C   UNL A   1      33.284  28.605  23.028  1.00  0.00     0.234 C 
ATOM      5  O   UNL A   1      34.185  28.656  22.186  1.00  0.00    -0.274 OA
ATOM      6  H   UNL A   1      33.949  30.201  24.061  1.00  0.00     0.163 HD
BRANCH   4   7
ATOM      7  C   UNL A   1      32.050  27.705  22.920  1.00  0.00     0.125 C 
ATOM      8  N   UNL A   1      29.964  28.938  23.199  1.00  0.00    -0.332 N 
ATOM      9  C   UNL A   1      29.588  27.541  23.285  1.00  0.00     0.269 C 
ATOM     10  C   UNL A   1      31.212  28.979  22.396  1.00  0.00     0.281 C 
ATOM     11  H   UNL A   1      30.105  29.299  24.141  1.00  0.00     0.348 HD
ATOM     12  C   UNL A   1      30.782  26.884  22.650  1.00  0.00     0.087 C 
ATOM     13  C   UNL A   1      31.083  25.487  23.123  1.00  0.00     0.129 C 
ATOM     14  C   UNL A   1      32.894  26.623  22.068  1.00  0.00     0.142 C 
ATOM     15  N   UNL A   1      32.385  25.297  22.523  1.00  0.00    -0.346 N 
BRANCH   8  16
ATOM     16  C   UNL A   1      28.930  29.845  22.684  1.00  0.00     0.291 C 
BRANCH  16  17
ATOM     17  C   UNL A   1      28.821  31.200  23.419  1.00  0.00     0.221 C 
BRANCH  17  18
ATOM     18  O   UNL A   1      28.704  32.334  22.559  1.00  0.00    -0.379 OA
ATOM     19  C   UNL A   1      29.043  33.562  23.187  1.00  0.00     0.195 C 
ENDBRANCH  17  18
ENDBRANCH  16  17
ENDBRANCH   8  16
BRANCH  15  20
ATOM     20  C   UNL A   1      33.222  24.392  23.094  1.00  0.00     0.185 A 
ATOM     21  N   UNL A   1      34.510  24.300  22.830  1.00  0.00    -0.223 NA
ATOM     22  S   UNL A   1      32.665  23.306  24.311  1.00  0.00    -0.105 S 
ATOM     23  C   UNL A   1      35.090  23.258  23.549  1.00  0.00     0.079 A 
ATOM     24  C   UNL A   1      34.242  22.658  24.459  1.00  0.00     0.095 A 
BRANCH  23  25
ATOM     25  C   UNL A   1      36.507  22.861  23.278  1.00  0.00     0.213 C 
BRANCH  25  26
ATOM     26  O   UNL A   1      37.410  23.409  24.230  1.00  0.00    -0.390 OA
ATOM     27  H   UNL A   1      38.280  22.991  24.129  1.00  0.00     0.211 HD
ENDBRANCH  25  26
ENDBRANCH  23  25
ENDBRANCH  15  20
ENDBRANCH   4   7
ENDBRANCH   2   3
ENDBRANCH   1   2
BRANCH   1  28
ATOM     28  C   UNL A   1      34.564  29.802  27.230  1.00  0.00     0.023 C 
BRANCH  28  29
ATOM     29  C   UNL A   1      35.764  29.372  28.059  1.00  0.00     0.116 C 
BRANCH  29  30
ATOM     30  N   UNL A   1      35.606  29.660  29.480  1.00  0.00    -0.352 N 
ATOM     31  C   UNL A   1      36.570  29.732  30.459  1.00  0.00     0.251 C 
ATOM     32  H   UNL A   1      34.684  29.828  29.778  1.00  0.00     0.163 HD
ATOM     33  O   UNL A   1      36.254  29.845  31.630  1.00  0.00    -0.269 OA
BRANCH  31  34
ATOM     34  C   UNL A   1      37.989  29.643  30.057  1.00  0.00     0.039 A 
ATOM     35  C   UNL A   1      38.910  29.069  30.934  1.00  0.00     0.014 A 
ATOM     36  C   UNL A   1      38.381  30.069  28.786  1.00  0.00     0.014 A 
ATOM     37  C   UNL A   1      40.219  28.854  30.501  1.00  0.00     0.010 A 
ATOM     38  C   UNL A   1      39.656  29.770  28.328  1.00  0.00     0.010 A 
ATOM     39  C   UNL A   1      40.588  29.165  29.182  1.00  0.00    -0.014 A 
BRANCH  39  40
ATOM     40  C   UNL A   1      41.946  28.869  28.667  1.00  0.00     0.031 A 
ATOM     41  C   UNL A   1      42.277  27.487  28.180  1.00  0.00     0.074 A 
ATOM     42  C   UNL A   1      42.901  29.817  28.728  1.00  0.00     0.049 A 
ATOM     43  N   UNL A   1      43.422  27.010  27.765  1.00  0.00    -0.248 NA
ATOM     44  C   UNL A   1      41.186  26.498  28.202  1.00  0.00     0.031 C 
ATOM     45  C   UNL A   1      42.720  31.173  29.252  1.00  0.00     0.029 A 
ATOM     46  N   UNL A   1      44.222  29.777  28.359  1.00  0.00    -0.354 N 
ATOM     47  C   UNL A   1      43.195  25.665  27.502  1.00  0.00     0.074 A 
ATOM     48  C   UNL A   1      41.822  25.388  27.862  1.00  0.00     0.031 C 
ATOM     49  C   UNL A   1      43.879  31.843  29.150  1.00  0.00     0.029 A 
ATOM     50  C   UNL A   1      44.892  30.956  28.584  1.00  0.00     0.049 A 
ATOM     51  H   UNL A   1      44.649  28.980  27.971  1.00  0.00     0.167 HD
ATOM     52  C   UNL A   1      44.045  24.746  26.984  1.00  0.00     0.031 A 
ATOM     53  C   UNL A   1      46.177  31.287  28.360  1.00  0.00     0.031 A 
ATOM     54  C   UNL A   1      45.404  25.032  26.614  1.00  0.00     0.049 A 
ATOM     55  C   UNL A   1      47.095  30.271  27.744  1.00  0.00     0.074 A 
ATOM     56  C   UNL A   1      46.331  24.197  26.017  1.00  0.00     0.029 A 
ATOM     57  N   UNL A   1      46.032  26.255  26.809  1.00  0.00    -0.354 N 
ATOM     58  N   UNL A   1      46.842  29.023  27.424  1.00  0.00    -0.248 NA
ATOM     59  C   UNL A   1      48.463  30.708  27.442  1.00  0.00     0.031 C 
ATOM     60  C   UNL A   1      47.532  24.904  25.887  1.00  0.00     0.029 A 
ATOM     61  C   UNL A   1      47.339  26.193  26.359  1.00  0.00     0.049 A 
ATOM     62  H   UNL A   1      45.609  27.049  27.208  1.00  0.00     0.167 HD
ATOM     63  C   UNL A   1      48.016  28.529  26.870  1.00  0.00     0.074 A 
ATOM     64  C   UNL A   1      48.973  29.619  26.882  1.00  0.00     0.031 C 
ATOM     65  C   UNL A   1      48.279  27.286  26.393  1.00  0.00     0.031 A 
BRANCH  52  66
ATOM     66  C   UNL A   1      43.510  23.350  26.800  1.00  0.00    -0.014 A 
ATOM     67  C   UNL A   1      43.190  22.545  27.910  1.00  0.00     0.010 A 
ATOM     68  C   UNL A   1      43.349  22.825  25.506  1.00  0.00     0.010 A 
ATOM     69  C   UNL A   1      42.794  21.218  27.731  1.00  0.00     0.020 A 
ATOM     70  C   UNL A   1      42.922  21.506  25.322  1.00  0.00     0.020 A 
ATOM     71  C   UNL A   1      42.675  20.703  26.438  1.00  0.00     0.054 A 
BRANCH  71  72
ATOM     72  S   UNL A   1      42.186  18.968  26.232  1.00  0.00     0.124 S 
ATOM     73  O   UNL A   1      42.345  18.450  27.588  1.00  0.00    -0.237 OA
ATOM     74  O   UNL A   1      40.808  19.074  25.759  1.00  0.00    -0.237 OA
ATOM     75  O   UNL A   1      43.139  18.455  25.252  1.00  0.00    -0.744 OA
ENDBRANCH  71  72
ENDBRANCH  52  66
BRANCH  53  76
ATOM     76  C   UNL A   1      46.645  32.659  28.691  1.00  0.00    -0.014 A 
ATOM     77  C   UNL A   1      47.178  32.942  29.961  1.00  0.00     0.010 A 
ATOM     78  C   UNL A   1      46.629  33.671  27.714  1.00  0.00     0.010 A 
ATOM     79  C   UNL A   1      47.690  34.210  30.247  1.00  0.00     0.020 A 
ATOM     80  C   UNL A   1      47.162  34.934  27.988  1.00  0.00     0.020 A 
ATOM     81  C   UNL A   1      47.687  35.197  29.256  1.00  0.00     0.054 A 
BRANCH  81  82
ATOM     82  S   UNL A   1      48.450  36.804  29.617  1.00  0.00     0.124 S 
ATOM     83  O   UNL A   1      49.351  36.974  28.481  1.00  0.00    -0.237 OA
ATOM     84  O   UNL A   1      47.297  37.701  29.650  1.00  0.00    -0.237 OA
ATOM     85  O   UNL A   1      49.100  36.591  30.908  1.00  0.00    -0.744 OA
ENDBRANCH  81  82
ENDBRANCH  53  76
BRANCH  65  86
ATOM     86  C   UNL A   1      49.655  27.041  25.837  1.00  0.00    -0.014 A 
ATOM     87  C   UNL A   1      50.639  26.388  26.599  1.00  0.00     0.010 A 
ATOM     88  C   UNL A   1      49.948  27.423  24.516  1.00  0.00     0.010 A 
ATOM     89  C   UNL A   1      51.905  26.147  26.058  1.00  0.00     0.020 A 
ATOM     90  C   UNL A   1      51.204  27.163  23.963  1.00  0.00     0.020 A 
ATOM     91  C   UNL A   1      52.180  26.538  24.744  1.00  0.00     0.054 A 
BRANCH  91  92
ATOM     92  S   UNL A   1      53.815  26.177  24.049  1.00  0.00     0.124 S 
ATOM     93  O   UNL A   1      54.158  24.925  24.718  1.00  0.00    -0.237 OA
ATOM     94  O   UNL A   1      53.541  26.070  22.619  1.00  0.00    -0.237 OA
ATOM     95  O   UNL A   1      54.619  27.333  24.439  1.00  0.00    -0.744 OA
ENDBRANCH  91  92
ENDBRANCH  65  86
ENDBRANCH  39  40
ENDBRANCH  31  34
ENDBRANCH  29  30
ENDBRANCH  28  29
ENDBRANCH   1  28
TORSDOF 20
ENDMDL
MODEL 3
REMARK VINA RESULT:     -10.3      5.328     10.173
REMARK SMILES COCC[N@H+]1C[C@@H]2CN(c3nc(CO)cs3)C[C@]2(C(=O)NCCCCNC(=O)c2ccc(-c3c4nc(c(-c5ccc(S(=O)(=O)[O-])cc5)c5ccc([nH]5)c(-c5ccc(S(=O)(=O)[O-])cc5)c5nc(c(-c6ccc(S(=O)(=O)[O-])cc6)c6ccc3[nH]6)C=C5)C=C4)cc2)C1
REMARK SMILES IDX 23 1 22 2 21 3 19 4 20 5 18 7 5 8 6 9 89 10 7 12 8 13 17 14
REMARK SMILES IDX 9 15 4 16 3 17 2 18 1 19 10 20 11 21 16 22 12 23 15 24 13 25
REMARK SMILES IDX 14 26 24 28 25 29 26 30 27 31 28 33 29 34 30 35 88 36 31 37
REMARK SMILES IDX 87 38 32 39 33 40 34 41 81 42 35 43 86 44 80 45 82 46 36 47
REMARK SMILES IDX 85 48 79 49 78 50 37 52 67 53 48 54 66 55 49 56 52 57 65 58
REMARK SMILES IDX 83 59 50 60 51 61 64 63 84 64 53 65 38 66 39 67 47 68 40 69
REMARK SMILES IDX 46 70 41 71 42 72 43 73 44 74 45 75 68 76 69 77 77 78 70 79
REMARK SMILES IDX 76 80 71 81 72 82 73 83 74 84 75 85 54 86 55 87 63 88 56 89
REMARK SMILES IDX 62 90 57 91 58 92 59 93 60 94 61 95
REMARK H PARENT 21 6 5 11 14 27 26 32 82 51 52 62
REMARK Flexibility Score: inf
ROOT
ATOM      1  C   UNL A   1      32.689  27.600  26.922  1.00  0.00     0.023 C 
ENDROOT
BRANCH   1   2
ATOM      2  C   UNL A   1      31.360  27.059  26.398  1.00  0.00     0.116 C 
BRANCH   2   3
ATOM      3  N   UNL A   1      31.256  25.650  26.701  1.00  0.00    -0.355 N 
ATOM      4  C   UNL A   1      31.259  24.629  25.793  1.00  0.00     0.234 C 
ATOM      5  O   UNL A   1      30.679  23.584  26.102  1.00  0.00    -0.274 OA
ATOM      6  H   UNL A   1      31.177  25.403  27.651  1.00  0.00     0.163 HD
BRANCH   4   7
ATOM      7  C   UNL A   1      31.950  24.869  24.448  1.00  0.00     0.125 C 
ATOM      8  N   UNL A   1      34.061  23.664  24.251  1.00  0.00    -0.332 N 
ATOM      9  C   UNL A   1      34.059  24.600  23.144  1.00  0.00     0.269 C 
ATOM     10  C   UNL A   1      32.636  23.416  24.582  1.00  0.00     0.281 C 
ATOM     11  H   UNL A   1      34.567  24.079  25.032  1.00  0.00     0.348 HD
ATOM     12  C   UNL A   1      32.597  24.938  23.058  1.00  0.00     0.087 C 
ATOM     13  C   UNL A   1      32.276  26.306  22.517  1.00  0.00     0.129 C 
ATOM     14  C   UNL A   1      30.536  25.268  23.776  1.00  0.00     0.142 C 
ATOM     15  N   UNL A   1      30.864  26.369  22.824  1.00  0.00    -0.346 N 
BRANCH   8  16
ATOM     16  C   UNL A   1      34.816  22.423  24.033  1.00  0.00     0.291 C 
BRANCH  16  17
ATOM     17  C   UNL A   1      36.351  22.564  24.133  1.00  0.00     0.221 C 
BRANCH  17  18
ATOM     18  O   UNL A   1      37.009  21.459  24.755  1.00  0.00    -0.379 OA
ATOM     19  C   UNL A   1      38.111  21.838  25.569  1.00  0.00     0.195 C 
ENDBRANCH  17  18
ENDBRANCH  16  17
ENDBRANCH   8  16
BRANCH  15  20
ATOM     20  C   UNL A   1      30.297  27.595  22.959  1.00  0.00     0.185 A 
ATOM     21  N   UNL A   1      28.998  27.819  22.959  1.00  0.00    -0.223 NA
ATOM     22  S   UNL A   1      31.261  28.997  23.235  1.00  0.00    -0.105 S 
ATOM     23  C   UNL A   1      28.729  29.178  23.088  1.00  0.00     0.079 A 
ATOM     24  C   UNL A   1      29.846  29.957  23.322  1.00  0.00     0.095 A 
BRANCH  23  25
ATOM     25  C   UNL A   1      27.327  29.681  22.940  1.00  0.00     0.213 C 
BRANCH  25  26
ATOM     26  O   UNL A   1      26.372  28.627  22.976  1.00  0.00    -0.390 OA
ATOM     27  H   UNL A   1      26.557  28.047  23.731  1.00  0.00     0.211 HD
ENDBRANCH  25  26
ENDBRANCH  23  25
ENDBRANCH  15  20
ENDBRANCH   4   7
ENDBRANCH   2   3
ENDBRANCH   1   2
BRANCH   1  28
ATOM     28  C   UNL A   1      33.864  27.502  25.956  1.00  0.00     0.023 C 
BRANCH  28  29
ATOM     29  C   UNL A   1      34.757  28.733  25.934  1.00  0.00     0.116 C 
BRANCH  29  30
ATOM     30  N   UNL A   1      34.057  29.950  26.325  1.00  0.00    -0.352 N 
ATOM     31  C   UNL A   1      34.306  30.785  27.390  1.00  0.00     0.251 C 
ATOM     32  H   UNL A   1      33.304  30.210  25.748  1.00  0.00     0.163 HD
ATOM     33  O   UNL A   1      33.535  31.690  27.659  1.00  0.00    -0.269 OA
BRANCH  31  34
ATOM     34  C   UNL A   1      35.511  30.542  28.208  1.00  0.00     0.039 A 
ATOM     35  C   UNL A   1      35.436  29.657  29.285  1.00  0.00     0.014 A 
ATOM     36  C   UNL A   1      36.723  31.143  27.860  1.00  0.00     0.014 A 
ATOM     37  C   UNL A   1      36.603  29.316  29.969  1.00  0.00     0.010 A 
ATOM     38  C   UNL A   1      37.893  30.732  28.481  1.00  0.00     0.010 A 
ATOM     39  C   UNL A   1      37.844  29.820  29.545  1.00  0.00    -0.014 A 
BRANCH  39  40
ATOM     40  C   UNL A   1      39.111  29.410  30.196  1.00  0.00     0.031 A 
ATOM     41  C   UNL A   1      39.601  30.148  31.410  1.00  0.00     0.074 A 
ATOM     42  C   UNL A   1      39.861  28.440  29.639  1.00  0.00     0.049 A 
ATOM     43  N   UNL A   1      40.716  29.994  32.075  1.00  0.00    -0.248 NA
ATOM     44  C   UNL A   1      38.743  31.232  31.917  1.00  0.00     0.031 C 
ATOM     45  C   UNL A   1      39.527  27.704  28.417  1.00  0.00     0.029 A 
ATOM     46  N   UNL A   1      41.071  27.918  30.022  1.00  0.00    -0.354 N 
ATOM     47  C   UNL A   1      40.705  30.973  33.059  1.00  0.00     0.074 A 
ATOM     48  C   UNL A   1      39.503  31.755  32.866  1.00  0.00     0.031 C 
ATOM     49  C   UNL A   1      40.497  26.810  28.164  1.00  0.00     0.029 A 
ATOM     50  C   UNL A   1      41.534  26.931  29.184  1.00  0.00     0.049 A 
ATOM     51  H   UNL A   1      41.561  28.222  30.819  1.00  0.00     0.167 HD
ATOM     52  C   UNL A   1      41.600  31.189  34.053  1.00  0.00     0.031 A 
ATOM     53  C   UNL A   1      42.666  26.205  29.232  1.00  0.00     0.031 A 
ATOM     54  C   UNL A   1      42.784  30.399  34.248  1.00  0.00     0.049 A 
ATOM     55  C   UNL A   1      43.628  26.427  30.364  1.00  0.00     0.074 A 
ATOM     56  C   UNL A   1      43.723  30.486  35.259  1.00  0.00     0.029 A 
ATOM     57  N   UNL A   1      43.193  29.372  33.408  1.00  0.00    -0.354 N 
ATOM     58  N   UNL A   1      43.561  27.306  31.337  1.00  0.00    -0.248 NA
ATOM     59  C   UNL A   1      44.804  25.552  30.416  1.00  0.00     0.031 C 
ATOM     60  C   UNL A   1      44.721  29.536  35.009  1.00  0.00     0.029 A 
ATOM     61  C   UNL A   1      44.379  28.827  33.869  1.00  0.00     0.049 A 
ATOM     62  H   UNL A   1      42.709  29.076  32.603  1.00  0.00     0.167 HD
ATOM     63  C   UNL A   1      44.682  27.080  32.127  1.00  0.00     0.074 A 
ATOM     64  C   UNL A   1      45.397  25.970  31.527  1.00  0.00     0.031 C 
ATOM     65  C   UNL A   1      45.082  27.731  33.248  1.00  0.00     0.031 A 
BRANCH  52  66
ATOM     66  C   UNL A   1      41.317  32.335  34.988  1.00  0.00    -0.014 A 
ATOM     67  C   UNL A   1      41.756  33.639  34.691  1.00  0.00     0.010 A 
ATOM     68  C   UNL A   1      40.626  32.105  36.192  1.00  0.00     0.010 A 
ATOM     69  C   UNL A   1      41.579  34.674  35.613  1.00  0.00     0.020 A 
ATOM     70  C   UNL A   1      40.419  33.145  37.103  1.00  0.00     0.020 A 
ATOM     71  C   UNL A   1      40.923  34.416  36.819  1.00  0.00     0.054 A 
BRANCH  71  72
ATOM     72  S   UNL A   1      40.730  35.769  38.013  1.00  0.00     0.124 S 
ATOM     73  O   UNL A   1      40.076  36.792  37.201  1.00  0.00    -0.237 OA
ATOM     74  O   UNL A   1      39.898  35.167  39.052  1.00  0.00    -0.237 OA
ATOM     75  O   UNL A   1      42.100  36.072  38.415  1.00  0.00    -0.744 OA
ENDBRANCH  71  72
ENDBRANCH  52  66
BRANCH  53  76
ATOM     76  C   UNL A   1      42.918  25.178  28.187  1.00  0.00    -0.014 A 
ATOM     77  C   UNL A   1      43.608  25.514  27.009  1.00  0.00     0.010 A 
ATOM     78  C   UNL A   1      42.535  23.840  28.398  1.00  0.00     0.010 A 
ATOM     79  C   UNL A   1      43.914  24.533  26.063  1.00  0.00     0.020 A 
ATOM     80  C   UNL A   1      42.859  22.852  27.464  1.00  0.00     0.020 A 
ATOM     81  C   UNL A   1      43.545  23.205  26.300  1.00  0.00     0.054 A 
BRANCH  81  82
ATOM     82  S   UNL A   1      44.042  21.931  25.106  1.00  0.00     0.124 S 
ATOM     83  O   UNL A   1      45.402  21.625  25.539  1.00  0.00    -0.237 OA
ATOM     84  O   UNL A   1      43.053  20.880  25.336  1.00  0.00    -0.237 OA
ATOM     85  O   UNL A   1      43.930  22.609  23.817  1.00  0.00    -0.744 OA
ENDBRANCH  81  82
ENDBRANCH  53  76
BRANCH  65  86
ATOM     86  C   UNL A   1      46.348  27.254  33.904  1.00  0.00    -0.014 A 
ATOM     87  C   UNL A   1      46.323  26.230  34.868  1.00  0.00     0.010 A 
ATOM     88  C   UNL A   1      47.583  27.802  33.514  1.00  0.00     0.010 A 
ATOM     89  C   UNL A   1      47.511  25.781  35.451  1.00  0.00     0.020 A 
ATOM     90  C   UNL A   1      48.775  27.340  34.077  1.00  0.00     0.020 A 
ATOM     91  C   UNL A   1      48.729  26.341  35.053  1.00  0.00     0.054 A 
BRANCH  91  92
ATOM     92  S   UNL A   1      50.262  25.713  35.792  1.00  0.00     0.124 S 
ATOM     93  O   UNL A   1      50.757  24.820  34.748  1.00  0.00    -0.237 OA
ATOM     94  O   UNL A   1      51.042  26.930  36.000  1.00  0.00    -0.237 OA
ATOM     95  O   UNL A   1      49.810  25.053  37.015  1.00  0.00    -0.744 OA
ENDBRANCH  91  92
ENDBRANCH  65  86
ENDBRANCH  39  40
ENDBRANCH  31  34
ENDBRANCH  29  30
ENDBRANCH  28  29
ENDBRANCH   1  28
TORSDOF 20
ENDMDL
