MODEL 1
REMARK VINA RESULT:     -12.3      0.000      0.000
REMARK SMILES C=C[C@@H]1[C@@H](O)C[C@H]2[C@]3(CC[C@]4(C)[C@@H]([C@H](C)CCC=C(C)C)CC[C@]24C)C[C@]13CCC(=O)NCCCCNC(=O)c1ccc(-c2c3nc(c(-c4ccc(S(=O)(=O)[O-])cc4)c4ccc([nH]4)c(-c4ccc(S(=O)(=O)[O-])cc4)c4nc(c(-c5ccc(S(=O)(=O)[O-])cc5)c5ccc2[nH]5)C=C4)C=C3)cc1
REMARK SMILES IDX 33 1 32 2 30 3 31 4 29 6 28 7 27 8 3 9 4 10 6 11 8 12 26 13
REMARK SMILES IDX 7 14 9 15 24 16 10 17 11 18 23 19 25 20 13 21 12 22 22 23
REMARK SMILES IDX 2 24 1 25 5 26 14 28 15 29 16 30 17 31 18 32 19 33 20 34
REMARK SMILES IDX 21 35 34 36 35 37 36 38 37 39 38 40 39 42 40 43 41 44 99 45
REMARK SMILES IDX 42 46 98 47 43 48 44 49 45 50 92 51 46 52 97 53 91 54 93 55
REMARK SMILES IDX 47 56 96 57 90 58 89 59 48 61 78 62 59 63 77 64 60 65 63 66
REMARK SMILES IDX 76 67 94 68 61 69 62 70 75 72 95 73 64 74 49 75 50 76 58 77
REMARK SMILES IDX 51 78 57 79 52 80 53 81 54 82 55 83 56 84 79 85 80 86 88 87
REMARK SMILES IDX 81 88 87 89 82 90 83 91 84 92 85 93 86 94 65 95 66 96 74 97
REMARK SMILES IDX 67 98 73 99 68 100 69 101 70 102 71 103 72 104
REMARK H PARENT 32 5 5 27 37 41 93 60 63 71
REMARK Flexibility Score: inf
ROOT
ATOM      1  C   UNL A   1      34.566  30.526  27.831  1.00  0.00     0.116 C 
ENDROOT
BRANCH   1   2
ATOM      2  N   UNL A   1      34.752  29.818  26.501  1.00  0.00    -0.356 N 
ATOM      3  C   UNL A   1      34.048  28.768  25.982  1.00  0.00     0.220 C 
ATOM      4  O   UNL A   1      34.150  28.459  24.799  1.00  0.00    -0.275 OA
ATOM      5  H   UNL A   1      35.480  30.162  25.935  1.00  0.00     0.163 HD
BRANCH   3   6
ATOM      6  C   UNL A   1      33.163  28.015  26.938  1.00  0.00     0.100 C 
BRANCH   6   7
ATOM      7  C   UNL A   1      31.690  28.234  26.608  1.00  0.00     0.018 C 
BRANCH   7   8
ATOM      8  C   UNL A   1      31.218  27.466  25.367  1.00  0.00    -0.014 C 
ATOM      9  C   UNL A   1      31.084  28.686  23.849  1.00  0.00     0.047 C 
ATOM     10  C   UNL A   1      32.009  28.135  22.178  1.00  0.00     0.122 C 
ATOM     11  C   UNL A   1      32.649  26.257  22.009  1.00  0.00     0.037 C 
ATOM     12  C   UNL A   1      31.760  25.680  25.195  1.00  0.00    -0.019 C 
ATOM     13  C   UNL A   1      30.349  26.185  25.609  1.00  0.00     0.016 C 
ATOM     14  C   UNL A   1      32.613  25.096  23.582  1.00  0.00     0.005 C 
ATOM     15  C   UNL A   1      32.398  24.875  26.312  1.00  0.00     0.008 C 
ATOM     16  C   UNL A   1      32.405  23.541  23.430  1.00  0.00    -0.023 C 
ATOM     17  C   UNL A   1      32.119  23.395  26.068  1.00  0.00     0.008 C 
ATOM     18  C   UNL A   1      32.745  22.767  24.788  1.00  0.00    -0.024 C 
ATOM     19  C   UNL A   1      33.495  22.985  22.477  1.00  0.00     0.008 C 
ATOM     20  C   UNL A   1      31.012  23.203  22.897  1.00  0.00     0.012 C 
ATOM     21  C   UNL A   1      34.320  22.860  24.793  1.00  0.00    -0.002 C 
ATOM     22  C   UNL A   1      32.154  21.344  24.737  1.00  0.00     0.012 C 
ATOM     23  C   UNL A   1      34.777  22.888  23.316  1.00  0.00     0.005 C 
BRANCH   9  24
ATOM     24  C   UNL A   1      29.636  29.212  23.845  1.00  0.00    -0.028 C 
ATOM     25  C   UNL A   1      28.604  28.828  23.084  1.00  0.00     0.004 C 
ENDBRANCH   9  24
BRANCH  10  26
ATOM     26  O   UNL A   1      33.130  28.999  21.859  1.00  0.00    -0.392 OA
ATOM     27  H   UNL A   1      33.950  28.481  21.866  1.00  0.00     0.210 HD
ENDBRANCH  10  26
BRANCH  21  28
ATOM     28  C   UNL A   1      35.260  22.318  25.914  1.00  0.00    -0.010 C 
ATOM     29  C   UNL A   1      35.820  23.553  26.685  1.00  0.00     0.008 C 
BRANCH  28  30
ATOM     30  C   UNL A   1      36.479  21.367  25.747  1.00  0.00     0.008 C 
BRANCH  30  31
ATOM     31  C   UNL A   1      37.746  21.767  25.000  1.00  0.00     0.027 C 
BRANCH  31  32
ATOM     32  C   UNL A   1      38.953  21.409  25.802  1.00  0.00    -0.028 C 
ATOM     33  C   UNL A   1      39.671  22.148  26.660  1.00  0.00    -0.080 C 
ATOM     34  C   UNL A   1      40.742  21.481  27.485  1.00  0.00     0.039 C 
ATOM     35  C   UNL A   1      39.445  23.607  26.892  1.00  0.00     0.039 C 
ENDBRANCH  31  32
ENDBRANCH  30  31
ENDBRANCH  28  30
ENDBRANCH  21  28
ENDBRANCH   7   8
ENDBRANCH   6   7
ENDBRANCH   3   6
ENDBRANCH   1   2
BRANCH   1  36
ATOM     36  C   UNL A   1      34.565  32.541  28.432  1.00  0.00     0.023 C 
BRANCH  36  37
ATOM     37  C   UNL A   1      33.519  33.936  28.545  1.00  0.00     0.023 C 
BRANCH  37  38
ATOM     38  C   UNL A   1      33.647  35.261  29.327  1.00  0.00     0.116 C 
BRANCH  38  39
ATOM     39  N   UNL A   1      32.803  35.345  30.505  1.00  0.00    -0.352 N 
ATOM     40  C   UNL A   1      33.050  34.856  31.761  1.00  0.00     0.251 C 
ATOM     41  H   UNL A   1      31.946  35.812  30.386  1.00  0.00     0.163 HD
ATOM     42  O   UNL A   1      32.172  34.860  32.613  1.00  0.00    -0.269 OA
BRANCH  40  43
ATOM     43  C   UNL A   1      34.379  34.292  32.052  1.00  0.00     0.039 A 
ATOM     44  C   UNL A   1      34.475  32.936  32.358  1.00  0.00     0.014 A 
ATOM     45  C   UNL A   1      35.517  35.102  32.011  1.00  0.00     0.014 A 
ATOM     46  C   UNL A   1      35.725  32.389  32.630  1.00  0.00     0.010 A 
ATOM     47  C   UNL A   1      36.770  34.536  32.194  1.00  0.00     0.010 A 
ATOM     48  C   UNL A   1      36.880  33.185  32.550  1.00  0.00    -0.014 A 
BRANCH  48  49
ATOM     49  C   UNL A   1      38.196  32.620  32.927  1.00  0.00     0.031 A 
ATOM     50  C   UNL A   1      38.750  32.879  34.300  1.00  0.00     0.074 A 
ATOM     51  C   UNL A   1      38.876  31.875  32.037  1.00  0.00     0.049 A 
ATOM     52  N   UNL A   1      39.843  32.414  34.849  1.00  0.00    -0.248 NA
ATOM     53  C   UNL A   1      37.996  33.805  35.162  1.00  0.00     0.031 C 
ATOM     54  C   UNL A   1      38.455  31.612  30.659  1.00  0.00     0.029 A 
ATOM     55  N   UNL A   1      40.056  31.192  32.162  1.00  0.00    -0.354 N 
ATOM     56  C   UNL A   1      39.914  33.005  36.105  1.00  0.00     0.074 A 
ATOM     57  C   UNL A   1      38.795  33.912  36.212  1.00  0.00     0.031 C 
ATOM     58  C   UNL A   1      39.342  30.788  30.080  1.00  0.00     0.029 A 
ATOM     59  C   UNL A   1      40.407  30.491  31.034  1.00  0.00     0.049 A 
ATOM     60  H   UNL A   1      40.602  31.202  32.982  1.00  0.00     0.167 HD
ATOM     61  C   UNL A   1      40.815  32.791  37.093  1.00  0.00     0.031 A 
ATOM     62  C   UNL A   1      41.463  29.688  30.799  1.00  0.00     0.031 A 
ATOM     63  C   UNL A   1      41.919  31.877  36.971  1.00  0.00     0.049 A 
ATOM     64  C   UNL A   1      42.434  29.432  31.916  1.00  0.00     0.074 A 
ATOM     65  C   UNL A   1      42.860  31.528  37.922  1.00  0.00     0.029 A 
ATOM     66  N   UNL A   1      42.232  31.172  35.817  1.00  0.00    -0.354 N 
ATOM     67  N   UNL A   1      42.440  29.930  33.131  1.00  0.00    -0.248 NA
ATOM     68  C   UNL A   1      43.525  28.491  31.641  1.00  0.00     0.031 C 
ATOM     69  C   UNL A   1      43.780  30.661  37.322  1.00  0.00     0.029 A 
ATOM     70  C   UNL A   1      43.370  30.411  36.020  1.00  0.00     0.049 A 
ATOM     71  H   UNL A   1      41.720  31.208  34.976  1.00  0.00     0.167 HD
ATOM     72  C   UNL A   1      43.524  29.347  33.776  1.00  0.00     0.074 A 
ATOM     73  C   UNL A   1      44.137  28.445  32.818  1.00  0.00     0.031 C 
ATOM     74  C   UNL A   1      43.971  29.535  35.044  1.00  0.00     0.031 A 
BRANCH  61  75
ATOM     75  C   UNL A   1      40.648  33.586  38.364  1.00  0.00    -0.014 A 
ATOM     76  C   UNL A   1      39.879  33.103  39.441  1.00  0.00     0.010 A 
ATOM     77  C   UNL A   1      41.248  34.853  38.474  1.00  0.00     0.010 A 
ATOM     78  C   UNL A   1      39.651  33.901  40.566  1.00  0.00     0.020 A 
ATOM     79  C   UNL A   1      41.054  35.640  39.614  1.00  0.00     0.020 A 
ATOM     80  C   UNL A   1      40.231  35.170  40.639  1.00  0.00     0.054 A 
BRANCH  80  81
ATOM     81  S   UNL A   1      39.894  36.200  42.094  1.00  0.00     0.124 S 
ATOM     82  O   UNL A   1      40.816  35.639  43.078  1.00  0.00    -0.237 OA
ATOM     83  O   UNL A   1      40.224  37.542  41.620  1.00  0.00    -0.237 OA
ATOM     84  O   UNL A   1      38.478  35.968  42.364  1.00  0.00    -0.744 OA
ENDBRANCH  80  81
ENDBRANCH  61  75
BRANCH  62  85
ATOM     85  C   UNL A   1      41.612  29.058  29.459  1.00  0.00    -0.014 A 
ATOM     86  C   UNL A   1      42.251  29.736  28.407  1.00  0.00     0.010 A 
ATOM     87  C   UNL A   1      41.185  27.732  29.258  1.00  0.00     0.010 A 
ATOM     88  C   UNL A   1      42.466  29.097  27.181  1.00  0.00     0.020 A 
ATOM     89  C   UNL A   1      41.423  27.081  28.044  1.00  0.00     0.020 A 
ATOM     90  C   UNL A   1      42.061  27.769  27.012  1.00  0.00     0.054 A 
BRANCH  90  91
ATOM     91  S   UNL A   1      42.446  26.928  25.449  1.00  0.00     0.124 S 
ATOM     92  O   UNL A   1      42.607  28.051  24.530  1.00  0.00    -0.237 OA
ATOM     93  O   UNL A   1      43.666  26.197  25.778  1.00  0.00    -0.237 OA
ATOM     94  O   UNL A   1      41.271  26.090  25.215  1.00  0.00    -0.744 OA
ENDBRANCH  90  91
ENDBRANCH  62  85
BRANCH  74  95
ATOM     95  C   UNL A   1      45.168  28.731  35.477  1.00  0.00    -0.014 A 
ATOM     96  C   UNL A   1      46.475  29.232  35.339  1.00  0.00     0.010 A 
ATOM     97  C   UNL A   1      44.974  27.475  36.077  1.00  0.00     0.010 A 
ATOM     98  C   UNL A   1      47.569  28.469  35.757  1.00  0.00     0.020 A 
ATOM     99  C   UNL A   1      46.063  26.723  36.525  1.00  0.00     0.020 A 
ATOM    100  C   UNL A   1      47.355  27.219  36.345  1.00  0.00     0.054 A 
BRANCH 100 101
ATOM    101  S   UNL A   1      48.789  26.259  36.901  1.00  0.00     0.124 S 
ATOM    102  O   UNL A   1      48.630  26.289  38.352  1.00  0.00    -0.237 OA
ATOM    103  O   UNL A   1      48.567  24.959  36.270  1.00  0.00    -0.237 OA
ATOM    104  O   UNL A   1      49.931  27.009  36.383  1.00  0.00    -0.744 OA
ENDBRANCH 100 101
ENDBRANCH  74  95
ENDBRANCH  48  49
ENDBRANCH  40  43
ENDBRANCH  38  39
ENDBRANCH  37  38
ENDBRANCH  36  37
ENDBRANCH   1  36
TORSDOF 22
ENDMDL
MODEL 2
REMARK VINA RESULT:     -11.8      2.482      9.149
REMARK SMILES C=C[C@@H]1[C@@H](O)C[C@H]2[C@]3(CC[C@]4(C)[C@@H]([C@H](C)CCC=C(C)C)CC[C@]24C)C[C@]13CCC(=O)NCCCCNC(=O)c1ccc(-c2c3nc(c(-c4ccc(S(=O)(=O)[O-])cc4)c4ccc([nH]4)c(-c4ccc(S(=O)(=O)[O-])cc4)c4nc(c(-c5ccc(S(=O)(=O)[O-])cc5)c5ccc2[nH]5)C=C4)C=C3)cc1
REMARK SMILES IDX 33 1 32 2 30 3 31 4 29 6 28 7 27 8 3 9 4 10 6 11 8 12 26 13
REMARK SMILES IDX 7 14 9 15 24 16 10 17 11 18 23 19 25 20 13 21 12 22 22 23
REMARK SMILES IDX 2 24 1 25 5 26 14 28 15 29 16 30 17 31 18 32 19 33 20 34
REMARK SMILES IDX 21 35 34 36 35 37 36 38 37 39 38 40 39 42 40 43 41 44 99 45
REMARK SMILES IDX 42 46 98 47 43 48 44 49 45 50 92 51 46 52 97 53 91 54 93 55
REMARK SMILES IDX 47 56 96 57 90 58 89 59 48 61 78 62 59 63 77 64 60 65 63 66
REMARK SMILES IDX 76 67 94 68 61 69 62 70 75 72 95 73 64 74 49 75 50 76 58 77
REMARK SMILES IDX 51 78 57 79 52 80 53 81 54 82 55 83 56 84 79 85 80 86 88 87
REMARK SMILES IDX 81 88 87 89 82 90 83 91 84 92 85 93 86 94 65 95 66 96 74 97
REMARK SMILES IDX 67 98 73 99 68 100 69 101 70 102 71 103 72 104
REMARK H PARENT 32 5 5 27 37 41 93 60 63 71
REMARK Flexibility Score: inf
ROOT
ATOM      1  C   UNL A   1      39.118  23.036  26.434  1.00  0.00     0.116 C 
ENDROOT
BRANCH   1   2
ATOM      2  N   UNL A   1      38.622  21.631  26.148  1.00  0.00    -0.356 N 
ATOM      3  C   UNL A   1      37.849  21.187  25.112  1.00  0.00     0.220 C 
ATOM      4  O   UNL A   1      37.730  19.988  24.877  1.00  0.00    -0.275 OA
ATOM      5  H   UNL A   1      38.894  20.944  26.798  1.00  0.00     0.163 HD
BRANCH   3   6
ATOM      6  C   UNL A   1      37.151  22.241  24.296  1.00  0.00     0.100 C 
BRANCH   6   7
ATOM      7  C   UNL A   1      36.180  23.044  25.156  1.00  0.00     0.018 C 
BRANCH   7   8
ATOM      8  C   UNL A   1      34.705  22.769  24.838  1.00  0.00    -0.014 C 
ATOM      9  C   UNL A   1      34.028  21.369  26.019  1.00  0.00     0.047 C 
ATOM     10  C   UNL A   1      32.345  21.767  26.999  1.00  0.00     0.122 C 
ATOM     11  C   UNL A   1      31.256  23.338  26.440  1.00  0.00     0.037 C 
ATOM     12  C   UNL A   1      33.658  24.212  24.262  1.00  0.00    -0.019 C 
ATOM     13  C   UNL A   1      34.223  23.066  23.378  1.00  0.00     0.016 C 
ATOM     14  C   UNL A   1      32.005  24.602  25.150  1.00  0.00     0.005 C 
ATOM     15  C   UNL A   1      34.222  25.555  23.838  1.00  0.00     0.008 C 
ATOM     16  C   UNL A   1      31.067  25.390  24.157  1.00  0.00    -0.023 C 
ATOM     17  C   UNL A   1      33.242  26.214  22.872  1.00  0.00     0.008 C 
ATOM     18  C   UNL A   1      31.844  26.592  23.444  1.00  0.00    -0.024 C 
ATOM     19  C   UNL A   1      30.003  26.157  24.983  1.00  0.00     0.008 C 
ATOM     20  C   UNL A   1      30.388  24.455  23.154  1.00  0.00     0.012 C 
ATOM     21  C   UNL A   1      31.951  27.621  24.636  1.00  0.00    -0.002 C 
ATOM     22  C   UNL A   1      31.048  27.068  22.213  1.00  0.00     0.012 C 
ATOM     23  C   UNL A   1      30.716  27.398  25.539  1.00  0.00     0.005 C 
BRANCH   9  24
ATOM     24  C   UNL A   1      34.244  20.036  25.277  1.00  0.00    -0.028 C 
ATOM     25  C   UNL A   1      33.439  19.420  24.403  1.00  0.00     0.004 C 
ENDBRANCH   9  24
BRANCH  10  26
ATOM     26  O   UNL A   1      32.556  21.880  28.430  1.00  0.00    -0.392 OA
ATOM     27  H   UNL A   1      31.749  22.219  28.850  1.00  0.00     0.210 HD
ENDBRANCH  10  26
BRANCH  21  28
ATOM     28  C   UNL A   1      32.666  29.006  24.580  1.00  0.00    -0.010 C 
ATOM     29  C   UNL A   1      33.234  29.177  23.138  1.00  0.00     0.008 C 
BRANCH  28  30
ATOM     30  C   UNL A   1      33.795  29.525  25.515  1.00  0.00     0.008 C 
BRANCH  30  31
ATOM     31  C   UNL A   1      33.638  29.622  27.029  1.00  0.00     0.027 C 
BRANCH  31  32
ATOM     32  C   UNL A   1      34.246  30.889  27.530  1.00  0.00    -0.028 C 
ATOM     33  C   UNL A   1      35.519  31.174  27.840  1.00  0.00    -0.080 C 
ATOM     34  C   UNL A   1      35.898  32.600  28.150  1.00  0.00     0.039 C 
ATOM     35  C   UNL A   1      36.618  30.161  27.854  1.00  0.00     0.039 C 
ENDBRANCH  31  32
ENDBRANCH  30  31
ENDBRANCH  28  30
ENDBRANCH  21  28
ENDBRANCH   7   8
ENDBRANCH   6   7
ENDBRANCH   3   6
ENDBRANCH   1   2
BRANCH   1  36
ATOM     36  C   UNL A   1      40.854  23.828  27.318  1.00  0.00     0.023 C 
BRANCH  36  37
ATOM     37  C   UNL A   1      42.373  24.591  26.911  1.00  0.00     0.023 C 
BRANCH  37  38
ATOM     38  C   UNL A   1      42.935  25.996  27.215  1.00  0.00     0.116 C 
BRANCH  38  39
ATOM     39  N   UNL A   1      42.725  26.966  26.156  1.00  0.00    -0.352 N 
ATOM     40  C   UNL A   1      42.160  28.211  26.248  1.00  0.00     0.251 C 
ATOM     41  H   UNL A   1      43.027  26.695  25.260  1.00  0.00     0.163 HD
ATOM     42  O   UNL A   1      41.900  28.851  25.238  1.00  0.00    -0.269 OA
BRANCH  40  43
ATOM     43  C   UNL A   1      41.836  28.745  27.581  1.00  0.00     0.039 A 
ATOM     44  C   UNL A   1      42.547  29.848  28.048  1.00  0.00     0.014 A 
ATOM     45  C   UNL A   1      40.828  28.159  28.353  1.00  0.00     0.014 A 
ATOM     46  C   UNL A   1      42.247  30.366  29.305  1.00  0.00     0.010 A 
ATOM     47  C   UNL A   1      40.471  28.732  29.565  1.00  0.00     0.010 A 
ATOM     48  C   UNL A   1      41.208  29.811  30.071  1.00  0.00    -0.014 A 
BRANCH  48  49
ATOM     49  C   UNL A   1      40.952  30.308  31.442  1.00  0.00     0.031 A 
ATOM     50  C   UNL A   1      41.939  30.010  32.537  1.00  0.00     0.074 A 
ATOM     51  C   UNL A   1      39.843  31.027  31.690  1.00  0.00     0.049 A 
ATOM     52  N   UNL A   1      41.938  30.415  33.780  1.00  0.00    -0.248 NA
ATOM     53  C   UNL A   1      43.058  29.112  32.202  1.00  0.00     0.031 C 
ATOM     54  C   UNL A   1      38.793  31.323  30.713  1.00  0.00     0.029 A 
ATOM     55  N   UNL A   1      39.421  31.651  32.834  1.00  0.00    -0.354 N 
ATOM     56  C   UNL A   1      43.040  29.810  34.374  1.00  0.00     0.074 A 
ATOM     57  C   UNL A   1      43.644  28.957  33.378  1.00  0.00     0.031 C 
ATOM     58  C   UNL A   1      37.869  32.109  31.288  1.00  0.00     0.029 A 
ATOM     59  C   UNL A   1      38.246  32.345  32.679  1.00  0.00     0.049 A 
ATOM     60  H   UNL A   1      39.913  31.607  33.686  1.00  0.00     0.167 HD
ATOM     61  C   UNL A   1      43.520  29.970  35.630  1.00  0.00     0.031 A 
ATOM     62  C   UNL A   1      37.555  33.098  33.557  1.00  0.00     0.031 A 
ATOM     63  C   UNL A   1      42.908  30.831  36.607  1.00  0.00     0.049 A 
ATOM     64  C   UNL A   1      38.120  33.295  34.935  1.00  0.00     0.074 A 
ATOM     65  C   UNL A   1      43.336  31.124  37.888  1.00  0.00     0.029 A 
ATOM     66  N   UNL A   1      41.726  31.531  36.406  1.00  0.00    -0.354 N 
ATOM     67  N   UNL A   1      39.212  32.787  35.457  1.00  0.00    -0.248 NA
ATOM     68  C   UNL A   1      37.376  34.185  35.833  1.00  0.00     0.031 C 
ATOM     69  C   UNL A   1      42.378  31.952  38.485  1.00  0.00     0.029 A 
ATOM     70  C   UNL A   1      41.392  32.234  37.551  1.00  0.00     0.049 A 
ATOM     71  H   UNL A   1      41.201  31.527  35.573  1.00  0.00     0.167 HD
ATOM     72  C   UNL A   1      39.299  33.310  36.741  1.00  0.00     0.074 A 
ATOM     73  C   UNL A   1      38.157  34.190  36.906  1.00  0.00     0.031 C 
ATOM     74  C   UNL A   1      40.239  33.089  37.696  1.00  0.00     0.031 A 
BRANCH  61  75
ATOM     75  C   UNL A   1      44.744  29.173  36.008  1.00  0.00    -0.014 A 
ATOM     76  C   UNL A   1      44.641  27.895  36.593  1.00  0.00     0.010 A 
ATOM     77  C   UNL A   1      46.022  29.722  35.800  1.00  0.00     0.010 A 
ATOM     78  C   UNL A   1      45.784  27.220  37.032  1.00  0.00     0.020 A 
ATOM     79  C   UNL A   1      47.171  29.034  36.204  1.00  0.00     0.020 A 
ATOM     80  C   UNL A   1      47.041  27.800  36.844  1.00  0.00     0.054 A 
BRANCH  80  81
ATOM     81  S   UNL A   1      48.506  26.919  37.451  1.00  0.00     0.124 S 
ATOM     82  O   UNL A   1      49.456  28.012  37.641  1.00  0.00    -0.237 OA
ATOM     83  O   UNL A   1      48.018  26.292  38.676  1.00  0.00    -0.237 OA
ATOM     84  O   UNL A   1      48.829  25.995  36.367  1.00  0.00    -0.744 OA
ENDBRANCH  80  81
ENDBRANCH  61  75
BRANCH  62  85
ATOM     85  C   UNL A   1      36.281  33.733  33.125  1.00  0.00    -0.014 A 
ATOM     86  C   UNL A   1      35.044  33.111  33.367  1.00  0.00     0.010 A 
ATOM     87  C   UNL A   1      36.300  35.013  32.539  1.00  0.00     0.010 A 
ATOM     88  C   UNL A   1      33.849  33.761  33.038  1.00  0.00     0.020 A 
ATOM     89  C   UNL A   1      35.108  35.677  32.235  1.00  0.00     0.020 A 
ATOM     90  C   UNL A   1      33.889  35.046  32.485  1.00  0.00     0.054 A 
BRANCH  90  91
ATOM     91  S   UNL A   1      32.326  35.911  32.164  1.00  0.00     0.124 S 
ATOM     92  O   UNL A   1      31.340  34.950  32.650  1.00  0.00    -0.237 OA
ATOM     93  O   UNL A   1      32.472  37.127  32.959  1.00  0.00    -0.237 OA
ATOM     94  O   UNL A   1      32.340  36.116  30.717  1.00  0.00    -0.744 OA
ENDBRANCH  90  91
ENDBRANCH  62  85
BRANCH  74  95
ATOM     95  C   UNL A   1      40.083  33.829  38.998  1.00  0.00    -0.014 A 
ATOM     96  C   UNL A   1      39.382  33.268  40.080  1.00  0.00     0.010 A 
ATOM     97  C   UNL A   1      40.694  35.086  39.153  1.00  0.00     0.010 A 
ATOM     98  C   UNL A   1      39.259  33.973  41.281  1.00  0.00     0.020 A 
ATOM     99  C   UNL A   1      40.601  35.779  40.361  1.00  0.00     0.020 A 
ATOM    100  C   UNL A   1      39.868  35.225  41.412  1.00  0.00     0.054 A 
BRANCH 100 101
ATOM    101  S   UNL A   1      39.716  36.109  42.987  1.00  0.00     0.124 S 
ATOM    102  O   UNL A   1      39.763  37.503  42.559  1.00  0.00    -0.237 OA
ATOM    103  O   UNL A   1      38.423  35.647  43.488  1.00  0.00    -0.237 OA
ATOM    104  O   UNL A   1      40.873  35.654  43.754  1.00  0.00    -0.744 OA
ENDBRANCH 100 101
ENDBRANCH  74  95
ENDBRANCH  48  49
ENDBRANCH  40  43
ENDBRANCH  38  39
ENDBRANCH  37  38
ENDBRANCH  36  37
ENDBRANCH   1  36
TORSDOF 22
ENDMDL
MODEL 3
REMARK VINA RESULT:     -11.5      7.833     13.179
REMARK SMILES C=C[C@@H]1[C@@H](O)C[C@H]2[C@]3(CC[C@]4(C)[C@@H]([C@H](C)CCC=C(C)C)CC[C@]24C)C[C@]13CCC(=O)NCCCCNC(=O)c1ccc(-c2c3nc(c(-c4ccc(S(=O)(=O)[O-])cc4)c4ccc([nH]4)c(-c4ccc(S(=O)(=O)[O-])cc4)c4nc(c(-c5ccc(S(=O)(=O)[O-])cc5)c5ccc2[nH]5)C=C4)C=C3)cc1
REMARK SMILES IDX 33 1 32 2 30 3 31 4 29 6 28 7 27 8 3 9 4 10 6 11 8 12 26 13
REMARK SMILES IDX 7 14 9 15 24 16 10 17 11 18 23 19 25 20 13 21 12 22 22 23
REMARK SMILES IDX 2 24 1 25 5 26 14 28 15 29 16 30 17 31 18 32 19 33 20 34
REMARK SMILES IDX 21 35 34 36 35 37 36 38 37 39 38 40 39 42 40 43 41 44 99 45
REMARK SMILES IDX 42 46 98 47 43 48 44 49 45 50 92 51 46 52 97 53 91 54 93 55
REMARK SMILES IDX 47 56 96 57 90 58 89 59 48 61 78 62 59 63 77 64 60 65 63 66
REMARK SMILES IDX 76 67 94 68 61 69 62 70 75 72 95 73 64 74 49 75 50 76 58 77
REMARK SMILES IDX 51 78 57 79 52 80 53 81 54 82 55 83 56 84 79 85 80 86 88 87
REMARK SMILES IDX 81 88 87 89 82 90 83 91 84 92 85 93 86 94 65 95 66 96 74 97
REMARK SMILES IDX 67 98 73 99 68 100 69 101 70 102 71 103 72 104
REMARK H PARENT 32 5 5 27 37 41 93 60 63 71
REMARK Flexibility Score: inf
ROOT
ATOM      1  C   UNL A   1      39.098  24.418  26.540  1.00  0.00     0.116 C 
ENDROOT
BRANCH   1   2
ATOM      2  N   UNL A   1      38.624  23.008  26.238  1.00  0.00    -0.356 N 
ATOM      3  C   UNL A   1      37.483  22.602  25.606  1.00  0.00     0.220 C 
ATOM      4  O   UNL A   1      37.350  21.446  25.217  1.00  0.00    -0.275 OA
ATOM      5  H   UNL A   1      39.222  22.286  26.540  1.00  0.00     0.163 HD
BRANCH   3   6
ATOM      6  C   UNL A   1      36.408  23.640  25.430  1.00  0.00     0.100 C 
BRANCH   6   7
ATOM      7  C   UNL A   1      35.702  23.474  24.088  1.00  0.00     0.018 C 
BRANCH   7   8
ATOM      8  C   UNL A   1      34.176  23.602  24.177  1.00  0.00    -0.014 C 
ATOM      9  C   UNL A   1      33.426  21.984  24.970  1.00  0.00     0.047 C 
ATOM     10  C   UNL A   1      32.186  22.235  26.504  1.00  0.00     0.122 C 
ATOM     11  C   UNL A   1      31.476  24.058  26.876  1.00  0.00     0.037 C 
ATOM     12  C   UNL A   1      33.466  25.309  24.479  1.00  0.00    -0.019 C 
ATOM     13  C   UNL A   1      33.477  24.534  23.132  1.00  0.00     0.016 C 
ATOM     14  C   UNL A   1      32.231  25.586  25.918  1.00  0.00     0.005 C 
ATOM     15  C   UNL A   1      34.267  26.594  24.374  1.00  0.00     0.008 C 
ATOM     16  C   UNL A   1      31.347  26.850  25.596  1.00  0.00    -0.023 C 
ATOM     17  C   UNL A   1      33.314  27.739  24.045  1.00  0.00     0.008 C 
ATOM     18  C   UNL A   1      32.242  28.087  25.120  1.00  0.00    -0.024 C 
ATOM     19  C   UNL A   1      30.752  27.392  26.921  1.00  0.00     0.008 C 
ATOM     20  C   UNL A   1      30.227  26.524  24.606  1.00  0.00     0.012 C 
ATOM     21  C   UNL A   1      32.897  28.520  26.489  1.00  0.00    -0.002 C 
ATOM     22  C   UNL A   1      31.350  29.143  24.436  1.00  0.00     0.012 C 
ATOM     23  C   UNL A   1      31.887  28.167  27.606  1.00  0.00     0.005 C 
BRANCH   9  24
ATOM     24  C   UNL A   1      33.092  21.043  23.797  1.00  0.00    -0.028 C 
ATOM     25  C   UNL A   1      32.596  19.800  23.830  1.00  0.00     0.004 C 
ENDBRANCH   9  24
BRANCH  10  26
ATOM     26  O   UNL A   1      32.740  21.730  27.747  1.00  0.00    -0.392 OA
ATOM     27  H   UNL A   1      33.127  20.853  27.594  1.00  0.00     0.210 HD
ENDBRANCH  10  26
BRANCH  21  28
ATOM     28  C   UNL A   1      33.934  29.670  26.678  1.00  0.00    -0.010 C 
ATOM     29  C   UNL A   1      35.190  29.052  27.365  1.00  0.00     0.008 C 
BRANCH  28  30
ATOM     30  C   UNL A   1      33.715  31.030  27.400  1.00  0.00     0.008 C 
BRANCH  30  31
ATOM     31  C   UNL A   1      34.846  31.807  28.063  1.00  0.00     0.027 C 
BRANCH  31  32
ATOM     32  C   UNL A   1      34.314  33.044  28.708  1.00  0.00    -0.028 C 
ATOM     33  C   UNL A   1      34.388  33.454  29.983  1.00  0.00    -0.080 C 
ATOM     34  C   UNL A   1      33.922  34.844  30.334  1.00  0.00     0.039 C 
ATOM     35  C   UNL A   1      34.956  32.629  31.091  1.00  0.00     0.039 C 
ENDBRANCH  31  32
ENDBRANCH  30  31
ENDBRANCH  28  30
ENDBRANCH  21  28
ENDBRANCH   7   8
ENDBRANCH   6   7
ENDBRANCH   3   6
ENDBRANCH   1   2
BRANCH   1  36
ATOM     36  C   UNL A   1      40.835  25.229  27.405  1.00  0.00     0.023 C 
BRANCH  36  37
ATOM     37  C   UNL A   1      42.252  24.770  28.319  1.00  0.00     0.023 C 
BRANCH  37  38
ATOM     38  C   UNL A   1      42.713  23.414  28.895  1.00  0.00     0.116 C 
BRANCH  38  39
ATOM     39  N   UNL A   1      43.136  22.452  27.895  1.00  0.00    -0.352 N 
ATOM     40  C   UNL A   1      44.082  22.609  26.915  1.00  0.00     0.251 C 
ATOM     41  H   UNL A   1      42.689  21.577  27.924  1.00  0.00     0.163 HD
ATOM     42  O   UNL A   1      44.215  21.766  26.039  1.00  0.00    -0.269 OA
BRANCH  40  43
ATOM     43  C   UNL A   1      44.904  23.831  26.914  1.00  0.00     0.039 A 
ATOM     44  C   UNL A   1      44.891  24.643  25.782  1.00  0.00     0.014 A 
ATOM     45  C   UNL A   1      45.671  24.169  28.033  1.00  0.00     0.014 A 
ATOM     46  C   UNL A   1      45.660  25.803  25.770  1.00  0.00     0.010 A 
ATOM     47  C   UNL A   1      46.365  25.370  28.052  1.00  0.00     0.010 A 
ATOM     48  C   UNL A   1      46.402  26.173  26.905  1.00  0.00    -0.014 A 
BRANCH  48  49
ATOM     49  C   UNL A   1      47.287  27.359  26.856  1.00  0.00     0.031 A 
ATOM     50  C   UNL A   1      48.767  27.175  26.669  1.00  0.00     0.074 A 
ATOM     51  C   UNL A   1      46.753  28.589  26.972  1.00  0.00     0.049 A 
ATOM     52  N   UNL A   1      49.699  28.081  26.525  1.00  0.00    -0.248 NA
ATOM     53  C   UNL A   1      49.275  25.793  26.677  1.00  0.00     0.031 C 
ATOM     54  C   UNL A   1      45.337  28.875  27.214  1.00  0.00     0.029 A 
ATOM     55  N   UNL A   1      47.335  29.826  26.887  1.00  0.00    -0.354 N 
ATOM     56  C   UNL A   1      50.897  27.381  26.443  1.00  0.00     0.074 A 
ATOM     57  C   UNL A   1      50.584  25.983  26.624  1.00  0.00     0.031 C 
ATOM     58  C   UNL A   1      45.154  30.205  27.214  1.00  0.00     0.029 A 
ATOM     59  C   UNL A   1      46.441  30.862  27.003  1.00  0.00     0.049 A 
ATOM     60  H   UNL A   1      48.302  29.960  26.754  1.00  0.00     0.167 HD
ATOM     61  C   UNL A   1      52.143  27.857  26.212  1.00  0.00     0.031 A 
ATOM     62  C   UNL A   1      46.635  32.193  26.936  1.00  0.00     0.031 A 
ATOM     63  C   UNL A   1      52.434  29.253  26.027  1.00  0.00     0.049 A 
ATOM     64  C   UNL A   1      48.018  32.704  26.643  1.00  0.00     0.074 A 
ATOM     65  C   UNL A   1      53.644  29.850  25.725  1.00  0.00     0.029 A 
ATOM     66  N   UNL A   1      51.498  30.273  26.137  1.00  0.00    -0.354 N 
ATOM     67  N   UNL A   1      49.128  32.024  26.480  1.00  0.00    -0.248 NA
ATOM     68  C   UNL A   1      48.169  34.156  26.501  1.00  0.00     0.031 C 
ATOM     69  C   UNL A   1      53.451  31.237  25.715  1.00  0.00     0.029 A 
ATOM     70  C   UNL A   1      52.107  31.499  25.938  1.00  0.00     0.049 A 
ATOM     71  H   UNL A   1      50.541  30.143  26.329  1.00  0.00     0.167 HD
ATOM     72  C   UNL A   1      50.112  32.964  26.197  1.00  0.00     0.074 A 
ATOM     73  C   UNL A   1      49.456  34.258  26.192  1.00  0.00     0.031 C 
ATOM     74  C   UNL A   1      51.435  32.776  25.957  1.00  0.00     0.031 A 
BRANCH  61  75
ATOM     75  C   UNL A   1      53.270  26.854  26.181  1.00  0.00    -0.014 A 
ATOM     76  C   UNL A   1      53.507  26.043  25.055  1.00  0.00     0.010 A 
ATOM     77  C   UNL A   1      54.092  26.701  27.312  1.00  0.00     0.010 A 
ATOM     78  C   UNL A   1      54.489  25.049  25.088  1.00  0.00     0.020 A 
ATOM     79  C   UNL A   1      55.101  25.732  27.337  1.00  0.00     0.020 A 
ATOM     80  C   UNL A   1      55.272  24.892  26.234  1.00  0.00     0.054 A 
BRANCH  80  81
ATOM     81  S   UNL A   1      56.517  23.575  26.265  1.00  0.00     0.124 S 
ATOM     82  O   UNL A   1      55.697  22.391  26.509  1.00  0.00    -0.237 OA
ATOM     83  O   UNL A   1      57.110  23.662  24.932  1.00  0.00    -0.237 OA
ATOM     84  O   UNL A   1      57.401  23.957  27.362  1.00  0.00    -0.744 OA
ENDBRANCH  80  81
ENDBRANCH  61  75
BRANCH  62  85
ATOM     85  C   UNL A   1      45.475  33.107  27.119  1.00  0.00    -0.014 A 
ATOM     86  C   UNL A   1      45.143  33.611  28.388  1.00  0.00     0.010 A 
ATOM     87  C   UNL A   1      44.745  33.544  25.997  1.00  0.00     0.010 A 
ATOM     88  C   UNL A   1      44.107  34.541  28.531  1.00  0.00     0.020 A 
ATOM     89  C   UNL A   1      43.729  34.494  26.133  1.00  0.00     0.020 A 
ATOM     90  C   UNL A   1      43.414  34.985  27.400  1.00  0.00     0.054 A 
BRANCH  90  91
ATOM     91  S   UNL A   1      42.147  36.269  27.598  1.00  0.00     0.124 S 
ATOM     92  O   UNL A   1      40.912  35.509  27.429  1.00  0.00    -0.237 OA
ATOM     93  O   UNL A   1      42.408  36.763  28.947  1.00  0.00    -0.237 OA
ATOM     94  O   UNL A   1      42.451  37.216  26.527  1.00  0.00    -0.744 OA
ENDBRANCH  90  91
ENDBRANCH  62  85
BRANCH  74  95
ATOM     95  C   UNL A   1      52.257  33.998  25.645  1.00  0.00    -0.014 A 
ATOM     96  C   UNL A   1      52.353  34.501  24.335  1.00  0.00     0.010 A 
ATOM     97  C   UNL A   1      52.904  34.679  26.691  1.00  0.00     0.010 A 
ATOM     98  C   UNL A   1      53.117  35.642  24.074  1.00  0.00     0.020 A 
ATOM     99  C   UNL A   1      53.641  35.837  26.439  1.00  0.00     0.020 A 
ATOM    100  C   UNL A   1      53.757  36.301  25.128  1.00  0.00     0.054 A 
BRANCH 100 101
ATOM    101  S   UNL A   1      54.722  37.793  24.767  1.00  0.00     0.124 S 
ATOM    102  O   UNL A   1      55.986  37.231  24.300  1.00  0.00    -0.237 OA
ATOM    103  O   UNL A   1      53.913  38.457  23.747  1.00  0.00    -0.237 OA
ATOM    104  O   UNL A   1      54.784  38.485  26.052  1.00  0.00    -0.744 OA
ENDBRANCH 100 101
ENDBRANCH  74  95
ENDBRANCH  48  49
ENDBRANCH  40  43
ENDBRANCH  38  39
ENDBRANCH  37  38
ENDBRANCH  36  37
ENDBRANCH   1  36
TORSDOF 22
ENDMDL
