MODEL 1
REMARK VINA RESULT:     -11.3      0.000      0.000
REMARK SMILES CCCc1cc(O[C@H]2CCOC3(CCC3)C2)c(C(=O)NCCCCNC(=O)c2ccc(-c3c4nc(c(-c5ccc(S(=O)(=O)[O-])cc5)c5ccc([nH]5)c(-c5ccc(S(=O)(=O)[O-])cc5)c5nc(c(-c6ccc(S(=O)(=O)[O-])cc6)c6ccc3[nH]6)C=C5)C=C4)cc2)s1
REMARK SMILES IDX 23 1 22 2 21 3 20 4 18 5 19 6 17 8 4 9 5 10 88 11 6 12 3 13
REMARK SMILES IDX 2 14 1 15 7 16 8 17 9 18 16 19 10 20 12 21 11 22 13 23 15 24
REMARK SMILES IDX 14 25 24 26 25 27 26 28 27 30 28 31 29 32 87 33 30 34 86 35
REMARK SMILES IDX 31 36 32 37 33 38 80 39 34 40 85 41 79 42 81 43 35 44 84 45
REMARK SMILES IDX 78 46 77 47 36 49 66 50 47 51 65 52 48 53 51 54 64 55 82 56
REMARK SMILES IDX 49 57 50 58 63 60 83 61 52 62 37 63 38 64 46 65 39 66 45 67
REMARK SMILES IDX 40 68 41 69 42 70 43 71 44 72 67 73 68 74 76 75 69 76 75 77
REMARK SMILES IDX 70 78 71 79 72 80 73 81 74 82 53 83 54 84 62 85 55 86 61 87
REMARK SMILES IDX 56 88 57 89 58 90 59 91 60 92
REMARK H PARENT 20 7 25 29 81 48 51 59
REMARK Flexibility Score: inf
ROOT
ATOM      1  C   UNL A   1      42.139  21.960  26.512  1.00  0.00     0.023 C 
ENDROOT
BRANCH   1   2
ATOM      2  C   UNL A   1      40.928  21.198  27.071  1.00  0.00     0.023 C 
BRANCH   2   3
ATOM      3  C   UNL A   1      39.778  20.961  26.069  1.00  0.00     0.116 C 
BRANCH   3   4
ATOM      4  N   UNL A   1      38.892  22.147  25.850  1.00  0.00    -0.351 N 
ATOM      5  C   UNL A   1      37.668  22.772  25.664  1.00  0.00     0.265 C 
ATOM      6  O   UNL A   1      38.006  23.977  25.789  1.00  0.00    -0.268 OA
ATOM      7  H   UNL A   1      39.529  22.898  25.824  1.00  0.00     0.163 HD
BRANCH   5   8
ATOM      8  C   UNL A   1      36.165  22.500  25.403  1.00  0.00     0.134 A 
ATOM      9  C   UNL A   1      34.447  20.562  24.942  1.00  0.00     0.009 A 
ATOM     10  C   UNL A   1      33.891  21.785  25.103  1.00  0.00     0.062 A 
ATOM     11  S   UNL A   1      36.085  20.631  25.248  1.00  0.00    -0.131 S 
ATOM     12  C   UNL A   1      34.794  22.908  25.216  1.00  0.00     0.143 A 
BRANCH   9  13
ATOM     13  C   UNL A   1      33.725  19.313  24.548  1.00  0.00     0.046 C 
BRANCH  13  14
ATOM     14  C   UNL A   1      32.520  19.617  23.650  1.00  0.00     0.002 C 
ATOM     15  C   UNL A   1      32.297  18.558  22.581  1.00  0.00     0.004 C 
ENDBRANCH  13  14
ENDBRANCH   9  13
BRANCH  12  16
ATOM     16  O   UNL A   1      33.956  23.982  25.115  1.00  0.00    -0.488 OA
BRANCH  16  17
ATOM     17  C   UNL A   1      33.443  24.967  25.969  1.00  0.00     0.178 C 
ATOM     18  C   UNL A   1      34.174  26.236  25.750  1.00  0.00     0.074 C 
ATOM     19  C   UNL A   1      31.932  25.165  26.068  1.00  0.00     0.080 C 
ATOM     20  C   UNL A   1      33.635  26.803  24.487  1.00  0.00     0.165 C 
ATOM     21  C   UNL A   1      31.429  25.444  24.686  1.00  0.00     0.072 C 
ATOM     22  O   UNL A   1      32.392  26.277  24.003  1.00  0.00    -0.375 OA
ATOM     23  C   UNL A   1      30.921  24.105  23.999  1.00  0.00     0.036 C 
ATOM     24  C   UNL A   1      29.942  25.914  24.430  1.00  0.00     0.036 C 
ATOM     25  C   UNL A   1      29.909  24.942  23.227  1.00  0.00     0.006 C 
ENDBRANCH  16  17
ENDBRANCH  12  16
ENDBRANCH   5   8
ENDBRANCH   3   4
ENDBRANCH   2   3
ENDBRANCH   1   2
BRANCH   1  26
ATOM     26  C   UNL A   1      42.306  23.422  26.927  1.00  0.00     0.116 C 
BRANCH  26  27
ATOM     27  N   UNL A   1      42.084  24.389  25.856  1.00  0.00    -0.352 N 
ATOM     28  C   UNL A   1      41.769  25.731  25.942  1.00  0.00     0.251 C 
ATOM     29  H   UNL A   1      42.171  24.034  24.942  1.00  0.00     0.163 HD
ATOM     30  O   UNL A   1      41.550  26.383  24.921  1.00  0.00    -0.269 OA
BRANCH  28  31
ATOM     31  C   UNL A   1      41.653  26.380  27.269  1.00  0.00     0.039 A 
ATOM     32  C   UNL A   1      42.597  27.337  27.652  1.00  0.00     0.014 A 
ATOM     33  C   UNL A   1      40.576  26.088  28.109  1.00  0.00     0.014 A 
ATOM     34  C   UNL A   1      42.398  28.074  28.823  1.00  0.00     0.010 A 
ATOM     35  C   UNL A   1      40.328  26.891  29.220  1.00  0.00     0.010 A 
ATOM     36  C   UNL A   1      41.233  27.897  29.592  1.00  0.00    -0.014 A 
BRANCH  36  37
ATOM     37  C   UNL A   1      40.951  28.770  30.765  1.00  0.00     0.031 A 
ATOM     38  C   UNL A   1      41.768  28.651  32.026  1.00  0.00     0.074 A 
ATOM     39  C   UNL A   1      39.928  29.651  30.710  1.00  0.00     0.049 A 
ATOM     40  N   UNL A   1      41.698  29.363  33.122  1.00  0.00    -0.248 NA
ATOM     41  C   UNL A   1      42.774  27.579  32.074  1.00  0.00     0.031 C 
ATOM     42  C   UNL A   1      39.007  29.812  29.581  1.00  0.00     0.029 A 
ATOM     43  N   UNL A   1      39.497  30.586  31.619  1.00  0.00    -0.354 N 
ATOM     44  C   UNL A   1      42.642  28.821  33.987  1.00  0.00     0.074 A 
ATOM     45  C   UNL A   1      43.221  27.679  33.318  1.00  0.00     0.031 C 
ATOM     46  C   UNL A   1      38.160  30.821  29.841  1.00  0.00     0.029 A 
ATOM     47  C   UNL A   1      38.452  31.359  31.166  1.00  0.00     0.049 A 
ATOM     48  H   UNL A   1      39.898  30.693  32.512  1.00  0.00     0.167 HD
ATOM     49  C   UNL A   1      43.019  29.251  35.216  1.00  0.00     0.031 A 
ATOM     50  C   UNL A   1      37.811  32.396  31.742  1.00  0.00     0.031 A 
ATOM     51  C   UNL A   1      42.447  30.392  35.880  1.00  0.00     0.049 A 
ATOM     52  C   UNL A   1      38.263  32.870  33.097  1.00  0.00     0.074 A 
ATOM     53  C   UNL A   1      42.798  30.945  37.099  1.00  0.00     0.029 A 
ATOM     54  N   UNL A   1      41.401  31.154  35.382  1.00  0.00    -0.354 N 
ATOM     55  N   UNL A   1      39.219  32.397  33.860  1.00  0.00    -0.248 NA
ATOM     56  C   UNL A   1      37.562  34.033  33.656  1.00  0.00     0.031 C 
ATOM     57  C   UNL A   1      41.927  32.008  37.363  1.00  0.00     0.029 A 
ATOM     58  C   UNL A   1      41.078  32.159  36.278  1.00  0.00     0.049 A 
ATOM     59  H   UNL A   1      40.953  31.002  34.518  1.00  0.00     0.167 HD
ATOM     60  C   UNL A   1      39.255  33.224  34.978  1.00  0.00     0.074 A 
ATOM     61  C   UNL A   1      38.239  34.239  34.777  1.00  0.00     0.031 C 
ATOM     62  C   UNL A   1      40.055  33.153  36.071  1.00  0.00     0.031 A 
BRANCH  49  63
ATOM     63  C   UNL A   1      44.109  28.480  35.918  1.00  0.00    -0.014 A 
ATOM     64  C   UNL A   1      43.805  27.399  36.766  1.00  0.00     0.010 A 
ATOM     65  C   UNL A   1      45.458  28.817  35.703  1.00  0.00     0.010 A 
ATOM     66  C   UNL A   1      44.823  26.701  37.423  1.00  0.00     0.020 A 
ATOM     67  C   UNL A   1      46.482  28.101  36.331  1.00  0.00     0.020 A 
ATOM     68  C   UNL A   1      46.155  27.058  37.201  1.00  0.00     0.054 A 
BRANCH  68  69
ATOM     69  S   UNL A   1      47.457  26.118  38.046  1.00  0.00     0.124 S 
ATOM     70  O   UNL A   1      47.272  26.532  39.435  1.00  0.00    -0.237 OA
ATOM     71  O   UNL A   1      47.096  24.735  37.750  1.00  0.00    -0.237 OA
ATOM     72  O   UNL A   1      48.689  26.587  37.417  1.00  0.00    -0.744 OA
ENDBRANCH  68  69
ENDBRANCH  49  63
BRANCH  50  73
ATOM     73  C   UNL A   1      36.702  33.083  31.021  1.00  0.00    -0.014 A 
ATOM     74  C   UNL A   1      35.384  33.028  31.511  1.00  0.00     0.010 A 
ATOM     75  C   UNL A   1      36.959  33.803  29.840  1.00  0.00     0.010 A 
ATOM     76  C   UNL A   1      34.342  33.659  30.822  1.00  0.00     0.020 A 
ATOM     77  C   UNL A   1      35.926  34.462  29.166  1.00  0.00     0.020 A 
ATOM     78  C   UNL A   1      34.621  34.375  29.655  1.00  0.00     0.054 A 
BRANCH  78  79
ATOM     79  S   UNL A   1      33.262  35.228  28.806  1.00  0.00     0.124 S 
ATOM     80  O   UNL A   1      33.972  36.258  28.056  1.00  0.00    -0.237 OA
ATOM     81  O   UNL A   1      32.668  34.159  28.010  1.00  0.00    -0.237 OA
ATOM     82  O   UNL A   1      32.427  35.715  29.903  1.00  0.00    -0.744 OA
ENDBRANCH  78  79
ENDBRANCH  50  73
BRANCH  62  83
ATOM     83  C   UNL A   1      39.885  34.224  37.118  1.00  0.00    -0.014 A 
ATOM     84  C   UNL A   1      39.113  34.006  38.272  1.00  0.00     0.010 A 
ATOM     85  C   UNL A   1      40.519  35.468  36.943  1.00  0.00     0.010 A 
ATOM     86  C   UNL A   1      38.927  35.033  39.202  1.00  0.00     0.020 A 
ATOM     87  C   UNL A   1      40.364  36.486  37.888  1.00  0.00     0.020 A 
ATOM     88  C   UNL A   1      39.547  36.270  38.998  1.00  0.00     0.054 A 
BRANCH  88  89
ATOM     89  S   UNL A   1      39.286  37.589  40.214  1.00  0.00     0.124 S 
ATOM     90  O   UNL A   1      40.598  38.228  40.255  1.00  0.00    -0.237 OA
ATOM     91  O   UNL A   1      38.220  38.381  39.604  1.00  0.00    -0.237 OA
ATOM     92  O   UNL A   1      38.903  36.871  41.427  1.00  0.00    -0.744 OA
ENDBRANCH  88  89
ENDBRANCH  62  83
ENDBRANCH  36  37
ENDBRANCH  28  31
ENDBRANCH  26  27
ENDBRANCH   1  26
TORSDOF 18
ENDMDL
MODEL 2
REMARK VINA RESULT:     -11.2      5.813      8.281
REMARK SMILES CCCc1cc(O[C@H]2CCOC3(CCC3)C2)c(C(=O)NCCCCNC(=O)c2ccc(-c3c4nc(c(-c5ccc(S(=O)(=O)[O-])cc5)c5ccc([nH]5)c(-c5ccc(S(=O)(=O)[O-])cc5)c5nc(c(-c6ccc(S(=O)(=O)[O-])cc6)c6ccc3[nH]6)C=C5)C=C4)cc2)s1
REMARK SMILES IDX 23 1 22 2 21 3 20 4 18 5 19 6 17 8 4 9 5 10 88 11 6 12 3 13
REMARK SMILES IDX 2 14 1 15 7 16 8 17 9 18 16 19 10 20 12 21 11 22 13 23 15 24
REMARK SMILES IDX 14 25 24 26 25 27 26 28 27 30 28 31 29 32 87 33 30 34 86 35
REMARK SMILES IDX 31 36 32 37 33 38 80 39 34 40 85 41 79 42 81 43 35 44 84 45
REMARK SMILES IDX 78 46 77 47 36 49 66 50 47 51 65 52 48 53 51 54 64 55 82 56
REMARK SMILES IDX 49 57 50 58 63 60 83 61 52 62 37 63 38 64 46 65 39 66 45 67
REMARK SMILES IDX 40 68 41 69 42 70 43 71 44 72 67 73 68 74 76 75 69 76 75 77
REMARK SMILES IDX 70 78 71 79 72 80 73 81 74 82 53 83 54 84 62 85 55 86 61 87
REMARK SMILES IDX 56 88 57 89 58 90 59 91 60 92
REMARK H PARENT 20 7 25 29 81 48 51 59
REMARK Flexibility Score: inf
ROOT
ATOM      1  C   UNL A   1      38.189  21.456  25.175  1.00  0.00     0.023 C 
ENDROOT
BRANCH   1   2
ATOM      2  C   UNL A   1      37.720  22.910  25.011  1.00  0.00     0.023 C 
BRANCH   2   3
ATOM      3  C   UNL A   1      36.933  23.489  26.207  1.00  0.00     0.116 C 
BRANCH   3   4
ATOM      4  N   UNL A   1      35.704  22.716  26.572  1.00  0.00    -0.351 N 
ATOM      5  C   UNL A   1      34.541  22.017  26.287  1.00  0.00     0.265 C 
ATOM      6  O   UNL A   1      34.283  21.533  27.419  1.00  0.00    -0.268 OA
ATOM      7  H   UNL A   1      35.743  22.689  27.555  1.00  0.00     0.163 HD
BRANCH   5   8
ATOM      8  C   UNL A   1      33.564  21.652  25.141  1.00  0.00     0.134 A 
ATOM      9  C   UNL A   1      32.680  19.622  23.721  1.00  0.00     0.009 A 
ATOM     10  C   UNL A   1      32.049  20.796  23.484  1.00  0.00     0.062 A 
ATOM     11  S   UNL A   1      33.750  19.791  24.989  1.00  0.00    -0.131 S 
ATOM     12  C   UNL A   1      32.587  21.973  24.129  1.00  0.00     0.143 A 
BRANCH   9  13
ATOM     13  C   UNL A   1      32.469  18.345  22.974  1.00  0.00     0.046 C 
BRANCH  13  14
ATOM     14  C   UNL A   1      33.057  17.146  23.729  1.00  0.00     0.002 C 
ATOM     15  C   UNL A   1      34.340  16.623  23.101  1.00  0.00     0.004 C 
ENDBRANCH  13  14
ENDBRANCH   9  13
BRANCH  12  16
ATOM     16  O   UNL A   1      31.916  22.990  23.512  1.00  0.00    -0.488 OA
BRANCH  16  17
ATOM     17  C   UNL A   1      30.866  23.863  23.823  1.00  0.00     0.178 C 
ATOM     18  C   UNL A   1      30.767  24.007  25.294  1.00  0.00     0.074 C 
ATOM     19  C   UNL A   1      30.754  25.199  23.092  1.00  0.00     0.080 C 
ATOM     20  C   UNL A   1      31.873  24.917  25.689  1.00  0.00     0.165 C 
ATOM     21  C   UNL A   1      32.042  25.931  23.303  1.00  0.00     0.072 C 
ATOM     22  O   UNL A   1      32.492  25.694  24.655  1.00  0.00    -0.375 OA
ATOM     23  C   UNL A   1      33.033  25.674  22.089  1.00  0.00     0.036 C 
ATOM     24  C   UNL A   1      32.211  27.442  22.871  1.00  0.00     0.036 C 
ATOM     25  C   UNL A   1      33.608  27.064  22.325  1.00  0.00     0.006 C 
ENDBRANCH  16  17
ENDBRANCH  12  16
ENDBRANCH   5   8
ENDBRANCH   3   4
ENDBRANCH   2   3
ENDBRANCH   1   2
BRANCH   1  26
ATOM     26  C   UNL A   1      39.145  21.148  26.327  1.00  0.00     0.116 C 
BRANCH  26  27
ATOM     27  N   UNL A   1      40.008  19.991  26.111  1.00  0.00    -0.352 N 
ATOM     28  C   UNL A   1      41.387  19.915  26.122  1.00  0.00     0.251 C 
ATOM     29  H   UNL A   1      39.540  19.144  25.931  1.00  0.00     0.163 HD
ATOM     30  O   UNL A   1      41.951  18.855  25.850  1.00  0.00    -0.269 OA
BRANCH  28  31
ATOM     31  C   UNL A   1      42.192  21.122  26.423  1.00  0.00     0.039 A 
ATOM     32  C   UNL A   1      42.554  21.984  25.384  1.00  0.00     0.014 A 
ATOM     33  C   UNL A   1      42.533  21.435  27.741  1.00  0.00     0.014 A 
ATOM     34  C   UNL A   1      43.162  23.207  25.682  1.00  0.00     0.010 A 
ATOM     35  C   UNL A   1      43.046  22.696  28.041  1.00  0.00     0.010 A 
ATOM     36  C   UNL A   1      43.365  23.601  27.017  1.00  0.00    -0.014 A 
BRANCH  36  37
ATOM     37  C   UNL A   1      43.888  24.956  27.344  1.00  0.00     0.031 A 
ATOM     38  C   UNL A   1      45.340  25.293  27.124  1.00  0.00     0.074 A 
ATOM     39  C   UNL A   1      43.060  25.879  27.878  1.00  0.00     0.049 A 
ATOM     40  N   UNL A   1      45.957  26.434  27.301  1.00  0.00    -0.248 NA
ATOM     41  C   UNL A   1      46.220  24.204  26.672  1.00  0.00     0.031 C 
ATOM     42  C   UNL A   1      41.651  25.659  28.219  1.00  0.00     0.029 A 
ATOM     43  N   UNL A   1      43.277  27.193  28.219  1.00  0.00    -0.354 N 
ATOM     44  C   UNL A   1      47.291  26.198  26.990  1.00  0.00     0.074 A 
ATOM     45  C   UNL A   1      47.409  24.790  26.683  1.00  0.00     0.031 C 
ATOM     46  C   UNL A   1      41.118  26.810  28.663  1.00  0.00     0.029 A 
ATOM     47  C   UNL A   1      42.151  27.841  28.673  1.00  0.00     0.049 A 
ATOM     48  H   UNL A   1      44.156  27.629  28.144  1.00  0.00     0.167 HD
ATOM     49  C   UNL A   1      48.322  27.075  26.933  1.00  0.00     0.031 A 
ATOM     50  C   UNL A   1      41.963  29.124  29.041  1.00  0.00     0.031 A 
ATOM     51  C   UNL A   1      48.203  28.477  27.233  1.00  0.00     0.049 A 
ATOM     52  C   UNL A   1      43.118  30.086  28.947  1.00  0.00     0.074 A 
ATOM     53  C   UNL A   1      49.173  29.461  27.149  1.00  0.00     0.029 A 
ATOM     54  N   UNL A   1      47.044  29.095  27.677  1.00  0.00    -0.354 N 
ATOM     55  N   UNL A   1      44.351  29.858  28.564  1.00  0.00    -0.248 NA
ATOM     56  C   UNL A   1      42.845  31.481  29.313  1.00  0.00     0.031 C 
ATOM     57  C   UNL A   1      48.614  30.664  27.596  1.00  0.00     0.029 A 
ATOM     58  C   UNL A   1      47.279  30.443  27.893  1.00  0.00     0.049 A 
ATOM     59  H   UNL A   1      46.182  28.641  27.819  1.00  0.00     0.167 HD
ATOM     60  C   UNL A   1      44.996  31.090  28.615  1.00  0.00     0.074 A 
ATOM     61  C   UNL A   1      44.007  32.059  29.043  1.00  0.00     0.031 C 
ATOM     62  C   UNL A   1      46.288  31.393  28.333  1.00  0.00     0.031 A 
BRANCH  49  63
ATOM     63  C   UNL A   1      49.671  26.537  26.525  1.00  0.00    -0.014 A 
ATOM     64  C   UNL A   1      50.527  25.931  27.464  1.00  0.00     0.010 A 
ATOM     65  C   UNL A   1      50.078  26.607  25.180  1.00  0.00     0.010 A 
ATOM     66  C   UNL A   1      51.780  25.448  27.077  1.00  0.00     0.020 A 
ATOM     67  C   UNL A   1      51.317  26.096  24.781  1.00  0.00     0.020 A 
ATOM     68  C   UNL A   1      52.168  25.536  25.737  1.00  0.00     0.054 A 
BRANCH  68  69
ATOM     69  S   UNL A   1      53.789  24.878  25.258  1.00  0.00     0.124 S 
ATOM     70  O   UNL A   1      54.063  25.619  24.029  1.00  0.00    -0.237 OA
ATOM     71  O   UNL A   1      54.627  25.229  26.402  1.00  0.00    -0.237 OA
ATOM     72  O   UNL A   1      53.547  23.448  25.082  1.00  0.00    -0.744 OA
ENDBRANCH  68  69
ENDBRANCH  49  63
BRANCH  50  73
ATOM     73  C   UNL A   1      40.618  29.585  29.489  1.00  0.00    -0.014 A 
ATOM     74  C   UNL A   1      40.357  29.817  30.852  1.00  0.00     0.010 A 
ATOM     75  C   UNL A   1      39.590  29.800  28.554  1.00  0.00     0.010 A 
ATOM     76  C   UNL A   1      39.088  30.232  31.273  1.00  0.00     0.020 A 
ATOM     77  C   UNL A   1      38.330  30.246  28.966  1.00  0.00     0.020 A 
ATOM     78  C   UNL A   1      38.083  30.447  30.325  1.00  0.00     0.054 A 
BRANCH  78  79
ATOM     79  S   UNL A   1      36.461  31.033  30.888  1.00  0.00     0.124 S 
ATOM     80  O   UNL A   1      35.967  29.885  31.640  1.00  0.00    -0.237 OA
ATOM     81  O   UNL A   1      36.808  32.209  31.680  1.00  0.00    -0.237 OA
ATOM     82  O   UNL A   1      35.751  31.318  29.642  1.00  0.00    -0.744 OA
ENDBRANCH  78  79
ENDBRANCH  50  73
BRANCH  62  83
ATOM     83  C   UNL A   1      46.695  32.840  28.446  1.00  0.00    -0.014 A 
ATOM     84  C   UNL A   1      46.567  33.726  27.363  1.00  0.00     0.010 A 
ATOM     85  C   UNL A   1      47.206  33.320  29.666  1.00  0.00     0.010 A 
ATOM     86  C   UNL A   1      47.000  35.049  27.478  1.00  0.00     0.020 A 
ATOM     87  C   UNL A   1      47.608  34.651  29.796  1.00  0.00     0.020 A 
ATOM     88  C   UNL A   1      47.527  35.501  28.692  1.00  0.00     0.054 A 
BRANCH  88  89
ATOM     89  S   UNL A   1      48.090  37.220  28.815  1.00  0.00     0.124 S 
ATOM     90  O   UNL A   1      48.752  37.230  30.116  1.00  0.00    -0.237 OA
ATOM     91  O   UNL A   1      48.973  37.352  27.659  1.00  0.00    -0.237 OA
ATOM     92  O   UNL A   1      46.854  37.996  28.739  1.00  0.00    -0.744 OA
ENDBRANCH  88  89
ENDBRANCH  62  83
ENDBRANCH  36  37
ENDBRANCH  28  31
ENDBRANCH  26  27
ENDBRANCH   1  26
TORSDOF 18
ENDMDL
MODEL 3
REMARK VINA RESULT:     -10.9      5.024      9.929
REMARK SMILES CCCc1cc(O[C@H]2CCOC3(CCC3)C2)c(C(=O)NCCCCNC(=O)c2ccc(-c3c4nc(c(-c5ccc(S(=O)(=O)[O-])cc5)c5ccc([nH]5)c(-c5ccc(S(=O)(=O)[O-])cc5)c5nc(c(-c6ccc(S(=O)(=O)[O-])cc6)c6ccc3[nH]6)C=C5)C=C4)cc2)s1
REMARK SMILES IDX 23 1 22 2 21 3 20 4 18 5 19 6 17 8 4 9 5 10 88 11 6 12 3 13
REMARK SMILES IDX 2 14 1 15 7 16 8 17 9 18 16 19 10 20 12 21 11 22 13 23 15 24
REMARK SMILES IDX 14 25 24 26 25 27 26 28 27 30 28 31 29 32 87 33 30 34 86 35
REMARK SMILES IDX 31 36 32 37 33 38 80 39 34 40 85 41 79 42 81 43 35 44 84 45
REMARK SMILES IDX 78 46 77 47 36 49 66 50 47 51 65 52 48 53 51 54 64 55 82 56
REMARK SMILES IDX 49 57 50 58 63 60 83 61 52 62 37 63 38 64 46 65 39 66 45 67
REMARK SMILES IDX 40 68 41 69 42 70 43 71 44 72 67 73 68 74 76 75 69 76 75 77
REMARK SMILES IDX 70 78 71 79 72 80 73 81 74 82 53 83 54 84 62 85 55 86 61 87
REMARK SMILES IDX 56 88 57 89 58 90 59 91 60 92
REMARK H PARENT 20 7 25 29 81 48 51 59
REMARK Flexibility Score: inf
ROOT
ATOM      1  C   UNL A   1      36.518  23.194  23.604  1.00  0.00     0.023 C 
ENDROOT
BRANCH   1   2
ATOM      2  C   UNL A   1      35.010  22.939  23.454  1.00  0.00     0.023 C 
BRANCH   2   3
ATOM      3  C   UNL A   1      34.147  24.199  23.231  1.00  0.00     0.116 C 
BRANCH   3   4
ATOM      4  N   UNL A   1      33.620  24.819  24.488  1.00  0.00    -0.351 N 
ATOM      5  C   UNL A   1      33.134  25.871  25.251  1.00  0.00     0.265 C 
ATOM      6  O   UNL A   1      32.737  25.249  26.269  1.00  0.00    -0.268 OA
ATOM      7  H   UNL A   1      33.613  24.065  25.121  1.00  0.00     0.163 HD
BRANCH   5   8
ATOM      8  C   UNL A   1      32.920  27.405  25.251  1.00  0.00     0.134 A 
ATOM      9  C   UNL A   1      33.629  29.610  26.500  1.00  0.00     0.009 A 
ATOM     10  C   UNL A   1      32.866  29.803  25.399  1.00  0.00     0.062 A 
ATOM     11  S   UNL A   1      34.029  27.997  26.645  1.00  0.00    -0.131 S 
ATOM     12  C   UNL A   1      32.329  28.625  24.756  1.00  0.00     0.143 A 
BRANCH   9  13
ATOM     13  C   UNL A   1      34.066  30.666  27.463  1.00  0.00     0.046 C 
BRANCH  13  14
ATOM     14  C   UNL A   1      35.562  30.555  27.782  1.00  0.00     0.002 C 
ATOM     15  C   UNL A   1      35.830  30.036  29.187  1.00  0.00     0.004 C 
ENDBRANCH  13  14
ENDBRANCH   9  13
BRANCH  12  16
ATOM     16  O   UNL A   1      31.432  29.146  23.867  1.00  0.00    -0.488 OA
BRANCH  16  17
ATOM     17  C   UNL A   1      30.955  28.832  22.588  1.00  0.00     0.178 C 
ATOM     18  C   UNL A   1      30.469  27.433  22.576  1.00  0.00     0.074 C 
ATOM     19  C   UNL A   1      30.001  29.794  21.884  1.00  0.00     0.080 C 
ATOM     20  C   UNL A   1      29.148  27.456  23.256  1.00  0.00     0.165 C 
ATOM     21  C   UNL A   1      28.820  29.989  22.783  1.00  0.00     0.072 C 
ATOM     22  O   UNL A   1      28.505  28.727  23.413  1.00  0.00    -0.375 OA
ATOM     23  C   UNL A   1      29.013  31.287  23.678  1.00  0.00     0.036 C 
ATOM     24  C   UNL A   1      27.527  30.753  22.291  1.00  0.00     0.036 C 
ATOM     25  C   UNL A   1      27.499  31.461  23.666  1.00  0.00     0.006 C 
ENDBRANCH  16  17
ENDBRANCH  12  16
ENDBRANCH   5   8
ENDBRANCH   3   4
ENDBRANCH   2   3
ENDBRANCH   1   2
BRANCH   1  26
ATOM     26  C   UNL A   1      37.068  23.357  25.021  1.00  0.00     0.116 C 
BRANCH  26  27
ATOM     27  N   UNL A   1      38.014  22.324  25.431  1.00  0.00    -0.352 N 
ATOM     28  C   UNL A   1      39.193  22.450  26.139  1.00  0.00     0.251 C 
ATOM     29  H   UNL A   1      37.778  21.407  25.164  1.00  0.00     0.163 HD
ATOM     30  O   UNL A   1      39.904  21.465  26.338  1.00  0.00    -0.269 OA
BRANCH  28  31
ATOM     31  C   UNL A   1      39.624  23.781  26.626  1.00  0.00     0.039 A 
ATOM     32  C   UNL A   1      39.727  24.011  28.001  1.00  0.00     0.014 A 
ATOM     33  C   UNL A   1      39.988  24.782  25.722  1.00  0.00     0.014 A 
ATOM     34  C   UNL A   1      40.296  25.202  28.461  1.00  0.00     0.010 A 
ATOM     35  C   UNL A   1      40.645  25.923  26.181  1.00  0.00     0.010 A 
ATOM     36  C   UNL A   1      40.811  26.148  27.556  1.00  0.00    -0.014 A 
BRANCH  36  37
ATOM     37  C   UNL A   1      41.536  27.355  28.040  1.00  0.00     0.031 A 
ATOM     38  C   UNL A   1      40.784  28.513  28.644  1.00  0.00     0.074 A 
ATOM     39  C   UNL A   1      42.878  27.427  27.902  1.00  0.00     0.049 A 
ATOM     40  N   UNL A   1      41.254  29.618  29.166  1.00  0.00    -0.248 NA
ATOM     41  C   UNL A   1      39.315  28.434  28.639  1.00  0.00     0.031 C 
ATOM     42  C   UNL A   1      43.720  26.412  27.262  1.00  0.00     0.029 A 
ATOM     43  N   UNL A   1      43.773  28.389  28.302  1.00  0.00    -0.354 N 
ATOM     44  C   UNL A   1      40.142  30.363  29.542  1.00  0.00     0.074 A 
ATOM     45  C   UNL A   1      38.975  29.620  29.125  1.00  0.00     0.031 C 
ATOM     46  C   UNL A   1      45.008  26.779  27.363  1.00  0.00     0.029 A 
ATOM     47  C   UNL A   1      45.086  28.068  28.044  1.00  0.00     0.049 A 
ATOM     48  H   UNL A   1      43.500  29.232  28.733  1.00  0.00     0.167 HD
ATOM     49  C   UNL A   1      40.091  31.545  30.202  1.00  0.00     0.031 A 
ATOM     50  C   UNL A   1      46.226  28.723  28.336  1.00  0.00     0.031 A 
ATOM     51  C   UNL A   1      41.253  32.282  30.623  1.00  0.00     0.049 A 
ATOM     52  C   UNL A   1      46.146  30.023  29.091  1.00  0.00     0.074 A 
ATOM     53  C   UNL A   1      41.311  33.459  31.350  1.00  0.00     0.029 A 
ATOM     54  N   UNL A   1      42.563  31.916  30.353  1.00  0.00    -0.354 N 
ATOM     55  N   UNL A   1      45.085  30.667  29.515  1.00  0.00    -0.248 NA
ATOM     56  C   UNL A   1      47.420  30.672  29.425  1.00  0.00     0.031 C 
ATOM     57  C   UNL A   1      42.654  33.833  31.470  1.00  0.00     0.029 A 
ATOM     58  C   UNL A   1      43.436  32.854  30.878  1.00  0.00     0.049 A 
ATOM     59  H   UNL A   1      42.832  31.107  29.859  1.00  0.00     0.167 HD
ATOM     60  C   UNL A   1      45.565  31.782  30.194  1.00  0.00     0.074 A 
ATOM     61  C   UNL A   1      47.012  31.709  30.142  1.00  0.00     0.031 C 
ATOM     62  C   UNL A   1      44.873  32.776  30.806  1.00  0.00     0.031 A 
BRANCH  49  63
ATOM     63  C   UNL A   1      38.727  32.109  30.514  1.00  0.00    -0.014 A 
ATOM     64  C   UNL A   1      38.052  31.766  31.700  1.00  0.00     0.010 A 
ATOM     65  C   UNL A   1      38.125  33.020  29.628  1.00  0.00     0.010 A 
ATOM     66  C   UNL A   1      36.783  32.284  31.972  1.00  0.00     0.020 A 
ATOM     67  C   UNL A   1      36.869  33.567  29.911  1.00  0.00     0.020 A 
ATOM     68  C   UNL A   1      36.199  33.181  31.074  1.00  0.00     0.054 A 
BRANCH  68  69
ATOM     69  S   UNL A   1      34.562  33.857  31.465  1.00  0.00     0.124 S 
ATOM     70  O   UNL A   1      33.947  33.940  30.142  1.00  0.00    -0.237 OA
ATOM     71  O   UNL A   1      34.002  32.844  32.356  1.00  0.00    -0.237 OA
ATOM     72  O   UNL A   1      34.858  35.142  32.095  1.00  0.00    -0.744 OA
ENDBRANCH  68  69
ENDBRANCH  49  63
BRANCH  50  73
ATOM     73  C   UNL A   1      47.544  28.142  27.952  1.00  0.00    -0.014 A 
ATOM     74  C   UNL A   1      48.262  27.333  28.853  1.00  0.00     0.010 A 
ATOM     75  C   UNL A   1      48.088  28.390  26.679  1.00  0.00     0.010 A 
ATOM     76  C   UNL A   1      49.507  26.804  28.496  1.00  0.00     0.020 A 
ATOM     77  C   UNL A   1      49.317  27.836  26.307  1.00  0.00     0.020 A 
ATOM     78  C   UNL A   1      50.025  27.056  27.223  1.00  0.00     0.054 A 
BRANCH  78  79
ATOM     79  S   UNL A   1      51.618  26.318  26.764  1.00  0.00     0.124 S 
ATOM     80  O   UNL A   1      51.319  24.891  26.819  1.00  0.00    -0.237 OA
ATOM     81  O   UNL A   1      51.848  26.867  25.432  1.00  0.00    -0.237 OA
ATOM     82  O   UNL A   1      52.531  26.807  27.797  1.00  0.00    -0.744 OA
ENDBRANCH  78  79
ENDBRANCH  50  73
BRANCH  62  83
ATOM     83  C   UNL A   1      45.677  33.847  31.498  1.00  0.00    -0.014 A 
ATOM     84  C   UNL A   1      46.068  35.019  30.828  1.00  0.00     0.010 A 
ATOM     85  C   UNL A   1      46.037  33.677  32.848  1.00  0.00     0.010 A 
ATOM     86  C   UNL A   1      46.858  35.972  31.476  1.00  0.00     0.020 A 
ATOM     87  C   UNL A   1      46.798  34.644  33.510  1.00  0.00     0.020 A 
ATOM     88  C   UNL A   1      47.225  35.773  32.811  1.00  0.00     0.054 A 
BRANCH  88  89
ATOM     89  S   UNL A   1      48.257  37.021  33.629  1.00  0.00     0.124 S 
ATOM     90  O   UNL A   1      47.256  37.872  34.264  1.00  0.00    -0.237 OA
ATOM     91  O   UNL A   1      49.070  36.218  34.539  1.00  0.00    -0.237 OA
ATOM     92  O   UNL A   1      48.993  37.638  32.527  1.00  0.00    -0.744 OA
ENDBRANCH  88  89
ENDBRANCH  62  83
ENDBRANCH  36  37
ENDBRANCH  28  31
ENDBRANCH  26  27
ENDBRANCH   1  26
TORSDOF 18
ENDMDL
