MODEL 1
REMARK VINA RESULT:     -11.8      0.000      0.000
REMARK SMILES CCC(CC)COc1cc2c(cc1Cl)C=C(C(=O)NCCCCNC(=O)c1ccc(-c3c4nc(c(-c5ccc(S(=O)(=O)[O-])cc5)c5ccc([nH]5)c(-c5ccc(S(=O)(=O)[O-])cc5)c5nc(c(-c6ccc(S(=O)(=O)[O-])cc6)c6ccc3[nH]6)C=C5)C=C4)cc1)[C@@H](C(F)(F)F)O2
REMARK SMILES IDX 21 1 20 2 19 3 17 4 18 5 16 7 8 8 9 9 13 10 10 11 12 12
REMARK SMILES IDX 14 13 11 14 92 15 15 16 87 17 7 18 6 19 3 20 2 21 1 22 4 23
REMARK SMILES IDX 5 24 88 25 89 26 90 27 91 28 22 29 23 30 24 31 25 32 26 34
REMARK SMILES IDX 27 35 28 36 86 37 29 38 85 39 30 40 31 41 32 42 79 43 33 44
REMARK SMILES IDX 84 45 78 46 80 47 34 48 83 49 77 50 76 51 35 53 65 54 46 55
REMARK SMILES IDX 64 56 47 57 50 58 63 59 81 60 48 61 49 62 62 64 82 65 51 66
REMARK SMILES IDX 36 67 37 68 45 69 38 70 44 71 39 72 40 73 41 74 42 75 43 76
REMARK SMILES IDX 66 77 67 78 75 79 68 80 74 81 69 82 70 83 71 84 72 85 73 86
REMARK SMILES IDX 52 87 53 88 61 89 54 90 60 91 55 92 56 93 57 94 58 95 59 96
REMARK H PARENT 19 6 24 33 80 52 50 63
REMARK Flexibility Score: inf
ROOT
ATOM      1  C   UNL A   1      33.007  30.099  26.730  1.00  0.00     0.023 C 
ENDROOT
BRANCH   1   2
ATOM      2  C   UNL A   1      33.118  29.781  25.243  1.00  0.00     0.116 C 
BRANCH   2   3
ATOM      3  N   UNL A   1      31.815  29.706  24.610  1.00  0.00    -0.352 N 
ATOM      4  C   UNL A   1      31.017  28.718  24.145  1.00  0.00     0.251 C 
ATOM      5  O   UNL A   1      29.912  29.075  23.722  1.00  0.00    -0.270 OA
ATOM      6  H   UNL A   1      31.410  30.595  24.489  1.00  0.00     0.163 HD
BRANCH   4   7
ATOM      7  C   UNL A   1      31.390  27.278  24.086  1.00  0.00     0.067 C 
ATOM      8  C   UNL A   1      31.713  22.423  25.262  1.00  0.00     0.141 A 
ATOM      9  C   UNL A   1      31.335  23.103  24.106  1.00  0.00     0.095 A 
ATOM     10  C   UNL A   1      32.246  23.125  26.353  1.00  0.00     0.083 A 
ATOM     11  C   UNL A   1      31.373  24.492  24.101  1.00  0.00     0.131 A 
ATOM     12  C   UNL A   1      32.205  24.521  26.370  1.00  0.00     0.036 A 
ATOM     13  Cl  UNL A   1      32.884  22.309  27.734  1.00  0.00    -0.080 Cl
ATOM     14  C   UNL A   1      31.727  25.205  25.254  1.00  0.00     0.019 A 
ATOM     15  O   UNL A   1      31.023  25.130  22.940  1.00  0.00    -0.475 OA
ATOM     16  C   UNL A   1      31.511  26.648  25.270  1.00  0.00     0.025 C 
ATOM     17  C   UNL A   1      31.573  26.480  22.827  1.00  0.00     0.314 C 
BRANCH   8  18
ATOM     18  O   UNL A   1      31.541  21.065  25.333  1.00  0.00    -0.492 OA
BRANCH  18  19
ATOM     19  C   UNL A   1      32.133  20.377  24.206  1.00  0.00     0.233 C 
BRANCH  19  20
ATOM     20  C   UNL A   1      32.974  19.156  24.655  1.00  0.00     0.026 C 
BRANCH  20  21
ATOM     21  C   UNL A   1      33.125  18.112  23.523  1.00  0.00     0.003 C 
ATOM     22  C   UNL A   1      34.350  17.226  23.700  1.00  0.00     0.004 C 
ENDBRANCH  20  21
BRANCH  20  23
ATOM     23  C   UNL A   1      34.343  19.589  25.225  1.00  0.00     0.003 C 
ATOM     24  C   UNL A   1      34.938  20.850  24.614  1.00  0.00     0.004 C 
ENDBRANCH  20  23
ENDBRANCH  19  20
ENDBRANCH  18  19
ENDBRANCH   8  18
BRANCH  17  25
ATOM     25  C   UNL A   1      33.055  26.435  22.380  1.00  0.00     0.429 C 
ATOM     26  F   UNL A   1      33.481  27.672  22.023  1.00  0.00    -0.167 F 
ATOM     27  F   UNL A   1      33.877  26.013  23.372  1.00  0.00    -0.167 F 
ATOM     28  F   UNL A   1      33.273  25.616  21.327  1.00  0.00    -0.167 F 
ENDBRANCH  17  25
ENDBRANCH   4   7
ENDBRANCH   2   3
ENDBRANCH   1   2
BRANCH   1  29
ATOM     29  C   UNL A   1      34.206  30.857  27.301  1.00  0.00     0.023 C 
BRANCH  29  30
ATOM     30  C   UNL A   1      35.265  29.987  27.975  1.00  0.00     0.116 C 
BRANCH  30  31
ATOM     31  N   UNL A   1      35.331  30.144  29.422  1.00  0.00    -0.352 N 
ATOM     32  C   UNL A   1      36.385  29.862  30.260  1.00  0.00     0.251 C 
ATOM     33  H   UNL A   1      34.519  30.496  29.855  1.00  0.00     0.163 HD
ATOM     34  O   UNL A   1      36.259  29.972  31.476  1.00  0.00    -0.269 OA
BRANCH  32  35
ATOM     35  C   UNL A   1      37.652  29.377  29.675  1.00  0.00     0.039 A 
ATOM     36  C   UNL A   1      38.519  28.592  30.437  1.00  0.00     0.014 A 
ATOM     37  C   UNL A   1      38.005  29.775  28.383  1.00  0.00     0.014 A 
ATOM     38  C   UNL A   1      39.806  28.357  29.976  1.00  0.00     0.010 A 
ATOM     39  C   UNL A   1      39.273  29.458  27.885  1.00  0.00     0.010 A 
ATOM     40  C   UNL A   1      40.202  28.791  28.697  1.00  0.00    -0.014 A 
BRANCH  40  41
ATOM     41  C   UNL A   1      41.589  28.506  28.248  1.00  0.00     0.031 A 
ATOM     42  C   UNL A   1      42.686  29.523  28.414  1.00  0.00     0.074 A 
ATOM     43  C   UNL A   1      41.871  27.276  27.776  1.00  0.00     0.049 A 
ATOM     44  N   UNL A   1      43.967  29.387  28.184  1.00  0.00    -0.248 NA
ATOM     45  C   UNL A   1      42.306  30.860  28.898  1.00  0.00     0.031 C 
ATOM     46  C   UNL A   1      40.886  26.209  27.582  1.00  0.00     0.029 A 
ATOM     47  N   UNL A   1      43.064  26.695  27.434  1.00  0.00    -0.354 N 
ATOM     48  C   UNL A   1      44.543  30.616  28.483  1.00  0.00     0.074 A 
ATOM     49  C   UNL A   1      43.469  31.499  28.883  1.00  0.00     0.031 C 
ATOM     50  C   UNL A   1      41.525  25.079  27.247  1.00  0.00     0.029 A 
ATOM     51  C   UNL A   1      42.954  25.357  27.136  1.00  0.00     0.049 A 
ATOM     52  H   UNL A   1      43.917  27.187  27.404  1.00  0.00     0.167 HD
ATOM     53  C   UNL A   1      45.850  30.970  28.437  1.00  0.00     0.031 A 
ATOM     54  C   UNL A   1      43.891  24.445  26.817  1.00  0.00     0.031 A 
ATOM     55  C   UNL A   1      46.916  30.083  28.047  1.00  0.00     0.049 A 
ATOM     56  C   UNL A   1      45.328  24.869  26.754  1.00  0.00     0.074 A 
ATOM     57  C   UNL A   1      48.273  30.350  27.982  1.00  0.00     0.029 A 
ATOM     58  N   UNL A   1      46.752  28.760  27.664  1.00  0.00    -0.354 N 
ATOM     59  N   UNL A   1      45.850  26.039  27.033  1.00  0.00    -0.248 NA
ATOM     60  C   UNL A   1      46.301  23.855  26.326  1.00  0.00     0.031 C 
ATOM     61  C   UNL A   1      48.922  29.206  27.508  1.00  0.00     0.029 A 
ATOM     62  C   UNL A   1      47.977  28.207  27.336  1.00  0.00     0.049 A 
ATOM     63  H   UNL A   1      45.890  28.285  27.629  1.00  0.00     0.167 HD
ATOM     64  C   UNL A   1      47.212  25.910  26.800  1.00  0.00     0.074 A 
ATOM     65  C   UNL A   1      47.439  24.535  26.396  1.00  0.00     0.031 C 
ATOM     66  C   UNL A   1      48.185  26.849  26.900  1.00  0.00     0.031 A 
BRANCH  53  67
ATOM     67  C   UNL A   1      46.219  32.382  28.815  1.00  0.00    -0.014 A 
ATOM     68  C   UNL A   1      46.453  32.706  30.164  1.00  0.00     0.010 A 
ATOM     69  C   UNL A   1      46.228  33.408  27.854  1.00  0.00     0.010 A 
ATOM     70  C   UNL A   1      46.663  34.033  30.550  1.00  0.00     0.020 A 
ATOM     71  C   UNL A   1      46.462  34.734  28.232  1.00  0.00     0.020 A 
ATOM     72  C   UNL A   1      46.656  35.040  29.582  1.00  0.00     0.054 A 
BRANCH  72  73
ATOM     73  S   UNL A   1      46.919  36.760  30.100  1.00  0.00     0.124 S 
ATOM     74  O   UNL A   1      47.330  36.602  31.492  1.00  0.00    -0.237 OA
ATOM     75  O   UNL A   1      47.958  37.218  29.182  1.00  0.00    -0.237 OA
ATOM     76  O   UNL A   1      45.609  37.378  29.900  1.00  0.00    -0.744 OA
ENDBRANCH  72  73
ENDBRANCH  53  67
BRANCH  54  77
ATOM     77  C   UNL A   1      43.474  23.040  26.562  1.00  0.00    -0.014 A 
ATOM     78  C   UNL A   1      42.694  22.350  27.508  1.00  0.00     0.010 A 
ATOM     79  C   UNL A   1      43.943  22.355  25.428  1.00  0.00     0.010 A 
ATOM     80  C   UNL A   1      42.445  20.984  27.359  1.00  0.00     0.020 A 
ATOM     81  C   UNL A   1      43.671  20.994  25.261  1.00  0.00     0.020 A 
ATOM     82  C   UNL A   1      42.952  20.311  26.246  1.00  0.00     0.054 A 
BRANCH  82  83
ATOM     83  S   UNL A   1      42.676  18.524  26.104  1.00  0.00     0.124 S 
ATOM     84  O   UNL A   1      43.553  18.174  24.990  1.00  0.00    -0.237 OA
ATOM     85  O   UNL A   1      43.093  18.028  27.413  1.00  0.00    -0.237 OA
ATOM     86  O   UNL A   1      41.245  18.423  25.831  1.00  0.00    -0.744 OA
ENDBRANCH  82  83
ENDBRANCH  54  77
BRANCH  66  87
ATOM     87  C   UNL A   1      49.584  26.438  26.532  1.00  0.00    -0.014 A 
ATOM     88  C   UNL A   1      50.045  26.604  25.214  1.00  0.00     0.010 A 
ATOM     89  C   UNL A   1      50.418  25.814  27.478  1.00  0.00     0.010 A 
ATOM     90  C   UNL A   1      51.312  26.144  24.844  1.00  0.00     0.020 A 
ATOM     91  C   UNL A   1      51.695  25.376  27.118  1.00  0.00     0.020 A 
ATOM     92  C   UNL A   1      52.126  25.527  25.797  1.00  0.00     0.054 A 
BRANCH  92  93
ATOM     93  S   UNL A   1      53.775  24.951  25.308  1.00  0.00     0.124 S 
ATOM     94  O   UNL A   1      53.540  23.533  25.053  1.00  0.00    -0.237 OA
ATOM     95  O   UNL A   1      54.068  25.764  24.130  1.00  0.00    -0.237 OA
ATOM     96  O   UNL A   1      54.599  25.248  26.478  1.00  0.00    -0.744 OA
ENDBRANCH  92  93
ENDBRANCH  66  87
ENDBRANCH  40  41
ENDBRANCH  32  35
ENDBRANCH  30  31
ENDBRANCH  29  30
ENDBRANCH   1  29
TORSDOF 20
ENDMDL
MODEL 2
REMARK VINA RESULT:     -11.7      5.474     10.505
REMARK SMILES CCC(CC)COc1cc2c(cc1Cl)C=C(C(=O)NCCCCNC(=O)c1ccc(-c3c4nc(c(-c5ccc(S(=O)(=O)[O-])cc5)c5ccc([nH]5)c(-c5ccc(S(=O)(=O)[O-])cc5)c5nc(c(-c6ccc(S(=O)(=O)[O-])cc6)c6ccc3[nH]6)C=C5)C=C4)cc1)[C@@H](C(F)(F)F)O2
REMARK SMILES IDX 21 1 20 2 19 3 17 4 18 5 16 7 8 8 9 9 13 10 10 11 12 12
REMARK SMILES IDX 14 13 11 14 92 15 15 16 87 17 7 18 6 19 3 20 2 21 1 22 4 23
REMARK SMILES IDX 5 24 88 25 89 26 90 27 91 28 22 29 23 30 24 31 25 32 26 34
REMARK SMILES IDX 27 35 28 36 86 37 29 38 85 39 30 40 31 41 32 42 79 43 33 44
REMARK SMILES IDX 84 45 78 46 80 47 34 48 83 49 77 50 76 51 35 53 65 54 46 55
REMARK SMILES IDX 64 56 47 57 50 58 63 59 81 60 48 61 49 62 62 64 82 65 51 66
REMARK SMILES IDX 36 67 37 68 45 69 38 70 44 71 39 72 40 73 41 74 42 75 43 76
REMARK SMILES IDX 66 77 67 78 75 79 68 80 74 81 69 82 70 83 71 84 72 85 73 86
REMARK SMILES IDX 52 87 53 88 61 89 54 90 60 91 55 92 56 93 57 94 58 95 59 96
REMARK H PARENT 19 6 24 33 80 52 50 63
REMARK Flexibility Score: inf
ROOT
ATOM      1  C   UNL A   1      35.127  22.869  26.485  1.00  0.00     0.023 C 
ENDROOT
BRANCH   1   2
ATOM      2  C   UNL A   1      34.089  21.764  26.313  1.00  0.00     0.116 C 
BRANCH   2   3
ATOM      3  N   UNL A   1      33.721  21.584  24.922  1.00  0.00    -0.352 N 
ATOM      4  C   UNL A   1      33.011  22.283  24.007  1.00  0.00     0.251 C 
ATOM      5  O   UNL A   1      32.983  21.804  22.868  1.00  0.00    -0.270 OA
ATOM      6  H   UNL A   1      34.076  20.744  24.550  1.00  0.00     0.163 HD
BRANCH   4   7
ATOM      7  C   UNL A   1      32.260  23.537  24.290  1.00  0.00     0.067 C 
ATOM      8  C   UNL A   1      30.829  28.332  24.129  1.00  0.00     0.141 A 
ATOM      9  C   UNL A   1      30.152  27.126  23.956  1.00  0.00     0.095 A 
ATOM     10  C   UNL A   1      32.165  28.337  24.557  1.00  0.00     0.083 A 
ATOM     11  C   UNL A   1      30.857  25.936  24.085  1.00  0.00     0.131 A 
ATOM     12  C   UNL A   1      32.885  27.142  24.606  1.00  0.00     0.036 A 
ATOM     13  Cl  UNL A   1      32.987  29.804  24.950  1.00  0.00    -0.080 Cl
ATOM     14  C   UNL A   1      32.236  25.940  24.329  1.00  0.00     0.019 A 
ATOM     15  O   UNL A   1      30.156  24.767  23.938  1.00  0.00    -0.475 OA
ATOM     16  C   UNL A   1      32.965  24.682  24.208  1.00  0.00     0.025 C 
ATOM     17  C   UNL A   1      30.789  23.620  24.586  1.00  0.00     0.314 C 
BRANCH   8  18
ATOM     18  O   UNL A   1      30.186  29.512  23.860  1.00  0.00    -0.492 OA
BRANCH  18  19
ATOM     19  C   UNL A   1      29.841  29.643  22.461  1.00  0.00     0.233 C 
BRANCH  19  20
ATOM     20  C   UNL A   1      29.209  31.023  22.153  1.00  0.00     0.026 C 
BRANCH  20  21
ATOM     21  C   UNL A   1      28.145  30.932  21.034  1.00  0.00     0.003 C 
ATOM     22  C   UNL A   1      28.022  32.220  20.232  1.00  0.00     0.004 C 
ENDBRANCH  20  21
BRANCH  20  23
ATOM     23  C   UNL A   1      28.646  31.688  23.429  1.00  0.00     0.003 C 
ATOM     24  C   UNL A   1      27.277  31.195  23.876  1.00  0.00     0.004 C 
ENDBRANCH  20  23
ENDBRANCH  19  20
ENDBRANCH  18  19
ENDBRANCH   8  18
BRANCH  17  25
ATOM     25  C   UNL A   1      30.505  23.622  26.108  1.00  0.00     0.429 C 
ATOM     26  F   UNL A   1      31.660  23.756  26.807  1.00  0.00    -0.167 F 
ATOM     27  F   UNL A   1      29.705  24.651  26.479  1.00  0.00    -0.167 F 
ATOM     28  F   UNL A   1      29.902  22.492  26.542  1.00  0.00    -0.167 F 
ENDBRANCH  17  25
ENDBRANCH   4   7
ENDBRANCH   2   3
ENDBRANCH   1   2
BRANCH   1  29
ATOM     29  C   UNL A   1      36.184  22.913  25.381  1.00  0.00     0.023 C 
BRANCH  29  30
ATOM     30  C   UNL A   1      37.411  23.768  25.689  1.00  0.00     0.116 C 
BRANCH  30  31
ATOM     31  N   UNL A   1      38.667  23.028  25.688  1.00  0.00    -0.352 N 
ATOM     32  C   UNL A   1      39.857  23.373  26.286  1.00  0.00     0.251 C 
ATOM     33  H   UNL A   1      38.664  22.173  25.199  1.00  0.00     0.163 HD
ATOM     34  O   UNL A   1      40.857  22.679  26.128  1.00  0.00    -0.269 OA
BRANCH  32  35
ATOM     35  C   UNL A   1      39.922  24.618  27.080  1.00  0.00     0.039 A 
ATOM     36  C   UNL A   1      40.770  25.654  26.686  1.00  0.00     0.014 A 
ATOM     37  C   UNL A   1      39.187  24.713  28.264  1.00  0.00     0.014 A 
ATOM     38  C   UNL A   1      41.016  26.701  27.562  1.00  0.00     0.010 A 
ATOM     39  C   UNL A   1      39.370  25.817  29.103  1.00  0.00     0.010 A 
ATOM     40  C   UNL A   1      40.324  26.794  28.783  1.00  0.00    -0.014 A 
BRANCH  40  41
ATOM     41  C   UNL A   1      40.617  27.940  29.682  1.00  0.00     0.031 A 
ATOM     42  C   UNL A   1      39.661  29.095  29.810  1.00  0.00     0.074 A 
ATOM     43  C   UNL A   1      41.715  27.880  30.462  1.00  0.00     0.049 A 
ATOM     44  N   UNL A   1      39.712  30.109  30.636  1.00  0.00    -0.248 NA
ATOM     45  C   UNL A   1      38.500  29.121  28.905  1.00  0.00     0.031 C 
ATOM     46  C   UNL A   1      42.706  26.802  30.426  1.00  0.00     0.029 A 
ATOM     47  N   UNL A   1      42.150  28.700  31.468  1.00  0.00    -0.354 N 
ATOM     48  C   UNL A   1      38.604  30.897  30.345  1.00  0.00     0.074 A 
ATOM     49  C   UNL A   1      37.912  30.261  29.245  1.00  0.00     0.031 C 
ATOM     50  C   UNL A   1      43.579  26.977  31.428  1.00  0.00     0.029 A 
ATOM     51  C   UNL A   1      43.251  28.213  32.133  1.00  0.00     0.049 A 
ATOM     52  H   UNL A   1      41.718  29.556  31.695  1.00  0.00     0.167 HD
ATOM     53  C   UNL A   1      38.198  32.040  30.948  1.00  0.00     0.031 A 
ATOM     54  C   UNL A   1      43.923  28.693  33.196  1.00  0.00     0.031 A 
ATOM     55  C   UNL A   1      38.887  32.663  32.049  1.00  0.00     0.049 A 
ATOM     56  C   UNL A   1      43.464  29.971  33.832  1.00  0.00     0.074 A 
ATOM     57  C   UNL A   1      38.544  33.817  32.732  1.00  0.00     0.029 A 
ATOM     58  N   UNL A   1      40.051  32.187  32.633  1.00  0.00    -0.354 N 
ATOM     59  N   UNL A   1      42.418  30.704  33.534  1.00  0.00    -0.248 NA
ATOM     60  C   UNL A   1      44.278  30.491  34.938  1.00  0.00     0.031 C 
ATOM     61  C   UNL A   1      39.528  34.067  33.694  1.00  0.00     0.029 A 
ATOM     62  C   UNL A   1      40.453  33.036  33.650  1.00  0.00     0.049 A 
ATOM     63  H   UNL A   1      40.522  31.365  32.364  1.00  0.00     0.167 HD
ATOM     64  C   UNL A   1      42.455  31.783  34.406  1.00  0.00     0.074 A 
ATOM     65  C   UNL A   1      43.604  31.586  35.269  1.00  0.00     0.031 C 
ATOM     66  C   UNL A   1      41.618  32.847  34.477  1.00  0.00     0.031 A 
BRANCH  53  67
ATOM     67  C   UNL A   1      36.949  32.710  30.437  1.00  0.00    -0.014 A 
ATOM     68  C   UNL A   1      37.035  33.648  29.391  1.00  0.00     0.010 A 
ATOM     69  C   UNL A   1      35.707  32.497  31.062  1.00  0.00     0.010 A 
ATOM     70  C   UNL A   1      35.910  34.377  28.995  1.00  0.00     0.020 A 
ATOM     71  C   UNL A   1      34.574  33.208  30.653  1.00  0.00     0.020 A 
ATOM     72  C   UNL A   1      34.689  34.159  29.637  1.00  0.00     0.054 A 
BRANCH  72  73
ATOM     73  S   UNL A   1      33.240  35.124  29.120  1.00  0.00     0.124 S 
ATOM     74  O   UNL A   1      33.855  36.311  28.533  1.00  0.00    -0.237 OA
ATOM     75  O   UNL A   1      32.575  34.226  28.180  1.00  0.00    -0.237 OA
ATOM     76  O   UNL A   1      32.517  35.346  30.370  1.00  0.00    -0.744 OA
ENDBRANCH  72  73
ENDBRANCH  53  67
BRANCH  54  77
ATOM     77  C   UNL A   1      45.085  27.926  33.721  1.00  0.00    -0.014 A 
ATOM     78  C   UNL A   1      46.366  28.116  33.170  1.00  0.00     0.010 A 
ATOM     79  C   UNL A   1      44.897  26.932  34.696  1.00  0.00     0.010 A 
ATOM     80  C   UNL A   1      47.424  27.280  33.535  1.00  0.00     0.020 A 
ATOM     81  C   UNL A   1      45.962  26.113  35.085  1.00  0.00     0.020 A 
ATOM     82  C   UNL A   1      47.210  26.272  34.477  1.00  0.00     0.054 A 
BRANCH  82  83
ATOM     83  S   UNL A   1      48.578  25.154  34.888  1.00  0.00     0.124 S 
ATOM     84  O   UNL A   1      48.347  24.048  33.964  1.00  0.00    -0.237 OA
ATOM     85  O   UNL A   1      49.757  25.971  34.609  1.00  0.00    -0.237 OA
ATOM     86  O   UNL A   1      48.355  24.851  36.299  1.00  0.00    -0.744 OA
ENDBRANCH  82  83
ENDBRANCH  54  77
BRANCH  66  87
ATOM     87  C   UNL A   1      41.930  33.907  35.498  1.00  0.00    -0.014 A 
ATOM     88  C   UNL A   1      41.453  33.780  36.815  1.00  0.00     0.010 A 
ATOM     89  C   UNL A   1      42.633  35.068  35.131  1.00  0.00     0.010 A 
ATOM     90  C   UNL A   1      41.664  34.801  37.745  1.00  0.00     0.020 A 
ATOM     91  C   UNL A   1      42.868  36.080  36.065  1.00  0.00     0.020 A 
ATOM     92  C   UNL A   1      42.365  35.948  37.362  1.00  0.00     0.054 A 
BRANCH  92  93
ATOM     93  S   UNL A   1      42.647  37.258  38.584  1.00  0.00     0.124 S 
ATOM     94  O   UNL A   1      43.479  38.198  37.839  1.00  0.00    -0.237 OA
ATOM     95  O   UNL A   1      41.294  37.716  38.889  1.00  0.00    -0.237 OA
ATOM     96  O   UNL A   1      43.319  36.561  39.680  1.00  0.00    -0.744 OA
ENDBRANCH  92  93
ENDBRANCH  66  87
ENDBRANCH  40  41
ENDBRANCH  32  35
ENDBRANCH  30  31
ENDBRANCH  29  30
ENDBRANCH   1  29
TORSDOF 20
ENDMDL
MODEL 3
REMARK VINA RESULT:     -11.2      3.102      8.879
REMARK SMILES CCC(CC)COc1cc2c(cc1Cl)C=C(C(=O)NCCCCNC(=O)c1ccc(-c3c4nc(c(-c5ccc(S(=O)(=O)[O-])cc5)c5ccc([nH]5)c(-c5ccc(S(=O)(=O)[O-])cc5)c5nc(c(-c6ccc(S(=O)(=O)[O-])cc6)c6ccc3[nH]6)C=C5)C=C4)cc1)[C@@H](C(F)(F)F)O2
REMARK SMILES IDX 21 1 20 2 19 3 17 4 18 5 16 7 8 8 9 9 13 10 10 11 12 12
REMARK SMILES IDX 14 13 11 14 92 15 15 16 87 17 7 18 6 19 3 20 2 21 1 22 4 23
REMARK SMILES IDX 5 24 88 25 89 26 90 27 91 28 22 29 23 30 24 31 25 32 26 34
REMARK SMILES IDX 27 35 28 36 86 37 29 38 85 39 30 40 31 41 32 42 79 43 33 44
REMARK SMILES IDX 84 45 78 46 80 47 34 48 83 49 77 50 76 51 35 53 65 54 46 55
REMARK SMILES IDX 64 56 47 57 50 58 63 59 81 60 48 61 49 62 62 64 82 65 51 66
REMARK SMILES IDX 36 67 37 68 45 69 38 70 44 71 39 72 40 73 41 74 42 75 43 76
REMARK SMILES IDX 66 77 67 78 75 79 68 80 74 81 69 82 70 83 71 84 72 85 73 86
REMARK SMILES IDX 52 87 53 88 61 89 54 90 60 91 55 92 56 93 57 94 58 95 59 96
REMARK H PARENT 19 6 24 33 80 52 50 63
REMARK Flexibility Score: inf
ROOT
ATOM      1  C   UNL A   1      34.846  22.100  26.905  1.00  0.00     0.023 C 
ENDROOT
BRANCH   1   2
ATOM      2  C   UNL A   1      33.652  21.150  26.889  1.00  0.00     0.116 C 
BRANCH   2   3
ATOM      3  N   UNL A   1      33.298  20.756  25.538  1.00  0.00    -0.352 N 
ATOM      4  C   UNL A   1      32.773  21.371  24.454  1.00  0.00     0.251 C 
ATOM      5  O   UNL A   1      32.684  20.678  23.434  1.00  0.00    -0.270 OA
ATOM      6  H   UNL A   1      33.487  19.805  25.368  1.00  0.00     0.163 HD
BRANCH   4   7
ATOM      7  C   UNL A   1      32.283  22.776  24.426  1.00  0.00     0.067 C 
ATOM      8  C   UNL A   1      31.488  27.479  22.904  1.00  0.00     0.141 A 
ATOM      9  C   UNL A   1      30.639  26.442  23.288  1.00  0.00     0.095 A 
ATOM     10  C   UNL A   1      32.877  27.343  23.042  1.00  0.00     0.083 A 
ATOM     11  C   UNL A   1      31.194  25.231  23.681  1.00  0.00     0.131 A 
ATOM     12  C   UNL A   1      33.426  26.099  23.362  1.00  0.00     0.036 A 
ATOM     13  Cl  UNL A   1      33.952  28.660  22.744  1.00  0.00    -0.080 Cl
ATOM     14  C   UNL A   1      32.580  25.028  23.642  1.00  0.00     0.019 A 
ATOM     15  O   UNL A   1      30.334  24.241  24.079  1.00  0.00    -0.475 OA
ATOM     16  C   UNL A   1      33.088  23.673  23.825  1.00  0.00     0.025 C 
ATOM     17  C   UNL A   1      30.954  23.243  24.949  1.00  0.00     0.314 C 
BRANCH   8  18
ATOM     18  O   UNL A   1      30.957  28.626  22.374  1.00  0.00    -0.492 OA
BRANCH  18  19
ATOM     19  C   UNL A   1      30.732  29.643  23.379  1.00  0.00     0.233 C 
BRANCH  19  20
ATOM     20  C   UNL A   1      29.239  30.046  23.463  1.00  0.00     0.026 C 
BRANCH  20  21
ATOM     21  C   UNL A   1      29.034  31.555  23.192  1.00  0.00     0.003 C 
ATOM     22  C   UNL A   1      27.566  31.958  23.186  1.00  0.00     0.004 C 
ENDBRANCH  20  21
BRANCH  20  23
ATOM     23  C   UNL A   1      28.362  29.171  22.540  1.00  0.00     0.003 C 
ATOM     24  C   UNL A   1      27.219  28.436  23.226  1.00  0.00     0.004 C 
ENDBRANCH  20  23
ENDBRANCH  19  20
ENDBRANCH  18  19
ENDBRANCH   8  18
BRANCH  17  25
ATOM     25  C   UNL A   1      31.056  23.766  26.403  1.00  0.00     0.429 C 
ATOM     26  F   UNL A   1      30.729  22.788  27.284  1.00  0.00    -0.167 F 
ATOM     27  F   UNL A   1      32.312  24.167  26.716  1.00  0.00    -0.167 F 
ATOM     28  F   UNL A   1      30.246  24.819  26.652  1.00  0.00    -0.167 F 
ENDBRANCH  17  25
ENDBRANCH   4   7
ENDBRANCH   2   3
ENDBRANCH   1   2
BRANCH   1  29
ATOM     29  C   UNL A   1      35.702  22.054  25.640  1.00  0.00     0.023 C 
BRANCH  29  30
ATOM     30  C   UNL A   1      37.099  22.655  25.776  1.00  0.00     0.116 C 
BRANCH  30  31
ATOM     31  N   UNL A   1      38.167  21.666  25.857  1.00  0.00    -0.352 N 
ATOM     32  C   UNL A   1      39.462  21.848  26.285  1.00  0.00     0.251 C 
ATOM     33  H   UNL A   1      37.932  20.753  25.570  1.00  0.00     0.163 HD
ATOM     34  O   UNL A   1      40.273  20.929  26.220  1.00  0.00    -0.269 OA
BRANCH  32  35
ATOM     35  C   UNL A   1      39.871  23.179  26.778  1.00  0.00     0.039 A 
ATOM     36  C   UNL A   1      39.686  24.307  25.977  1.00  0.00     0.014 A 
ATOM     37  C   UNL A   1      40.511  23.284  28.015  1.00  0.00     0.014 A 
ATOM     38  C   UNL A   1      40.297  25.501  26.332  1.00  0.00     0.010 A 
ATOM     39  C   UNL A   1      41.048  24.513  28.412  1.00  0.00     0.010 A 
ATOM     40  C   UNL A   1      40.989  25.619  27.551  1.00  0.00    -0.014 A 
BRANCH  40  41
ATOM     41  C   UNL A   1      41.618  26.921  27.889  1.00  0.00     0.031 A 
ATOM     42  C   UNL A   1      40.811  28.047  28.478  1.00  0.00     0.074 A 
ATOM     43  C   UNL A   1      42.953  27.044  27.751  1.00  0.00     0.049 A 
ATOM     44  N   UNL A   1      41.231  29.199  28.937  1.00  0.00    -0.248 NA
ATOM     45  C   UNL A   1      39.353  27.865  28.567  1.00  0.00     0.031 C 
ATOM     46  C   UNL A   1      43.835  26.013  27.199  1.00  0.00     0.029 A 
ATOM     47  N   UNL A   1      43.806  28.053  28.114  1.00  0.00    -0.354 N 
ATOM     48  C   UNL A   1      40.095  29.881  29.357  1.00  0.00     0.074 A 
ATOM     49  C   UNL A   1      38.962  29.028  29.072  1.00  0.00     0.031 C 
ATOM     50  C   UNL A   1      45.109  26.401  27.347  1.00  0.00     0.029 A 
ATOM     51  C   UNL A   1      45.133  27.735  27.939  1.00  0.00     0.049 A 
ATOM     52  H   UNL A   1      43.501  28.921  28.466  1.00  0.00     0.167 HD
ATOM     53  C   UNL A   1      40.009  31.102  29.937  1.00  0.00     0.031 A 
ATOM     54  C   UNL A   1      46.251  28.428  28.229  1.00  0.00     0.031 A 
ATOM     55  C   UNL A   1      41.142  31.943  30.226  1.00  0.00     0.049 A 
ATOM     56  C   UNL A   1      46.126  29.786  28.852  1.00  0.00     0.074 A 
ATOM     57  C   UNL A   1      41.153  33.192  30.823  1.00  0.00     0.029 A 
ATOM     58  N   UNL A   1      42.463  31.623  29.949  1.00  0.00    -0.354 N 
ATOM     59  N   UNL A   1      45.040  30.415  29.233  1.00  0.00    -0.248 NA
ATOM     60  C   UNL A   1      47.371  30.531  29.075  1.00  0.00     0.031 C 
ATOM     61  C   UNL A   1      42.473  33.650  30.858  1.00  0.00     0.029 A 
ATOM     62  C   UNL A   1      43.293  32.660  30.338  1.00  0.00     0.049 A 
ATOM     63  H   UNL A   1      42.765  30.782  29.536  1.00  0.00     0.167 HD
ATOM     64  C   UNL A   1      45.469  31.639  29.729  1.00  0.00     0.074 A 
ATOM     65  C   UNL A   1      46.916  31.645  29.635  1.00  0.00     0.031 C 
ATOM     66  C   UNL A   1      44.728  32.669  30.207  1.00  0.00     0.031 A 
BRANCH  53  67
ATOM     67  C   UNL A   1      38.642  31.623  30.302  1.00  0.00    -0.014 A 
ATOM     68  C   UNL A   1      37.872  32.301  29.339  1.00  0.00     0.010 A 
ATOM     69  C   UNL A   1      38.166  31.539  31.622  1.00  0.00     0.010 A 
ATOM     70  C   UNL A   1      36.663  32.907  29.694  1.00  0.00     0.020 A 
ATOM     71  C   UNL A   1      36.945  32.124  31.976  1.00  0.00     0.020 A 
ATOM     72  C   UNL A   1      36.213  32.823  31.013  1.00  0.00     0.054 A 
BRANCH  72  73
ATOM     73  S   UNL A   1      34.648  33.626  31.461  1.00  0.00     0.124 S 
ATOM     74  O   UNL A   1      34.016  33.816  30.159  1.00  0.00    -0.237 OA
ATOM     75  O   UNL A   1      34.017  32.639  32.333  1.00  0.00    -0.237 OA
ATOM     76  O   UNL A   1      35.076  34.852  32.134  1.00  0.00    -0.744 OA
ENDBRANCH  72  73
ENDBRANCH  53  67
BRANCH  54  77
ATOM     77  C   UNL A   1      47.575  27.812  27.944  1.00  0.00    -0.014 A 
ATOM     78  C   UNL A   1      48.248  27.085  28.943  1.00  0.00     0.010 A 
ATOM     79  C   UNL A   1      48.213  28.041  26.713  1.00  0.00     0.010 A 
ATOM     80  C   UNL A   1      49.561  26.655  28.742  1.00  0.00     0.020 A 
ATOM     81  C   UNL A   1      49.518  27.585  26.498  1.00  0.00     0.020 A 
ATOM     82  C   UNL A   1      50.194  26.925  27.527  1.00  0.00     0.054 A 
BRANCH  82  83
ATOM     83  S   UNL A   1      51.922  26.416  27.309  1.00  0.00     0.124 S 
ATOM     84  O   UNL A   1      51.770  25.057  26.799  1.00  0.00    -0.237 OA
ATOM     85  O   UNL A   1      52.427  27.395  26.350  1.00  0.00    -0.237 OA
ATOM     86  O   UNL A   1      52.478  26.524  28.655  1.00  0.00    -0.744 OA
ENDBRANCH  82  83
ENDBRANCH  54  77
BRANCH  66  87
ATOM     87  C   UNL A   1      45.463  33.910  30.634  1.00  0.00    -0.014 A 
ATOM     88  C   UNL A   1      45.888  34.056  31.966  1.00  0.00     0.010 A 
ATOM     89  C   UNL A   1      45.664  34.968  29.728  1.00  0.00     0.010 A 
ATOM     90  C   UNL A   1      46.492  35.242  32.390  1.00  0.00     0.020 A 
ATOM     91  C   UNL A   1      46.291  36.146  30.143  1.00  0.00     0.020 A 
ATOM     92  C   UNL A   1      46.684  36.282  31.477  1.00  0.00     0.054 A 
BRANCH  92  93
ATOM     93  S   UNL A   1      47.486  37.810  32.036  1.00  0.00     0.124 S 
ATOM     94  O   UNL A   1      47.480  38.621  30.822  1.00  0.00    -0.237 OA
ATOM     95  O   UNL A   1      46.602  38.269  33.105  1.00  0.00    -0.237 OA
ATOM     96  O   UNL A   1      48.803  37.359  32.481  1.00  0.00    -0.744 OA
ENDBRANCH  92  93
ENDBRANCH  66  87
ENDBRANCH  40  41
ENDBRANCH  32  35
ENDBRANCH  30  31
ENDBRANCH  29  30
ENDBRANCH   1  29
TORSDOF 20
ENDMDL
