MODEL 1
REMARK VINA RESULT:     -11.5      0.000      0.000
REMARK SMILES C#CCOc1ccc(/C=C(\Sc2nc(C)n[nH]2)C(=O)NCCCCNC(=O)c2ccc(-c3c4nc(c(-c5ccc(S(=O)(=O)[O-])cc5)c5ccc([nH]5)c(-c5ccc(S(=O)(=O)[O-])cc5)c5nc(c(-c6ccc(S(=O)(=O)[O-])cc6)c6ccc3[nH]6)C=C5)C=C4)cc2)cc1
REMARK SMILES IDX 22 1 21 2 20 3 18 4 19 5 10 7 9 8 8 9 5 10 6 11 89 12 7 13
REMARK SMILES IDX 88 14 4 15 3 16 2 17 1 18 11 19 12 20 13 21 17 22 14 23
REMARK SMILES IDX 16 24 15 26 23 27 24 28 25 29 26 30 27 32 28 33 29 34 87 35
REMARK SMILES IDX 30 36 86 37 31 38 32 39 33 40 80 41 34 42 85 43 79 44 81 45
REMARK SMILES IDX 35 46 84 47 78 48 77 49 36 51 66 52 47 53 65 54 48 55 51 56
REMARK SMILES IDX 64 57 82 58 49 59 50 60 63 62 83 63 52 64 37 65 38 66 46 67
REMARK SMILES IDX 39 68 45 69 40 70 41 71 42 72 43 73 44 74 67 75 68 76 76 77
REMARK SMILES IDX 69 78 75 79 70 80 71 81 72 82 73 83 74 84 53 85 54 86 62 87
REMARK SMILES IDX 55 88 61 89 56 90 57 91 58 92 59 93 60 94
REMARK H PARENT 20 6 17 25 25 31 81 50 51 61
REMARK Flexibility Score: inf
ROOT
ATOM      1  C   UNL A   1      31.798  29.854  25.985  1.00  0.00     0.023 C 
ENDROOT
BRANCH   1   2
ATOM      2  C   UNL A   1      31.374  29.338  24.599  1.00  0.00     0.116 C 
BRANCH   2   3
ATOM      3  N   UNL A   1      32.476  29.360  23.654  1.00  0.00    -0.352 N 
ATOM      4  C   UNL A   1      33.398  28.418  23.293  1.00  0.00     0.258 C 
ATOM      5  O   UNL A   1      34.258  28.765  22.479  1.00  0.00    -0.269 OA
ATOM      6  H   UNL A   1      32.580  30.218  23.184  1.00  0.00     0.163 HD
BRANCH   4   7
ATOM      7  C   UNL A   1      33.383  26.998  23.833  1.00  0.00     0.081 C 
ATOM      8  C   UNL A   1      33.281  26.076  22.851  1.00  0.00     0.029 C 
BRANCH   8   9
ATOM      9  C   UNL A   1      33.357  24.623  22.975  1.00  0.00    -0.024 A 
ATOM     10  C   UNL A   1      33.583  21.961  23.824  1.00  0.00     0.120 A 
ATOM     11  C   UNL A   1      32.326  22.522  23.577  1.00  0.00     0.047 A 
ATOM     12  C   UNL A   1      34.724  22.708  23.504  1.00  0.00     0.047 A 
ATOM     13  C   UNL A   1      32.210  23.848  23.149  1.00  0.00     0.012 A 
ATOM     14  C   UNL A   1      34.612  24.023  23.048  1.00  0.00     0.012 A 
BRANCH  10  15
ATOM     15  O   UNL A   1      33.558  20.722  24.430  1.00  0.00    -0.481 OA
BRANCH  15  16
ATOM     16  C   UNL A   1      32.324  19.978  24.468  1.00  0.00     0.318 C 
BRANCH  16  17
ATOM     17  C   UNL A   1      32.401  18.950  23.352  1.00  0.00    -0.065 C 
ATOM     18  C   UNL A   1      32.467  18.068  22.393  1.00  0.00     0.007 C 
ENDBRANCH  16  17
ENDBRANCH  15  16
ENDBRANCH  10  15
ENDBRANCH   8   9
BRANCH   7  19
ATOM     19  S   UNL A   1      33.643  26.849  25.535  1.00  0.00    -0.045 SA
BRANCH  19  20
ATOM     20  C   UNL A   1      32.959  25.405  26.113  1.00  0.00     0.188 A 
ATOM     21  N   UNL A   1      33.601  24.337  26.514  1.00  0.00    -0.206 NA
ATOM     22  N   UNL A   1      31.662  25.344  26.527  1.00  0.00    -0.254 N 
ATOM     23  C   UNL A   1      32.616  23.600  27.116  1.00  0.00     0.148 A 
ATOM     24  N   UNL A   1      31.417  24.196  27.190  1.00  0.00    -0.158 NA
ATOM     25  H   UNL A   1      30.992  26.045  26.363  1.00  0.00     0.192 HD
ATOM     26  C   UNL A   1      32.876  22.237  27.606  1.00  0.00     0.092 C 
ENDBRANCH  19  20
ENDBRANCH   7  19
ENDBRANCH   4   7
ENDBRANCH   2   3
ENDBRANCH   1   2
BRANCH   1  27
ATOM     27  C   UNL A   1      31.486  31.324  26.283  1.00  0.00     0.023 C 
BRANCH  27  28
ATOM     28  C   UNL A   1      32.498  32.012  27.180  1.00  0.00     0.116 C 
BRANCH  28  29
ATOM     29  N   UNL A   1      32.302  33.466  27.269  1.00  0.00    -0.352 N 
ATOM     30  C   UNL A   1      32.897  34.359  28.155  1.00  0.00     0.251 C 
ATOM     31  H   UNL A   1      31.671  33.857  26.622  1.00  0.00     0.163 HD
ATOM     32  O   UNL A   1      32.403  35.442  28.401  1.00  0.00    -0.269 OA
BRANCH  30  33
ATOM     33  C   UNL A   1      34.182  33.952  28.750  1.00  0.00     0.039 A 
ATOM     34  C   UNL A   1      34.310  33.406  30.030  1.00  0.00     0.014 A 
ATOM     35  C   UNL A   1      35.273  34.054  27.902  1.00  0.00     0.014 A 
ATOM     36  C   UNL A   1      35.556  32.903  30.408  1.00  0.00     0.010 A 
ATOM     37  C   UNL A   1      36.373  33.297  28.157  1.00  0.00     0.010 A 
ATOM     38  C   UNL A   1      36.579  32.850  29.450  1.00  0.00    -0.014 A 
BRANCH  38  39
ATOM     39  C   UNL A   1      37.906  32.326  29.707  1.00  0.00     0.031 A 
ATOM     40  C   UNL A   1      38.121  30.917  29.311  1.00  0.00     0.074 A 
ATOM     41  C   UNL A   1      38.926  33.148  30.045  1.00  0.00     0.049 A 
ATOM     42  N   UNL A   1      38.239  29.913  30.110  1.00  0.00    -0.248 NA
ATOM     43  C   UNL A   1      38.059  30.544  27.890  1.00  0.00     0.031 C 
ATOM     44  C   UNL A   1      38.937  34.615  30.175  1.00  0.00     0.029 A 
ATOM     45  N   UNL A   1      40.232  32.836  30.217  1.00  0.00    -0.354 N 
ATOM     46  C   UNL A   1      38.482  28.806  29.309  1.00  0.00     0.074 A 
ATOM     47  C   UNL A   1      38.180  29.214  27.960  1.00  0.00     0.031 C 
ATOM     48  C   UNL A   1      40.212  35.064  30.145  1.00  0.00     0.029 A 
ATOM     49  C   UNL A   1      41.102  33.919  30.180  1.00  0.00     0.049 A 
ATOM     50  H   UNL A   1      40.541  31.913  30.358  1.00  0.00     0.167 HD
ATOM     51  C   UNL A   1      39.122  27.709  29.801  1.00  0.00     0.031 A 
ATOM     52  C   UNL A   1      42.458  33.864  30.149  1.00  0.00     0.031 A 
ATOM     53  C   UNL A   1      39.334  27.821  31.224  1.00  0.00     0.049 A 
ATOM     54  C   UNL A   1      42.832  32.534  30.703  1.00  0.00     0.074 A 
ATOM     55  C   UNL A   1      38.500  27.925  32.319  1.00  0.00     0.029 A 
ATOM     56  N   UNL A   1      40.563  28.296  31.629  1.00  0.00    -0.354 N 
ATOM     57  N   UNL A   1      42.584  32.198  31.941  1.00  0.00    -0.248 NA
ATOM     58  C   UNL A   1      42.980  31.417  29.779  1.00  0.00     0.031 C 
ATOM     59  C   UNL A   1      39.119  28.902  33.152  1.00  0.00     0.029 A 
ATOM     60  C   UNL A   1      40.337  29.269  32.571  1.00  0.00     0.049 A 
ATOM     61  H   UNL A   1      41.442  27.994  31.303  1.00  0.00     0.167 HD
ATOM     62  C   UNL A   1      42.098  30.898  31.868  1.00  0.00     0.074 A 
ATOM     63  C   UNL A   1      42.460  30.436  30.525  1.00  0.00     0.031 C 
ATOM     64  C   UNL A   1      41.190  30.424  32.776  1.00  0.00     0.031 A 
BRANCH  51  65
ATOM     65  C   UNL A   1      39.885  26.709  28.982  1.00  0.00    -0.014 A 
ATOM     66  C   UNL A   1      39.210  25.555  28.535  1.00  0.00     0.010 A 
ATOM     67  C   UNL A   1      41.288  26.729  28.863  1.00  0.00     0.010 A 
ATOM     68  C   UNL A   1      39.912  24.445  28.057  1.00  0.00     0.020 A 
ATOM     69  C   UNL A   1      41.996  25.639  28.350  1.00  0.00     0.020 A 
ATOM     70  C   UNL A   1      41.305  24.490  27.982  1.00  0.00     0.054 A 
BRANCH  70  71
ATOM     71  S   UNL A   1      42.203  23.006  27.471  1.00  0.00     0.124 S 
ATOM     72  O   UNL A   1      42.219  23.148  26.019  1.00  0.00    -0.237 OA
ATOM     73  O   UNL A   1      43.489  23.177  28.140  1.00  0.00    -0.237 OA
ATOM     74  O   UNL A   1      41.379  21.914  27.984  1.00  0.00    -0.744 OA
ENDBRANCH  70  71
ENDBRANCH  51  65
BRANCH  52  75
ATOM     75  C   UNL A   1      43.369  34.722  29.345  1.00  0.00    -0.014 A 
ATOM     76  C   UNL A   1      43.201  34.881  27.957  1.00  0.00     0.010 A 
ATOM     77  C   UNL A   1      44.250  35.610  29.998  1.00  0.00     0.010 A 
ATOM     78  C   UNL A   1      43.833  35.935  27.265  1.00  0.00     0.020 A 
ATOM     79  C   UNL A   1      44.886  36.656  29.317  1.00  0.00     0.020 A 
ATOM     80  C   UNL A   1      44.652  36.831  27.957  1.00  0.00     0.054 A 
BRANCH  80  81
ATOM     81  S   UNL A   1      45.298  38.307  27.110  1.00  0.00     0.124 S 
ATOM     82  O   UNL A   1      45.908  39.053  28.206  1.00  0.00    -0.237 OA
ATOM     83  O   UNL A   1      46.226  37.735  26.139  1.00  0.00    -0.237 OA
ATOM     84  O   UNL A   1      44.103  38.920  26.532  1.00  0.00    -0.744 OA
ENDBRANCH  80  81
ENDBRANCH  52  75
BRANCH  64  85
ATOM     85  C   UNL A   1      40.870  31.276  33.988  1.00  0.00    -0.014 A 
ATOM     86  C   UNL A   1      39.781  32.171  34.051  1.00  0.00     0.010 A 
ATOM     87  C   UNL A   1      41.596  31.032  35.166  1.00  0.00     0.010 A 
ATOM     88  C   UNL A   1      39.452  32.824  35.251  1.00  0.00     0.020 A 
ATOM     89  C   UNL A   1      41.263  31.664  36.366  1.00  0.00     0.020 A 
ATOM     90  C   UNL A   1      40.201  32.568  36.401  1.00  0.00     0.054 A 
BRANCH  90  91
ATOM     91  S   UNL A   1      39.761  33.393  37.957  1.00  0.00     0.124 S 
ATOM     92  O   UNL A   1      40.874  34.318  38.150  1.00  0.00    -0.237 OA
ATOM     93  O   UNL A   1      38.476  34.013  37.646  1.00  0.00    -0.237 OA
ATOM     94  O   UNL A   1      39.693  32.298  38.925  1.00  0.00    -0.744 OA
ENDBRANCH  90  91
ENDBRANCH  64  85
ENDBRANCH  38  39
ENDBRANCH  30  33
ENDBRANCH  28  29
ENDBRANCH  27  28
ENDBRANCH   1  27
TORSDOF 20
ENDMDL
MODEL 2
REMARK VINA RESULT:     -11.4      3.276      8.250
REMARK SMILES C#CCOc1ccc(/C=C(\Sc2nc(C)n[nH]2)C(=O)NCCCCNC(=O)c2ccc(-c3c4nc(c(-c5ccc(S(=O)(=O)[O-])cc5)c5ccc([nH]5)c(-c5ccc(S(=O)(=O)[O-])cc5)c5nc(c(-c6ccc(S(=O)(=O)[O-])cc6)c6ccc3[nH]6)C=C5)C=C4)cc2)cc1
REMARK SMILES IDX 22 1 21 2 20 3 18 4 19 5 10 7 9 8 8 9 5 10 6 11 89 12 7 13
REMARK SMILES IDX 88 14 4 15 3 16 2 17 1 18 11 19 12 20 13 21 17 22 14 23
REMARK SMILES IDX 16 24 15 26 23 27 24 28 25 29 26 30 27 32 28 33 29 34 87 35
REMARK SMILES IDX 30 36 86 37 31 38 32 39 33 40 80 41 34 42 85 43 79 44 81 45
REMARK SMILES IDX 35 46 84 47 78 48 77 49 36 51 66 52 47 53 65 54 48 55 51 56
REMARK SMILES IDX 64 57 82 58 49 59 50 60 63 62 83 63 52 64 37 65 38 66 46 67
REMARK SMILES IDX 39 68 45 69 40 70 41 71 42 72 43 73 44 74 67 75 68 76 76 77
REMARK SMILES IDX 69 78 75 79 70 80 71 81 72 82 73 83 74 84 53 85 54 86 62 87
REMARK SMILES IDX 55 88 61 89 56 90 57 91 58 92 59 93 60 94
REMARK H PARENT 20 6 17 25 25 31 81 50 51 61
REMARK Flexibility Score: inf
ROOT
ATOM      1  C   UNL A   1      32.845  30.878  27.071  1.00  0.00     0.023 C 
ENDROOT
BRANCH   1   2
ATOM      2  C   UNL A   1      32.283  29.775  26.158  1.00  0.00     0.116 C 
BRANCH   2   3
ATOM      3  N   UNL A   1      32.880  29.815  24.835  1.00  0.00    -0.352 N 
ATOM      4  C   UNL A   1      33.212  28.831  23.945  1.00  0.00     0.258 C 
ATOM      5  O   UNL A   1      33.761  29.191  22.900  1.00  0.00    -0.269 OA
ATOM      6  H   UNL A   1      33.085  30.723  24.518  1.00  0.00     0.163 HD
BRANCH   4   7
ATOM      7  C   UNL A   1      32.916  27.362  24.189  1.00  0.00     0.081 C 
ATOM      8  C   UNL A   1      33.875  26.760  24.926  1.00  0.00     0.029 C 
BRANCH   8   9
ATOM      9  C   UNL A   1      33.876  25.400  25.458  1.00  0.00    -0.024 A 
ATOM     10  C   UNL A   1      33.445  22.690  26.030  1.00  0.00     0.120 A 
ATOM     11  C   UNL A   1      34.554  23.088  25.278  1.00  0.00     0.047 A 
ATOM     12  C   UNL A   1      32.637  23.679  26.606  1.00  0.00     0.047 A 
ATOM     13  C   UNL A   1      34.775  24.439  24.994  1.00  0.00     0.012 A 
ATOM     14  C   UNL A   1      32.871  25.031  26.350  1.00  0.00     0.012 A 
BRANCH  10  15
ATOM     15  O   UNL A   1      33.228  21.328  26.070  1.00  0.00    -0.481 OA
BRANCH  15  16
ATOM     16  C   UNL A   1      33.285  20.565  24.848  1.00  0.00     0.318 C 
BRANCH  16  17
ATOM     17  C   UNL A   1      32.951  19.129  25.217  1.00  0.00    -0.065 C 
ATOM     18  C   UNL A   1      32.665  17.896  25.533  1.00  0.00     0.007 C 
ENDBRANCH  16  17
ENDBRANCH  15  16
ENDBRANCH  10  15
ENDBRANCH   8   9
BRANCH   7  19
ATOM     19  S   UNL A   1      31.382  26.810  23.617  1.00  0.00    -0.045 SA
BRANCH  19  20
ATOM     20  C   UNL A   1      30.455  28.120  23.057  1.00  0.00     0.188 A 
ATOM     21  N   UNL A   1      29.751  28.950  23.784  1.00  0.00    -0.206 NA
ATOM     22  N   UNL A   1      30.625  28.634  21.807  1.00  0.00    -0.254 N 
ATOM     23  C   UNL A   1      29.441  29.944  22.893  1.00  0.00     0.148 A 
ATOM     24  N   UNL A   1      29.994  29.818  21.678  1.00  0.00    -0.158 NA
ATOM     25  H   UNL A   1      31.141  28.198  21.091  1.00  0.00     0.192 HD
ATOM     26  C   UNL A   1      28.533  31.042  23.262  1.00  0.00     0.092 C 
ENDBRANCH  19  20
ENDBRANCH   7  19
ENDBRANCH   4   7
ENDBRANCH   2   3
ENDBRANCH   1   2
BRANCH   1  27
ATOM     27  C   UNL A   1      34.250  30.638  27.635  1.00  0.00     0.023 C 
BRANCH  27  28
ATOM     28  C   UNL A   1      35.070  31.899  27.837  1.00  0.00     0.116 C 
BRANCH  28  29
ATOM     29  N   UNL A   1      34.750  32.607  29.084  1.00  0.00    -0.352 N 
ATOM     30  C   UNL A   1      35.104  32.257  30.384  1.00  0.00     0.251 C 
ATOM     31  H   UNL A   1      34.219  33.431  28.989  1.00  0.00     0.163 HD
ATOM     32  O   UNL A   1      34.491  32.673  31.348  1.00  0.00    -0.269 OA
BRANCH  30  33
ATOM     33  C   UNL A   1      36.286  31.393  30.543  1.00  0.00     0.039 A 
ATOM     34  C   UNL A   1      36.234  29.997  30.567  1.00  0.00     0.014 A 
ATOM     35  C   UNL A   1      37.498  32.066  30.571  1.00  0.00     0.014 A 
ATOM     36  C   UNL A   1      37.440  29.294  30.551  1.00  0.00     0.010 A 
ATOM     37  C   UNL A   1      38.630  31.388  30.246  1.00  0.00     0.010 A 
ATOM     38  C   UNL A   1      38.634  30.011  30.381  1.00  0.00    -0.014 A 
BRANCH  38  39
ATOM     39  C   UNL A   1      39.946  29.399  30.318  1.00  0.00     0.031 A 
ATOM     40  C   UNL A   1      40.634  29.234  31.618  1.00  0.00     0.074 A 
ATOM     41  C   UNL A   1      40.383  28.800  29.186  1.00  0.00     0.049 A 
ATOM     42  N   UNL A   1      41.647  29.914  32.033  1.00  0.00    -0.248 NA
ATOM     43  C   UNL A   1      40.068  28.330  32.630  1.00  0.00     0.031 C 
ATOM     44  C   UNL A   1      39.686  28.611  27.904  1.00  0.00     0.029 A 
ATOM     45  N   UNL A   1      41.527  28.102  28.995  1.00  0.00    -0.354 N 
ATOM     46  C   UNL A   1      41.990  29.384  33.270  1.00  0.00     0.074 A 
ATOM     47  C   UNL A   1      40.885  28.546  33.666  1.00  0.00     0.031 C 
ATOM     48  C   UNL A   1      40.306  27.647  27.187  1.00  0.00     0.029 A 
ATOM     49  C   UNL A   1      41.533  27.286  27.870  1.00  0.00     0.049 A 
ATOM     50  H   UNL A   1      42.295  28.167  29.606  1.00  0.00     0.167 HD
ATOM     51  C   UNL A   1      43.253  29.510  33.762  1.00  0.00     0.031 A 
ATOM     52  C   UNL A   1      42.473  26.362  27.549  1.00  0.00     0.031 A 
ATOM     53  C   UNL A   1      44.060  30.364  32.924  1.00  0.00     0.049 A 
ATOM     54  C   UNL A   1      43.709  26.755  28.280  1.00  0.00     0.074 A 
ATOM     55  C   UNL A   1      43.989  31.689  32.545  1.00  0.00     0.029 A 
ATOM     56  N   UNL A   1      44.855  29.737  31.989  1.00  0.00    -0.354 N 
ATOM     57  N   UNL A   1      44.343  27.870  28.033  1.00  0.00    -0.248 NA
ATOM     58  C   UNL A   1      43.930  26.203  29.611  1.00  0.00     0.031 C 
ATOM     59  C   UNL A   1      44.320  31.686  31.158  1.00  0.00     0.029 A 
ATOM     60  C   UNL A   1      44.666  30.381  30.791  1.00  0.00     0.049 A 
ATOM     61  H   UNL A   1      45.449  28.969  32.150  1.00  0.00     0.167 HD
ATOM     62  C   UNL A   1      44.657  28.388  29.283  1.00  0.00     0.074 A 
ATOM     63  C   UNL A   1      44.468  27.271  30.212  1.00  0.00     0.031 C 
ATOM     64  C   UNL A   1      44.746  29.738  29.494  1.00  0.00     0.031 A 
BRANCH  51  65
ATOM     65  C   UNL A   1      43.885  28.598  34.772  1.00  0.00    -0.014 A 
ATOM     66  C   UNL A   1      43.652  27.213  34.663  1.00  0.00     0.010 A 
ATOM     67  C   UNL A   1      44.473  29.066  35.964  1.00  0.00     0.010 A 
ATOM     68  C   UNL A   1      43.929  26.345  35.724  1.00  0.00     0.020 A 
ATOM     69  C   UNL A   1      44.789  28.202  37.015  1.00  0.00     0.020 A 
ATOM     70  C   UNL A   1      44.482  26.851  36.901  1.00  0.00     0.054 A 
BRANCH  70  71
ATOM     71  S   UNL A   1      44.725  25.735  38.304  1.00  0.00     0.124 S 
ATOM     72  O   UNL A   1      43.904  26.363  39.334  1.00  0.00    -0.237 OA
ATOM     73  O   UNL A   1      44.226  24.467  37.780  1.00  0.00    -0.237 OA
ATOM     74  O   UNL A   1      46.166  25.785  38.535  1.00  0.00    -0.744 OA
ENDBRANCH  70  71
ENDBRANCH  51  65
BRANCH  52  75
ATOM     75  C   UNL A   1      42.239  25.012  26.968  1.00  0.00    -0.014 A 
ATOM     76  C   UNL A   1      43.151  24.425  26.071  1.00  0.00     0.010 A 
ATOM     77  C   UNL A   1      41.241  24.179  27.516  1.00  0.00     0.010 A 
ATOM     78  C   UNL A   1      43.108  23.044  25.792  1.00  0.00     0.020 A 
ATOM     79  C   UNL A   1      41.189  22.807  27.241  1.00  0.00     0.020 A 
ATOM     80  C   UNL A   1      42.141  22.240  26.401  1.00  0.00     0.054 A 
BRANCH  80  81
ATOM     81  S   UNL A   1      42.215  20.431  26.207  1.00  0.00     0.124 S 
ATOM     82  O   UNL A   1      43.373  20.259  25.336  1.00  0.00    -0.237 OA
ATOM     83  O   UNL A   1      42.383  19.971  27.582  1.00  0.00    -0.237 OA
ATOM     84  O   UNL A   1      40.927  20.098  25.599  1.00  0.00    -0.744 OA
ENDBRANCH  80  81
ENDBRANCH  52  75
BRANCH  64  85
ATOM     85  C   UNL A   1      44.692  30.661  28.293  1.00  0.00    -0.014 A 
ATOM     86  C   UNL A   1      43.504  30.979  27.602  1.00  0.00     0.010 A 
ATOM     87  C   UNL A   1      45.861  31.367  27.962  1.00  0.00     0.010 A 
ATOM     88  C   UNL A   1      43.497  31.952  26.588  1.00  0.00     0.020 A 
ATOM     89  C   UNL A   1      45.857  32.348  26.968  1.00  0.00     0.020 A 
ATOM     90  C   UNL A   1      44.679  32.627  26.276  1.00  0.00     0.054 A 
BRANCH  90  91
ATOM     91  S   UNL A   1      44.665  33.902  24.982  1.00  0.00     0.124 S 
ATOM     92  O   UNL A   1      44.336  33.134  23.785  1.00  0.00    -0.237 OA
ATOM     93  O   UNL A   1      43.629  34.823  25.443  1.00  0.00    -0.237 OA
ATOM     94  O   UNL A   1      46.023  34.445  25.014  1.00  0.00    -0.744 OA
ENDBRANCH  90  91
ENDBRANCH  64  85
ENDBRANCH  38  39
ENDBRANCH  30  33
ENDBRANCH  28  29
ENDBRANCH  27  28
ENDBRANCH   1  27
TORSDOF 20
ENDMDL
MODEL 3
REMARK VINA RESULT:     -11.1      4.079      5.850
REMARK SMILES C#CCOc1ccc(/C=C(\Sc2nc(C)n[nH]2)C(=O)NCCCCNC(=O)c2ccc(-c3c4nc(c(-c5ccc(S(=O)(=O)[O-])cc5)c5ccc([nH]5)c(-c5ccc(S(=O)(=O)[O-])cc5)c5nc(c(-c6ccc(S(=O)(=O)[O-])cc6)c6ccc3[nH]6)C=C5)C=C4)cc2)cc1
REMARK SMILES IDX 22 1 21 2 20 3 18 4 19 5 10 7 9 8 8 9 5 10 6 11 89 12 7 13
REMARK SMILES IDX 88 14 4 15 3 16 2 17 1 18 11 19 12 20 13 21 17 22 14 23
REMARK SMILES IDX 16 24 15 26 23 27 24 28 25 29 26 30 27 32 28 33 29 34 87 35
REMARK SMILES IDX 30 36 86 37 31 38 32 39 33 40 80 41 34 42 85 43 79 44 81 45
REMARK SMILES IDX 35 46 84 47 78 48 77 49 36 51 66 52 47 53 65 54 48 55 51 56
REMARK SMILES IDX 64 57 82 58 49 59 50 60 63 62 83 63 52 64 37 65 38 66 46 67
REMARK SMILES IDX 39 68 45 69 40 70 41 71 42 72 43 73 44 74 67 75 68 76 76 77
REMARK SMILES IDX 69 78 75 79 70 80 71 81 72 82 73 83 74 84 53 85 54 86 62 87
REMARK SMILES IDX 55 88 61 89 56 90 57 91 58 92 59 93 60 94
REMARK H PARENT 20 6 17 25 25 31 81 50 51 61
REMARK Flexibility Score: inf
ROOT
ATOM      1  C   UNL A   1      32.991  29.491  27.074  1.00  0.00     0.023 C 
ENDROOT
BRANCH   1   2
ATOM      2  C   UNL A   1      32.131  29.595  25.802  1.00  0.00     0.116 C 
BRANCH   2   3
ATOM      3  N   UNL A   1      32.947  29.697  24.606  1.00  0.00    -0.352 N 
ATOM      4  C   UNL A   1      33.490  28.754  23.779  1.00  0.00     0.258 C 
ATOM      5  O   UNL A   1      34.191  29.166  22.851  1.00  0.00    -0.269 OA
ATOM      6  H   UNL A   1      33.149  30.623  24.339  1.00  0.00     0.163 HD
BRANCH   4   7
ATOM      7  C   UNL A   1      33.247  27.264  23.952  1.00  0.00     0.081 C 
ATOM      8  C   UNL A   1      33.974  26.740  24.963  1.00  0.00     0.029 C 
BRANCH   8   9
ATOM      9  C   UNL A   1      33.913  25.383  25.499  1.00  0.00    -0.024 A 
ATOM     10  C   UNL A   1      33.442  22.668  26.019  1.00  0.00     0.120 A 
ATOM     11  C   UNL A   1      34.647  23.080  25.443  1.00  0.00     0.047 A 
ATOM     12  C   UNL A   1      32.541  23.647  26.457  1.00  0.00     0.047 A 
ATOM     13  C   UNL A   1      34.888  24.434  25.185  1.00  0.00     0.012 A 
ATOM     14  C   UNL A   1      32.790  25.001  26.230  1.00  0.00     0.012 A 
BRANCH  10  15
ATOM     15  O   UNL A   1      33.243  21.303  26.037  1.00  0.00    -0.481 OA
BRANCH  15  16
ATOM     16  C   UNL A   1      34.069  20.457  25.213  1.00  0.00     0.318 C 
BRANCH  16  17
ATOM     17  C   UNL A   1      33.204  19.279  24.795  1.00  0.00    -0.065 C 
ATOM     18  C   UNL A   1      32.462  18.268  24.437  1.00  0.00     0.007 C 
ENDBRANCH  16  17
ENDBRANCH  15  16
ENDBRANCH  10  15
ENDBRANCH   8   9
BRANCH   7  19
ATOM     19  S   UNL A   1      32.013  26.593  22.946  1.00  0.00    -0.045 SA
BRANCH  19  20
ATOM     20  C   UNL A   1      30.549  27.424  23.174  1.00  0.00     0.188 A 
ATOM     21  N   UNL A   1      30.245  28.616  22.726  1.00  0.00    -0.206 NA
ATOM     22  N   UNL A   1      29.416  26.781  23.573  1.00  0.00    -0.254 N 
ATOM     23  C   UNL A   1      28.895  28.687  22.948  1.00  0.00     0.148 A 
ATOM     24  N   UNL A   1      28.331  27.568  23.424  1.00  0.00    -0.158 NA
ATOM     25  H   UNL A   1      29.392  25.862  23.925  1.00  0.00     0.192 HD
ATOM     26  C   UNL A   1      28.147  29.932  22.704  1.00  0.00     0.092 C 
ENDBRANCH  19  20
ENDBRANCH   7  19
ENDBRANCH   4   7
ENDBRANCH   2   3
ENDBRANCH   1   2
BRANCH   1  27
ATOM     27  C   UNL A   1      34.383  30.128  27.001  1.00  0.00     0.023 C 
BRANCH  27  28
ATOM     28  C   UNL A   1      35.455  29.385  27.778  1.00  0.00     0.116 C 
BRANCH  28  29
ATOM     29  N   UNL A   1      35.568  29.824  29.176  1.00  0.00    -0.352 N 
ATOM     30  C   UNL A   1      36.540  29.472  30.108  1.00  0.00     0.251 C 
ATOM     31  H   UNL A   1      34.872  30.442  29.492  1.00  0.00     0.163 HD
ATOM     32  O   UNL A   1      36.346  29.571  31.304  1.00  0.00    -0.269 OA
BRANCH  30  33
ATOM     33  C   UNL A   1      37.837  29.015  29.580  1.00  0.00     0.039 A 
ATOM     34  C   UNL A   1      38.463  29.569  28.461  1.00  0.00     0.014 A 
ATOM     35  C   UNL A   1      38.462  28.039  30.341  1.00  0.00     0.014 A 
ATOM     36  C   UNL A   1      39.766  29.162  28.167  1.00  0.00     0.010 A 
ATOM     37  C   UNL A   1      39.808  27.888  30.233  1.00  0.00     0.010 A 
ATOM     38  C   UNL A   1      40.428  28.322  29.075  1.00  0.00    -0.014 A 
BRANCH  38  39
ATOM     39  C   UNL A   1      41.788  27.852  28.901  1.00  0.00     0.031 A 
ATOM     40  C   UNL A   1      41.928  26.536  28.240  1.00  0.00     0.074 A 
ATOM     41  C   UNL A   1      42.842  28.677  29.103  1.00  0.00     0.049 A 
ATOM     42  N   UNL A   1      42.271  25.432  28.809  1.00  0.00    -0.248 NA
ATOM     43  C   UNL A   1      41.509  26.380  26.839  1.00  0.00     0.031 C 
ATOM     44  C   UNL A   1      42.852  30.105  29.463  1.00  0.00     0.029 A 
ATOM     45  N   UNL A   1      44.155  28.428  28.888  1.00  0.00    -0.354 N 
ATOM     46  C   UNL A   1      42.325  24.477  27.803  1.00  0.00     0.074 A 
ATOM     47  C   UNL A   1      41.676  25.066  26.658  1.00  0.00     0.031 C 
ATOM     48  C   UNL A   1      44.065  30.634  29.188  1.00  0.00     0.029 A 
ATOM     49  C   UNL A   1      44.960  29.558  28.811  1.00  0.00     0.049 A 
ATOM     50  H   UNL A   1      44.512  27.516  28.795  1.00  0.00     0.167 HD
ATOM     51  C   UNL A   1      43.096  23.362  27.933  1.00  0.00     0.031 A 
ATOM     52  C   UNL A   1      46.263  29.595  28.433  1.00  0.00     0.031 A 
ATOM     53  C   UNL A   1      43.665  23.270  29.256  1.00  0.00     0.049 A 
ATOM     54  C   UNL A   1      46.798  28.224  28.651  1.00  0.00     0.074 A 
ATOM     55  C   UNL A   1      43.140  23.153  30.527  1.00  0.00     0.029 A 
ATOM     56  N   UNL A   1      44.946  23.757  29.411  1.00  0.00    -0.354 N 
ATOM     57  N   UNL A   1      46.886  27.688  29.839  1.00  0.00    -0.248 NA
ATOM     58  C   UNL A   1      46.730  27.272  27.550  1.00  0.00     0.031 C 
ATOM     59  C   UNL A   1      43.929  24.031  31.326  1.00  0.00     0.029 A 
ATOM     60  C   UNL A   1      44.948  24.559  30.526  1.00  0.00     0.049 A 
ATOM     61  H   UNL A   1      45.717  23.565  28.830  1.00  0.00     0.167 HD
ATOM     62  C   UNL A   1      46.428  26.386  29.679  1.00  0.00     0.074 A 
ATOM     63  C   UNL A   1      46.443  26.157  28.232  1.00  0.00     0.031 C 
ATOM     64  C   UNL A   1      45.797  25.722  30.696  1.00  0.00     0.031 A 
BRANCH  51  65
ATOM     65  C   UNL A   1      43.645  22.549  26.797  1.00  0.00    -0.014 A 
ATOM     66  C   UNL A   1      42.875  21.474  26.310  1.00  0.00     0.010 A 
ATOM     67  C   UNL A   1      44.985  22.633  26.374  1.00  0.00     0.010 A 
ATOM     68  C   UNL A   1      43.440  20.490  25.493  1.00  0.00     0.020 A 
ATOM     69  C   UNL A   1      45.549  21.676  25.527  1.00  0.00     0.020 A 
ATOM     70  C   UNL A   1      44.781  20.591  25.120  1.00  0.00     0.054 A 
BRANCH  70  71
ATOM     71  S   UNL A   1      45.526  19.250  24.161  1.00  0.00     0.124 S 
ATOM     72  O   UNL A   1      45.267  18.092  25.010  1.00  0.00    -0.237 OA
ATOM     73  O   UNL A   1      44.769  19.305  22.914  1.00  0.00    -0.237 OA
ATOM     74  O   UNL A   1      46.928  19.646  24.052  1.00  0.00    -0.744 OA
ENDBRANCH  70  71
ENDBRANCH  51  65
BRANCH  52  75
ATOM     75  C   UNL A   1      46.916  30.622  27.577  1.00  0.00    -0.014 A 
ATOM     76  C   UNL A   1      46.173  31.626  26.928  1.00  0.00     0.010 A 
ATOM     77  C   UNL A   1      48.318  30.779  27.619  1.00  0.00     0.010 A 
ATOM     78  C   UNL A   1      46.802  32.775  26.410  1.00  0.00     0.020 A 
ATOM     79  C   UNL A   1      48.952  31.915  27.102  1.00  0.00     0.020 A 
ATOM     80  C   UNL A   1      48.187  32.923  26.523  1.00  0.00     0.054 A 
BRANCH  80  81
ATOM     81  S   UNL A   1      48.973  34.493  26.044  1.00  0.00     0.124 S 
ATOM     82  O   UNL A   1      48.235  34.856  24.839  1.00  0.00    -0.237 OA
ATOM     83  O   UNL A   1      48.733  35.337  27.211  1.00  0.00    -0.237 OA
ATOM     84  O   UNL A   1      50.372  34.125  25.829  1.00  0.00    -0.744 OA
ENDBRANCH  80  81
ENDBRANCH  52  75
BRANCH  64  85
ATOM     85  C   UNL A   1      45.780  26.358  32.072  1.00  0.00    -0.014 A 
ATOM     86  C   UNL A   1      46.820  26.215  33.014  1.00  0.00     0.010 A 
ATOM     87  C   UNL A   1      44.754  27.276  32.352  1.00  0.00     0.010 A 
ATOM     88  C   UNL A   1      46.813  26.945  34.214  1.00  0.00     0.020 A 
ATOM     89  C   UNL A   1      44.750  28.019  33.534  1.00  0.00     0.020 A 
ATOM     90  C   UNL A   1      45.772  27.841  34.467  1.00  0.00     0.054 A 
BRANCH  90  91
ATOM     91  S   UNL A   1      45.775  28.804  36.006  1.00  0.00     0.124 S 
ATOM     92  O   UNL A   1      44.866  28.041  36.858  1.00  0.00    -0.237 OA
ATOM     93  O   UNL A   1      47.180  28.778  36.405  1.00  0.00    -0.237 OA
ATOM     94  O   UNL A   1      45.281  30.118  35.596  1.00  0.00    -0.744 OA
ENDBRANCH  90  91
ENDBRANCH  64  85
ENDBRANCH  38  39
ENDBRANCH  30  33
ENDBRANCH  28  29
ENDBRANCH  27  28
ENDBRANCH   1  27
TORSDOF 20
ENDMDL
