MODEL 1
REMARK VINA RESULT:     -11.2      0.000      0.000
REMARK SMILES O=C(NCCCCNC(=O)[C@H]1CC[C@@H](CNC(=O)c2ccc(CO)cc2)O1)c1ccc(-c2c3nc(c(-c4ccc(S(=O)(=O)[O-])cc4)c4ccc([nH]4)c(-c4ccc(S(=O)(=O)[O-])cc4)c4nc(c(-c5ccc(S(=O)(=O)[O-])cc5)c5ccc2[nH]5)C=C4)C=C3)cc1
REMARK SMILES IDX 6 1 5 2 4 3 3 4 1 5 2 6 28 8 29 9 87 10 30 11 86 12 31 13
REMARK SMILES IDX 32 14 33 15 80 16 34 17 85 18 79 19 81 20 35 21 84 22 78 23
REMARK SMILES IDX 77 24 36 26 66 27 47 28 65 29 48 30 51 31 64 32 82 33 49 34
REMARK SMILES IDX 50 35 63 37 83 38 52 39 37 40 38 41 46 42 39 43 45 44 40 45
REMARK SMILES IDX 41 46 42 47 43 48 44 49 67 50 68 51 76 52 69 53 75 54 70 55
REMARK SMILES IDX 71 56 72 57 73 58 74 59 53 60 54 61 62 62 55 63 61 64 56 65
REMARK SMILES IDX 57 66 58 67 59 68 60 69 7 70 8 71 9 72 10 74 11 75 12 76
REMARK SMILES IDX 27 77 13 78 14 79 15 80 16 81 17 82 18 84 19 85 20 86 26 87
REMARK SMILES IDX 21 88 25 89 22 90 23 91 24 92
REMARK H PARENT 3 7 81 25 51 36 8 73 16 83 24 93
REMARK Flexibility Score: inf
ROOT
ATOM      1  C   UNL A   1      38.338  21.455  25.598  1.00  0.00     0.023 C 
ENDROOT
BRANCH   1   2
ATOM      2  C   UNL A   1      39.586  21.586  26.471  1.00  0.00     0.023 C 
BRANCH   2   3
ATOM      3  C   UNL A   1      40.029  23.011  26.781  1.00  0.00     0.116 C 
BRANCH   3   4
ATOM      4  N   UNL A   1      41.106  23.475  25.921  1.00  0.00    -0.352 N 
ATOM      5  O   UNL A   1      42.645  24.910  25.117  1.00  0.00    -0.269 OA
ATOM      6  C   UNL A   1      41.858  24.622  26.014  1.00  0.00     0.251 C 
ATOM      7  H   UNL A   1      41.328  22.884  25.166  1.00  0.00     0.163 HD
BRANCH   6   8
ATOM      8  C   UNL A   1      41.698  25.520  27.180  1.00  0.00     0.039 A 
ATOM      9  C   UNL A   1      40.629  25.362  28.065  1.00  0.00     0.014 A 
ATOM     10  C   UNL A   1      42.640  26.532  27.392  1.00  0.00     0.014 A 
ATOM     11  C   UNL A   1      40.429  26.289  29.082  1.00  0.00     0.010 A 
ATOM     12  C   UNL A   1      42.478  27.420  28.460  1.00  0.00     0.010 A 
ATOM     13  C   UNL A   1      41.356  27.321  29.298  1.00  0.00    -0.014 A 
BRANCH  13  14
ATOM     14  C   UNL A   1      41.174  28.241  30.450  1.00  0.00     0.031 A 
ATOM     15  C   UNL A   1      42.055  28.155  31.666  1.00  0.00     0.074 A 
ATOM     16  C   UNL A   1      40.202  29.172  30.383  1.00  0.00     0.049 A 
ATOM     17  N   UNL A   1      42.029  28.887  32.750  1.00  0.00    -0.248 NA
ATOM     18  C   UNL A   1      43.095  27.113  31.670  1.00  0.00     0.031 C 
ATOM     19  C   UNL A   1      39.278  29.346  29.259  1.00  0.00     0.029 A 
ATOM     20  N   UNL A   1      39.835  30.152  31.268  1.00  0.00    -0.354 N 
ATOM     21  C   UNL A   1      43.031  28.387  33.574  1.00  0.00     0.074 A 
ATOM     22  C   UNL A   1      43.635  27.275  32.872  1.00  0.00     0.031 C 
ATOM     23  C   UNL A   1      38.478  30.393  29.505  1.00  0.00     0.029 A 
ATOM     24  C   UNL A   1      38.788  30.926  30.826  1.00  0.00     0.049 A 
ATOM     25  H   UNL A   1      40.278  30.290  32.137  1.00  0.00     0.167 HD
ATOM     26  C   UNL A   1      43.410  28.817  34.802  1.00  0.00     0.031 A 
ATOM     27  C   UNL A   1      38.132  31.939  31.423  1.00  0.00     0.031 A 
ATOM     28  C   UNL A   1      42.806  29.924  35.496  1.00  0.00     0.049 A 
ATOM     29  C   UNL A   1      38.555  32.376  32.794  1.00  0.00     0.074 A 
ATOM     30  C   UNL A   1      43.150  30.461  36.725  1.00  0.00     0.029 A 
ATOM     31  N   UNL A   1      41.728  30.661  35.027  1.00  0.00    -0.354 N 
ATOM     32  N   UNL A   1      39.532  31.915  33.538  1.00  0.00    -0.248 NA
ATOM     33  C   UNL A   1      37.786  33.466  33.409  1.00  0.00     0.031 C 
ATOM     34  C   UNL A   1      42.248  31.489  37.023  1.00  0.00     0.029 A 
ATOM     35  C   UNL A   1      41.375  31.627  35.956  1.00  0.00     0.049 A 
ATOM     36  H   UNL A   1      41.280  30.519  34.163  1.00  0.00     0.167 HD
ATOM     37  C   UNL A   1      39.501  32.665  34.706  1.00  0.00     0.074 A 
ATOM     38  C   UNL A   1      38.423  33.623  34.561  1.00  0.00     0.031 C 
ATOM     39  C   UNL A   1      40.293  32.566  35.802  1.00  0.00     0.031 A 
BRANCH  26  40
ATOM     40  C   UNL A   1      44.520  28.069  35.495  1.00  0.00    -0.014 A 
ATOM     41  C   UNL A   1      45.838  28.559  35.497  1.00  0.00     0.010 A 
ATOM     42  C   UNL A   1      44.228  26.889  36.204  1.00  0.00     0.010 A 
ATOM     43  C   UNL A   1      46.850  27.863  36.167  1.00  0.00     0.020 A 
ATOM     44  C   UNL A   1      45.233  26.203  36.893  1.00  0.00     0.020 A 
ATOM     45  C   UNL A   1      46.541  26.687  36.857  1.00  0.00     0.054 A 
BRANCH  45  46
ATOM     46  S   UNL A   1      47.869  25.816  37.737  1.00  0.00     0.124 S 
ATOM     47  O   UNL A   1      49.059  26.486  37.220  1.00  0.00    -0.237 OA
ATOM     48  O   UNL A   1      47.556  26.084  39.138  1.00  0.00    -0.237 OA
ATOM     49  O   UNL A   1      47.707  24.425  37.321  1.00  0.00    -0.744 OA
ENDBRANCH  45  46
ENDBRANCH  26  40
BRANCH  27  50
ATOM     50  C   UNL A   1      36.993  32.588  30.721  1.00  0.00    -0.014 A 
ATOM     51  C   UNL A   1      35.668  32.253  31.044  1.00  0.00     0.010 A 
ATOM     52  C   UNL A   1      37.235  33.579  29.751  1.00  0.00     0.010 A 
ATOM     53  C   UNL A   1      34.602  32.892  30.401  1.00  0.00     0.020 A 
ATOM     54  C   UNL A   1      36.174  34.238  29.126  1.00  0.00     0.020 A 
ATOM     55  C   UNL A   1      34.863  33.882  29.449  1.00  0.00     0.054 A 
BRANCH  55  56
ATOM     56  S   UNL A   1      33.467  34.747  28.676  1.00  0.00     0.124 S 
ATOM     57  O   UNL A   1      32.989  33.754  27.719  1.00  0.00    -0.237 OA
ATOM     58  O   UNL A   1      32.586  35.007  29.813  1.00  0.00    -0.237 OA
ATOM     59  O   UNL A   1      34.086  35.936  28.094  1.00  0.00    -0.744 OA
ENDBRANCH  55  56
ENDBRANCH  27  50
BRANCH  39  60
ATOM     60  C   UNL A   1      40.031  33.530  36.925  1.00  0.00    -0.014 A 
ATOM     61  C   UNL A   1      40.610  34.811  36.929  1.00  0.00     0.010 A 
ATOM     62  C   UNL A   1      39.158  33.166  37.966  1.00  0.00     0.010 A 
ATOM     63  C   UNL A   1      40.340  35.703  37.969  1.00  0.00     0.020 A 
ATOM     64  C   UNL A   1      38.867  34.064  38.995  1.00  0.00     0.020 A 
ATOM     65  C   UNL A   1      39.471  35.324  38.997  1.00  0.00     0.054 A 
BRANCH  65  66
ATOM     66  S   UNL A   1      39.097  36.516  40.312  1.00  0.00     0.124 S 
ATOM     67  O   UNL A   1      40.390  36.644  40.980  1.00  0.00    -0.237 OA
ATOM     68  O   UNL A   1      38.657  37.692  39.565  1.00  0.00    -0.237 OA
ATOM     69  O   UNL A   1      38.054  35.855  41.092  1.00  0.00    -0.744 OA
ENDBRANCH  65  66
ENDBRANCH  39  60
ENDBRANCH  13  14
ENDBRANCH   6   8
ENDBRANCH   3   4
ENDBRANCH   2   3
ENDBRANCH   1   2
BRANCH   1  70
ATOM     70  C   UNL A   1      37.436  22.684  25.549  1.00  0.00     0.116 C 
BRANCH  70  71
ATOM     71  N   UNL A   1      36.270  22.572  26.408  1.00  0.00    -0.354 N 
ATOM     72  C   UNL A   1      35.078  21.949  26.151  1.00  0.00     0.249 C 
ATOM     73  H   UNL A   1      36.347  23.001  27.291  1.00  0.00     0.163 HD
ATOM     74  O   UNL A   1      34.236  21.892  27.050  1.00  0.00    -0.272 OA
BRANCH  72  75
ATOM     75  C   UNL A   1      34.825  21.377  24.747  1.00  0.00     0.207 C 
ATOM     76  C   UNL A   1      34.003  20.101  24.748  1.00  0.00     0.045 C 
ATOM     77  O   UNL A   1      34.091  22.354  23.990  1.00  0.00    -0.363 OA
ATOM     78  C   UNL A   1      32.593  20.601  24.589  1.00  0.00     0.037 C 
ATOM     79  C   UNL A   1      32.766  21.846  23.731  1.00  0.00     0.138 C 
BRANCH  79  80
ATOM     80  C   UNL A   1      31.692  22.891  24.058  1.00  0.00     0.148 C 
BRANCH  80  81
ATOM     81  N   UNL A   1      31.335  22.914  25.470  1.00  0.00    -0.349 N 
ATOM     82  C   UNL A   1      31.430  23.902  26.413  1.00  0.00     0.251 C 
ATOM     83  H   UNL A   1      30.960  22.068  25.806  1.00  0.00     0.163 HD
ATOM     84  O   UNL A   1      31.151  23.662  27.585  1.00  0.00    -0.269 OA
BRANCH  82  85
ATOM     85  C   UNL A   1      31.924  25.251  26.057  1.00  0.00     0.039 A 
ATOM     86  C   UNL A   1      30.974  26.245  25.803  1.00  0.00     0.014 A 
ATOM     87  C   UNL A   1      33.284  25.542  25.921  1.00  0.00     0.014 A 
ATOM     88  C   UNL A   1      31.382  27.546  25.504  1.00  0.00     0.007 A 
ATOM     89  C   UNL A   1      33.694  26.848  25.637  1.00  0.00     0.007 A 
ATOM     90  C   UNL A   1      32.747  27.866  25.455  1.00  0.00    -0.023 A 
BRANCH  90  91
ATOM     91  C   UNL A   1      33.178  29.279  25.171  1.00  0.00     0.191 C 
BRANCH  91  92
ATOM     92  O   UNL A   1      33.289  29.507  23.774  1.00  0.00    -0.392 OA
ATOM     93  H   UNL A   1      33.716  30.364  23.618  1.00  0.00     0.211 HD
ENDBRANCH  91  92
ENDBRANCH  90  91
ENDBRANCH  82  85
ENDBRANCH  80  81
ENDBRANCH  79  80
ENDBRANCH  72  75
ENDBRANCH  70  71
ENDBRANCH   1  70
TORSDOF 19
ENDMDL
MODEL 2
REMARK VINA RESULT:     -11.1      5.886     10.488
REMARK SMILES O=C(NCCCCNC(=O)[C@H]1CC[C@@H](CNC(=O)c2ccc(CO)cc2)O1)c1ccc(-c2c3nc(c(-c4ccc(S(=O)(=O)[O-])cc4)c4ccc([nH]4)c(-c4ccc(S(=O)(=O)[O-])cc4)c4nc(c(-c5ccc(S(=O)(=O)[O-])cc5)c5ccc2[nH]5)C=C4)C=C3)cc1
REMARK SMILES IDX 6 1 5 2 4 3 3 4 1 5 2 6 28 8 29 9 87 10 30 11 86 12 31 13
REMARK SMILES IDX 32 14 33 15 80 16 34 17 85 18 79 19 81 20 35 21 84 22 78 23
REMARK SMILES IDX 77 24 36 26 66 27 47 28 65 29 48 30 51 31 64 32 82 33 49 34
REMARK SMILES IDX 50 35 63 37 83 38 52 39 37 40 38 41 46 42 39 43 45 44 40 45
REMARK SMILES IDX 41 46 42 47 43 48 44 49 67 50 68 51 76 52 69 53 75 54 70 55
REMARK SMILES IDX 71 56 72 57 73 58 74 59 53 60 54 61 62 62 55 63 61 64 56 65
REMARK SMILES IDX 57 66 58 67 59 68 60 69 7 70 8 71 9 72 10 74 11 75 12 76
REMARK SMILES IDX 27 77 13 78 14 79 15 80 16 81 17 82 18 84 19 85 20 86 26 87
REMARK SMILES IDX 21 88 25 89 22 90 23 91 24 92
REMARK H PARENT 3 7 81 25 51 36 8 73 16 83 24 93
REMARK Flexibility Score: inf
ROOT
ATOM      1  C   UNL A   1      37.404  21.144  24.652  1.00  0.00     0.023 C 
ENDROOT
BRANCH   1   2
ATOM      2  C   UNL A   1      38.271  19.978  25.127  1.00  0.00     0.023 C 
BRANCH   2   3
ATOM      3  C   UNL A   1      39.399  20.340  26.086  1.00  0.00     0.116 C 
BRANCH   3   4
ATOM      4  N   UNL A   1      40.454  19.341  26.131  1.00  0.00    -0.352 N 
ATOM      5  O   UNL A   1      42.564  18.552  26.139  1.00  0.00    -0.269 OA
ATOM      6  C   UNL A   1      41.812  19.517  26.247  1.00  0.00     0.251 C 
ATOM      7  H   UNL A   1      40.152  18.406  26.069  1.00  0.00     0.163 HD
BRANCH   6   8
ATOM      8  C   UNL A   1      42.366  20.870  26.475  1.00  0.00     0.039 A 
ATOM      9  C   UNL A   1      42.632  21.327  27.769  1.00  0.00     0.014 A 
ATOM     10  C   UNL A   1      42.630  21.691  25.374  1.00  0.00     0.014 A 
ATOM     11  C   UNL A   1      43.037  22.643  27.969  1.00  0.00     0.010 A 
ATOM     12  C   UNL A   1      43.108  22.990  25.574  1.00  0.00     0.010 A 
ATOM     13  C   UNL A   1      43.290  23.485  26.874  1.00  0.00    -0.014 A 
BRANCH  13  14
ATOM     14  C   UNL A   1      43.814  24.855  27.109  1.00  0.00     0.031 A 
ATOM     15  C   UNL A   1      42.933  25.947  27.648  1.00  0.00     0.074 A 
ATOM     16  C   UNL A   1      45.111  25.103  26.840  1.00  0.00     0.049 A 
ATOM     17  N   UNL A   1      43.240  27.191  27.916  1.00  0.00    -0.248 NA
ATOM     18  C   UNL A   1      41.527  25.605  27.919  1.00  0.00     0.031 C 
ATOM     19  C   UNL A   1      46.063  24.124  26.305  1.00  0.00     0.029 A 
ATOM     20  N   UNL A   1      45.857  26.243  26.988  1.00  0.00    -0.354 N 
ATOM     21  C   UNL A   1      42.066  27.786  28.366  1.00  0.00     0.074 A 
ATOM     22  C   UNL A   1      41.036  26.771  28.319  1.00  0.00     0.031 C 
ATOM     23  C   UNL A   1      47.272  24.696  26.206  1.00  0.00     0.029 A 
ATOM     24  C   UNL A   1      47.171  26.093  26.611  1.00  0.00     0.049 A 
ATOM     25  H   UNL A   1      45.488  27.089  27.332  1.00  0.00     0.167 HD
ATOM     26  C   UNL A   1      41.869  29.061  28.780  1.00  0.00     0.031 A 
ATOM     27  C   UNL A   1      48.180  26.982  26.573  1.00  0.00     0.031 A 
ATOM     28  C   UNL A   1      42.899  30.067  28.826  1.00  0.00     0.049 A 
ATOM     29  C   UNL A   1      47.927  28.394  27.010  1.00  0.00     0.074 A 
ATOM     30  C   UNL A   1      42.805  31.375  29.271  1.00  0.00     0.029 A 
ATOM     31  N   UNL A   1      44.207  29.882  28.406  1.00  0.00    -0.354 N 
ATOM     32  N   UNL A   1      46.820  28.924  27.471  1.00  0.00    -0.248 NA
ATOM     33  C   UNL A   1      49.057  29.328  26.920  1.00  0.00     0.031 C 
ATOM     34  C   UNL A   1      44.043  31.996  29.073  1.00  0.00     0.029 A 
ATOM     35  C   UNL A   1      44.923  31.060  28.552  1.00  0.00     0.049 A 
ATOM     36  H   UNL A   1      44.575  29.039  28.055  1.00  0.00     0.167 HD
ATOM     37  C   UNL A   1      47.122  30.254  27.735  1.00  0.00     0.074 A 
ATOM     38  C   UNL A   1      48.520  30.441  27.403  1.00  0.00     0.031 C 
ATOM     39  C   UNL A   1      46.311  31.233  28.207  1.00  0.00     0.031 A 
BRANCH  26  40
ATOM     40  C   UNL A   1      40.476  29.457  29.196  1.00  0.00    -0.014 A 
ATOM     41  C   UNL A   1      40.131  29.597  30.552  1.00  0.00     0.010 A 
ATOM     42  C   UNL A   1      39.513  29.749  28.212  1.00  0.00     0.010 A 
ATOM     43  C   UNL A   1      38.839  29.988  30.917  1.00  0.00     0.020 A 
ATOM     44  C   UNL A   1      38.226  30.162  28.572  1.00  0.00     0.020 A 
ATOM     45  C   UNL A   1      37.893  30.264  29.924  1.00  0.00     0.054 A 
BRANCH  45  46
ATOM     46  S   UNL A   1      36.231  30.793  30.424  1.00  0.00     0.124 S 
ATOM     47  O   UNL A   1      36.405  32.236  30.563  1.00  0.00    -0.237 OA
ATOM     48  O   UNL A   1      35.405  30.367  29.297  1.00  0.00    -0.237 OA
ATOM     49  O   UNL A   1      35.997  30.070  31.671  1.00  0.00    -0.744 OA
ENDBRANCH  45  46
ENDBRANCH  26  40
BRANCH  27  50
ATOM     50  C   UNL A   1      49.516  26.553  26.079  1.00  0.00    -0.014 A 
ATOM     51  C   UNL A   1      49.977  26.957  24.815  1.00  0.00     0.010 A 
ATOM     52  C   UNL A   1      50.350  25.766  26.897  1.00  0.00     0.010 A 
ATOM     53  C   UNL A   1      51.247  26.575  24.373  1.00  0.00     0.020 A 
ATOM     54  C   UNL A   1      51.630  25.406  26.469  1.00  0.00     0.020 A 
ATOM     55  C   UNL A   1      52.066  25.805  25.205  1.00  0.00     0.054 A 
BRANCH  55  56
ATOM     56  S   UNL A   1      53.737  25.376  24.640  1.00  0.00     0.124 S 
ATOM     57  O   UNL A   1      53.608  25.503  23.192  1.00  0.00    -0.237 OA
ATOM     58  O   UNL A   1      54.563  26.390  25.293  1.00  0.00    -0.237 OA
ATOM     59  O   UNL A   1      53.926  24.016  25.139  1.00  0.00    -0.744 OA
ENDBRANCH  55  56
ENDBRANCH  27  50
BRANCH  39  60
ATOM     60  C   UNL A   1      46.923  32.592  28.405  1.00  0.00    -0.014 A 
ATOM     61  C   UNL A   1      47.570  32.925  29.608  1.00  0.00     0.010 A 
ATOM     62  C   UNL A   1      46.889  33.530  27.358  1.00  0.00     0.010 A 
ATOM     63  C   UNL A   1      48.153  34.184  29.769  1.00  0.00     0.020 A 
ATOM     64  C   UNL A   1      47.491  34.782  27.508  1.00  0.00     0.020 A 
ATOM     65  C   UNL A   1      48.108  35.106  28.718  1.00  0.00     0.054 A 
BRANCH  65  66
ATOM     66  S   UNL A   1      48.913  36.718  28.933  1.00  0.00     0.124 S 
ATOM     67  O   UNL A   1      48.349  37.171  30.202  1.00  0.00    -0.237 OA
ATOM     68  O   UNL A   1      50.331  36.368  28.965  1.00  0.00    -0.237 OA
ATOM     69  O   UNL A   1      48.490  37.474  27.757  1.00  0.00    -0.744 OA
ENDBRANCH  65  66
ENDBRANCH  39  60
ENDBRANCH  13  14
ENDBRANCH   6   8
ENDBRANCH   3   4
ENDBRANCH   2   3
ENDBRANCH   1   2
BRANCH   1  70
ATOM     70  C   UNL A   1      36.814  22.018  25.755  1.00  0.00     0.116 C 
BRANCH  70  71
ATOM     71  N   UNL A   1      35.428  21.706  26.052  1.00  0.00    -0.354 N 
ATOM     72  C   UNL A   1      34.295  22.265  25.525  1.00  0.00     0.249 C 
ATOM     73  H   UNL A   1      35.284  20.998  26.722  1.00  0.00     0.163 HD
ATOM     74  O   UNL A   1      33.200  21.798  25.850  1.00  0.00    -0.272 OA
BRANCH  72  75
ATOM     75  C   UNL A   1      34.430  23.469  24.580  1.00  0.00     0.207 C 
ATOM     76  C   UNL A   1      34.661  23.083  23.130  1.00  0.00     0.045 C 
ATOM     77  O   UNL A   1      33.205  24.219  24.629  1.00  0.00    -0.363 OA
ATOM     78  C   UNL A   1      33.269  23.038  22.562  1.00  0.00     0.037 C 
ATOM     79  C   UNL A   1      32.541  24.114  23.354  1.00  0.00     0.138 C 
BRANCH  79  80
ATOM     80  C   UNL A   1      31.058  23.762  23.522  1.00  0.00     0.148 C 
BRANCH  80  81
ATOM     81  N   UNL A   1      30.537  24.114  24.836  1.00  0.00    -0.349 N 
ATOM     82  C   UNL A   1      30.030  25.287  25.325  1.00  0.00     0.251 C 
ATOM     83  H   UNL A   1      30.553  23.376  25.488  1.00  0.00     0.163 HD
ATOM     84  O   UNL A   1      29.732  25.381  26.513  1.00  0.00    -0.269 OA
BRANCH  82  85
ATOM     85  C   UNL A   1      29.887  26.477  24.457  1.00  0.00     0.039 A 
ATOM     86  C   UNL A   1      28.626  26.735  23.909  1.00  0.00     0.014 A 
ATOM     87  C   UNL A   1      30.965  27.306  24.134  1.00  0.00     0.014 A 
ATOM     88  C   UNL A   1      28.423  27.867  23.117  1.00  0.00     0.007 A 
ATOM     89  C   UNL A   1      30.759  28.448  23.353  1.00  0.00     0.007 A 
ATOM     90  C   UNL A   1      29.481  28.752  22.863  1.00  0.00    -0.023 A 
BRANCH  90  91
ATOM     91  C   UNL A   1      29.245  29.990  22.040  1.00  0.00     0.191 C 
BRANCH  91  92
ATOM     92  O   UNL A   1      30.373  30.286  21.230  1.00  0.00    -0.392 OA
ATOM     93  H   UNL A   1      30.563  29.530  20.651  1.00  0.00     0.211 HD
ENDBRANCH  91  92
ENDBRANCH  90  91
ENDBRANCH  82  85
ENDBRANCH  80  81
ENDBRANCH  79  80
ENDBRANCH  72  75
ENDBRANCH  70  71
ENDBRANCH   1  70
TORSDOF 19
ENDMDL
MODEL 3
REMARK VINA RESULT:     -11.1      1.445      8.338
REMARK SMILES O=C(NCCCCNC(=O)[C@H]1CC[C@@H](CNC(=O)c2ccc(CO)cc2)O1)c1ccc(-c2c3nc(c(-c4ccc(S(=O)(=O)[O-])cc4)c4ccc([nH]4)c(-c4ccc(S(=O)(=O)[O-])cc4)c4nc(c(-c5ccc(S(=O)(=O)[O-])cc5)c5ccc2[nH]5)C=C4)C=C3)cc1
REMARK SMILES IDX 6 1 5 2 4 3 3 4 1 5 2 6 28 8 29 9 87 10 30 11 86 12 31 13
REMARK SMILES IDX 32 14 33 15 80 16 34 17 85 18 79 19 81 20 35 21 84 22 78 23
REMARK SMILES IDX 77 24 36 26 66 27 47 28 65 29 48 30 51 31 64 32 82 33 49 34
REMARK SMILES IDX 50 35 63 37 83 38 52 39 37 40 38 41 46 42 39 43 45 44 40 45
REMARK SMILES IDX 41 46 42 47 43 48 44 49 67 50 68 51 76 52 69 53 75 54 70 55
REMARK SMILES IDX 71 56 72 57 73 58 74 59 53 60 54 61 62 62 55 63 61 64 56 65
REMARK SMILES IDX 57 66 58 67 59 68 60 69 7 70 8 71 9 72 10 74 11 75 12 76
REMARK SMILES IDX 27 77 13 78 14 79 15 80 16 81 17 82 18 84 19 85 20 86 26 87
REMARK SMILES IDX 21 88 25 89 22 90 23 91 24 92
REMARK H PARENT 3 7 81 25 51 36 8 73 16 83 24 93
REMARK Flexibility Score: inf
ROOT
ATOM      1  C   UNL A   1      38.099  21.924  25.722  1.00  0.00     0.023 C 
ENDROOT
BRANCH   1   2
ATOM      2  C   UNL A   1      37.839  23.392  26.053  1.00  0.00     0.023 C 
BRANCH   2   3
ATOM      3  C   UNL A   1      38.948  24.105  26.817  1.00  0.00     0.116 C 
BRANCH   3   4
ATOM      4  N   UNL A   1      40.046  24.532  25.965  1.00  0.00    -0.352 N 
ATOM      5  O   UNL A   1      41.667  25.897  25.200  1.00  0.00    -0.269 OA
ATOM      6  C   UNL A   1      40.870  25.625  26.093  1.00  0.00     0.251 C 
ATOM      7  H   UNL A   1      40.224  23.958  25.186  1.00  0.00     0.163 HD
BRANCH   6   8
ATOM      8  C   UNL A   1      40.777  26.486  27.294  1.00  0.00     0.039 A 
ATOM      9  C   UNL A   1      39.970  26.122  28.375  1.00  0.00     0.014 A 
ATOM     10  C   UNL A   1      41.515  27.672  27.338  1.00  0.00     0.014 A 
ATOM     11  C   UNL A   1      39.801  27.002  29.440  1.00  0.00     0.010 A 
ATOM     12  C   UNL A   1      41.401  28.522  28.443  1.00  0.00     0.010 A 
ATOM     13  C   UNL A   1      40.523  28.206  29.491  1.00  0.00    -0.014 A 
BRANCH  13  14
ATOM     14  C   UNL A   1      40.400  29.083  30.684  1.00  0.00     0.031 A 
ATOM     15  C   UNL A   1      39.345  30.151  30.763  1.00  0.00     0.074 A 
ATOM     16  C   UNL A   1      41.253  28.896  31.710  1.00  0.00     0.049 A 
ATOM     17  N   UNL A   1      39.102  30.993  31.735  1.00  0.00    -0.248 NA
ATOM     18  C   UNL A   1      38.449  30.298  29.603  1.00  0.00     0.031 C 
ATOM     19  C   UNL A   1      42.325  27.897  31.745  1.00  0.00     0.029 A 
ATOM     20  N   UNL A   1      41.348  29.526  32.924  1.00  0.00    -0.354 N 
ATOM     21  C   UNL A   1      38.042  31.782  31.301  1.00  0.00     0.074 A 
ATOM     22  C   UNL A   1      37.699  31.330  29.970  1.00  0.00     0.031 C 
ATOM     23  C   UNL A   1      42.944  27.957  32.933  1.00  0.00     0.029 A 
ATOM     24  C   UNL A   1      42.356  29.035  33.720  1.00  0.00     0.049 A 
ATOM     25  H   UNL A   1      40.753  30.261  33.200  1.00  0.00     0.167 HD
ATOM     26  C   UNL A   1      37.414  32.789  31.956  1.00  0.00     0.031 A 
ATOM     27  C   UNL A   1      42.778  29.418  34.939  1.00  0.00     0.031 A 
ATOM     28  C   UNL A   1      37.759  33.233  33.282  1.00  0.00     0.049 A 
ATOM     29  C   UNL A   1      42.083  30.555  35.628  1.00  0.00     0.074 A 
ATOM     30  C   UNL A   1      37.153  34.218  34.044  1.00  0.00     0.029 A 
ATOM     31  N   UNL A   1      38.805  32.730  34.040  1.00  0.00    -0.354 N 
ATOM     32  N   UNL A   1      41.057  31.260  35.217  1.00  0.00    -0.248 NA
ATOM     33  C   UNL A   1      42.604  30.950  36.944  1.00  0.00     0.031 C 
ATOM     34  C   UNL A   1      37.864  34.345  35.242  1.00  0.00     0.029 A 
ATOM     35  C   UNL A   1      38.882  33.404  35.248  1.00  0.00     0.049 A 
ATOM     36  H   UNL A   1      39.406  32.002  33.761  1.00  0.00     0.167 HD
ATOM     37  C   UNL A   1      40.803  32.179  36.228  1.00  0.00     0.074 A 
ATOM     38  C   UNL A   1      41.768  31.925  37.278  1.00  0.00     0.031 C 
ATOM     39  C   UNL A   1      39.856  33.147  36.279  1.00  0.00     0.031 A 
BRANCH  26  40
ATOM     40  C   UNL A   1      36.300  33.505  31.237  1.00  0.00    -0.014 A 
ATOM     41  C   UNL A   1      35.072  33.766  31.871  1.00  0.00     0.010 A 
ATOM     42  C   UNL A   1      36.507  33.976  29.927  1.00  0.00     0.010 A 
ATOM     43  C   UNL A   1      34.059  34.453  31.196  1.00  0.00     0.020 A 
ATOM     44  C   UNL A   1      35.504  34.684  29.257  1.00  0.00     0.020 A 
ATOM     45  C   UNL A   1      34.280  34.904  29.891  1.00  0.00     0.054 A 
BRANCH  45  46
ATOM     46  S   UNL A   1      32.957  35.814  29.045  1.00  0.00     0.124 S 
ATOM     47  O   UNL A   1      32.372  34.775  28.201  1.00  0.00    -0.237 OA
ATOM     48  O   UNL A   1      32.119  36.267  30.153  1.00  0.00    -0.237 OA
ATOM     49  O   UNL A   1      33.665  36.872  28.331  1.00  0.00    -0.744 OA
ENDBRANCH  45  46
ENDBRANCH  26  40
BRANCH  27  50
ATOM     50  C   UNL A   1      43.934  28.724  35.566  1.00  0.00    -0.014 A 
ATOM     51  C   UNL A   1      43.736  27.607  36.394  1.00  0.00     0.010 A 
ATOM     52  C   UNL A   1      45.246  29.160  35.301  1.00  0.00     0.010 A 
ATOM     53  C   UNL A   1      44.832  26.941  36.953  1.00  0.00     0.020 A 
ATOM     54  C   UNL A   1      46.343  28.482  35.836  1.00  0.00     0.020 A 
ATOM     55  C   UNL A   1      46.128  27.381  36.667  1.00  0.00     0.054 A 
BRANCH  55  56
ATOM     56  S   UNL A   1      47.538  26.463  37.348  1.00  0.00     0.124 S 
ATOM     57  O   UNL A   1      47.303  26.572  38.784  1.00  0.00    -0.237 OA
ATOM     58  O   UNL A   1      47.355  25.131  36.775  1.00  0.00    -0.237 OA
ATOM     59  O   UNL A   1      48.696  27.196  36.841  1.00  0.00    -0.744 OA
ENDBRANCH  55  56
ENDBRANCH  27  50
BRANCH  39  60
ATOM     60  C   UNL A   1      39.810  33.995  37.519  1.00  0.00    -0.014 A 
ATOM     61  C   UNL A   1      40.596  35.155  37.630  1.00  0.00     0.010 A 
ATOM     62  C   UNL A   1      38.934  33.654  38.565  1.00  0.00     0.010 A 
ATOM     63  C   UNL A   1      40.526  35.946  38.780  1.00  0.00     0.020 A 
ATOM     64  C   UNL A   1      38.844  34.455  39.705  1.00  0.00     0.020 A 
ATOM     65  C   UNL A   1      39.651  35.590  39.811  1.00  0.00     0.054 A 
BRANCH  65  66
ATOM     66  S   UNL A   1      39.542  36.657  41.274  1.00  0.00     0.124 S 
ATOM     67  O   UNL A   1      38.726  35.851  42.178  1.00  0.00    -0.237 OA
ATOM     68  O   UNL A   1      40.942  36.815  41.662  1.00  0.00    -0.237 OA
ATOM     69  O   UNL A   1      38.902  37.870  40.769  1.00  0.00    -0.744 OA
ENDBRANCH  65  66
ENDBRANCH  39  60
ENDBRANCH  13  14
ENDBRANCH   6   8
ENDBRANCH   3   4
ENDBRANCH   2   3
ENDBRANCH   1   2
BRANCH   1  70
ATOM     70  C   UNL A   1      37.277  21.351  24.571  1.00  0.00     0.116 C 
BRANCH  70  71
ATOM     71  N   UNL A   1      36.705  22.373  23.714  1.00  0.00    -0.354 N 
ATOM     72  C   UNL A   1      35.386  22.695  23.532  1.00  0.00     0.249 C 
ATOM     73  H   UNL A   1      37.350  22.906  23.194  1.00  0.00     0.163 HD
ATOM     74  O   UNL A   1      35.107  23.660  22.817  1.00  0.00    -0.272 OA
BRANCH  72  75
ATOM     75  C   UNL A   1      34.310  21.823  24.197  1.00  0.00     0.207 C 
ATOM     76  C   UNL A   1      33.978  22.241  25.618  1.00  0.00     0.045 C 
ATOM     77  O   UNL A   1      33.100  21.936  23.428  1.00  0.00    -0.363 OA
ATOM     78  C   UNL A   1      32.824  23.189  25.435  1.00  0.00     0.037 C 
ATOM     79  C   UNL A   1      32.109  22.626  24.215  1.00  0.00     0.138 C 
BRANCH  79  80
ATOM     80  C   UNL A   1      31.435  23.744  23.411  1.00  0.00     0.148 C 
BRANCH  80  81
ATOM     81  N   UNL A   1      32.220  24.167  22.259  1.00  0.00    -0.349 N 
ATOM     82  C   UNL A   1      32.764  25.380  21.929  1.00  0.00     0.251 C 
ATOM     83  H   UNL A   1      32.387  23.455  21.600  1.00  0.00     0.163 HD
ATOM     84  O   UNL A   1      33.315  25.530  20.842  1.00  0.00    -0.269 OA
BRANCH  82  85
ATOM     85  C   UNL A   1      32.648  26.541  22.839  1.00  0.00     0.039 A 
ATOM     86  C   UNL A   1      33.488  26.579  23.956  1.00  0.00     0.014 A 
ATOM     87  C   UNL A   1      31.706  27.556  22.645  1.00  0.00     0.014 A 
ATOM     88  C   UNL A   1      33.452  27.671  24.825  1.00  0.00     0.007 A 
ATOM     89  C   UNL A   1      31.680  28.657  23.507  1.00  0.00     0.007 A 
ATOM     90  C   UNL A   1      32.572  28.736  24.586  1.00  0.00    -0.023 A 
BRANCH  90  91
ATOM     91  C   UNL A   1      32.566  29.927  25.506  1.00  0.00     0.191 C 
BRANCH  91  92
ATOM     92  O   UNL A   1      31.393  30.707  25.323  1.00  0.00    -0.392 OA
ATOM     93  H   UNL A   1      31.515  31.576  25.736  1.00  0.00     0.211 HD
ENDBRANCH  91  92
ENDBRANCH  90  91
ENDBRANCH  82  85
ENDBRANCH  80  81
ENDBRANCH  79  80
ENDBRANCH  72  75
ENDBRANCH  70  71
ENDBRANCH   1  70
TORSDOF 19
ENDMDL
