MODEL 1
REMARK VINA RESULT:     -11.2      0.000      0.000
REMARK SMILES O=C(COc1ccccc1[C@@H]1[NH2+]CCc2cc(O)c(O)cc21)NCCCCNC(=O)c1ccc(-c2c3nc(c(-c4ccc(S(=O)(=O)[O-])cc4)c4ccc([nH]4)c(-c4ccc(S(=O)(=O)[O-])cc4)c4nc(c(-c5ccc(S(=O)(=O)[O-])cc5)c5ccc2[nH]5)C=C4)C=C3)cc1
REMARK SMILES IDX 25 1 24 2 23 3 1 4 2 5 3 7 4 8 5 9 6 10 10 11 7 12 9 13 8 14
REMARK SMILES IDX 11 15 12 16 22 17 13 18 15 21 21 22 14 23 16 24 19 25 17 26
REMARK SMILES IDX 20 27 18 29 26 31 27 32 28 33 29 34 30 36 31 37 32 38 90 39
REMARK SMILES IDX 33 40 89 41 34 42 35 43 36 44 83 45 37 46 88 47 82 48 84 49
REMARK SMILES IDX 38 50 87 51 81 52 80 53 39 55 69 56 50 57 68 58 51 59 54 60
REMARK SMILES IDX 67 61 85 62 52 63 53 64 66 66 86 67 55 68 40 69 41 70 49 71
REMARK SMILES IDX 42 72 48 73 43 74 44 75 45 76 46 77 47 78 70 79 71 80 79 81
REMARK SMILES IDX 72 82 78 83 73 84 74 85 75 86 76 87 77 88 56 89 57 90 65 91
REMARK SMILES IDX 58 92 64 93 59 94 60 95 61 96 62 97 63 98
REMARK H PARENT 23 6 12 19 12 20 20 28 18 30 28 35 84 54 54 65
REMARK Flexibility Score: inf
ROOT
ATOM      1  C   UNL A   1      33.988  28.183  24.576  1.00  0.00     0.023 C 
ENDROOT
BRANCH   1   2
ATOM      2  C   UNL A   1      33.663  28.711  23.187  1.00  0.00     0.116 C 
BRANCH   2   3
ATOM      3  N   UNL A   1      32.608  28.004  22.493  1.00  0.00    -0.353 N 
ATOM      4  O   UNL A   1      33.949  26.349  21.643  1.00  0.00    -0.271 OA
ATOM      5  C   UNL A   1      32.824  26.779  21.890  1.00  0.00     0.257 C 
ATOM      6  H   UNL A   1      31.710  28.407  22.449  1.00  0.00     0.163 HD
BRANCH   5   7
ATOM      7  C   UNL A   1      31.542  25.991  21.582  1.00  0.00     0.329 C 
BRANCH   7   8
ATOM      8  O   UNL A   1      31.144  24.981  22.489  1.00  0.00    -0.483 OA
BRANCH   8   9
ATOM      9  C   UNL A   1      31.602  24.800  23.767  1.00  0.00     0.129 A 
ATOM     10  C   UNL A   1      30.694  25.394  24.669  1.00  0.00     0.047 A 
ATOM     11  C   UNL A   1      32.833  24.306  24.259  1.00  0.00     0.056 A 
ATOM     12  C   UNL A   1      31.018  25.626  26.002  1.00  0.00     0.004 A 
ATOM     13  C   UNL A   1      33.175  24.654  25.592  1.00  0.00     0.014 A 
ATOM     14  C   UNL A   1      32.287  25.308  26.449  1.00  0.00     0.001 A 
BRANCH  11  15
ATOM     15  C   UNL A   1      33.832  23.471  23.465  1.00  0.00     0.249 C 
ATOM     16  N   UNL A   1      33.190  22.718  22.377  1.00  0.00    -0.336 N 
ATOM     17  C   UNL A   1      34.743  22.467  24.184  1.00  0.00     0.021 A 
ATOM     18  C   UNL A   1      32.365  21.594  22.836  1.00  0.00     0.266 C 
ATOM     19  H   UNL A   1      33.920  22.352  21.766  1.00  0.00     0.347 HD
ATOM     20  H   UNL A   1      32.566  23.366  21.897  1.00  0.00     0.347 HD
ATOM     21  C   UNL A   1      34.205  21.189  24.469  1.00  0.00    -0.029 A 
ATOM     22  C   UNL A   1      36.114  22.706  24.365  1.00  0.00     0.060 A 
ATOM     23  C   UNL A   1      32.737  20.993  24.201  1.00  0.00     0.097 C 
ATOM     24  C   UNL A   1      35.033  20.148  24.889  1.00  0.00     0.054 A 
ATOM     25  C   UNL A   1      36.932  21.651  24.755  1.00  0.00     0.157 A 
ATOM     26  C   UNL A   1      36.395  20.386  24.996  1.00  0.00     0.157 A 
BRANCH  25  27
ATOM     27  O   UNL A   1      38.289  21.791  24.867  1.00  0.00    -0.504 OA
ATOM     28  H   UNL A   1      38.859  21.263  24.346  1.00  0.00     0.293 HD
ENDBRANCH  25  27
BRANCH  26  29
ATOM     29  O   UNL A   1      37.227  19.343  25.294  1.00  0.00    -0.504 OA
ATOM     30  H   UNL A   1      38.102  19.510  25.584  1.00  0.00     0.293 HD
ENDBRANCH  26  29
ENDBRANCH  11  15
ENDBRANCH   8   9
ENDBRANCH   7   8
ENDBRANCH   5   7
ENDBRANCH   2   3
ENDBRANCH   1   2
BRANCH   1  31
ATOM     31  C   UNL A   1      33.033  28.651  25.665  1.00  0.00     0.023 C 
BRANCH  31  32
ATOM     32  C   UNL A   1      33.661  28.793  27.044  1.00  0.00     0.116 C 
BRANCH  32  33
ATOM     33  N   UNL A   1      33.570  30.148  27.567  1.00  0.00    -0.352 N 
ATOM     34  C   UNL A   1      34.499  30.849  28.303  1.00  0.00     0.251 C 
ATOM     35  H   UNL A   1      32.733  30.628  27.367  1.00  0.00     0.163 HD
ATOM     36  O   UNL A   1      34.207  31.927  28.800  1.00  0.00    -0.269 OA
BRANCH  34  37
ATOM     37  C   UNL A   1      35.841  30.262  28.511  1.00  0.00     0.039 A 
ATOM     38  C   UNL A   1      36.783  30.345  27.484  1.00  0.00     0.014 A 
ATOM     39  C   UNL A   1      36.179  29.677  29.735  1.00  0.00     0.014 A 
ATOM     40  C   UNL A   1      38.089  29.905  27.710  1.00  0.00     0.010 A 
ATOM     41  C   UNL A   1      37.500  29.317  29.985  1.00  0.00     0.010 A 
ATOM     42  C   UNL A   1      38.469  29.424  28.976  1.00  0.00    -0.014 A 
BRANCH  42  43
ATOM     43  C   UNL A   1      39.873  29.033  29.264  1.00  0.00     0.031 A 
ATOM     44  C   UNL A   1      40.822  30.024  29.883  1.00  0.00     0.074 A 
ATOM     45  C   UNL A   1      40.313  27.807  28.913  1.00  0.00     0.049 A 
ATOM     46  N   UNL A   1      42.094  29.887  30.159  1.00  0.00    -0.248 NA
ATOM     47  C   UNL A   1      40.277  31.352  30.211  1.00  0.00     0.031 C 
ATOM     48  C   UNL A   1      39.506  26.769  28.267  1.00  0.00     0.029 A 
ATOM     49  N   UNL A   1      41.551  27.227  29.045  1.00  0.00    -0.354 N 
ATOM     50  C   UNL A   1      42.501  31.110  30.678  1.00  0.00     0.074 A 
ATOM     51  C   UNL A   1      41.358  31.994  30.626  1.00  0.00     0.031 C 
ATOM     52  C   UNL A   1      40.261  25.672  28.086  1.00  0.00     0.029 A 
ATOM     53  C   UNL A   1      41.614  25.942  28.560  1.00  0.00     0.049 A 
ATOM     54  H   UNL A   1      42.320  27.689  29.450  1.00  0.00     0.167 HD
ATOM     55  C   UNL A   1      43.712  31.460  31.176  1.00  0.00     0.031 A 
ATOM     56  C   UNL A   1      42.646  25.077  28.495  1.00  0.00     0.031 A 
ATOM     57  C   UNL A   1      44.846  30.576  31.232  1.00  0.00     0.049 A 
ATOM     58  C   UNL A   1      43.987  25.495  29.037  1.00  0.00     0.074 A 
ATOM     59  C   UNL A   1      46.101  30.821  31.762  1.00  0.00     0.029 A 
ATOM     60  N   UNL A   1      44.867  29.281  30.737  1.00  0.00    -0.354 N 
ATOM     61  N   UNL A   1      44.335  26.635  29.588  1.00  0.00    -0.248 NA
ATOM     62  C   UNL A   1      45.072  24.507  28.962  1.00  0.00     0.031 C 
ATOM     63  C   UNL A   1      46.897  29.694  31.536  1.00  0.00     0.029 A 
ATOM     64  C   UNL A   1      46.120  28.722  30.926  1.00  0.00     0.049 A 
ATOM     65  H   UNL A   1      44.103  28.826  30.313  1.00  0.00     0.167 HD
ATOM     66  C   UNL A   1      45.670  26.488  29.950  1.00  0.00     0.074 A 
ATOM     67  C   UNL A   1      46.061  25.146  29.571  1.00  0.00     0.031 C 
ATOM     68  C   UNL A   1      46.496  27.385  30.543  1.00  0.00     0.031 A 
BRANCH  55  69
ATOM     69  C   UNL A   1      43.870  32.865  31.697  1.00  0.00    -0.014 A 
ATOM     70  C   UNL A   1      44.274  33.914  30.850  1.00  0.00     0.010 A 
ATOM     71  C   UNL A   1      43.574  33.151  33.042  1.00  0.00     0.010 A 
ATOM     72  C   UNL A   1      44.421  35.211  31.348  1.00  0.00     0.020 A 
ATOM     73  C   UNL A   1      43.689  34.453  33.537  1.00  0.00     0.020 A 
ATOM     74  C   UNL A   1      44.129  35.472  32.689  1.00  0.00     0.054 A 
BRANCH  74  75
ATOM     75  S   UNL A   1      44.310  37.169  33.302  1.00  0.00     0.124 S 
ATOM     76  O   UNL A   1      45.489  37.057  34.157  1.00  0.00    -0.237 OA
ATOM     77  O   UNL A   1      44.497  37.935  32.072  1.00  0.00    -0.237 OA
ATOM     78  O   UNL A   1      43.054  37.421  34.005  1.00  0.00    -0.744 OA
ENDBRANCH  74  75
ENDBRANCH  55  69
BRANCH  56  79
ATOM     79  C   UNL A   1      42.450  23.726  27.902  1.00  0.00    -0.014 A 
ATOM     80  C   UNL A   1      41.937  22.670  28.677  1.00  0.00     0.010 A 
ATOM     81  C   UNL A   1      42.766  23.488  26.551  1.00  0.00     0.010 A 
ATOM     82  C   UNL A   1      41.764  21.400  28.120  1.00  0.00     0.020 A 
ATOM     83  C   UNL A   1      42.566  22.228  25.982  1.00  0.00     0.020 A 
ATOM     84  C   UNL A   1      42.078  21.187  26.774  1.00  0.00     0.054 A 
BRANCH  84  85
ATOM     85  S   UNL A   1      41.799  19.542  26.060  1.00  0.00     0.124 S 
ATOM     86  O   UNL A   1      42.679  19.565  24.896  1.00  0.00    -0.237 OA
ATOM     87  O   UNL A   1      42.206  18.655  27.146  1.00  0.00    -0.237 OA
ATOM     88  O   UNL A   1      40.367  19.537  25.764  1.00  0.00    -0.744 OA
ENDBRANCH  84  85
ENDBRANCH  56  79
BRANCH  68  89
ATOM     89  C   UNL A   1      47.899  26.935  30.858  1.00  0.00    -0.014 A 
ATOM     90  C   UNL A   1      48.967  27.201  29.982  1.00  0.00     0.010 A 
ATOM     91  C   UNL A   1      48.160  26.286  32.079  1.00  0.00     0.010 A 
ATOM     92  C   UNL A   1      50.265  26.796  30.308  1.00  0.00     0.020 A 
ATOM     93  C   UNL A   1      49.461  25.909  32.423  1.00  0.00     0.020 A 
ATOM     94  C   UNL A   1      50.503  26.154  31.528  1.00  0.00     0.054 A 
BRANCH  94  95
ATOM     95  S   UNL A   1      52.203  25.681  31.948  1.00  0.00     0.124 S 
ATOM     96  O   UNL A   1      52.112  24.224  31.986  1.00  0.00    -0.237 OA
ATOM     97  O   UNL A   1      52.973  26.234  30.835  1.00  0.00    -0.237 OA
ATOM     98  O   UNL A   1      52.434  26.325  33.238  1.00  0.00    -0.744 OA
ENDBRANCH  94  95
ENDBRANCH  68  89
ENDBRANCH  42  43
ENDBRANCH  34  37
ENDBRANCH  32  33
ENDBRANCH  31  32
ENDBRANCH   1  31
TORSDOF 19
ENDMDL
MODEL 2
REMARK VINA RESULT:     -10.9      2.574      8.960
REMARK SMILES O=C(COc1ccccc1[C@@H]1[NH2+]CCc2cc(O)c(O)cc21)NCCCCNC(=O)c1ccc(-c2c3nc(c(-c4ccc(S(=O)(=O)[O-])cc4)c4ccc([nH]4)c(-c4ccc(S(=O)(=O)[O-])cc4)c4nc(c(-c5ccc(S(=O)(=O)[O-])cc5)c5ccc2[nH]5)C=C4)C=C3)cc1
REMARK SMILES IDX 25 1 24 2 23 3 1 4 2 5 3 7 4 8 5 9 6 10 10 11 7 12 9 13 8 14
REMARK SMILES IDX 11 15 12 16 22 17 13 18 15 21 21 22 14 23 16 24 19 25 17 26
REMARK SMILES IDX 20 27 18 29 26 31 27 32 28 33 29 34 30 36 31 37 32 38 90 39
REMARK SMILES IDX 33 40 89 41 34 42 35 43 36 44 83 45 37 46 88 47 82 48 84 49
REMARK SMILES IDX 38 50 87 51 81 52 80 53 39 55 69 56 50 57 68 58 51 59 54 60
REMARK SMILES IDX 67 61 85 62 52 63 53 64 66 66 86 67 55 68 40 69 41 70 49 71
REMARK SMILES IDX 42 72 48 73 43 74 44 75 45 76 46 77 47 78 70 79 71 80 79 81
REMARK SMILES IDX 72 82 78 83 73 84 74 85 75 86 76 87 77 88 56 89 57 90 65 91
REMARK SMILES IDX 58 92 64 93 59 94 60 95 61 96 62 97 63 98
REMARK H PARENT 23 6 12 19 12 20 20 28 18 30 28 35 84 54 54 65
REMARK Flexibility Score: inf
ROOT
ATOM      1  C   UNL A   1      35.159  22.348  26.307  1.00  0.00     0.023 C 
ENDROOT
BRANCH   1   2
ATOM      2  C   UNL A   1      33.643  22.345  26.437  1.00  0.00     0.116 C 
BRANCH   2   3
ATOM      3  N   UNL A   1      33.000  23.608  26.140  1.00  0.00    -0.353 N 
ATOM      4  O   UNL A   1      31.192  23.282  27.513  1.00  0.00    -0.271 OA
ATOM      5  C   UNL A   1      31.882  24.036  26.829  1.00  0.00     0.257 C 
ATOM      6  H   UNL A   1      33.369  24.176  25.426  1.00  0.00     0.163 HD
BRANCH   5   7
ATOM      7  C   UNL A   1      31.590  25.539  26.690  1.00  0.00     0.329 C 
BRANCH   7   8
ATOM      8  O   UNL A   1      32.675  26.408  26.429  1.00  0.00    -0.483 OA
BRANCH   8   9
ATOM      9  C   UNL A   1      32.600  27.727  26.066  1.00  0.00     0.129 A 
ATOM     10  C   UNL A   1      32.547  28.521  27.231  1.00  0.00     0.047 A 
ATOM     11  C   UNL A   1      32.404  28.341  24.807  1.00  0.00     0.056 A 
ATOM     12  C   UNL A   1      32.184  29.864  27.196  1.00  0.00     0.004 A 
ATOM     13  C   UNL A   1      31.931  29.680  24.816  1.00  0.00     0.014 A 
ATOM     14  C   UNL A   1      31.817  30.429  25.990  1.00  0.00     0.001 A 
BRANCH  11  15
ATOM     15  C   UNL A   1      32.618  27.673  23.453  1.00  0.00     0.249 C 
ATOM     16  N   UNL A   1      31.680  28.166  22.433  1.00  0.00    -0.336 N 
ATOM     17  C   UNL A   1      32.593  26.144  23.335  1.00  0.00     0.021 A 
ATOM     18  C   UNL A   1      30.297  27.711  22.625  1.00  0.00     0.266 C 
ATOM     19  H   UNL A   1      32.000  27.844  21.520  1.00  0.00     0.347 HD
ATOM     20  H   UNL A   1      31.669  29.183  22.508  1.00  0.00     0.347 HD
ATOM     21  C   UNL A   1      31.328  25.520  23.218  1.00  0.00    -0.029 A 
ATOM     22  C   UNL A   1      33.763  25.397  23.130  1.00  0.00     0.060 A 
ATOM     23  C   UNL A   1      30.118  26.397  23.400  1.00  0.00     0.097 C 
ATOM     24  C   UNL A   1      31.230  24.176  22.860  1.00  0.00     0.054 A 
ATOM     25  C   UNL A   1      33.649  24.065  22.744  1.00  0.00     0.157 A 
ATOM     26  C   UNL A   1      32.395  23.472  22.596  1.00  0.00     0.157 A 
BRANCH  25  27
ATOM     27  O   UNL A   1      34.745  23.303  22.445  1.00  0.00    -0.504 OA
ATOM     28  H   UNL A   1      35.135  23.356  21.595  1.00  0.00     0.293 HD
ENDBRANCH  25  27
BRANCH  26  29
ATOM     29  O   UNL A   1      32.302  22.190  22.132  1.00  0.00    -0.504 OA
ATOM     30  H   UNL A   1      32.626  21.480  22.651  1.00  0.00     0.293 HD
ENDBRANCH  26  29
ENDBRANCH  11  15
ENDBRANCH   8   9
ENDBRANCH   7   8
ENDBRANCH   5   7
ENDBRANCH   2   3
ENDBRANCH   1   2
BRANCH   1  31
ATOM     31  C   UNL A   1      35.766  23.723  26.063  1.00  0.00     0.023 C 
BRANCH  31  32
ATOM     32  C   UNL A   1      36.984  23.727  25.151  1.00  0.00     0.116 C 
BRANCH  32  33
ATOM     33  N   UNL A   1      37.980  22.739  25.537  1.00  0.00    -0.352 N 
ATOM     34  C   UNL A   1      39.142  22.924  26.252  1.00  0.00     0.251 C 
ATOM     35  H   UNL A   1      37.798  21.814  25.249  1.00  0.00     0.163 HD
ATOM     36  O   UNL A   1      39.952  22.015  26.361  1.00  0.00    -0.269 OA
BRANCH  34  37
ATOM     37  C   UNL A   1      39.410  24.247  26.857  1.00  0.00     0.039 A 
ATOM     38  C   UNL A   1      38.988  24.493  28.165  1.00  0.00     0.014 A 
ATOM     39  C   UNL A   1      40.118  25.222  26.148  1.00  0.00     0.014 A 
ATOM     40  C   UNL A   1      39.340  25.691  28.789  1.00  0.00     0.010 A 
ATOM     41  C   UNL A   1      40.539  26.378  26.800  1.00  0.00     0.010 A 
ATOM     42  C   UNL A   1      40.153  26.627  28.125  1.00  0.00    -0.014 A 
BRANCH  42  43
ATOM     43  C   UNL A   1      40.611  27.869  28.801  1.00  0.00     0.031 A 
ATOM     44  C   UNL A   1      41.994  27.940  29.392  1.00  0.00     0.074 A 
ATOM     45  C   UNL A   1      39.765  28.910  28.936  1.00  0.00     0.049 A 
ATOM     46  N   UNL A   1      42.554  28.913  30.065  1.00  0.00    -0.248 NA
ATOM     47  C   UNL A   1      42.850  26.753  29.230  1.00  0.00     0.031 C 
ATOM     48  C   UNL A   1      38.385  28.952  28.446  1.00  0.00     0.029 A 
ATOM     49  N   UNL A   1      39.940  30.135  29.533  1.00  0.00    -0.354 N 
ATOM     50  C   UNL A   1      43.817  28.451  30.415  1.00  0.00     0.074 A 
ATOM     51  C   UNL A   1      43.920  27.093  29.932  1.00  0.00     0.031 C 
ATOM     52  C   UNL A   1      37.850  30.149  28.736  1.00  0.00     0.029 A 
ATOM     53  C   UNL A   1      38.829  30.943  29.471  1.00  0.00     0.049 A 
ATOM     54  H   UNL A   1      40.781  30.407  29.965  1.00  0.00     0.167 HD
ATOM     55  C   UNL A   1      44.811  29.107  31.061  1.00  0.00     0.031 A 
ATOM     56  C   UNL A   1      38.616  32.182  29.957  1.00  0.00     0.031 A 
ATOM     57  C   UNL A   1      44.708  30.461  31.536  1.00  0.00     0.049 A 
ATOM     58  C   UNL A   1      39.730  32.884  30.688  1.00  0.00     0.074 A 
ATOM     59  C   UNL A   1      45.676  31.230  32.158  1.00  0.00     0.029 A 
ATOM     60  N   UNL A   1      43.569  31.248  31.447  1.00  0.00    -0.354 N 
ATOM     61  N   UNL A   1      40.942  32.455  30.950  1.00  0.00    -0.248 NA
ATOM     62  C   UNL A   1      39.452  34.241  31.178  1.00  0.00     0.031 C 
ATOM     63  C   UNL A   1      45.105  32.461  32.496  1.00  0.00     0.029 A 
ATOM     64  C   UNL A   1      43.802  32.484  32.025  1.00  0.00     0.049 A 
ATOM     65  H   UNL A   1      42.720  30.968  31.034  1.00  0.00     0.167 HD
ATOM     66  C   UNL A   1      41.580  33.501  31.609  1.00  0.00     0.074 A 
ATOM     67  C   UNL A   1      40.625  34.587  31.691  1.00  0.00     0.031 C 
ATOM     68  C   UNL A   1      42.842  33.556  32.101  1.00  0.00     0.031 A 
BRANCH  55  69
ATOM     69  C   UNL A   1      46.100  28.361  31.295  1.00  0.00    -0.014 A 
ATOM     70  C   UNL A   1      47.134  28.378  30.341  1.00  0.00     0.010 A 
ATOM     71  C   UNL A   1      46.296  27.663  32.501  1.00  0.00     0.010 A 
ATOM     72  C   UNL A   1      48.321  27.677  30.569  1.00  0.00     0.020 A 
ATOM     73  C   UNL A   1      47.494  26.987  32.747  1.00  0.00     0.020 A 
ATOM     74  C   UNL A   1      48.493  26.984  31.771  1.00  0.00     0.054 A 
BRANCH  74  75
ATOM     75  S   UNL A   1      50.052  26.101  32.047  1.00  0.00     0.124 S 
ATOM     76  O   UNL A   1      50.609  26.823  33.189  1.00  0.00    -0.237 OA
ATOM     77  O   UNL A   1      49.602  24.739  32.325  1.00  0.00    -0.237 OA
ATOM     78  O   UNL A   1      50.777  26.271  30.790  1.00  0.00    -0.744 OA
ENDBRANCH  74  75
ENDBRANCH  55  69
BRANCH  56  79
ATOM     79  C   UNL A   1      37.297  32.844  29.760  1.00  0.00    -0.014 A 
ATOM     80  C   UNL A   1      36.342  32.863  30.792  1.00  0.00     0.010 A 
ATOM     81  C   UNL A   1      36.990  33.468  28.536  1.00  0.00     0.010 A 
ATOM     82  C   UNL A   1      35.101  33.476  30.599  1.00  0.00     0.020 A 
ATOM     83  C   UNL A   1      35.762  34.109  28.349  1.00  0.00     0.020 A 
ATOM     84  C   UNL A   1      34.819  34.097  29.379  1.00  0.00     0.054 A 
BRANCH  84  85
ATOM     85  S   UNL A   1      33.219  34.928  29.169  1.00  0.00     0.124 S 
ATOM     86  O   UNL A   1      32.669  34.872  30.519  1.00  0.00    -0.237 OA
ATOM     87  O   UNL A   1      33.613  36.253  28.698  1.00  0.00    -0.237 OA
ATOM     88  O   UNL A   1      32.533  34.102  28.177  1.00  0.00    -0.744 OA
ENDBRANCH  84  85
ENDBRANCH  56  79
BRANCH  68  89
ATOM     89  C   UNL A   1      43.283  34.847  32.740  1.00  0.00    -0.014 A 
ATOM     90  C   UNL A   1      43.852  35.884  31.979  1.00  0.00     0.010 A 
ATOM     91  C   UNL A   1      43.071  35.046  34.117  1.00  0.00     0.010 A 
ATOM     92  C   UNL A   1      44.230  37.084  32.590  1.00  0.00     0.020 A 
ATOM     93  C   UNL A   1      43.418  36.255  34.725  1.00  0.00     0.020 A 
ATOM     94  C   UNL A   1      44.009  37.261  33.960  1.00  0.00     0.054 A 
BRANCH  94  95
ATOM     95  S   UNL A   1      44.465  38.843  34.719  1.00  0.00     0.124 S 
ATOM     96  O   UNL A   1      45.825  39.038  34.222  1.00  0.00    -0.237 OA
ATOM     97  O   UNL A   1      43.463  39.759  34.180  1.00  0.00    -0.237 OA
ATOM     98  O   UNL A   1      44.358  38.584  36.152  1.00  0.00    -0.744 OA
ENDBRANCH  94  95
ENDBRANCH  68  89
ENDBRANCH  42  43
ENDBRANCH  34  37
ENDBRANCH  32  33
ENDBRANCH  31  32
ENDBRANCH   1  31
TORSDOF 19
ENDMDL
MODEL 3
REMARK VINA RESULT:     -10.7      4.353     10.299
REMARK SMILES O=C(COc1ccccc1[C@@H]1[NH2+]CCc2cc(O)c(O)cc21)NCCCCNC(=O)c1ccc(-c2c3nc(c(-c4ccc(S(=O)(=O)[O-])cc4)c4ccc([nH]4)c(-c4ccc(S(=O)(=O)[O-])cc4)c4nc(c(-c5ccc(S(=O)(=O)[O-])cc5)c5ccc2[nH]5)C=C4)C=C3)cc1
REMARK SMILES IDX 25 1 24 2 23 3 1 4 2 5 3 7 4 8 5 9 6 10 10 11 7 12 9 13 8 14
REMARK SMILES IDX 11 15 12 16 22 17 13 18 15 21 21 22 14 23 16 24 19 25 17 26
REMARK SMILES IDX 20 27 18 29 26 31 27 32 28 33 29 34 30 36 31 37 32 38 90 39
REMARK SMILES IDX 33 40 89 41 34 42 35 43 36 44 83 45 37 46 88 47 82 48 84 49
REMARK SMILES IDX 38 50 87 51 81 52 80 53 39 55 69 56 50 57 68 58 51 59 54 60
REMARK SMILES IDX 67 61 85 62 52 63 53 64 66 66 86 67 55 68 40 69 41 70 49 71
REMARK SMILES IDX 42 72 48 73 43 74 44 75 45 76 46 77 47 78 70 79 71 80 79 81
REMARK SMILES IDX 72 82 78 83 73 84 74 85 75 86 76 87 77 88 56 89 57 90 65 91
REMARK SMILES IDX 58 92 64 93 59 94 60 95 61 96 62 97 63 98
REMARK H PARENT 23 6 12 19 12 20 20 28 18 30 28 35 84 54 54 65
REMARK Flexibility Score: inf
ROOT
ATOM      1  C   UNL A   1      41.057  20.912  27.342  1.00  0.00     0.023 C 
ENDROOT
BRANCH   1   2
ATOM      2  C   UNL A   1      40.186  20.626  26.128  1.00  0.00     0.116 C 
BRANCH   2   3
ATOM      3  N   UNL A   1      39.090  21.550  25.928  1.00  0.00    -0.353 N 
ATOM      4  O   UNL A   1      37.771  20.100  24.739  1.00  0.00    -0.271 OA
ATOM      5  C   UNL A   1      37.893  21.151  25.365  1.00  0.00     0.257 C 
ATOM      6  H   UNL A   1      39.201  22.490  26.201  1.00  0.00     0.163 HD
BRANCH   5   7
ATOM      7  C   UNL A   1      36.724  22.117  25.612  1.00  0.00     0.329 C 
BRANCH   7   8
ATOM      8  O   UNL A   1      35.495  21.578  26.060  1.00  0.00    -0.483 OA
BRANCH   8   9
ATOM      9  C   UNL A   1      34.351  21.422  25.324  1.00  0.00     0.129 A 
ATOM     10  C   UNL A   1      34.047  20.048  25.234  1.00  0.00     0.047 A 
ATOM     11  C   UNL A   1      33.598  22.343  24.557  1.00  0.00     0.056 A 
ATOM     12  C   UNL A   1      33.117  19.553  24.324  1.00  0.00     0.004 A 
ATOM     13  C   UNL A   1      32.739  21.799  23.567  1.00  0.00     0.014 A 
ATOM     14  C   UNL A   1      32.505  20.428  23.446  1.00  0.00     0.001 A 
BRANCH  11  15
ATOM     15  C   UNL A   1      33.667  23.862  24.682  1.00  0.00     0.249 C 
ATOM     16  N   UNL A   1      33.273  24.331  26.019  1.00  0.00    -0.336 N 
ATOM     17  C   UNL A   1      32.908  24.752  23.689  1.00  0.00     0.021 A 
ATOM     18  C   UNL A   1      31.836  24.207  26.294  1.00  0.00     0.266 C 
ATOM     19  H   UNL A   1      33.533  25.313  26.104  1.00  0.00     0.347 HD
ATOM     20  H   UNL A   1      33.755  23.738  26.694  1.00  0.00     0.347 HD
ATOM     21  C   UNL A   1      31.538  24.993  23.947  1.00  0.00    -0.029 A 
ATOM     22  C   UNL A   1      33.571  25.480  22.689  1.00  0.00     0.060 A 
ATOM     23  C   UNL A   1      30.908  24.211  25.069  1.00  0.00     0.097 C 
ATOM     24  C   UNL A   1      30.846  25.979  23.244  1.00  0.00     0.054 A 
ATOM     25  C   UNL A   1      32.876  26.481  22.017  1.00  0.00     0.157 A 
ATOM     26  C   UNL A   1      31.535  26.734  22.308  1.00  0.00     0.157 A 
BRANCH  25  27
ATOM     27  O   UNL A   1      33.483  27.286  21.092  1.00  0.00    -0.504 OA
ATOM     28  H   UNL A   1      33.022  28.018  20.733  1.00  0.00     0.293 HD
ENDBRANCH  25  27
BRANCH  26  29
ATOM     29  O   UNL A   1      30.896  27.777  21.699  1.00  0.00    -0.504 OA
ATOM     30  H   UNL A   1      29.960  27.788  21.650  1.00  0.00     0.293 HD
ENDBRANCH  26  29
ENDBRANCH  11  15
ENDBRANCH   8   9
ENDBRANCH   7   8
ENDBRANCH   5   7
ENDBRANCH   2   3
ENDBRANCH   1   2
BRANCH   1  31
ATOM     31  C   UNL A   1      40.987  22.349  27.841  1.00  0.00     0.023 C 
BRANCH  31  32
ATOM     32  C   UNL A   1      42.148  23.230  27.404  1.00  0.00     0.116 C 
BRANCH  32  33
ATOM     33  N   UNL A   1      41.841  24.020  26.221  1.00  0.00    -0.352 N 
ATOM     34  C   UNL A   1      41.391  25.319  26.148  1.00  0.00     0.251 C 
ATOM     35  H   UNL A   1      41.974  23.564  25.358  1.00  0.00     0.163 HD
ATOM     36  O   UNL A   1      41.032  25.789  25.079  1.00  0.00    -0.269 OA
BRANCH  34  37
ATOM     37  C   UNL A   1      41.319  26.124  27.387  1.00  0.00     0.039 A 
ATOM     38  C   UNL A   1      42.323  27.059  27.648  1.00  0.00     0.014 A 
ATOM     39  C   UNL A   1      40.236  25.989  28.261  1.00  0.00     0.014 A 
ATOM     40  C   UNL A   1      42.204  27.908  28.750  1.00  0.00     0.010 A 
ATOM     41  C   UNL A   1      40.077  26.892  29.308  1.00  0.00     0.010 A 
ATOM     42  C   UNL A   1      41.060  27.859  29.566  1.00  0.00    -0.014 A 
BRANCH  42  43
ATOM     43  C   UNL A   1      40.872  28.812  30.691  1.00  0.00     0.031 A 
ATOM     44  C   UNL A   1      41.712  28.687  31.934  1.00  0.00     0.074 A 
ATOM     45  C   UNL A   1      39.906  29.750  30.621  1.00  0.00     0.049 A 
ATOM     46  N   UNL A   1      41.659  29.387  33.039  1.00  0.00    -0.248 NA
ATOM     47  C   UNL A   1      42.725  27.620  31.949  1.00  0.00     0.031 C 
ATOM     48  C   UNL A   1      38.996  29.949  29.490  1.00  0.00     0.029 A 
ATOM     49  N   UNL A   1      39.524  30.712  31.523  1.00  0.00    -0.354 N 
ATOM     50  C   UNL A   1      42.619  28.838  33.880  1.00  0.00     0.074 A 
ATOM     51  C   UNL A   1      43.199  27.712  33.182  1.00  0.00     0.031 C 
ATOM     52  C   UNL A   1      38.183  30.984  29.754  1.00  0.00     0.029 A 
ATOM     53  C   UNL A   1      38.481  31.495  31.088  1.00  0.00     0.049 A 
ATOM     54  H   UNL A   1      39.957  30.830  32.399  1.00  0.00     0.167 HD
ATOM     55  C   UNL A   1      43.000  29.247  35.114  1.00  0.00     0.031 A 
ATOM     56  C   UNL A   1      37.829  32.507  31.696  1.00  0.00     0.031 A 
ATOM     57  C   UNL A   1      42.425  30.371  35.804  1.00  0.00     0.049 A 
ATOM     58  C   UNL A   1      38.258  32.932  33.074  1.00  0.00     0.074 A 
ATOM     59  C   UNL A   1      42.777  30.896  37.035  1.00  0.00     0.029 A 
ATOM     60  N   UNL A   1      41.376  31.142  35.326  1.00  0.00    -0.354 N 
ATOM     61  N   UNL A   1      39.215  32.443  33.827  1.00  0.00    -0.248 NA
ATOM     62  C   UNL A   1      37.529  34.054  33.681  1.00  0.00     0.031 C 
ATOM     63  C   UNL A   1      41.903  31.947  37.327  1.00  0.00     0.029 A 
ATOM     64  C   UNL A   1      41.050  32.122  36.249  1.00  0.00     0.049 A 
ATOM     65  H   UNL A   1      40.929  31.012  34.459  1.00  0.00     0.167 HD
ATOM     66  C   UNL A   1      39.221  33.216  34.983  1.00  0.00     0.074 A 
ATOM     67  C   UNL A   1      38.184  34.215  34.823  1.00  0.00     0.031 C 
ATOM     68  C   UNL A   1      40.015  33.109  36.077  1.00  0.00     0.031 A 
BRANCH  55  69
ATOM     69  C   UNL A   1      44.093  28.467  35.799  1.00  0.00    -0.014 A 
ATOM     70  C   UNL A   1      45.431  28.901  35.761  1.00  0.00     0.010 A 
ATOM     71  C   UNL A   1      43.774  27.304  36.524  1.00  0.00     0.010 A 
ATOM     72  C   UNL A   1      46.434  28.165  36.396  1.00  0.00     0.020 A 
ATOM     73  C   UNL A   1      44.769  26.582  37.188  1.00  0.00     0.020 A 
ATOM     74  C   UNL A   1      46.096  27.008  37.105  1.00  0.00     0.054 A 
BRANCH  74  75
ATOM     75  S   UNL A   1      47.417  26.084  37.937  1.00  0.00     0.124 S 
ATOM     76  O   UNL A   1      48.366  25.869  36.847  1.00  0.00    -0.237 OA
ATOM     77  O   UNL A   1      47.853  27.016  38.974  1.00  0.00    -0.237 OA
ATOM     78  O   UNL A   1      46.747  24.882  38.424  1.00  0.00    -0.744 OA
ENDBRANCH  74  75
ENDBRANCH  55  69
BRANCH  56  79
ATOM     79  C   UNL A   1      36.707  33.195  30.999  1.00  0.00    -0.014 A 
ATOM     80  C   UNL A   1      36.939  33.949  29.835  1.00  0.00     0.010 A 
ATOM     81  C   UNL A   1      35.393  33.092  31.493  1.00  0.00     0.010 A 
ATOM     82  C   UNL A   1      35.885  34.602  29.190  1.00  0.00     0.020 A 
ATOM     83  C   UNL A   1      34.331  33.718  30.834  1.00  0.00     0.020 A 
ATOM     84  C   UNL A   1      34.586  34.480  29.693  1.00  0.00     0.054 A 
BRANCH  84  85
ATOM     85  S   UNL A   1      33.226  35.297  28.811  1.00  0.00     0.124 S 
ATOM     86  O   UNL A   1      33.939  36.276  27.996  1.00  0.00    -0.237 OA
ATOM     87  O   UNL A   1      32.615  34.189  28.082  1.00  0.00    -0.237 OA
ATOM     88  O   UNL A   1      32.407  35.853  29.887  1.00  0.00    -0.744 OA
ENDBRANCH  84  85
ENDBRANCH  56  79
BRANCH  68  89
ATOM     89  C   UNL A   1      39.822  34.121  37.177  1.00  0.00    -0.014 A 
ATOM     90  C   UNL A   1      39.045  33.829  38.312  1.00  0.00     0.010 A 
ATOM     91  C   UNL A   1      40.479  35.363  37.097  1.00  0.00     0.010 A 
ATOM     92  C   UNL A   1      38.903  34.775  39.333  1.00  0.00     0.020 A 
ATOM     93  C   UNL A   1      40.365  36.298  38.129  1.00  0.00     0.020 A 
ATOM     94  C   UNL A   1      39.566  36.003  39.234  1.00  0.00     0.054 A 
BRANCH  94  95
ATOM     95  S   UNL A   1      39.402  37.193  40.593  1.00  0.00     0.124 S 
ATOM     96  O   UNL A   1      40.796  37.436  40.954  1.00  0.00    -0.237 OA
ATOM     97  O   UNL A   1      38.714  38.314  39.955  1.00  0.00    -0.237 OA
ATOM     98  O   UNL A   1      38.616  36.474  41.592  1.00  0.00    -0.744 OA
ENDBRANCH  94  95
ENDBRANCH  68  89
ENDBRANCH  42  43
ENDBRANCH  34  37
ENDBRANCH  32  33
ENDBRANCH  31  32
ENDBRANCH   1  31
TORSDOF 19
ENDMDL
