MODEL 1
REMARK VINA RESULT:      -9.9      0.000      0.000
REMARK SMILES C[C@@](NC(=O)CCOC1CC[NH2+]CC1)(C(=O)NCCCCNC(=O)c1ccc(-c2c3nc(c(-c4ccc(S(=O)(=O)[O-])cc4)c4ccc([nH]4)c(-c4ccc(S(=O)(=O)[O-])cc4)c4nc(c(-c5ccc(S(=O)(=O)[O-])cc5)c5ccc2[nH]5)C=C4)C=C3)cc1)C(F)(F)F
REMARK SMILES IDX 18 1 17 2 15 3 16 4 2 6 1 7 3 8 4 9 5 11 6 12 7 13 8 14 9 15
REMARK SMILES IDX 10 16 14 17 11 18 13 19 12 20 85 23 86 24 87 25 88 26 19 27
REMARK SMILES IDX 20 28 21 29 22 30 23 31 24 33 25 34 26 35 84 36 27 37 83 38
REMARK SMILES IDX 28 39 29 40 30 41 77 42 31 43 82 44 76 45 78 46 32 47 81 48
REMARK SMILES IDX 75 49 74 50 33 52 63 53 44 54 62 55 45 56 48 57 61 58 79 59
REMARK SMILES IDX 46 60 47 61 60 63 80 64 49 65 34 66 35 67 43 68 36 69 42 70
REMARK SMILES IDX 37 71 38 72 39 73 40 74 41 75 64 76 65 77 73 78 66 79 72 80
REMARK SMILES IDX 67 81 68 82 69 83 70 84 71 85 50 86 51 87 59 88 52 89 58 90
REMARK SMILES IDX 53 91 54 92 55 93 56 94 57 95
REMARK H PARENT 17 5 3 10 12 21 12 22 22 32 78 51 48 62
REMARK Flexibility Score: inf
ROOT
ATOM      1  C   UNL A   1      33.907  25.768  25.247  1.00  0.00     0.116 C 
ENDROOT
BRANCH   1   2
ATOM      2  N   UNL A   1      33.560  24.588  26.026  1.00  0.00    -0.354 N 
ATOM      3  C   UNL A   1      34.158  23.353  26.125  1.00  0.00     0.254 C 
ATOM      4  O   UNL A   1      34.005  22.801  27.220  1.00  0.00    -0.272 OA
ATOM      5  H   UNL A   1      32.755  24.692  26.583  1.00  0.00     0.163 HD
BRANCH   3   6
ATOM      6  C   UNL A   1      35.039  22.701  25.020  1.00  0.00     0.212 C 
ATOM      7  C   UNL A   1      35.117  21.184  25.203  1.00  0.00     0.056 C 
BRANCH   6   8
ATOM      8  N   UNL A   1      34.828  23.040  23.565  1.00  0.00    -0.334 N 
ATOM      9  C   UNL A   1      33.775  23.043  22.716  1.00  0.00     0.223 C 
ATOM     10  H   UNL A   1      35.659  23.329  23.126  1.00  0.00     0.164 HD
ATOM     11  O   UNL A   1      33.867  23.723  21.691  1.00  0.00    -0.275 OA
BRANCH   9  12
ATOM     12  C   UNL A   1      32.612  22.119  22.907  1.00  0.00     0.128 C 
BRANCH  12  13
ATOM     13  C   UNL A   1      31.508  22.940  23.566  1.00  0.00     0.170 C 
BRANCH  13  14
ATOM     14  O   UNL A   1      31.826  24.341  23.508  1.00  0.00    -0.377 OA
BRANCH  14  15
ATOM     15  C   UNL A   1      30.784  25.152  22.950  1.00  0.00     0.129 C 
ATOM     16  C   UNL A   1      31.404  26.168  21.994  1.00  0.00     0.093 C 
ATOM     17  C   UNL A   1      29.963  25.822  24.057  1.00  0.00     0.093 C 
ATOM     18  C   UNL A   1      32.020  27.373  22.691  1.00  0.00     0.263 C 
ATOM     19  C   UNL A   1      30.549  27.121  24.610  1.00  0.00     0.263 C 
ATOM     20  N   UNL A   1      31.073  28.024  23.590  1.00  0.00    -0.346 N 
ATOM     21  H   UNL A   1      30.293  28.382  23.039  1.00  0.00     0.346 HD
ATOM     22  H   UNL A   1      31.571  28.774  24.070  1.00  0.00     0.346 HD
ENDBRANCH  14  15
ENDBRANCH  13  14
ENDBRANCH  12  13
ENDBRANCH   9  12
ENDBRANCH   6   8
BRANCH   6  23
ATOM     23  C   UNL A   1      36.480  23.210  25.339  1.00  0.00     0.420 C 
ATOM     24  F   UNL A   1      36.519  24.096  26.354  1.00  0.00    -0.168 F 
ATOM     25  F   UNL A   1      37.242  22.141  25.734  1.00  0.00    -0.168 F 
ATOM     26  F   UNL A   1      37.123  23.729  24.273  1.00  0.00    -0.168 F 
ENDBRANCH   6  23
ENDBRANCH   3   6
ENDBRANCH   1   2
BRANCH   1  27
ATOM     27  C   UNL A   1      34.499  26.946  26.021  1.00  0.00     0.023 C 
BRANCH  27  28
ATOM     28  C   UNL A   1      33.698  28.245  26.001  1.00  0.00     0.023 C 
BRANCH  28  29
ATOM     29  C   UNL A   1      33.179  28.744  27.345  1.00  0.00     0.116 C 
BRANCH  29  30
ATOM     30  N   UNL A   1      33.331  30.176  27.555  1.00  0.00    -0.352 N 
ATOM     31  C   UNL A   1      34.452  30.887  27.950  1.00  0.00     0.251 C 
ATOM     32  H   UNL A   1      32.523  30.715  27.393  1.00  0.00     0.163 HD
ATOM     33  O   UNL A   1      34.389  32.088  28.136  1.00  0.00    -0.269 OA
BRANCH  31  34
ATOM     34  C   UNL A   1      35.718  30.153  28.199  1.00  0.00     0.039 A 
ATOM     35  C   UNL A   1      36.678  30.100  27.188  1.00  0.00     0.014 A 
ATOM     36  C   UNL A   1      35.988  29.607  29.454  1.00  0.00     0.014 A 
ATOM     37  C   UNL A   1      37.955  29.608  27.475  1.00  0.00     0.010 A 
ATOM     38  C   UNL A   1      37.286  29.214  29.766  1.00  0.00     0.010 A 
ATOM     39  C   UNL A   1      38.290  29.221  28.784  1.00  0.00    -0.014 A 
BRANCH  39  40
ATOM     40  C   UNL A   1      39.683  28.847  29.153  1.00  0.00     0.031 A 
ATOM     41  C   UNL A   1      40.582  29.850  29.827  1.00  0.00     0.074 A 
ATOM     42  C   UNL A   1      40.168  27.635  28.811  1.00  0.00     0.049 A 
ATOM     43  N   UNL A   1      41.843  29.735  30.161  1.00  0.00    -0.248 NA
ATOM     44  C   UNL A   1      39.997  31.165  30.139  1.00  0.00     0.031 C 
ATOM     45  C   UNL A   1      39.425  26.589  28.104  1.00  0.00     0.029 A 
ATOM     46  N   UNL A   1      41.409  27.078  29.007  1.00  0.00    -0.354 N 
ATOM     47  C   UNL A   1      42.203  30.964  30.703  1.00  0.00     0.074 A 
ATOM     48  C   UNL A   1      41.049  31.827  30.596  1.00  0.00     0.031 C 
ATOM     49  C   UNL A   1      40.211  25.511  27.955  1.00  0.00     0.029 A 
ATOM     50  C   UNL A   1      41.528  25.799  28.513  1.00  0.00     0.049 A 
ATOM     51  H   UNL A   1      42.146  27.551  29.457  1.00  0.00     0.167 HD
ATOM     52  C   UNL A   1      43.378  31.335  31.264  1.00  0.00     0.031 A 
ATOM     53  C   UNL A   1      42.577  24.951  28.505  1.00  0.00     0.031 A 
ATOM     54  C   UNL A   1      44.523  30.471  31.382  1.00  0.00     0.049 A 
ATOM     55  C   UNL A   1      43.874  25.384  29.132  1.00  0.00     0.074 A 
ATOM     56  C   UNL A   1      45.740  30.735  31.984  1.00  0.00     0.029 A 
ATOM     57  N   UNL A   1      44.593  29.177  30.889  1.00  0.00    -0.354 N 
ATOM     58  N   UNL A   1      44.171  26.527  29.704  1.00  0.00    -0.248 NA
ATOM     59  C   UNL A   1      44.974  24.409  29.127  1.00  0.00     0.031 C 
ATOM     60  C   UNL A   1      46.565  29.619  31.810  1.00  0.00     0.029 A 
ATOM     61  C   UNL A   1      45.840  28.637  31.154  1.00  0.00     0.049 A 
ATOM     62  H   UNL A   1      43.864  28.711  30.419  1.00  0.00     0.167 HD
ATOM     63  C   UNL A   1      45.482  26.398  30.150  1.00  0.00     0.074 A 
ATOM     64  C   UNL A   1      45.915  25.062  29.796  1.00  0.00     0.031 C 
ATOM     65  C   UNL A   1      46.258  27.304  30.796  1.00  0.00     0.031 A 
BRANCH  52  66
ATOM     66  C   UNL A   1      43.478  32.740  31.798  1.00  0.00    -0.014 A 
ATOM     67  C   UNL A   1      44.103  33.757  31.051  1.00  0.00     0.010 A 
ATOM     68  C   UNL A   1      42.919  33.057  33.048  1.00  0.00     0.010 A 
ATOM     69  C   UNL A   1      44.210  35.050  31.565  1.00  0.00     0.020 A 
ATOM     70  C   UNL A   1      42.996  34.359  33.554  1.00  0.00     0.020 A 
ATOM     71  C   UNL A   1      43.658  35.342  32.816  1.00  0.00     0.054 A 
BRANCH  71  72
ATOM     72  S   UNL A   1      43.799  37.035  33.452  1.00  0.00     0.124 S 
ATOM     73  O   UNL A   1      43.725  37.825  32.225  1.00  0.00    -0.237 OA
ATOM     74  O   UNL A   1      42.640  37.141  34.337  1.00  0.00    -0.237 OA
ATOM     75  O   UNL A   1      45.095  37.048  34.124  1.00  0.00    -0.744 OA
ENDBRANCH  71  72
ENDBRANCH  52  66
BRANCH  53  76
ATOM     76  C   UNL A   1      42.439  23.599  27.894  1.00  0.00    -0.014 A 
ATOM     77  C   UNL A   1      42.894  23.355  26.585  1.00  0.00     0.010 A 
ATOM     78  C   UNL A   1      41.862  22.543  28.622  1.00  0.00     0.010 A 
ATOM     79  C   UNL A   1      42.758  22.086  26.011  1.00  0.00     0.020 A 
ATOM     80  C   UNL A   1      41.751  21.267  28.063  1.00  0.00     0.020 A 
ATOM     81  C   UNL A   1      42.190  21.049  26.756  1.00  0.00     0.054 A 
BRANCH  81  82
ATOM     82  S   UNL A   1      42.078  19.397  26.012  1.00  0.00     0.124 S 
ATOM     83  O   UNL A   1      40.644  19.269  25.771  1.00  0.00    -0.237 OA
ATOM     84  O   UNL A   1      42.912  19.531  24.821  1.00  0.00    -0.237 OA
ATOM     85  O   UNL A   1      42.621  18.519  27.047  1.00  0.00    -0.744 OA
ENDBRANCH  81  82
ENDBRANCH  53  76
BRANCH  65  86
ATOM     86  C   UNL A   1      47.644  26.875  31.197  1.00  0.00    -0.014 A 
ATOM     87  C   UNL A   1      47.901  26.319  32.462  1.00  0.00     0.010 A 
ATOM     88  C   UNL A   1      48.695  26.975  30.266  1.00  0.00     0.010 A 
ATOM     89  C   UNL A   1      49.190  25.899  32.800  1.00  0.00     0.020 A 
ATOM     90  C   UNL A   1      49.979  26.529  30.589  1.00  0.00     0.020 A 
ATOM     91  C   UNL A   1      50.221  26.006  31.862  1.00  0.00     0.054 A 
BRANCH  91  92
ATOM     92  S   UNL A   1      51.874  25.410  32.309  1.00  0.00     0.124 S 
ATOM     93  O   UNL A   1      52.725  26.161  31.391  1.00  0.00    -0.237 OA
ATOM     94  O   UNL A   1      51.980  25.786  33.716  1.00  0.00    -0.237 OA
ATOM     95  O   UNL A   1      51.805  23.972  32.058  1.00  0.00    -0.744 OA
ENDBRANCH  91  92
ENDBRANCH  65  86
ENDBRANCH  39  40
ENDBRANCH  31  34
ENDBRANCH  29  30
ENDBRANCH  28  29
ENDBRANCH  27  28
ENDBRANCH   1  27
TORSDOF 20
ENDMDL
MODEL 2
REMARK VINA RESULT:      -9.9      4.338      9.982
REMARK SMILES C[C@@](NC(=O)CCOC1CC[NH2+]CC1)(C(=O)NCCCCNC(=O)c1ccc(-c2c3nc(c(-c4ccc(S(=O)(=O)[O-])cc4)c4ccc([nH]4)c(-c4ccc(S(=O)(=O)[O-])cc4)c4nc(c(-c5ccc(S(=O)(=O)[O-])cc5)c5ccc2[nH]5)C=C4)C=C3)cc1)C(F)(F)F
REMARK SMILES IDX 18 1 17 2 15 3 16 4 2 6 1 7 3 8 4 9 5 11 6 12 7 13 8 14 9 15
REMARK SMILES IDX 10 16 14 17 11 18 13 19 12 20 85 23 86 24 87 25 88 26 19 27
REMARK SMILES IDX 20 28 21 29 22 30 23 31 24 33 25 34 26 35 84 36 27 37 83 38
REMARK SMILES IDX 28 39 29 40 30 41 77 42 31 43 82 44 76 45 78 46 32 47 81 48
REMARK SMILES IDX 75 49 74 50 33 52 63 53 44 54 62 55 45 56 48 57 61 58 79 59
REMARK SMILES IDX 46 60 47 61 60 63 80 64 49 65 34 66 35 67 43 68 36 69 42 70
REMARK SMILES IDX 37 71 38 72 39 73 40 74 41 75 64 76 65 77 73 78 66 79 72 80
REMARK SMILES IDX 67 81 68 82 69 83 70 84 71 85 50 86 51 87 59 88 52 89 58 90
REMARK SMILES IDX 53 91 54 92 55 93 56 94 57 95
REMARK H PARENT 17 5 3 10 12 21 12 22 22 32 78 51 48 62
REMARK Flexibility Score: inf
ROOT
ATOM      1  C   UNL A   1      36.482  21.033  25.421  1.00  0.00     0.116 C 
ENDROOT
BRANCH   1   2
ATOM      2  N   UNL A   1      35.512  21.527  26.387  1.00  0.00    -0.354 N 
ATOM      3  C   UNL A   1      34.137  21.483  26.403  1.00  0.00     0.254 C 
ATOM      4  O   UNL A   1      33.643  21.450  27.535  1.00  0.00    -0.272 OA
ATOM      5  H   UNL A   1      35.911  21.971  27.170  1.00  0.00     0.163 HD
BRANCH   3   6
ATOM      6  C   UNL A   1      33.237  21.388  25.137  1.00  0.00     0.212 C 
ATOM      7  C   UNL A   1      31.800  21.813  25.451  1.00  0.00     0.056 C 
BRANCH   6   8
ATOM      8  N   UNL A   1      33.682  21.988  23.826  1.00  0.00    -0.334 N 
ATOM      9  C   UNL A   1      33.972  23.232  23.381  1.00  0.00     0.223 C 
ATOM     10  H   UNL A   1      33.787  21.308  23.122  1.00  0.00     0.164 HD
ATOM     11  O   UNL A   1      34.658  23.329  22.360  1.00  0.00    -0.275 OA
BRANCH   9  12
ATOM     12  C   UNL A   1      33.341  24.447  23.985  1.00  0.00     0.128 C 
BRANCH  12  13
ATOM     13  C   UNL A   1      33.556  25.587  22.995  1.00  0.00     0.170 C 
BRANCH  13  14
ATOM     14  O   UNL A   1      33.145  26.836  23.575  1.00  0.00    -0.377 OA
BRANCH  14  15
ATOM     15  C   UNL A   1      32.777  26.744  24.957  1.00  0.00     0.129 C 
ATOM     16  C   UNL A   1      31.396  27.366  25.146  1.00  0.00     0.093 C 
ATOM     17  C   UNL A   1      33.837  27.401  25.849  1.00  0.00     0.093 C 
ATOM     18  C   UNL A   1      31.410  28.887  25.213  1.00  0.00     0.263 C 
ATOM     19  C   UNL A   1      33.705  28.915  26.012  1.00  0.00     0.263 C 
ATOM     20  N   UNL A   1      32.338  29.378  26.225  1.00  0.00    -0.346 N 
ATOM     21  H   UNL A   1      32.023  29.056  27.140  1.00  0.00     0.346 HD
ATOM     22  H   UNL A   1      32.346  30.396  26.167  1.00  0.00     0.346 HD
ENDBRANCH  14  15
ENDBRANCH  13  14
ENDBRANCH  12  13
ENDBRANCH   9  12
ENDBRANCH   6   8
BRANCH   6  23
ATOM     23  C   UNL A   1      33.141  19.855  24.858  1.00  0.00     0.420 C 
ATOM     24  F   UNL A   1      32.741  19.142  25.930  1.00  0.00    -0.168 F 
ATOM     25  F   UNL A   1      32.198  19.646  23.885  1.00  0.00    -0.168 F 
ATOM     26  F   UNL A   1      34.278  19.319  24.369  1.00  0.00    -0.168 F 
ENDBRANCH   6  23
ENDBRANCH   3   6
ENDBRANCH   1   2
BRANCH   1  27
ATOM     27  C   UNL A   1      37.715  21.905  25.186  1.00  0.00     0.023 C 
BRANCH  27  28
ATOM     28  C   UNL A   1      37.541  23.405  25.409  1.00  0.00     0.023 C 
BRANCH  28  29
ATOM     29  C   UNL A   1      38.376  24.027  26.523  1.00  0.00     0.116 C 
BRANCH  29  30
ATOM     30  N   UNL A   1      39.812  23.838  26.376  1.00  0.00    -0.352 N 
ATOM     31  C   UNL A   1      40.850  24.594  26.895  1.00  0.00     0.251 C 
ATOM     32  H   UNL A   1      40.082  23.065  25.830  1.00  0.00     0.163 HD
ATOM     33  O   UNL A   1      42.006  24.328  26.621  1.00  0.00    -0.269 OA
BRANCH  31  34
ATOM     34  C   UNL A   1      40.530  25.769  27.743  1.00  0.00     0.039 A 
ATOM     35  C   UNL A   1      39.514  25.659  28.693  1.00  0.00     0.014 A 
ATOM     36  C   UNL A   1      41.294  26.934  27.662  1.00  0.00     0.014 A 
ATOM     37  C   UNL A   1      39.345  26.672  29.642  1.00  0.00     0.010 A 
ATOM     38  C   UNL A   1      41.194  27.890  28.669  1.00  0.00     0.010 A 
ATOM     39  C   UNL A   1      40.227  27.765  29.679  1.00  0.00    -0.014 A 
BRANCH  39  40
ATOM     40  C   UNL A   1      40.174  28.773  30.775  1.00  0.00     0.031 A 
ATOM     41  C   UNL A   1      41.057  28.621  31.985  1.00  0.00     0.074 A 
ATOM     42  C   UNL A   1      39.276  29.779  30.721  1.00  0.00     0.049 A 
ATOM     43  N   UNL A   1      41.103  29.353  33.070  1.00  0.00    -0.248 NA
ATOM     44  C   UNL A   1      41.988  27.481  31.992  1.00  0.00     0.031 C 
ATOM     45  C   UNL A   1      38.320  30.010  29.635  1.00  0.00     0.029 A 
ATOM     46  N   UNL A   1      39.014  30.796  31.608  1.00  0.00    -0.354 N 
ATOM     47  C   UNL A   1      42.051  28.753  33.890  1.00  0.00     0.074 A 
ATOM     48  C   UNL A   1      42.509  27.563  33.206  1.00  0.00     0.031 C 
ATOM     49  C   UNL A   1      37.602  31.112  29.904  1.00  0.00     0.029 A 
ATOM     50  C   UNL A   1      38.011  31.645  31.200  1.00  0.00     0.049 A 
ATOM     51  H   UNL A   1      39.499  30.906  32.458  1.00  0.00     0.167 HD
ATOM     52  C   UNL A   1      42.521  29.164  35.092  1.00  0.00     0.031 A 
ATOM     53  C   UNL A   1      37.475  32.728  31.799  1.00  0.00     0.031 A 
ATOM     54  C   UNL A   1      42.075  30.354  35.766  1.00  0.00     0.049 A 
ATOM     55  C   UNL A   1      38.011  33.167  33.134  1.00  0.00     0.074 A 
ATOM     56  C   UNL A   1      42.529  30.887  36.960  1.00  0.00     0.029 A 
ATOM     57  N   UNL A   1      41.074  31.197  35.307  1.00  0.00    -0.354 N 
ATOM     58  N   UNL A   1      38.959  32.624  33.860  1.00  0.00    -0.248 NA
ATOM     59  C   UNL A   1      37.414  34.373  33.726  1.00  0.00     0.031 C 
ATOM     60  C   UNL A   1      41.767  32.023  37.248  1.00  0.00     0.029 A 
ATOM     61  C   UNL A   1      40.881  32.234  36.204  1.00  0.00     0.049 A 
ATOM     62  H   UNL A   1      40.574  31.076  34.467  1.00  0.00     0.167 HD
ATOM     63  C   UNL A   1      39.091  33.437  34.981  1.00  0.00     0.074 A 
ATOM     64  C   UNL A   1      38.138  34.517  34.828  1.00  0.00     0.031 C 
ATOM     65  C   UNL A   1      39.927  33.303  36.039  1.00  0.00     0.031 A 
BRANCH  52  66
ATOM     66  C   UNL A   1      43.579  28.317  35.750  1.00  0.00    -0.014 A 
ATOM     67  C   UNL A   1      44.946  28.541  35.502  1.00  0.00     0.010 A 
ATOM     68  C   UNL A   1      43.205  27.302  36.649  1.00  0.00     0.010 A 
ATOM     69  C   UNL A   1      45.916  27.735  36.101  1.00  0.00     0.020 A 
ATOM     70  C   UNL A   1      44.175  26.512  37.275  1.00  0.00     0.020 A 
ATOM     71  C   UNL A   1      45.524  26.723  36.981  1.00  0.00     0.054 A 
BRANCH  71  72
ATOM     72  S   UNL A   1      46.808  25.702  37.755  1.00  0.00     0.124 S 
ATOM     73  O   UNL A   1      48.029  26.385  37.336  1.00  0.00    -0.237 OA
ATOM     74  O   UNL A   1      46.486  25.808  39.176  1.00  0.00    -0.237 OA
ATOM     75  O   UNL A   1      46.601  24.380  37.170  1.00  0.00    -0.744 OA
ENDBRANCH  71  72
ENDBRANCH  52  66
BRANCH  53  76
ATOM     76  C   UNL A   1      36.378  33.483  31.131  1.00  0.00    -0.014 A 
ATOM     77  C   UNL A   1      36.491  33.867  29.782  1.00  0.00     0.010 A 
ATOM     78  C   UNL A   1      35.206  33.811  31.836  1.00  0.00     0.010 A 
ATOM     79  C   UNL A   1      35.462  34.581  29.158  1.00  0.00     0.020 A 
ATOM     80  C   UNL A   1      34.163  34.499  31.208  1.00  0.00     0.020 A 
ATOM     81  C   UNL A   1      34.303  34.889  29.875  1.00  0.00     0.054 A 
BRANCH  81  82
ATOM     82  S   UNL A   1      32.957  35.763  29.027  1.00  0.00     0.124 S 
ATOM     83  O   UNL A   1      33.674  36.835  28.343  1.00  0.00    -0.237 OA
ATOM     84  O   UNL A   1      32.398  34.724  28.167  1.00  0.00    -0.237 OA
ATOM     85  O   UNL A   1      32.085  36.190  30.121  1.00  0.00    -0.744 OA
ENDBRANCH  81  82
ENDBRANCH  53  76
BRANCH  65  86
ATOM     86  C   UNL A   1      39.880  34.367  37.105  1.00  0.00    -0.014 A 
ATOM     87  C   UNL A   1      40.581  35.577  36.962  1.00  0.00     0.010 A 
ATOM     88  C   UNL A   1      39.069  34.173  38.239  1.00  0.00     0.010 A 
ATOM     89  C   UNL A   1      40.496  36.562  37.949  1.00  0.00     0.020 A 
ATOM     90  C   UNL A   1      38.959  35.168  39.214  1.00  0.00     0.020 A 
ATOM     91  C   UNL A   1      39.685  36.352  39.069  1.00  0.00     0.054 A 
BRANCH  91  92
ATOM     92  S   UNL A   1      39.556  37.665  40.313  1.00  0.00     0.124 S 
ATOM     93  O   UNL A   1      38.889  36.976  41.413  1.00  0.00    -0.237 OA
ATOM     94  O   UNL A   1      40.952  38.022  40.547  1.00  0.00    -0.237 OA
ATOM     95  O   UNL A   1      38.759  38.695  39.648  1.00  0.00    -0.744 OA
ENDBRANCH  91  92
ENDBRANCH  65  86
ENDBRANCH  39  40
ENDBRANCH  31  34
ENDBRANCH  29  30
ENDBRANCH  28  29
ENDBRANCH  27  28
ENDBRANCH   1  27
TORSDOF 20
ENDMDL
MODEL 3
REMARK VINA RESULT:      -9.6      4.235      9.295
REMARK SMILES C[C@@](NC(=O)CCOC1CC[NH2+]CC1)(C(=O)NCCCCNC(=O)c1ccc(-c2c3nc(c(-c4ccc(S(=O)(=O)[O-])cc4)c4ccc([nH]4)c(-c4ccc(S(=O)(=O)[O-])cc4)c4nc(c(-c5ccc(S(=O)(=O)[O-])cc5)c5ccc2[nH]5)C=C4)C=C3)cc1)C(F)(F)F
REMARK SMILES IDX 18 1 17 2 15 3 16 4 2 6 1 7 3 8 4 9 5 11 6 12 7 13 8 14 9 15
REMARK SMILES IDX 10 16 14 17 11 18 13 19 12 20 85 23 86 24 87 25 88 26 19 27
REMARK SMILES IDX 20 28 21 29 22 30 23 31 24 33 25 34 26 35 84 36 27 37 83 38
REMARK SMILES IDX 28 39 29 40 30 41 77 42 31 43 82 44 76 45 78 46 32 47 81 48
REMARK SMILES IDX 75 49 74 50 33 52 63 53 44 54 62 55 45 56 48 57 61 58 79 59
REMARK SMILES IDX 46 60 47 61 60 63 80 64 49 65 34 66 35 67 43 68 36 69 42 70
REMARK SMILES IDX 37 71 38 72 39 73 40 74 41 75 64 76 65 77 73 78 66 79 72 80
REMARK SMILES IDX 67 81 68 82 69 83 70 84 71 85 50 86 51 87 59 88 52 89 58 90
REMARK SMILES IDX 53 91 54 92 55 93 56 94 57 95
REMARK H PARENT 17 5 3 10 12 21 12 22 22 32 78 51 48 62
REMARK Flexibility Score: inf
ROOT
ATOM      1  C   UNL A   1      32.245  27.761  27.133  1.00  0.00     0.116 C 
ENDROOT
BRANCH   1   2
ATOM      2  N   UNL A   1      31.024  27.036  26.813  1.00  0.00    -0.354 N 
ATOM      3  C   UNL A   1      30.811  25.882  26.094  1.00  0.00     0.254 C 
ATOM      4  O   UNL A   1      29.827  25.232  26.459  1.00  0.00    -0.272 OA
ATOM      5  H   UNL A   1      30.204  27.443  27.175  1.00  0.00     0.163 HD
BRANCH   3   6
ATOM      6  C   UNL A   1      31.748  25.350  24.970  1.00  0.00     0.212 C 
ATOM      7  C   UNL A   1      30.999  24.397  24.035  1.00  0.00     0.056 C 
BRANCH   6   8
ATOM      8  N   UNL A   1      32.609  26.295  24.170  1.00  0.00    -0.334 N 
ATOM      9  C   UNL A   1      32.401  27.432  23.468  1.00  0.00     0.223 C 
ATOM     10  H   UNL A   1      33.553  26.017  24.155  1.00  0.00     0.164 HD
ATOM     11  O   UNL A   1      33.377  28.152  23.241  1.00  0.00    -0.275 OA
BRANCH   9  12
ATOM     12  C   UNL A   1      31.081  27.726  22.826  1.00  0.00     0.128 C 
BRANCH  12  13
ATOM     13  C   UNL A   1      30.420  28.812  23.669  1.00  0.00     0.170 C 
BRANCH  13  14
ATOM     14  O   UNL A   1      30.031  29.920  22.839  1.00  0.00    -0.377 OA
BRANCH  14  15
ATOM     15  C   UNL A   1      28.697  30.386  23.079  1.00  0.00     0.129 C 
ATOM     16  C   UNL A   1      27.891  30.272  21.788  1.00  0.00     0.093 C 
ATOM     17  C   UNL A   1      28.711  31.817  23.630  1.00  0.00     0.093 C 
ATOM     18  C   UNL A   1      28.148  31.401  20.799  1.00  0.00     0.263 C 
ATOM     19  C   UNL A   1      28.807  32.922  22.578  1.00  0.00     0.263 C 
ATOM     20  N   UNL A   1      27.958  32.712  21.410  1.00  0.00    -0.346 N 
ATOM     21  H   UNL A   1      26.983  32.800  21.695  1.00  0.00     0.346 HD
ATOM     22  H   UNL A   1      28.212  33.414  20.715  1.00  0.00     0.346 HD
ENDBRANCH  14  15
ENDBRANCH  13  14
ENDBRANCH  12  13
ENDBRANCH   9  12
ENDBRANCH   6   8
BRANCH   6  23
ATOM     23  C   UNL A   1      32.763  24.437  25.730  1.00  0.00     0.420 C 
ATOM     24  F   UNL A   1      33.994  24.978  25.830  1.00  0.00    -0.168 F 
ATOM     25  F   UNL A   1      32.315  24.262  27.014  1.00  0.00    -0.168 F 
ATOM     26  F   UNL A   1      32.865  23.194  25.217  1.00  0.00    -0.168 F 
ENDBRANCH   6  23
ENDBRANCH   3   6
ENDBRANCH   1   2
BRANCH   1  27
ATOM     27  C   UNL A   1      32.148  29.286  27.149  1.00  0.00     0.023 C 
BRANCH  27  28
ATOM     28  C   UNL A   1      33.354  30.051  26.611  1.00  0.00     0.023 C 
BRANCH  28  29
ATOM     29  C   UNL A   1      33.989  31.068  27.553  1.00  0.00     0.116 C 
BRANCH  29  30
ATOM     30  N   UNL A   1      33.293  32.346  27.615  1.00  0.00    -0.352 N 
ATOM     31  C   UNL A   1      33.564  33.450  28.406  1.00  0.00     0.251 C 
ATOM     32  H   UNL A   1      32.522  32.436  27.010  1.00  0.00     0.163 HD
ATOM     33  O   UNL A   1      32.838  34.426  28.375  1.00  0.00    -0.269 OA
BRANCH  31  34
ATOM     34  C   UNL A   1      34.720  33.403  29.335  1.00  0.00     0.039 A 
ATOM     35  C   UNL A   1      34.640  32.598  30.472  1.00  0.00     0.014 A 
ATOM     36  C   UNL A   1      35.906  34.073  29.030  1.00  0.00     0.014 A 
ATOM     37  C   UNL A   1      35.788  32.370  31.237  1.00  0.00     0.010 A 
ATOM     38  C   UNL A   1      37.068  33.763  29.730  1.00  0.00     0.010 A 
ATOM     39  C   UNL A   1      37.027  32.897  30.834  1.00  0.00    -0.014 A 
BRANCH  39  40
ATOM     40  C   UNL A   1      38.291  32.539  31.535  1.00  0.00     0.031 A 
ATOM     41  C   UNL A   1      39.228  31.524  30.934  1.00  0.00     0.074 A 
ATOM     42  C   UNL A   1      38.560  33.063  32.750  1.00  0.00     0.049 A 
ATOM     43  N   UNL A   1      40.337  31.031  31.425  1.00  0.00    -0.248 NA
ATOM     44  C   UNL A   1      38.854  30.968  29.623  1.00  0.00     0.031 C 
ATOM     45  C   UNL A   1      37.711  34.011  33.475  1.00  0.00     0.029 A 
ATOM     46  N   UNL A   1      39.625  32.865  33.596  1.00  0.00    -0.354 N 
ATOM     47  C   UNL A   1      40.780  30.098  30.495  1.00  0.00     0.074 A 
ATOM     48  C   UNL A   1      39.791  30.049  29.442  1.00  0.00     0.031 C 
ATOM     49  C   UNL A   1      38.301  34.336  34.636  1.00  0.00     0.029 A 
ATOM     50  C   UNL A   1      39.548  33.588  34.765  1.00  0.00     0.049 A 
ATOM     51  H   UNL A   1      40.373  32.260  33.387  1.00  0.00     0.167 HD
ATOM     52  C   UNL A   1      41.920  29.368  30.499  1.00  0.00     0.031 A 
ATOM     53  C   UNL A   1      40.380  33.643  35.824  1.00  0.00     0.031 A 
ATOM     54  C   UNL A   1      42.911  29.427  31.540  1.00  0.00     0.049 A 
ATOM     55  C   UNL A   1      41.640  32.821  35.809  1.00  0.00     0.074 A 
ATOM     56  C   UNL A   1      44.126  28.767  31.609  1.00  0.00     0.029 A 
ATOM     57  N   UNL A   1      42.804  30.188  32.694  1.00  0.00    -0.354 N 
ATOM     58  N   UNL A   1      42.076  31.998  34.884  1.00  0.00    -0.248 NA
ATOM     59  C   UNL A   1      42.529  32.945  36.973  1.00  0.00     0.031 C 
ATOM     60  C   UNL A   1      44.729  29.090  32.828  1.00  0.00     0.029 A 
ATOM     61  C   UNL A   1      43.920  29.999  33.491  1.00  0.00     0.049 A 
ATOM     62  H   UNL A   1      42.045  30.776  32.914  1.00  0.00     0.167 HD
ATOM     63  C   UNL A   1      43.302  31.527  35.343  1.00  0.00     0.074 A 
ATOM     64  C   UNL A   1      43.546  32.170  36.618  1.00  0.00     0.031 C 
ATOM     65  C   UNL A   1      44.150  30.645  34.760  1.00  0.00     0.031 A 
BRANCH  52  66
ATOM     66  C   UNL A   1      42.155  28.442  29.333  1.00  0.00    -0.014 A 
ATOM     67  C   UNL A   1      42.759  28.906  28.149  1.00  0.00     0.010 A 
ATOM     68  C   UNL A   1      41.793  27.087  29.429  1.00  0.00     0.010 A 
ATOM     69  C   UNL A   1      42.951  28.046  27.067  1.00  0.00     0.020 A 
ATOM     70  C   UNL A   1      42.012  26.213  28.359  1.00  0.00     0.020 A 
ATOM     71  C   UNL A   1      42.573  26.705  27.177  1.00  0.00     0.054 A 
BRANCH  71  72
ATOM     72  S   UNL A   1      42.848  25.606  25.761  1.00  0.00     0.124 S 
ATOM     73  O   UNL A   1      42.609  24.291  26.349  1.00  0.00    -0.237 OA
ATOM     74  O   UNL A   1      41.839  26.059  24.805  1.00  0.00    -0.237 OA
ATOM     75  O   UNL A   1      44.231  25.875  25.376  1.00  0.00    -0.744 OA
ENDBRANCH  71  72
ENDBRANCH  52  66
BRANCH  53  76
ATOM     76  C   UNL A   1      40.056  34.521  36.983  1.00  0.00    -0.014 A 
ATOM     77  C   UNL A   1      39.325  34.023  38.077  1.00  0.00     0.010 A 
ATOM     78  C   UNL A   1      40.487  35.860  37.005  1.00  0.00     0.010 A 
ATOM     79  C   UNL A   1      39.017  34.851  39.162  1.00  0.00     0.020 A 
ATOM     80  C   UNL A   1      40.207  36.683  38.100  1.00  0.00     0.020 A 
ATOM     81  C   UNL A   1      39.463  36.176  39.168  1.00  0.00     0.054 A 
BRANCH  81  82
ATOM     82  S   UNL A   1      39.102  37.214  40.612  1.00  0.00     0.124 S 
ATOM     83  O   UNL A   1      38.310  38.289  40.022  1.00  0.00    -0.237 OA
ATOM     84  O   UNL A   1      38.376  36.297  41.486  1.00  0.00    -0.237 OA
ATOM     85  O   UNL A   1      40.427  37.601  41.093  1.00  0.00    -0.744 OA
ENDBRANCH  81  82
ENDBRANCH  53  76
BRANCH  65  86
ATOM     86  C   UNL A   1      45.441  30.343  35.474  1.00  0.00    -0.014 A 
ATOM     87  C   UNL A   1      46.590  31.127  35.271  1.00  0.00     0.010 A 
ATOM     88  C   UNL A   1      45.484  29.292  36.409  1.00  0.00     0.010 A 
ATOM     89  C   UNL A   1      47.768  30.847  35.968  1.00  0.00     0.020 A 
ATOM     90  C   UNL A   1      46.651  29.028  37.130  1.00  0.00     0.020 A 
ATOM     91  C   UNL A   1      47.791  29.800  36.894  1.00  0.00     0.054 A 
BRANCH  91  92
ATOM     92  S   UNL A   1      49.318  29.486  37.820  1.00  0.00     0.124 S 
ATOM     93  O   UNL A   1      50.283  30.314  37.103  1.00  0.00    -0.237 OA
ATOM     94  O   UNL A   1      48.976  29.940  39.165  1.00  0.00    -0.237 OA
ATOM     95  O   UNL A   1      49.515  28.044  37.687  1.00  0.00    -0.744 OA
ENDBRANCH  91  92
ENDBRANCH  65  86
ENDBRANCH  39  40
ENDBRANCH  31  34
ENDBRANCH  29  30
ENDBRANCH  28  29
ENDBRANCH  27  28
ENDBRANCH   1  27
TORSDOF 20
ENDMDL
