MODEL 1
REMARK VINA RESULT:      -9.6      0.000      0.000
REMARK SMILES C[C@H]1[C@H](C(=O)NCCCCNC(=O)c2ccc(-c3c4nc(c(-c5ccc(S(=O)(=O)[O-])cc5)c5ccc([nH]5)c(-c5ccc(S(=O)(=O)[O-])cc5)c5nc(c(-c6ccc(S(=O)(=O)[O-])cc6)c6ccc3[nH]6)C=C5)C=C4)cc2)CC[N@@H+]1Cc1nnnn1-c1ccccc1
REMARK SMILES IDX 8 1 7 2 6 3 4 4 5 5 3 7 1 8 2 9 76 10 74 11 75 12 77 14
REMARK SMILES IDX 78 15 79 16 82 17 80 18 81 19 83 20 84 21 88 22 85 23 87 24
REMARK SMILES IDX 86 25 9 26 10 27 11 28 12 29 13 31 14 32 15 33 73 34 16 35
REMARK SMILES IDX 72 36 17 37 18 38 19 39 66 40 20 41 71 42 65 43 67 44 21 45
REMARK SMILES IDX 70 46 64 47 63 48 22 50 52 51 33 52 51 53 34 54 37 55 50 56
REMARK SMILES IDX 68 57 35 58 36 59 49 61 69 62 38 63 23 64 24 65 32 66 25 67
REMARK SMILES IDX 31 68 26 69 27 70 28 71 29 72 30 73 53 74 54 75 62 76 55 77
REMARK SMILES IDX 61 78 56 79 57 80 58 81 59 82 60 83 39 84 40 85 48 86 41 87
REMARK SMILES IDX 47 88 42 89 43 90 44 91 45 92 46 93
REMARK H PARENT 6 6 76 13 11 30 67 49 37 60
REMARK Flexibility Score: inf
ROOT
ATOM      1  C   UNL A   1      33.923  34.667  29.327  1.00  0.00     0.023 C 
ENDROOT
BRANCH   1   2
ATOM      2  C   UNL A   1      33.870  34.460  30.845  1.00  0.00     0.116 C 
BRANCH   2   3
ATOM      3  N   UNL A   1      34.320  33.147  31.247  1.00  0.00    -0.356 N 
ATOM      4  C   UNL A   1      35.426  32.770  31.935  1.00  0.00     0.229 C 
ATOM      5  O   UNL A   1      35.505  31.578  32.254  1.00  0.00    -0.275 OA
ATOM      6  H   UNL A   1      33.727  32.407  30.979  1.00  0.00     0.163 HD
BRANCH   4   7
ATOM      7  C   UNL A   1      36.532  33.728  32.369  1.00  0.00     0.142 C 
ATOM      8  C   UNL A   1      36.737  34.255  34.817  1.00  0.00     0.076 C 
ATOM      9  C   UNL A   1      37.311  33.422  33.663  1.00  0.00     0.194 C 
ATOM     10  N   UNL A   1      38.698  33.875  33.420  1.00  0.00    -0.326 N 
ATOM     11  C   UNL A   1      37.609  34.008  31.332  1.00  0.00     0.081 C 
ATOM     12  C   UNL A   1      38.686  34.654  32.189  1.00  0.00     0.263 C 
ATOM     13  H   UNL A   1      38.987  34.480  34.189  1.00  0.00     0.348 HD
BRANCH  10  14
ATOM     14  C   UNL A   1      39.796  32.910  33.627  1.00  0.00     0.343 C 
BRANCH  14  15
ATOM     15  C   UNL A   1      39.829  32.067  34.865  1.00  0.00     0.210 A 
ATOM     16  N   UNL A   1      40.171  32.469  36.078  1.00  0.00    -0.107 NA
ATOM     17  N   UNL A   1      39.461  30.736  34.974  1.00  0.00    -0.192 N 
ATOM     18  N   UNL A   1      39.800  31.466  36.937  1.00  0.00    -0.023 NA
ATOM     19  N   UNL A   1      39.256  30.457  36.278  1.00  0.00    -0.040 NA
BRANCH  17  20
ATOM     20  C   UNL A   1      39.302  29.749  33.988  1.00  0.00     0.069 A 
ATOM     21  C   UNL A   1      40.424  29.046  33.535  1.00  0.00     0.028 A 
ATOM     22  C   UNL A   1      38.024  29.455  33.500  1.00  0.00     0.028 A 
ATOM     23  C   UNL A   1      40.248  27.984  32.650  1.00  0.00     0.002 A 
ATOM     24  C   UNL A   1      37.867  28.424  32.578  1.00  0.00     0.002 A 
ATOM     25  C   UNL A   1      38.973  27.676  32.172  1.00  0.00     0.000 A 
ENDBRANCH  17  20
ENDBRANCH  14  15
ENDBRANCH  10  14
ENDBRANCH   4   7
ENDBRANCH   2   3
ENDBRANCH   1   2
BRANCH   1  26
ATOM     26  C   UNL A   1      35.313  34.526  28.708  1.00  0.00     0.023 C 
BRANCH  26  27
ATOM     27  C   UNL A   1      35.615  33.199  28.016  1.00  0.00     0.116 C 
BRANCH  27  28
ATOM     28  N   UNL A   1      34.463  32.339  27.799  1.00  0.00    -0.352 N 
ATOM     29  C   UNL A   1      34.424  30.956  27.810  1.00  0.00     0.251 C 
ATOM     30  H   UNL A   1      33.609  32.795  27.624  1.00  0.00     0.163 HD
ATOM     31  O   UNL A   1      33.394  30.346  27.576  1.00  0.00    -0.269 OA
BRANCH  29  32
ATOM     32  C   UNL A   1      35.685  30.218  28.065  1.00  0.00     0.039 A 
ATOM     33  C   UNL A   1      36.620  30.102  27.035  1.00  0.00     0.014 A 
ATOM     34  C   UNL A   1      35.977  29.733  29.343  1.00  0.00     0.014 A 
ATOM     35  C   UNL A   1      37.895  29.603  27.317  1.00  0.00     0.010 A 
ATOM     36  C   UNL A   1      37.269  29.305  29.638  1.00  0.00     0.010 A 
ATOM     37  C   UNL A   1      38.248  29.262  28.634  1.00  0.00    -0.014 A 
BRANCH  37  38
ATOM     38  C   UNL A   1      39.652  28.929  28.993  1.00  0.00     0.031 A 
ATOM     39  C   UNL A   1      40.548  29.959  29.620  1.00  0.00     0.074 A 
ATOM     40  C   UNL A   1      40.145  27.715  28.670  1.00  0.00     0.049 A 
ATOM     41  N   UNL A   1      41.811  29.860  29.949  1.00  0.00    -0.248 NA
ATOM     42  C   UNL A   1      39.958  31.280  29.892  1.00  0.00     0.031 C 
ATOM     43  C   UNL A   1      39.397  26.646  28.003  1.00  0.00     0.029 A 
ATOM     44  N   UNL A   1      41.395  27.177  28.852  1.00  0.00    -0.354 N 
ATOM     45  C   UNL A   1      42.171  31.105  30.451  1.00  0.00     0.074 A 
ATOM     46  C   UNL A   1      41.005  31.956  30.342  1.00  0.00     0.031 C 
ATOM     47  C   UNL A   1      40.194  25.574  27.858  1.00  0.00     0.029 A 
ATOM     48  C   UNL A   1      41.516  25.888  28.386  1.00  0.00     0.049 A 
ATOM     49  H   UNL A   1      42.136  27.668  29.276  1.00  0.00     0.167 HD
ATOM     50  C   UNL A   1      43.357  31.500  30.973  1.00  0.00     0.031 A 
ATOM     51  C   UNL A   1      42.572  25.051  28.381  1.00  0.00     0.031 A 
ATOM     52  C   UNL A   1      44.514  30.651  31.088  1.00  0.00     0.049 A 
ATOM     53  C   UNL A   1      43.876  25.509  28.973  1.00  0.00     0.074 A 
ATOM     54  C   UNL A   1      45.742  30.943  31.657  1.00  0.00     0.029 A 
ATOM     55  N   UNL A   1      44.588  29.346  30.627  1.00  0.00    -0.354 N 
ATOM     56  N   UNL A   1      44.173  26.668  29.512  1.00  0.00    -0.248 NA
ATOM     57  C   UNL A   1      44.983  24.543  28.968  1.00  0.00     0.031 C 
ATOM     58  C   UNL A   1      46.572  29.828  31.502  1.00  0.00     0.029 A 
ATOM     59  C   UNL A   1      45.846  28.825  30.880  1.00  0.00     0.049 A 
ATOM     60  H   UNL A   1      43.854  28.861  30.184  1.00  0.00     0.167 HD
ATOM     61  C   UNL A   1      45.494  26.561  29.931  1.00  0.00     0.074 A 
ATOM     62  C   UNL A   1      45.934  25.222  29.596  1.00  0.00     0.031 C 
ATOM     63  C   UNL A   1      46.271  27.490  30.540  1.00  0.00     0.031 A 
BRANCH  50  64
ATOM     64  C   UNL A   1      43.460  32.921  31.458  1.00  0.00    -0.014 A 
ATOM     65  C   UNL A   1      43.984  33.931  30.631  1.00  0.00     0.010 A 
ATOM     66  C   UNL A   1      43.000  33.259  32.743  1.00  0.00     0.010 A 
ATOM     67  C   UNL A   1      44.090  35.244  31.096  1.00  0.00     0.020 A 
ATOM     68  C   UNL A   1      43.080  34.576  33.204  1.00  0.00     0.020 A 
ATOM     69  C   UNL A   1      43.643  35.557  32.383  1.00  0.00     0.054 A 
BRANCH  69  70
ATOM     70  S   UNL A   1      43.781  37.272  32.959  1.00  0.00     0.124 S 
ATOM     71  O   UNL A   1      42.769  37.317  34.012  1.00  0.00    -0.237 OA
ATOM     72  O   UNL A   1      45.166  37.347  33.417  1.00  0.00    -0.237 OA
ATOM     73  O   UNL A   1      43.478  38.063  31.769  1.00  0.00    -0.744 OA
ENDBRANCH  69  70
ENDBRANCH  50  64
BRANCH  51  74
ATOM     74  C   UNL A   1      42.432  23.682  27.815  1.00  0.00    -0.014 A 
ATOM     75  C   UNL A   1      42.602  23.463  26.436  1.00  0.00     0.010 A 
ATOM     76  C   UNL A   1      42.143  22.590  28.651  1.00  0.00     0.010 A 
ATOM     77  C   UNL A   1      42.468  22.177  25.902  1.00  0.00     0.020 A 
ATOM     78  C   UNL A   1      42.033  21.299  28.125  1.00  0.00     0.020 A 
ATOM     79  C   UNL A   1      42.185  21.104  26.750  1.00  0.00     0.054 A 
BRANCH  79  80
ATOM     80  S   UNL A   1      42.070  19.436  26.044  1.00  0.00     0.124 S 
ATOM     81  O   UNL A   1      42.534  18.605  27.150  1.00  0.00    -0.237 OA
ATOM     82  O   UNL A   1      40.650  19.325  25.720  1.00  0.00    -0.237 OA
ATOM     83  O   UNL A   1      42.961  19.494  24.887  1.00  0.00    -0.744 OA
ENDBRANCH  79  80
ENDBRANCH  51  74
BRANCH  63  84
ATOM     84  C   UNL A   1      47.671  27.084  30.912  1.00  0.00    -0.014 A 
ATOM     85  C   UNL A   1      48.736  27.231  30.006  1.00  0.00     0.010 A 
ATOM     86  C   UNL A   1      47.932  26.597  32.205  1.00  0.00     0.010 A 
ATOM     87  C   UNL A   1      50.034  26.871  30.378  1.00  0.00     0.020 A 
ATOM     88  C   UNL A   1      49.232  26.260  32.590  1.00  0.00     0.020 A 
ATOM     89  C   UNL A   1      50.274  26.387  31.669  1.00  0.00     0.054 A 
BRANCH  89  90
ATOM     90  S   UNL A   1      51.974  25.971  32.145  1.00  0.00     0.124 S 
ATOM     91  O   UNL A   1      52.037  24.546  31.834  1.00  0.00    -0.237 OA
ATOM     92  O   UNL A   1      52.772  26.839  31.283  1.00  0.00    -0.237 OA
ATOM     93  O   UNL A   1      52.024  26.301  33.568  1.00  0.00    -0.744 OA
ENDBRANCH  89  90
ENDBRANCH  63  84
ENDBRANCH  37  38
ENDBRANCH  29  32
ENDBRANCH  27  28
ENDBRANCH  26  27
ENDBRANCH   1  26
TORSDOF 17
ENDMDL
MODEL 2
REMARK VINA RESULT:      -9.6      5.338     12.106
REMARK SMILES C[C@H]1[C@H](C(=O)NCCCCNC(=O)c2ccc(-c3c4nc(c(-c5ccc(S(=O)(=O)[O-])cc5)c5ccc([nH]5)c(-c5ccc(S(=O)(=O)[O-])cc5)c5nc(c(-c6ccc(S(=O)(=O)[O-])cc6)c6ccc3[nH]6)C=C5)C=C4)cc2)CC[N@@H+]1Cc1nnnn1-c1ccccc1
REMARK SMILES IDX 8 1 7 2 6 3 4 4 5 5 3 7 1 8 2 9 76 10 74 11 75 12 77 14
REMARK SMILES IDX 78 15 79 16 82 17 80 18 81 19 83 20 84 21 88 22 85 23 87 24
REMARK SMILES IDX 86 25 9 26 10 27 11 28 12 29 13 31 14 32 15 33 73 34 16 35
REMARK SMILES IDX 72 36 17 37 18 38 19 39 66 40 20 41 71 42 65 43 67 44 21 45
REMARK SMILES IDX 70 46 64 47 63 48 22 50 52 51 33 52 51 53 34 54 37 55 50 56
REMARK SMILES IDX 68 57 35 58 36 59 49 61 69 62 38 63 23 64 24 65 32 66 25 67
REMARK SMILES IDX 31 68 26 69 27 70 28 71 29 72 30 73 53 74 54 75 62 76 55 77
REMARK SMILES IDX 61 78 56 79 57 80 58 81 59 82 60 83 39 84 40 85 48 86 41 87
REMARK SMILES IDX 47 88 42 89 43 90 44 91 45 92 46 93
REMARK H PARENT 6 6 76 13 11 30 67 49 37 60
REMARK Flexibility Score: inf
ROOT
ATOM      1  C   UNL A   1      39.037  21.952  26.063  1.00  0.00     0.023 C 
ENDROOT
BRANCH   1   2
ATOM      2  C   UNL A   1      37.684  22.491  25.585  1.00  0.00     0.116 C 
BRANCH   2   3
ATOM      3  N   UNL A   1      36.605  22.176  26.492  1.00  0.00    -0.356 N 
ATOM      4  C   UNL A   1      35.319  21.826  26.238  1.00  0.00     0.229 C 
ATOM      5  O   UNL A   1      34.632  21.485  27.208  1.00  0.00    -0.275 OA
ATOM      6  H   UNL A   1      36.840  22.221  27.447  1.00  0.00     0.163 HD
BRANCH   4   7
ATOM      7  C   UNL A   1      34.703  21.784  24.842  1.00  0.00     0.142 C 
ATOM      8  C   UNL A   1      33.192  19.856  24.282  1.00  0.00     0.076 C 
ATOM      9  C   UNL A   1      33.236  21.333  24.693  1.00  0.00     0.194 C 
ATOM     10  N   UNL A   1      32.675  22.134  23.583  1.00  0.00    -0.326 N 
ATOM     11  C   UNL A   1      34.789  23.074  24.042  1.00  0.00     0.081 C 
ATOM     12  C   UNL A   1      33.792  22.800  22.927  1.00  0.00     0.263 C 
ATOM     13  H   UNL A   1      32.231  21.503  22.915  1.00  0.00     0.348 HD
BRANCH  10  14
ATOM     14  C   UNL A   1      31.444  22.910  23.830  1.00  0.00     0.343 C 
BRANCH  14  15
ATOM     15  C   UNL A   1      31.051  23.264  25.232  1.00  0.00     0.210 A 
ATOM     16  N   UNL A   1      30.390  22.492  26.078  1.00  0.00    -0.107 NA
ATOM     17  N   UNL A   1      31.349  24.435  25.908  1.00  0.00    -0.192 N 
ATOM     18  N   UNL A   1      30.487  23.093  27.307  1.00  0.00    -0.023 NA
ATOM     19  N   UNL A   1      31.176  24.219  27.229  1.00  0.00    -0.040 NA
BRANCH  17  20
ATOM     20  C   UNL A   1      31.759  25.688  25.427  1.00  0.00     0.069 A 
ATOM     21  C   UNL A   1      30.829  26.732  25.352  1.00  0.00     0.028 A 
ATOM     22  C   UNL A   1      33.096  25.889  25.064  1.00  0.00     0.028 A 
ATOM     23  C   UNL A   1      31.266  28.006  24.992  1.00  0.00     0.002 A 
ATOM     24  C   UNL A   1      33.510  27.155  24.659  1.00  0.00     0.002 A 
ATOM     25  C   UNL A   1      32.602  28.215  24.646  1.00  0.00     0.000 A 
ENDBRANCH  17  20
ENDBRANCH  14  15
ENDBRANCH  10  14
ENDBRANCH   4   7
ENDBRANCH   2   3
ENDBRANCH   1   2
BRANCH   1  26
ATOM     26  C   UNL A   1      39.645  22.701  27.248  1.00  0.00     0.023 C 
BRANCH  26  27
ATOM     27  C   UNL A   1      41.041  23.283  27.038  1.00  0.00     0.116 C 
BRANCH  27  28
ATOM     28  N   UNL A   1      41.154  24.241  25.951  1.00  0.00    -0.352 N 
ATOM     29  C   UNL A   1      41.254  25.618  26.040  1.00  0.00     0.251 C 
ATOM     30  H   UNL A   1      41.158  23.865  25.041  1.00  0.00     0.163 HD
ATOM     31  O   UNL A   1      41.306  26.319  25.044  1.00  0.00    -0.269 OA
BRANCH  29  32
ATOM     32  C   UNL A   1      41.247  26.237  27.388  1.00  0.00     0.039 A 
ATOM     33  C   UNL A   1      42.361  26.971  27.800  1.00  0.00     0.014 A 
ATOM     34  C   UNL A   1      40.107  26.170  28.193  1.00  0.00     0.014 A 
ATOM     35  C   UNL A   1      42.286  27.736  28.968  1.00  0.00     0.010 A 
ATOM     36  C   UNL A   1      40.009  26.988  29.316  1.00  0.00     0.010 A 
ATOM     37  C   UNL A   1      41.087  27.800  29.699  1.00  0.00    -0.014 A 
BRANCH  37  38
ATOM     38  C   UNL A   1      40.920  28.763  30.820  1.00  0.00     0.031 A 
ATOM     39  C   UNL A   1      41.783  28.670  32.046  1.00  0.00     0.074 A 
ATOM     40  C   UNL A   1      39.926  29.673  30.764  1.00  0.00     0.049 A 
ATOM     41  N   UNL A   1      41.740  29.389  33.138  1.00  0.00    -0.248 NA
ATOM     42  C   UNL A   1      42.810  27.615  32.060  1.00  0.00     0.031 C 
ATOM     43  C   UNL A   1      38.978  29.829  29.656  1.00  0.00     0.029 A 
ATOM     44  N   UNL A   1      39.538  30.635  31.664  1.00  0.00    -0.354 N 
ATOM     45  C   UNL A   1      42.722  28.869  33.973  1.00  0.00     0.074 A 
ATOM     46  C   UNL A   1      43.312  27.744  33.280  1.00  0.00     0.031 C 
ATOM     47  C   UNL A   1      38.141  30.843  29.931  1.00  0.00     0.029 A 
ATOM     48  C   UNL A   1      38.464  31.386  31.244  1.00  0.00     0.049 A 
ATOM     49  H   UNL A   1      39.987  30.775  32.529  1.00  0.00     0.167 HD
ATOM     50  C   UNL A   1      43.109  29.297  35.198  1.00  0.00     0.031 A 
ATOM     51  C   UNL A   1      37.809  32.396  31.849  1.00  0.00     0.031 A 
ATOM     52  C   UNL A   1      42.528  30.421  35.885  1.00  0.00     0.049 A 
ATOM     53  C   UNL A   1      38.264  32.861  33.205  1.00  0.00     0.074 A 
ATOM     54  C   UNL A   1      42.893  30.968  37.103  1.00  0.00     0.029 A 
ATOM     55  N   UNL A   1      41.458  31.168  35.416  1.00  0.00    -0.354 N 
ATOM     56  N   UNL A   1      39.244  32.401  33.946  1.00  0.00    -0.248 NA
ATOM     57  C   UNL A   1      37.531  33.986  33.801  1.00  0.00     0.031 C 
ATOM     58  C   UNL A   1      42.018  32.021  37.390  1.00  0.00     0.029 A 
ATOM     59  C   UNL A   1      41.138  32.160  36.328  1.00  0.00     0.049 A 
ATOM     60  H   UNL A   1      40.995  31.016  34.561  1.00  0.00     0.167 HD
ATOM     61  C   UNL A   1      39.261  33.198  35.085  1.00  0.00     0.074 A 
ATOM     62  C   UNL A   1      38.203  34.175  34.929  1.00  0.00     0.031 C 
ATOM     63  C   UNL A   1      40.081  33.126  36.161  1.00  0.00     0.031 A 
BRANCH  50  64
ATOM     64  C   UNL A   1      44.221  28.541  35.876  1.00  0.00    -0.014 A 
ATOM     65  C   UNL A   1      45.564  28.924  35.706  1.00  0.00     0.010 A 
ATOM     66  C   UNL A   1      43.920  27.454  36.717  1.00  0.00     0.010 A 
ATOM     67  C   UNL A   1      46.589  28.205  36.326  1.00  0.00     0.020 A 
ATOM     68  C   UNL A   1      44.940  26.748  37.360  1.00  0.00     0.020 A 
ATOM     69  C   UNL A   1      46.271  27.118  37.144  1.00  0.00     0.054 A 
BRANCH  69  70
ATOM     70  S   UNL A   1      47.620  26.209  37.948  1.00  0.00     0.124 S 
ATOM     71  O   UNL A   1      47.805  26.972  39.180  1.00  0.00    -0.237 OA
ATOM     72  O   UNL A   1      47.053  24.873  38.116  1.00  0.00    -0.237 OA
ATOM     73  O   UNL A   1      48.718  26.299  36.989  1.00  0.00    -0.744 OA
ENDBRANCH  69  70
ENDBRANCH  50  64
BRANCH  51  74
ATOM     74  C   UNL A   1      36.665  33.056  31.162  1.00  0.00    -0.014 A 
ATOM     75  C   UNL A   1      35.378  33.013  31.727  1.00  0.00     0.010 A 
ATOM     76  C   UNL A   1      36.858  33.740  29.949  1.00  0.00     0.010 A 
ATOM     77  C   UNL A   1      34.301  33.630  31.082  1.00  0.00     0.020 A 
ATOM     78  C   UNL A   1      35.789  34.379  29.314  1.00  0.00     0.020 A 
ATOM     79  C   UNL A   1      34.514  34.310  29.880  1.00  0.00     0.054 A 
BRANCH  79  80
ATOM     80  S   UNL A   1      33.114  35.149  29.088  1.00  0.00     0.124 S 
ATOM     81  O   UNL A   1      32.143  35.210  30.175  1.00  0.00    -0.237 OA
ATOM     82  O   UNL A   1      33.696  36.428  28.686  1.00  0.00    -0.237 OA
ATOM     83  O   UNL A   1      32.765  34.259  27.983  1.00  0.00    -0.744 OA
ENDBRANCH  79  80
ENDBRANCH  51  74
BRANCH  63  84
ATOM     84  C   UNL A   1      39.888  34.149  37.247  1.00  0.00    -0.014 A 
ATOM     85  C   UNL A   1      39.106  33.869  38.380  1.00  0.00     0.010 A 
ATOM     86  C   UNL A   1      40.544  35.390  37.155  1.00  0.00     0.010 A 
ATOM     87  C   UNL A   1      38.959  34.824  39.391  1.00  0.00     0.020 A 
ATOM     88  C   UNL A   1      40.420  36.338  38.174  1.00  0.00     0.020 A 
ATOM     89  C   UNL A   1      39.617  36.054  39.280  1.00  0.00     0.054 A 
BRANCH  89  90
ATOM     90  S   UNL A   1      39.450  37.259  40.625  1.00  0.00     0.124 S 
ATOM     91  O   UNL A   1      38.702  38.334  39.979  1.00  0.00    -0.237 OA
ATOM     92  O   UNL A   1      38.719  36.508  41.642  1.00  0.00    -0.237 OA
ATOM     93  O   UNL A   1      40.832  37.582  40.973  1.00  0.00    -0.744 OA
ENDBRANCH  89  90
ENDBRANCH  63  84
ENDBRANCH  37  38
ENDBRANCH  29  32
ENDBRANCH  27  28
ENDBRANCH  26  27
ENDBRANCH   1  26
TORSDOF 17
ENDMDL
MODEL 3
REMARK VINA RESULT:      -9.6      4.595     10.811
REMARK SMILES C[C@H]1[C@H](C(=O)NCCCCNC(=O)c2ccc(-c3c4nc(c(-c5ccc(S(=O)(=O)[O-])cc5)c5ccc([nH]5)c(-c5ccc(S(=O)(=O)[O-])cc5)c5nc(c(-c6ccc(S(=O)(=O)[O-])cc6)c6ccc3[nH]6)C=C5)C=C4)cc2)CC[N@@H+]1Cc1nnnn1-c1ccccc1
REMARK SMILES IDX 8 1 7 2 6 3 4 4 5 5 3 7 1 8 2 9 76 10 74 11 75 12 77 14
REMARK SMILES IDX 78 15 79 16 82 17 80 18 81 19 83 20 84 21 88 22 85 23 87 24
REMARK SMILES IDX 86 25 9 26 10 27 11 28 12 29 13 31 14 32 15 33 73 34 16 35
REMARK SMILES IDX 72 36 17 37 18 38 19 39 66 40 20 41 71 42 65 43 67 44 21 45
REMARK SMILES IDX 70 46 64 47 63 48 22 50 52 51 33 52 51 53 34 54 37 55 50 56
REMARK SMILES IDX 68 57 35 58 36 59 49 61 69 62 38 63 23 64 24 65 32 66 25 67
REMARK SMILES IDX 31 68 26 69 27 70 28 71 29 72 30 73 53 74 54 75 62 76 55 77
REMARK SMILES IDX 61 78 56 79 57 80 58 81 59 82 60 83 39 84 40 85 48 86 41 87
REMARK SMILES IDX 47 88 42 89 43 90 44 91 45 92 46 93
REMARK H PARENT 6 6 76 13 11 30 67 49 37 60
REMARK Flexibility Score: inf
ROOT
ATOM      1  C   UNL A   1      33.628  31.598  27.736  1.00  0.00     0.023 C 
ENDROOT
BRANCH   1   2
ATOM      2  C   UNL A   1      32.885  30.393  27.146  1.00  0.00     0.116 C 
BRANCH   2   3
ATOM      3  N   UNL A   1      33.377  30.018  25.841  1.00  0.00    -0.356 N 
ATOM      4  C   UNL A   1      32.858  29.170  24.917  1.00  0.00     0.229 C 
ATOM      5  O   UNL A   1      33.426  29.126  23.820  1.00  0.00    -0.275 OA
ATOM      6  H   UNL A   1      34.224  30.446  25.579  1.00  0.00     0.163 HD
BRANCH   4   7
ATOM      7  C   UNL A   1      31.608  28.324  25.139  1.00  0.00     0.142 C 
ATOM      8  C   UNL A   1      29.660  28.676  23.591  1.00  0.00     0.076 C 
ATOM      9  C   UNL A   1      30.859  27.772  23.910  1.00  0.00     0.194 C 
ATOM     10  N   UNL A   1      30.338  26.447  24.311  1.00  0.00    -0.326 N 
ATOM     11  C   UNL A   1      31.777  27.121  26.054  1.00  0.00     0.081 C 
ATOM     12  C   UNL A   1      30.509  26.337  25.754  1.00  0.00     0.263 C 
ATOM     13  H   UNL A   1      29.342  26.406  24.094  1.00  0.00     0.348 HD
BRANCH  10  14
ATOM     14  C   UNL A   1      30.676  25.279  23.475  1.00  0.00     0.343 C 
BRANCH  14  15
ATOM     15  C   UNL A   1      31.817  25.355  22.507  1.00  0.00     0.210 A 
ATOM     16  N   UNL A   1      31.753  25.769  21.252  1.00  0.00    -0.107 NA
ATOM     17  N   UNL A   1      33.146  25.058  22.763  1.00  0.00    -0.192 N 
ATOM     18  N   UNL A   1      33.049  25.933  20.832  1.00  0.00    -0.023 NA
ATOM     19  N   UNL A   1      33.900  25.615  21.792  1.00  0.00    -0.040 NA
BRANCH  17  20
ATOM     20  C   UNL A   1      33.732  24.315  23.800  1.00  0.00     0.069 A 
ATOM     21  C   UNL A   1      34.386  24.987  24.839  1.00  0.00     0.028 A 
ATOM     22  C   UNL A   1      33.623  22.920  23.802  1.00  0.00     0.028 A 
ATOM     23  C   UNL A   1      34.858  24.257  25.928  1.00  0.00     0.002 A 
ATOM     24  C   UNL A   1      34.141  22.198  24.873  1.00  0.00     0.002 A 
ATOM     25  C   UNL A   1      34.736  22.866  25.943  1.00  0.00     0.000 A 
ENDBRANCH  17  20
ENDBRANCH  14  15
ENDBRANCH  10  14
ENDBRANCH   4   7
ENDBRANCH   2   3
ENDBRANCH   1   2
BRANCH   1  26
ATOM     26  C   UNL A   1      35.151  31.476  27.735  1.00  0.00     0.023 C 
BRANCH  26  27
ATOM     27  C   UNL A   1      35.860  31.826  29.041  1.00  0.00     0.116 C 
BRANCH  27  28
ATOM     28  N   UNL A   1      35.708  30.849  30.107  1.00  0.00    -0.352 N 
ATOM     29  C   UNL A   1      36.670  30.001  30.625  1.00  0.00     0.251 C 
ATOM     30  H   UNL A   1      34.811  30.783  30.509  1.00  0.00     0.163 HD
ATOM     31  O   UNL A   1      36.405  29.195  31.500  1.00  0.00    -0.269 OA
BRANCH  29  32
ATOM     32  C   UNL A   1      38.037  30.057  30.053  1.00  0.00     0.039 A 
ATOM     33  C   UNL A   1      39.118  30.289  30.906  1.00  0.00     0.014 A 
ATOM     34  C   UNL A   1      38.251  29.785  28.699  1.00  0.00     0.014 A 
ATOM     35  C   UNL A   1      40.420  30.131  30.424  1.00  0.00     0.010 A 
ATOM     36  C   UNL A   1      39.546  29.558  28.239  1.00  0.00     0.010 A 
ATOM     37  C   UNL A   1      40.641  29.701  29.103  1.00  0.00    -0.014 A 
BRANCH  37  38
ATOM     38  C   UNL A   1      42.002  29.327  28.633  1.00  0.00     0.031 A 
ATOM     39  C   UNL A   1      42.306  27.919  28.208  1.00  0.00     0.074 A 
ATOM     40  C   UNL A   1      42.988  30.247  28.673  1.00  0.00     0.049 A 
ATOM     41  N   UNL A   1      43.446  27.405  27.822  1.00  0.00    -0.248 NA
ATOM     42  C   UNL A   1      41.194  26.956  28.245  1.00  0.00     0.031 C 
ATOM     43  C   UNL A   1      42.839  31.633  29.123  1.00  0.00     0.029 A 
ATOM     44  N   UNL A   1      44.317  30.152  28.337  1.00  0.00    -0.354 N 
ATOM     45  C   UNL A   1      43.193  26.059  27.583  1.00  0.00     0.074 A 
ATOM     46  C   UNL A   1      41.803  25.827  27.912  1.00  0.00     0.031 C 
ATOM     47  C   UNL A   1      44.019  32.264  29.009  1.00  0.00     0.029 A 
ATOM     48  C   UNL A   1      45.017  31.324  28.513  1.00  0.00     0.049 A 
ATOM     49  H   UNL A   1      44.729  29.324  28.002  1.00  0.00     0.167 HD
ATOM     50  C   UNL A   1      44.035  25.106  27.117  1.00  0.00     0.031 A 
ATOM     51  C   UNL A   1      46.316  31.610  28.303  1.00  0.00     0.031 A 
ATOM     52  C   UNL A   1      45.416  25.338  26.783  1.00  0.00     0.049 A 
ATOM     53  C   UNL A   1      47.230  30.538  27.776  1.00  0.00     0.074 A 
ATOM     54  C   UNL A   1      46.332  24.451  26.246  1.00  0.00     0.029 A 
ATOM     55  N   UNL A   1      46.080  26.544  26.953  1.00  0.00    -0.354 N 
ATOM     56  N   UNL A   1      46.952  29.290  27.487  1.00  0.00    -0.248 NA
ATOM     57  C   UNL A   1      48.629  30.918  27.537  1.00  0.00     0.031 C 
ATOM     58  C   UNL A   1      47.562  25.107  26.131  1.00  0.00     0.029 A 
ATOM     59  C   UNL A   1      47.399  26.418  26.550  1.00  0.00     0.049 A 
ATOM     60  H   UNL A   1      45.673  27.367  27.308  1.00  0.00     0.167 HD
ATOM     61  C   UNL A   1      48.136  28.741  27.008  1.00  0.00     0.074 A 
ATOM     62  C   UNL A   1      49.128  29.796  27.035  1.00  0.00     0.031 C 
ATOM     63  C   UNL A   1      48.377  27.476  26.584  1.00  0.00     0.031 A 
BRANCH  50  64
ATOM     64  C   UNL A   1      43.480  23.718  26.942  1.00  0.00    -0.014 A 
ATOM     65  C   UNL A   1      43.233  22.892  28.054  1.00  0.00     0.010 A 
ATOM     66  C   UNL A   1      43.170  23.242  25.655  1.00  0.00     0.010 A 
ATOM     67  C   UNL A   1      42.732  21.600  27.880  1.00  0.00     0.020 A 
ATOM     68  C   UNL A   1      42.645  21.960  25.477  1.00  0.00     0.020 A 
ATOM     69  C   UNL A   1      42.447  21.139  26.592  1.00  0.00     0.054 A 
BRANCH  69  70
ATOM     70  S   UNL A   1      41.787  19.461  26.393  1.00  0.00     0.124 S 
ATOM     71  O   UNL A   1      40.348  19.709  26.338  1.00  0.00    -0.237 OA
ATOM     72  O   UNL A   1      42.396  19.022  25.140  1.00  0.00    -0.237 OA
ATOM     73  O   UNL A   1      42.254  18.762  27.587  1.00  0.00    -0.744 OA
ENDBRANCH  69  70
ENDBRANCH  50  64
BRANCH  51  74
ATOM     74  C   UNL A   1      46.827  32.983  28.570  1.00  0.00    -0.014 A 
ATOM     75  C   UNL A   1      47.351  33.313  29.832  1.00  0.00     0.010 A 
ATOM     76  C   UNL A   1      46.805  33.961  27.560  1.00  0.00     0.010 A 
ATOM     77  C   UNL A   1      47.829  34.602  30.085  1.00  0.00     0.020 A 
ATOM     78  C   UNL A   1      47.304  35.244  27.802  1.00  0.00     0.020 A 
ATOM     79  C   UNL A   1      47.803  35.560  29.068  1.00  0.00     0.054 A 
BRANCH  79  80
ATOM     80  S   UNL A   1      48.478  37.211  29.401  1.00  0.00     0.124 S 
ATOM     81  O   UNL A   1      48.089  37.945  28.202  1.00  0.00    -0.237 OA
ATOM     82  O   UNL A   1      47.788  37.594  30.631  1.00  0.00    -0.237 OA
ATOM     83  O   UNL A   1      49.911  36.968  29.550  1.00  0.00    -0.744 OA
ENDBRANCH  79  80
ENDBRANCH  51  74
BRANCH  63  84
ATOM     84  C   UNL A   1      49.763  27.167  26.085  1.00  0.00    -0.014 A 
ATOM     85  C   UNL A   1      50.766  26.716  26.960  1.00  0.00     0.010 A 
ATOM     86  C   UNL A   1      50.047  27.281  24.713  1.00  0.00     0.010 A 
ATOM     87  C   UNL A   1      52.041  26.409  26.474  1.00  0.00     0.020 A 
ATOM     88  C   UNL A   1      51.312  26.952  24.219  1.00  0.00     0.020 A 
ATOM     89  C   UNL A   1      52.306  26.530  25.105  1.00  0.00     0.054 A 
BRANCH  89  90
ATOM     90  S   UNL A   1      53.952  26.082  24.490  1.00  0.00     0.124 S 
ATOM     91  O   UNL A   1      54.820  26.934  25.298  1.00  0.00    -0.237 OA
ATOM     92  O   UNL A   1      54.027  24.653  24.780  1.00  0.00    -0.237 OA
ATOM     93  O   UNL A   1      53.894  26.420  23.070  1.00  0.00    -0.744 OA
ENDBRANCH  89  90
ENDBRANCH  63  84
ENDBRANCH  37  38
ENDBRANCH  29  32
ENDBRANCH  27  28
ENDBRANCH  26  27
ENDBRANCH   1  26
TORSDOF 17
ENDMDL
