MODEL 1
REMARK VINA RESULT:     -10.8      0.000      0.000
REMARK SMILES C[C@H](NC(=O)NCCc1ccccc1F)C(=O)NCCCCNC(=O)c1ccc(-c2c3nc(c(-c4ccc(S(=O)(=O)[O-])cc4)c4ccc([nH]4)c(-c4ccc(S(=O)(=O)[O-])cc4)c4nc(c(-c5ccc(S(=O)(=O)[O-])cc5)c5ccc2[nH]5)C=C4)C=C3)cc1
REMARK SMILES IDX 20 1 19 2 18 3 16 4 17 5 2 7 1 8 3 9 4 10 5 12 6 13 7 15
REMARK SMILES IDX 8 16 9 17 10 18 14 19 11 20 13 21 15 22 12 23 21 24 22 25
REMARK SMILES IDX 23 26 24 27 25 29 26 30 27 31 85 32 28 33 84 34 29 35 30 36
REMARK SMILES IDX 31 37 78 38 32 39 83 40 77 41 79 42 33 43 82 44 76 45 75 46
REMARK SMILES IDX 34 48 64 49 45 50 63 51 46 52 49 53 62 54 80 55 47 56 48 57
REMARK SMILES IDX 61 59 81 60 50 61 35 62 36 63 44 64 37 65 43 66 38 67 39 68
REMARK SMILES IDX 40 69 41 70 42 71 65 72 66 73 74 74 67 75 73 76 68 77 69 78
REMARK SMILES IDX 70 79 71 80 72 81 51 82 52 83 60 84 53 85 59 86 54 87 55 88
REMARK SMILES IDX 56 89 57 90 58 91
REMARK H PARENT 18 6 3 11 6 14 23 28 79 47 49 58
REMARK Flexibility Score: inf
ROOT
ATOM      1  C   UNL A   1      33.744  26.797  25.205  1.00  0.00     0.023 C 
ENDROOT
BRANCH   1   2
ATOM      2  C   UNL A   1      33.053  26.696  23.850  1.00  0.00     0.116 C 
BRANCH   2   3
ATOM      3  N   UNL A   1      32.060  27.731  23.636  1.00  0.00    -0.354 N 
ATOM      4  C   UNL A   1      30.710  27.705  23.835  1.00  0.00     0.242 C 
ATOM      5  O   UNL A   1      30.124  28.793  23.870  1.00  0.00    -0.273 OA
ATOM      6  H   UNL A   1      32.415  28.584  23.296  1.00  0.00     0.163 HD
BRANCH   4   7
ATOM      7  C   UNL A   1      29.946  26.394  24.118  1.00  0.00     0.170 C 
ATOM      8  C   UNL A   1      28.440  26.586  23.938  1.00  0.00     0.041 C 
BRANCH   7   9
ATOM      9  N   UNL A   1      30.265  25.836  25.430  1.00  0.00    -0.327 N 
ATOM     10  C   UNL A   1      30.692  24.633  25.838  1.00  0.00     0.315 C 
ATOM     11  H   UNL A   1      30.143  26.477  26.167  1.00  0.00     0.166 HD
ATOM     12  O   UNL A   1      30.781  24.441  27.053  1.00  0.00    -0.249 OA
ATOM     13  N   UNL A   1      31.011  23.630  25.011  1.00  0.00    -0.338 N 
ATOM     14  H   UNL A   1      31.245  22.796  25.479  1.00  0.00     0.165 HD
BRANCH  13  15
ATOM     15  C   UNL A   1      31.081  23.520  23.565  1.00  0.00     0.122 C 
BRANCH  15  16
ATOM     16  C   UNL A   1      31.976  22.376  23.077  1.00  0.00     0.060 C 
BRANCH  16  17
ATOM     17  C   UNL A   1      33.401  22.330  23.572  1.00  0.00    -0.010 A 
ATOM     18  C   UNL A   1      34.337  23.228  23.034  1.00  0.00     0.007 A 
ATOM     19  C   UNL A   1      33.860  21.363  24.470  1.00  0.00     0.126 A 
ATOM     20  C   UNL A   1      35.682  23.170  23.406  1.00  0.00     0.000 A 
ATOM     21  C   UNL A   1      35.200  21.305  24.851  1.00  0.00     0.039 A 
ATOM     22  F   UNL A   1      33.023  20.445  24.970  1.00  0.00    -0.207 F 
ATOM     23  C   UNL A   1      36.114  22.210  24.319  1.00  0.00     0.003 A 
ENDBRANCH  16  17
ENDBRANCH  15  16
ENDBRANCH  13  15
ENDBRANCH   7   9
ENDBRANCH   4   7
ENDBRANCH   2   3
ENDBRANCH   1   2
BRANCH   1  24
ATOM     24  C   UNL A   1      33.956  28.215  25.737  1.00  0.00     0.023 C 
BRANCH  24  25
ATOM     25  C   UNL A   1      33.573  28.447  27.195  1.00  0.00     0.116 C 
BRANCH  25  26
ATOM     26  N   UNL A   1      33.525  29.853  27.563  1.00  0.00    -0.352 N 
ATOM     27  C   UNL A   1      34.500  30.638  28.135  1.00  0.00     0.251 C 
ATOM     28  H   UNL A   1      32.672  30.308  27.378  1.00  0.00     0.163 HD
ATOM     29  O   UNL A   1      34.243  31.788  28.466  1.00  0.00    -0.269 OA
BRANCH  27  30
ATOM     30  C   UNL A   1      35.846  30.074  28.379  1.00  0.00     0.039 A 
ATOM     31  C   UNL A   1      36.796  30.137  27.356  1.00  0.00     0.014 A 
ATOM     32  C   UNL A   1      36.177  29.510  29.613  1.00  0.00     0.014 A 
ATOM     33  C   UNL A   1      38.102  29.706  27.598  1.00  0.00     0.010 A 
ATOM     34  C   UNL A   1      37.497  29.146  29.874  1.00  0.00     0.010 A 
ATOM     35  C   UNL A   1      38.473  29.244  28.872  1.00  0.00    -0.014 A 
BRANCH  35  36
ATOM     36  C   UNL A   1      39.879  28.872  29.177  1.00  0.00     0.031 A 
ATOM     37  C   UNL A   1      40.809  29.876  29.801  1.00  0.00     0.074 A 
ATOM     38  C   UNL A   1      40.337  27.653  28.829  1.00  0.00     0.049 A 
ATOM     39  N   UNL A   1      42.082  29.759  30.080  1.00  0.00    -0.248 NA
ATOM     40  C   UNL A   1      40.240  31.193  30.133  1.00  0.00     0.031 C 
ATOM     41  C   UNL A   1      39.549  26.605  28.176  1.00  0.00     0.029 A 
ATOM     42  N   UNL A   1      41.583  27.092  28.966  1.00  0.00    -0.354 N 
ATOM     43  C   UNL A   1      42.470  30.986  30.603  1.00  0.00     0.074 A 
ATOM     44  C   UNL A   1      41.310  31.850  30.555  1.00  0.00     0.031 C 
ATOM     45  C   UNL A   1      40.322  25.523  27.991  1.00  0.00     0.029 A 
ATOM     46  C   UNL A   1      41.669  25.810  28.473  1.00  0.00     0.049 A 
ATOM     47  H   UNL A   1      42.343  27.563  29.378  1.00  0.00     0.167 HD
ATOM     48  C   UNL A   1      43.676  31.357  31.097  1.00  0.00     0.031 A 
ATOM     49  C   UNL A   1      42.715  24.964  28.410  1.00  0.00     0.031 A 
ATOM     50  C   UNL A   1      44.825  30.494  31.150  1.00  0.00     0.049 A 
ATOM     51  C   UNL A   1      44.046  25.397  28.962  1.00  0.00     0.074 A 
ATOM     52  C   UNL A   1      46.077  30.759  31.678  1.00  0.00     0.029 A 
ATOM     53  N   UNL A   1      44.866  29.197  30.658  1.00  0.00    -0.354 N 
ATOM     54  N   UNL A   1      44.376  26.542  29.508  1.00  0.00    -0.248 NA
ATOM     55  C   UNL A   1      45.141  24.420  28.898  1.00  0.00     0.031 C 
ATOM     56  C   UNL A   1      46.888  29.640  31.463  1.00  0.00     0.029 A 
ATOM     57  C   UNL A   1      46.126  28.657  30.853  1.00  0.00     0.049 A 
ATOM     58  H   UNL A   1      44.110  28.730  30.235  1.00  0.00     0.167 HD
ATOM     59  C   UNL A   1      45.710  26.415  29.877  1.00  0.00     0.074 A 
ATOM     60  C   UNL A   1      46.121  25.076  29.505  1.00  0.00     0.031 C 
ATOM     61  C   UNL A   1      46.521  27.324  30.474  1.00  0.00     0.031 A 
BRANCH  48  62
ATOM     62  C   UNL A   1      43.808  32.764  31.618  1.00  0.00    -0.014 A 
ATOM     63  C   UNL A   1      43.702  33.040  32.994  1.00  0.00     0.010 A 
ATOM     64  C   UNL A   1      44.067  33.821  30.727  1.00  0.00     0.010 A 
ATOM     65  C   UNL A   1      43.804  34.353  33.463  1.00  0.00     0.020 A 
ATOM     66  C   UNL A   1      44.199  35.132  31.195  1.00  0.00     0.020 A 
ATOM     67  C   UNL A   1      44.047  35.391  32.558  1.00  0.00     0.054 A 
BRANCH  67  68
ATOM     68  S   UNL A   1      44.185  37.083  33.197  1.00  0.00     0.124 S 
ATOM     69  O   UNL A   1      45.241  36.941  34.197  1.00  0.00    -0.237 OA
ATOM     70  O   UNL A   1      44.548  37.847  32.005  1.00  0.00    -0.237 OA
ATOM     71  O   UNL A   1      42.856  37.363  33.731  1.00  0.00    -0.744 OA
ENDBRANCH  67  68
ENDBRANCH  48  62
BRANCH  49  72
ATOM     72  C   UNL A   1      42.538  23.613  27.811  1.00  0.00    -0.014 A 
ATOM     73  C   UNL A   1      42.867  23.379  26.464  1.00  0.00     0.010 A 
ATOM     74  C   UNL A   1      42.061  22.545  28.593  1.00  0.00     0.010 A 
ATOM     75  C   UNL A   1      42.707  22.108  25.905  1.00  0.00     0.020 A 
ATOM     76  C   UNL A   1      41.927  21.265  28.046  1.00  0.00     0.020 A 
ATOM     77  C   UNL A   1      42.240  21.057  26.701  1.00  0.00     0.054 A 
BRANCH  77  78
ATOM     78  S   UNL A   1      42.099  19.402  25.971  1.00  0.00     0.124 S 
ATOM     79  O   UNL A   1      42.910  19.533  24.765  1.00  0.00    -0.237 OA
ATOM     80  O   UNL A   1      42.651  18.547  27.018  1.00  0.00    -0.237 OA
ATOM     81  O   UNL A   1      40.662  19.252  25.747  1.00  0.00    -0.744 OA
ENDBRANCH  77  78
ENDBRANCH  49  72
BRANCH  61  82
ATOM     82  C   UNL A   1      47.929  26.893  30.791  1.00  0.00    -0.014 A 
ATOM     83  C   UNL A   1      48.997  27.206  29.933  1.00  0.00     0.010 A 
ATOM     84  C   UNL A   1      48.191  26.216  31.996  1.00  0.00     0.010 A 
ATOM     85  C   UNL A   1      50.300  26.821  30.259  1.00  0.00     0.020 A 
ATOM     86  C   UNL A   1      49.496  25.854  32.339  1.00  0.00     0.020 A 
ATOM     87  C   UNL A   1      50.542  26.146  31.461  1.00  0.00     0.054 A 
BRANCH  87  88
ATOM     88  S   UNL A   1      52.247  25.699  31.885  1.00  0.00     0.124 S 
ATOM     89  O   UNL A   1      52.958  26.007  30.647  1.00  0.00    -0.237 OA
ATOM     90  O   UNL A   1      52.540  26.580  33.013  1.00  0.00    -0.237 OA
ATOM     91  O   UNL A   1      52.160  24.279  32.216  1.00  0.00    -0.744 OA
ENDBRANCH  87  88
ENDBRANCH  61  82
ENDBRANCH  35  36
ENDBRANCH  27  30
ENDBRANCH  25  26
ENDBRANCH  24  25
ENDBRANCH   1  24
TORSDOF 18
ENDMDL
MODEL 2
REMARK VINA RESULT:     -10.8      1.294      1.975
REMARK SMILES C[C@H](NC(=O)NCCc1ccccc1F)C(=O)NCCCCNC(=O)c1ccc(-c2c3nc(c(-c4ccc(S(=O)(=O)[O-])cc4)c4ccc([nH]4)c(-c4ccc(S(=O)(=O)[O-])cc4)c4nc(c(-c5ccc(S(=O)(=O)[O-])cc5)c5ccc2[nH]5)C=C4)C=C3)cc1
REMARK SMILES IDX 20 1 19 2 18 3 16 4 17 5 2 7 1 8 3 9 4 10 5 12 6 13 7 15
REMARK SMILES IDX 8 16 9 17 10 18 14 19 11 20 13 21 15 22 12 23 21 24 22 25
REMARK SMILES IDX 23 26 24 27 25 29 26 30 27 31 85 32 28 33 84 34 29 35 30 36
REMARK SMILES IDX 31 37 78 38 32 39 83 40 77 41 79 42 33 43 82 44 76 45 75 46
REMARK SMILES IDX 34 48 64 49 45 50 63 51 46 52 49 53 62 54 80 55 47 56 48 57
REMARK SMILES IDX 61 59 81 60 50 61 35 62 36 63 44 64 37 65 43 66 38 67 39 68
REMARK SMILES IDX 40 69 41 70 42 71 65 72 66 73 74 74 67 75 73 76 68 77 69 78
REMARK SMILES IDX 70 79 71 80 72 81 51 82 52 83 60 84 53 85 59 86 54 87 55 88
REMARK SMILES IDX 56 89 57 90 58 91
REMARK H PARENT 18 6 3 11 6 14 23 28 79 47 49 58
REMARK Flexibility Score: inf
ROOT
ATOM      1  C   UNL A   1      31.404  28.205  26.243  1.00  0.00     0.023 C 
ENDROOT
BRANCH   1   2
ATOM      2  C   UNL A   1      30.778  27.203  25.280  1.00  0.00     0.116 C 
BRANCH   2   3
ATOM      3  N   UNL A   1      30.325  27.805  24.042  1.00  0.00    -0.354 N 
ATOM      4  C   UNL A   1      30.906  27.814  22.807  1.00  0.00     0.242 C 
ATOM      5  O   UNL A   1      30.191  28.129  21.849  1.00  0.00    -0.273 OA
ATOM      6  H   UNL A   1      29.465  28.280  24.101  1.00  0.00     0.163 HD
BRANCH   4   7
ATOM      7  C   UNL A   1      32.360  27.348  22.579  1.00  0.00     0.170 C 
ATOM      8  C   UNL A   1      33.347  28.487  22.828  1.00  0.00     0.041 C 
BRANCH   7   9
ATOM      9  N   UNL A   1      32.551  26.748  21.261  1.00  0.00    -0.327 N 
ATOM     10  C   UNL A   1      32.780  25.494  20.847  1.00  0.00     0.315 C 
ATOM     11  H   UNL A   1      32.500  27.398  20.524  1.00  0.00     0.166 HD
ATOM     12  O   UNL A   1      32.995  25.320  19.645  1.00  0.00    -0.249 OA
ATOM     13  N   UNL A   1      32.804  24.429  21.657  1.00  0.00    -0.338 N 
ATOM     14  H   UNL A   1      33.048  23.592  21.197  1.00  0.00     0.165 HD
BRANCH  13  15
ATOM     15  C   UNL A   1      32.543  24.253  23.074  1.00  0.00     0.122 C 
BRANCH  15  16
ATOM     16  C   UNL A   1      33.808  24.254  23.938  1.00  0.00     0.060 C 
BRANCH  16  17
ATOM     17  C   UNL A   1      34.460  22.927  24.242  1.00  0.00    -0.010 A 
ATOM     18  C   UNL A   1      33.649  21.792  24.406  1.00  0.00     0.007 A 
ATOM     19  C   UNL A   1      35.832  22.791  24.469  1.00  0.00     0.126 A 
ATOM     20  C   UNL A   1      34.202  20.561  24.763  1.00  0.00     0.000 A 
ATOM     21  C   UNL A   1      36.391  21.562  24.819  1.00  0.00     0.039 A 
ATOM     22  F   UNL A   1      36.646  23.851  24.383  1.00  0.00    -0.207 F 
ATOM     23  C   UNL A   1      35.575  20.444  24.967  1.00  0.00     0.003 A 
ENDBRANCH  16  17
ENDBRANCH  15  16
ENDBRANCH  13  15
ENDBRANCH   7   9
ENDBRANCH   4   7
ENDBRANCH   2   3
ENDBRANCH   1   2
BRANCH   1  24
ATOM     24  C   UNL A   1      32.578  27.683  27.072  1.00  0.00     0.023 C 
BRANCH  24  25
ATOM     25  C   UNL A   1      33.873  28.483  26.975  1.00  0.00     0.116 C 
BRANCH  25  26
ATOM     26  N   UNL A   1      33.760  29.830  27.511  1.00  0.00    -0.352 N 
ATOM     27  C   UNL A   1      34.687  30.572  28.208  1.00  0.00     0.251 C 
ATOM     28  H   UNL A   1      32.897  30.276  27.353  1.00  0.00     0.163 HD
ATOM     29  O   UNL A   1      34.377  31.662  28.669  1.00  0.00    -0.269 OA
BRANCH  27  30
ATOM     30  C   UNL A   1      36.046  30.027  28.428  1.00  0.00     0.039 A 
ATOM     31  C   UNL A   1      36.979  30.114  27.392  1.00  0.00     0.014 A 
ATOM     32  C   UNL A   1      36.405  29.459  29.653  1.00  0.00     0.014 A 
ATOM     33  C   UNL A   1      38.296  29.702  27.611  1.00  0.00     0.010 A 
ATOM     34  C   UNL A   1      37.733  29.115  29.891  1.00  0.00     0.010 A 
ATOM     35  C   UNL A   1      38.693  29.236  28.875  1.00  0.00    -0.014 A 
BRANCH  35  36
ATOM     36  C   UNL A   1      40.109  28.885  29.157  1.00  0.00     0.031 A 
ATOM     37  C   UNL A   1      41.040  29.909  29.746  1.00  0.00     0.074 A 
ATOM     38  C   UNL A   1      40.575  27.666  28.818  1.00  0.00     0.049 A 
ATOM     39  N   UNL A   1      42.320  29.810  30.000  1.00  0.00    -0.248 NA
ATOM     40  C   UNL A   1      40.464  31.224  30.070  1.00  0.00     0.031 C 
ATOM     41  C   UNL A   1      39.785  26.599  28.197  1.00  0.00     0.029 A 
ATOM     42  N   UNL A   1      41.829  27.121  28.937  1.00  0.00    -0.354 N 
ATOM     43  C   UNL A   1      42.704  31.050  30.497  1.00  0.00     0.074 A 
ATOM     44  C   UNL A   1      41.534  31.900  30.460  1.00  0.00     0.031 C 
ATOM     45  C   UNL A   1      40.566  25.523  28.012  1.00  0.00     0.029 A 
ATOM     46  C   UNL A   1      41.920  25.833  28.462  1.00  0.00     0.049 A 
ATOM     47  H   UNL A   1      42.592  27.607  29.326  1.00  0.00     0.167 HD
ATOM     48  C   UNL A   1      43.916  31.441  30.961  1.00  0.00     0.031 A 
ATOM     49  C   UNL A   1      42.974  24.998  28.389  1.00  0.00     0.031 A 
ATOM     50  C   UNL A   1      45.076  30.592  31.003  1.00  0.00     0.049 A 
ATOM     51  C   UNL A   1      44.311  25.454  28.907  1.00  0.00     0.074 A 
ATOM     52  C   UNL A   1      46.335  30.879  31.500  1.00  0.00     0.029 A 
ATOM     53  N   UNL A   1      45.122  29.289  30.529  1.00  0.00    -0.354 N 
ATOM     54  N   UNL A   1      44.639  26.611  29.430  1.00  0.00    -0.248 NA
ATOM     55  C   UNL A   1      45.415  24.489  28.835  1.00  0.00     0.031 C 
ATOM     56  C   UNL A   1      47.154  29.766  31.285  1.00  0.00     0.029 A 
ATOM     57  C   UNL A   1      46.392  28.765  30.705  1.00  0.00     0.049 A 
ATOM     58  H   UNL A   1      44.363  28.806  30.128  1.00  0.00     0.167 HD
ATOM     59  C   UNL A   1      45.981  26.504  29.773  1.00  0.00     0.074 A 
ATOM     60  C   UNL A   1      46.400  25.165  29.412  1.00  0.00     0.031 C 
ATOM     61  C   UNL A   1      46.794  27.431  30.339  1.00  0.00     0.031 A 
BRANCH  48  62
ATOM     62  C   UNL A   1      44.042  32.858  31.458  1.00  0.00    -0.014 A 
ATOM     63  C   UNL A   1      43.777  33.180  32.801  1.00  0.00     0.010 A 
ATOM     64  C   UNL A   1      44.457  33.875  30.579  1.00  0.00     0.010 A 
ATOM     65  C   UNL A   1      43.875  34.502  33.245  1.00  0.00     0.020 A 
ATOM     66  C   UNL A   1      44.587  35.193  31.027  1.00  0.00     0.020 A 
ATOM     67  C   UNL A   1      44.275  35.501  32.352  1.00  0.00     0.054 A 
BRANCH  67  68
ATOM     68  S   UNL A   1      44.406  37.205  32.959  1.00  0.00     0.124 S 
ATOM     69  O   UNL A   1      44.069  37.975  31.763  1.00  0.00    -0.237 OA
ATOM     70  O   UNL A   1      43.413  37.242  34.029  1.00  0.00    -0.237 OA
ATOM     71  O   UNL A   1      45.794  37.312  33.397  1.00  0.00    -0.744 OA
ENDBRANCH  67  68
ENDBRANCH  48  62
BRANCH  49  72
ATOM     72  C   UNL A   1      42.800  23.636  27.815  1.00  0.00    -0.014 A 
ATOM     73  C   UNL A   1      42.441  22.553  28.638  1.00  0.00     0.010 A 
ATOM     74  C   UNL A   1      42.972  23.418  26.436  1.00  0.00     0.010 A 
ATOM     75  C   UNL A   1      42.273  21.276  28.095  1.00  0.00     0.020 A 
ATOM     76  C   UNL A   1      42.777  22.148  25.885  1.00  0.00     0.020 A 
ATOM     77  C   UNL A   1      42.438  21.082  26.720  1.00  0.00     0.054 A 
BRANCH  77  78
ATOM     78  S   UNL A   1      42.154  19.428  26.030  1.00  0.00     0.124 S 
ATOM     79  O   UNL A   1      42.972  19.460  24.822  1.00  0.00    -0.237 OA
ATOM     80  O   UNL A   1      42.633  18.554  27.097  1.00  0.00    -0.237 OA
ATOM     81  O   UNL A   1      40.710  19.396  25.809  1.00  0.00    -0.744 OA
ENDBRANCH  77  78
ENDBRANCH  49  72
BRANCH  61  82
ATOM     82  C   UNL A   1      48.213  27.021  30.632  1.00  0.00    -0.014 A 
ATOM     83  C   UNL A   1      49.263  27.349  29.757  1.00  0.00     0.010 A 
ATOM     84  C   UNL A   1      48.505  26.349  31.833  1.00  0.00     0.010 A 
ATOM     85  C   UNL A   1      50.576  26.983  30.062  1.00  0.00     0.020 A 
ATOM     86  C   UNL A   1      49.820  26.005  32.155  1.00  0.00     0.020 A 
ATOM     87  C   UNL A   1      50.847  26.313  31.260  1.00  0.00     0.054 A 
BRANCH  87  88
ATOM     88  S   UNL A   1      52.566  25.891  31.656  1.00  0.00     0.124 S 
ATOM     89  O   UNL A   1      52.429  24.545  32.205  1.00  0.00    -0.237 OA
ATOM     90  O   UNL A   1      53.225  25.975  30.356  1.00  0.00    -0.237 OA
ATOM     91  O   UNL A   1      52.961  26.918  32.617  1.00  0.00    -0.744 OA
ENDBRANCH  87  88
ENDBRANCH  61  82
ENDBRANCH  35  36
ENDBRANCH  27  30
ENDBRANCH  25  26
ENDBRANCH  24  25
ENDBRANCH   1  24
TORSDOF 18
ENDMDL
MODEL 3
REMARK VINA RESULT:     -10.7      1.369      2.661
REMARK SMILES C[C@H](NC(=O)NCCc1ccccc1F)C(=O)NCCCCNC(=O)c1ccc(-c2c3nc(c(-c4ccc(S(=O)(=O)[O-])cc4)c4ccc([nH]4)c(-c4ccc(S(=O)(=O)[O-])cc4)c4nc(c(-c5ccc(S(=O)(=O)[O-])cc5)c5ccc2[nH]5)C=C4)C=C3)cc1
REMARK SMILES IDX 20 1 19 2 18 3 16 4 17 5 2 7 1 8 3 9 4 10 5 12 6 13 7 15
REMARK SMILES IDX 8 16 9 17 10 18 14 19 11 20 13 21 15 22 12 23 21 24 22 25
REMARK SMILES IDX 23 26 24 27 25 29 26 30 27 31 85 32 28 33 84 34 29 35 30 36
REMARK SMILES IDX 31 37 78 38 32 39 83 40 77 41 79 42 33 43 82 44 76 45 75 46
REMARK SMILES IDX 34 48 64 49 45 50 63 51 46 52 49 53 62 54 80 55 47 56 48 57
REMARK SMILES IDX 61 59 81 60 50 61 35 62 36 63 44 64 37 65 43 66 38 67 39 68
REMARK SMILES IDX 40 69 41 70 42 71 65 72 66 73 74 74 67 75 73 76 68 77 69 78
REMARK SMILES IDX 70 79 71 80 72 81 51 82 52 83 60 84 53 85 59 86 54 87 55 88
REMARK SMILES IDX 56 89 57 90 58 91
REMARK H PARENT 18 6 3 11 6 14 23 28 79 47 49 58
REMARK Flexibility Score: inf
ROOT
ATOM      1  C   UNL A   1      33.789  27.486  24.598  1.00  0.00     0.023 C 
ENDROOT
BRANCH   1   2
ATOM      2  C   UNL A   1      33.932  25.996  24.888  1.00  0.00     0.116 C 
BRANCH   2   3
ATOM      3  N   UNL A   1      34.104  25.195  23.692  1.00  0.00    -0.354 N 
ATOM      4  C   UNL A   1      34.418  23.873  23.560  1.00  0.00     0.242 C 
ATOM      5  O   UNL A   1      34.213  23.352  22.459  1.00  0.00    -0.273 OA
ATOM      6  H   UNL A   1      33.974  25.679  22.845  1.00  0.00     0.163 HD
BRANCH   4   7
ATOM      7  C   UNL A   1      34.905  23.021  24.753  1.00  0.00     0.170 C 
ATOM      8  C   UNL A   1      36.395  23.241  25.012  1.00  0.00     0.041 C 
BRANCH   7   9
ATOM      9  N   UNL A   1      34.590  21.604  24.588  1.00  0.00    -0.327 N 
ATOM     10  C   UNL A   1      33.784  20.760  25.246  1.00  0.00     0.315 C 
ATOM     11  H   UNL A   1      35.067  21.182  23.837  1.00  0.00     0.166 HD
ATOM     12  O   UNL A   1      33.808  19.572  24.915  1.00  0.00    -0.249 OA
ATOM     13  N   UNL A   1      32.970  21.124  26.245  1.00  0.00    -0.338 N 
ATOM     14  H   UNL A   1      32.495  20.367  26.659  1.00  0.00     0.165 HD
BRANCH  13  15
ATOM     15  C   UNL A   1      32.646  22.407  26.844  1.00  0.00     0.122 C 
BRANCH  15  16
ATOM     16  C   UNL A   1      31.183  22.820  26.660  1.00  0.00     0.060 C 
BRANCH  16  17
ATOM     17  C   UNL A   1      30.865  23.859  25.613  1.00  0.00    -0.010 A 
ATOM     18  C   UNL A   1      30.348  25.100  26.022  1.00  0.00     0.007 A 
ATOM     19  C   UNL A   1      30.965  23.610  24.242  1.00  0.00     0.126 A 
ATOM     20  C   UNL A   1      29.969  26.063  25.084  1.00  0.00     0.000 A 
ATOM     21  C   UNL A   1      30.594  24.569  23.301  1.00  0.00     0.039 A 
ATOM     22  F   UNL A   1      31.396  22.423  23.795  1.00  0.00    -0.207 F 
ATOM     23  C   UNL A   1      30.095  25.799  23.721  1.00  0.00     0.003 A 
ENDBRANCH  16  17
ENDBRANCH  15  16
ENDBRANCH  13  15
ENDBRANCH   7   9
ENDBRANCH   4   7
ENDBRANCH   2   3
ENDBRANCH   1   2
BRANCH   1  24
ATOM     24  C   UNL A   1      32.956  28.280  25.605  1.00  0.00     0.023 C 
BRANCH  24  25
ATOM     25  C   UNL A   1      33.606  28.528  26.962  1.00  0.00     0.116 C 
BRANCH  25  26
ATOM     26  N   UNL A   1      33.512  29.910  27.404  1.00  0.00    -0.352 N 
ATOM     27  C   UNL A   1      34.443  30.681  28.061  1.00  0.00     0.251 C 
ATOM     28  H   UNL A   1      32.659  30.359  27.204  1.00  0.00     0.163 HD
ATOM     29  O   UNL A   1      34.148  31.806  28.442  1.00  0.00    -0.269 OA
BRANCH  27  30
ATOM     30  C   UNL A   1      35.789  30.129  28.335  1.00  0.00     0.039 A 
ATOM     31  C   UNL A   1      36.754  30.182  27.326  1.00  0.00     0.014 A 
ATOM     32  C   UNL A   1      36.105  29.588  29.584  1.00  0.00     0.014 A 
ATOM     33  C   UNL A   1      38.059  29.763  27.596  1.00  0.00     0.010 A 
ATOM     34  C   UNL A   1      37.422  29.237  29.871  1.00  0.00     0.010 A 
ATOM     35  C   UNL A   1      38.413  29.324  28.882  1.00  0.00    -0.014 A 
BRANCH  35  36
ATOM     36  C   UNL A   1      39.816  28.967  29.215  1.00  0.00     0.031 A 
ATOM     37  C   UNL A   1      40.727  29.983  29.847  1.00  0.00     0.074 A 
ATOM     38  C   UNL A   1      40.291  27.749  28.886  1.00  0.00     0.049 A 
ATOM     39  N   UNL A   1      41.996  29.879  30.149  1.00  0.00    -0.248 NA
ATOM     40  C   UNL A   1      40.143  31.298  30.158  1.00  0.00     0.031 C 
ATOM     41  C   UNL A   1      39.523  26.689  28.228  1.00  0.00     0.029 A 
ATOM     42  N   UNL A   1      41.538  27.199  29.050  1.00  0.00    -0.354 N 
ATOM     43  C   UNL A   1      42.365  31.114  30.669  1.00  0.00     0.074 A 
ATOM     44  C   UNL A   1      41.199  31.968  30.593  1.00  0.00     0.031 C 
ATOM     45  C   UNL A   1      40.307  25.611  28.065  1.00  0.00     0.029 A 
ATOM     46  C   UNL A   1      41.643  25.914  28.569  1.00  0.00     0.049 A 
ATOM     47  H   UNL A   1      42.287  27.679  29.470  1.00  0.00     0.167 HD
ATOM     48  C   UNL A   1      43.559  31.498  31.181  1.00  0.00     0.031 A 
ATOM     49  C   UNL A   1      42.697  25.076  28.531  1.00  0.00     0.031 A 
ATOM     50  C   UNL A   1      44.714  30.645  31.262  1.00  0.00     0.049 A 
ATOM     51  C   UNL A   1      44.014  25.524  29.103  1.00  0.00     0.074 A 
ATOM     52  C   UNL A   1      45.954  30.924  31.809  1.00  0.00     0.029 A 
ATOM     53  N   UNL A   1      44.774  29.345  30.781  1.00  0.00    -0.354 N 
ATOM     54  N   UNL A   1      44.325  26.676  29.646  1.00  0.00    -0.248 NA
ATOM     55  C   UNL A   1      45.118  24.555  29.067  1.00  0.00     0.031 C 
ATOM     56  C   UNL A   1      46.778  29.810  31.618  1.00  0.00     0.029 A 
ATOM     57  C   UNL A   1      46.035  28.816  31.002  1.00  0.00     0.049 A 
ATOM     58  H   UNL A   1      44.029  28.867  30.348  1.00  0.00     0.167 HD
ATOM     59  C   UNL A   1      45.653  26.563  30.039  1.00  0.00     0.074 A 
ATOM     60  C   UNL A   1      46.081  25.224  29.685  1.00  0.00     0.031 C 
ATOM     61  C   UNL A   1      46.446  27.483  30.642  1.00  0.00     0.031 A 
BRANCH  48  62
ATOM     62  C   UNL A   1      43.670  32.911  31.692  1.00  0.00    -0.014 A 
ATOM     63  C   UNL A   1      43.402  33.217  33.039  1.00  0.00     0.010 A 
ATOM     64  C   UNL A   1      44.074  33.941  30.824  1.00  0.00     0.010 A 
ATOM     65  C   UNL A   1      43.487  34.535  33.497  1.00  0.00     0.020 A 
ATOM     66  C   UNL A   1      44.189  35.256  31.285  1.00  0.00     0.020 A 
ATOM     67  C   UNL A   1      43.875  35.547  32.614  1.00  0.00     0.054 A 
BRANCH  67  68
ATOM     68  S   UNL A   1      43.988  37.247  33.237  1.00  0.00     0.124 S 
ATOM     69  O   UNL A   1      45.259  37.218  33.957  1.00  0.00    -0.237 OA
ATOM     70  O   UNL A   1      43.978  38.040  32.011  1.00  0.00    -0.237 OA
ATOM     71  O   UNL A   1      42.802  37.388  34.077  1.00  0.00    -0.744 OA
ENDBRANCH  67  68
ENDBRANCH  48  62
BRANCH  49  72
ATOM     72  C   UNL A   1      42.541  23.718  27.941  1.00  0.00    -0.014 A 
ATOM     73  C   UNL A   1      42.138  22.633  28.740  1.00  0.00     0.010 A 
ATOM     74  C   UNL A   1      42.775  23.507  26.570  1.00  0.00     0.010 A 
ATOM     75  C   UNL A   1      41.987  21.360  28.183  1.00  0.00     0.020 A 
ATOM     76  C   UNL A   1      42.597  22.242  26.003  1.00  0.00     0.020 A 
ATOM     77  C   UNL A   1      42.214  21.173  26.816  1.00  0.00     0.054 A 
BRANCH  77  78
ATOM     78  S   UNL A   1      41.952  19.524  26.103  1.00  0.00     0.124 S 
ATOM     79  O   UNL A   1      42.738  19.597  24.876  1.00  0.00    -0.237 OA
ATOM     80  O   UNL A   1      42.477  18.644  27.142  1.00  0.00    -0.237 OA
ATOM     81  O   UNL A   1      40.504  19.462  25.917  1.00  0.00    -0.744 OA
ENDBRANCH  77  78
ENDBRANCH  49  72
BRANCH  61  82
ATOM     82  C   UNL A   1      47.852  27.067  30.987  1.00  0.00    -0.014 A 
ATOM     83  C   UNL A   1      48.168  26.543  32.252  1.00  0.00     0.010 A 
ATOM     84  C   UNL A   1      48.858  27.149  30.006  1.00  0.00     0.010 A 
ATOM     85  C   UNL A   1      49.474  26.137  32.541  1.00  0.00     0.020 A 
ATOM     86  C   UNL A   1      50.158  26.719  30.283  1.00  0.00     0.020 A 
ATOM     87  C   UNL A   1      50.461  26.227  31.554  1.00  0.00     0.054 A 
BRANCH  87  88
ATOM     88  S   UNL A   1      52.137  25.650  31.939  1.00  0.00     0.124 S 
ATOM     89  O   UNL A   1      52.464  26.436  33.126  1.00  0.00    -0.237 OA
ATOM     90  O   UNL A   1      51.940  24.221  32.167  1.00  0.00    -0.237 OA
ATOM     91  O   UNL A   1      52.902  25.985  30.740  1.00  0.00    -0.744 OA
ENDBRANCH  87  88
ENDBRANCH  61  82
ENDBRANCH  35  36
ENDBRANCH  27  30
ENDBRANCH  25  26
ENDBRANCH  24  25
ENDBRANCH   1  24
TORSDOF 18
ENDMDL
