MODEL 1
REMARK VINA RESULT:     -11.3      0.000      0.000
REMARK SMILES O=C(CCC1CC[NH+]([C@H]2CCO[C@@]3(CCSC3)C2)CC1)NCCCCNC(=O)c1ccc(-c2c3nc(c(-c4ccc(S(=O)(=O)[O-])cc4)c4ccc([nH]4)c(-c4ccc(S(=O)(=O)[O-])cc4)c4nc(c(-c5ccc(S(=O)(=O)[O-])cc5)c5ccc2[nH]5)C=C4)C=C3)cc1
REMARK SMILES IDX 23 1 22 2 21 3 1 4 2 5 3 7 4 8 5 9 6 10 20 11 7 12 19 13
REMARK SMILES IDX 8 14 9 16 10 17 18 18 11 19 13 20 12 21 14 22 17 23 15 24
REMARK SMILES IDX 16 25 24 26 25 27 26 28 27 29 28 31 29 32 30 33 88 34 31 35
REMARK SMILES IDX 87 36 32 37 33 38 34 39 81 40 35 41 86 42 80 43 82 44 36 45
REMARK SMILES IDX 85 46 79 47 78 48 37 50 67 51 48 52 66 53 49 54 52 55 65 56
REMARK SMILES IDX 83 57 50 58 51 59 64 61 84 62 53 63 38 64 39 65 47 66 40 67
REMARK SMILES IDX 46 68 41 69 42 70 43 71 44 72 45 73 68 74 69 75 77 76 70 77
REMARK SMILES IDX 76 78 71 79 72 80 73 81 74 82 75 83 54 84 55 85 63 86 56 87
REMARK SMILES IDX 62 88 57 89 58 90 59 91 60 92 61 93
REMARK H PARENT 21 6 8 15 26 30 82 49 52 60
REMARK Flexibility Score: inf
ROOT
ATOM      1  C   UNL A   1      40.039  21.635  26.520  1.00  0.00     0.023 C 
ENDROOT
BRANCH   1   2
ATOM      2  C   UNL A   1      38.908  22.576  26.101  1.00  0.00     0.116 C 
BRANCH   2   3
ATOM      3  N   UNL A   1      37.586  21.976  26.150  1.00  0.00    -0.356 N 
ATOM      4  O   UNL A   1      37.400  21.831  23.871  1.00  0.00    -0.275 OA
ATOM      5  C   UNL A   1      36.966  21.566  24.989  1.00  0.00     0.220 C 
ATOM      6  H   UNL A   1      37.131  21.861  27.016  1.00  0.00     0.163 HD
BRANCH   5   7
ATOM      7  C   UNL A   1      35.738  20.689  25.170  1.00  0.00     0.100 C 
BRANCH   7   8
ATOM      8  C   UNL A   1      34.469  21.531  24.964  1.00  0.00     0.014 C 
BRANCH   8   9
ATOM      9  C   UNL A   1      34.665  23.038  24.681  1.00  0.00     0.000 C 
ATOM     10  C   UNL A   1      34.167  23.992  25.770  1.00  0.00     0.065 C 
ATOM     11  C   UNL A   1      34.085  23.411  23.296  1.00  0.00     0.065 C 
ATOM     12  C   UNL A   1      32.689  24.342  25.658  1.00  0.00     0.262 C 
ATOM     13  C   UNL A   1      32.606  23.812  23.318  1.00  0.00     0.262 C 
ATOM     14  N   UNL A   1      32.260  24.794  24.338  1.00  0.00    -0.332 N 
ATOM     15  H   UNL A   1      31.241  24.811  24.303  1.00  0.00     0.348 HD
BRANCH  14  16
ATOM     16  C   UNL A   1      32.484  26.227  24.068  1.00  0.00     0.189 C 
ATOM     17  C   UNL A   1      31.984  26.806  22.740  1.00  0.00     0.093 C 
ATOM     18  C   UNL A   1      31.965  27.148  25.203  1.00  0.00     0.101 C 
ATOM     19  C   UNL A   1      32.482  28.233  22.586  1.00  0.00     0.167 C 
ATOM     20  C   UNL A   1      32.390  28.625  24.958  1.00  0.00     0.084 C 
ATOM     21  O   UNL A   1      31.979  29.036  23.643  1.00  0.00    -0.374 OA
ATOM     22  C   UNL A   1      31.744  29.625  25.929  1.00  0.00     0.047 C 
ATOM     23  C   UNL A   1      33.887  28.847  25.160  1.00  0.00     0.105 C 
ATOM     24  C   UNL A   1      32.491  29.657  27.257  1.00  0.00     0.072 C 
ATOM     25  S   UNL A   1      34.109  28.916  26.952  1.00  0.00    -0.159 SA
ENDBRANCH  14  16
ENDBRANCH   8   9
ENDBRANCH   7   8
ENDBRANCH   5   7
ENDBRANCH   2   3
ENDBRANCH   1   2
BRANCH   1  26
ATOM     26  C   UNL A   1      40.750  21.970  27.839  1.00  0.00     0.023 C 
BRANCH  26  27
ATOM     27  C   UNL A   1      42.170  22.540  27.730  1.00  0.00     0.116 C 
BRANCH  27  28
ATOM     28  N   UNL A   1      42.389  23.319  26.520  1.00  0.00    -0.352 N 
ATOM     29  C   UNL A   1      42.284  24.667  26.251  1.00  0.00     0.251 C 
ATOM     30  H   UNL A   1      42.664  22.779  25.744  1.00  0.00     0.163 HD
ATOM     31  O   UNL A   1      42.424  25.032  25.083  1.00  0.00    -0.269 OA
BRANCH  29  32
ATOM     32  C   UNL A   1      41.995  25.693  27.292  1.00  0.00     0.039 A 
ATOM     33  C   UNL A   1      40.817  25.580  28.053  1.00  0.00     0.014 A 
ATOM     34  C   UNL A   1      42.798  26.810  27.485  1.00  0.00     0.014 A 
ATOM     35  C   UNL A   1      40.487  26.532  29.041  1.00  0.00     0.010 A 
ATOM     36  C   UNL A   1      42.485  27.718  28.501  1.00  0.00     0.010 A 
ATOM     37  C   UNL A   1      41.342  27.608  29.296  1.00  0.00    -0.014 A 
BRANCH  37  38
ATOM     38  C   UNL A   1      41.168  28.584  30.418  1.00  0.00     0.031 A 
ATOM     39  C   UNL A   1      41.970  28.484  31.701  1.00  0.00     0.074 A 
ATOM     40  C   UNL A   1      40.129  29.442  30.378  1.00  0.00     0.049 A 
ATOM     41  N   UNL A   1      41.828  29.149  32.825  1.00  0.00    -0.248 NA
ATOM     42  C   UNL A   1      43.030  27.469  31.743  1.00  0.00     0.031 C 
ATOM     43  C   UNL A   1      39.182  29.570  29.270  1.00  0.00     0.029 A 
ATOM     44  N   UNL A   1      39.675  30.350  31.307  1.00  0.00    -0.354 N 
ATOM     45  C   UNL A   1      42.738  28.592  33.723  1.00  0.00     0.074 A 
ATOM     46  C   UNL A   1      43.403  27.519  33.016  1.00  0.00     0.031 C 
ATOM     47  C   UNL A   1      38.283  30.521  29.568  1.00  0.00     0.029 A 
ATOM     48  C   UNL A   1      38.570  31.054  30.896  1.00  0.00     0.049 A 
ATOM     49  H   UNL A   1      40.104  30.482  32.184  1.00  0.00     0.167 HD
ATOM     50  C   UNL A   1      43.002  28.943  35.010  1.00  0.00     0.031 A 
ATOM     51  C   UNL A   1      37.867  32.031  31.504  1.00  0.00     0.031 A 
ATOM     52  C   UNL A   1      42.391  30.063  35.688  1.00  0.00     0.049 A 
ATOM     53  C   UNL A   1      38.278  32.515  32.867  1.00  0.00     0.074 A 
ATOM     54  C   UNL A   1      42.712  30.597  36.927  1.00  0.00     0.029 A 
ATOM     55  N   UNL A   1      41.352  30.829  35.187  1.00  0.00    -0.354 N 
ATOM     56  N   UNL A   1      39.217  32.052  33.656  1.00  0.00    -0.248 NA
ATOM     57  C   UNL A   1      37.549  33.671  33.408  1.00  0.00     0.031 C 
ATOM     58  C   UNL A   1      41.838  31.657  37.192  1.00  0.00     0.029 A 
ATOM     59  C   UNL A   1      41.013  31.823  36.092  1.00  0.00     0.049 A 
ATOM     60  H   UNL A   1      40.915  30.687  34.315  1.00  0.00     0.167 HD
ATOM     61  C   UNL A   1      39.214  32.883  34.773  1.00  0.00     0.074 A 
ATOM     62  C   UNL A   1      38.190  33.882  34.550  1.00  0.00     0.031 C 
ATOM     63  C   UNL A   1      39.995  32.821  35.878  1.00  0.00     0.031 A 
BRANCH  50  64
ATOM     64  C   UNL A   1      44.020  28.133  35.788  1.00  0.00    -0.014 A 
ATOM     65  C   UNL A   1      45.385  28.471  35.785  1.00  0.00     0.010 A 
ATOM     66  C   UNL A   1      43.589  27.079  36.620  1.00  0.00     0.010 A 
ATOM     67  C   UNL A   1      46.302  27.746  36.554  1.00  0.00     0.020 A 
ATOM     68  C   UNL A   1      44.498  26.376  37.421  1.00  0.00     0.020 A 
ATOM     69  C   UNL A   1      45.853  26.701  37.367  1.00  0.00     0.054 A 
BRANCH  69  70
ATOM     70  S   UNL A   1      47.061  25.811  38.388  1.00  0.00     0.124 S 
ATOM     71  O   UNL A   1      46.196  25.097  39.323  1.00  0.00    -0.237 OA
ATOM     72  O   UNL A   1      47.755  24.976  37.412  1.00  0.00    -0.237 OA
ATOM     73  O   UNL A   1      47.870  26.876  38.978  1.00  0.00    -0.744 OA
ENDBRANCH  69  70
ENDBRANCH  50  64
BRANCH  51  74
ATOM     74  C   UNL A   1      36.751  32.688  30.774  1.00  0.00    -0.014 A 
ATOM     75  C   UNL A   1      35.422  32.347  31.084  1.00  0.00     0.010 A 
ATOM     76  C   UNL A   1      37.000  33.675  29.805  1.00  0.00     0.010 A 
ATOM     77  C   UNL A   1      34.360  32.971  30.427  1.00  0.00     0.020 A 
ATOM     78  C   UNL A   1      35.937  34.322  29.166  1.00  0.00     0.020 A 
ATOM     79  C   UNL A   1      34.625  33.959  29.476  1.00  0.00     0.054 A 
BRANCH  79  80
ATOM     80  S   UNL A   1      33.225  34.802  28.688  1.00  0.00     0.124 S 
ATOM     81  O   UNL A   1      32.395  35.151  29.835  1.00  0.00    -0.237 OA
ATOM     82  O   UNL A   1      33.874  35.921  28.011  1.00  0.00    -0.237 OA
ATOM     83  O   UNL A   1      32.671  33.782  27.798  1.00  0.00    -0.744 OA
ENDBRANCH  79  80
ENDBRANCH  51  74
BRANCH  63  84
ATOM     84  C   UNL A   1      39.810  33.887  36.928  1.00  0.00    -0.014 A 
ATOM     85  C   UNL A   1      39.007  33.670  38.063  1.00  0.00     0.010 A 
ATOM     86  C   UNL A   1      40.485  35.115  36.796  1.00  0.00     0.010 A 
ATOM     87  C   UNL A   1      38.854  34.674  39.025  1.00  0.00     0.020 A 
ATOM     88  C   UNL A   1      40.357  36.110  37.769  1.00  0.00     0.020 A 
ATOM     89  C   UNL A   1      39.530  35.888  38.871  1.00  0.00     0.054 A 
BRANCH  89  90
ATOM     90  S   UNL A   1      39.340  37.161  40.151  1.00  0.00     0.124 S 
ATOM     91  O   UNL A   1      38.612  36.440  41.192  1.00  0.00    -0.237 OA
ATOM     92  O   UNL A   1      40.725  37.499  40.473  1.00  0.00    -0.237 OA
ATOM     93  O   UNL A   1      38.587  38.218  39.482  1.00  0.00    -0.744 OA
ENDBRANCH  89  90
ENDBRANCH  63  84
ENDBRANCH  37  38
ENDBRANCH  29  32
ENDBRANCH  27  28
ENDBRANCH  26  27
ENDBRANCH   1  26
TORSDOF 17
ENDMDL
MODEL 2
REMARK VINA RESULT:     -11.2      1.955      2.675
REMARK SMILES O=C(CCC1CC[NH+]([C@H]2CCO[C@@]3(CCSC3)C2)CC1)NCCCCNC(=O)c1ccc(-c2c3nc(c(-c4ccc(S(=O)(=O)[O-])cc4)c4ccc([nH]4)c(-c4ccc(S(=O)(=O)[O-])cc4)c4nc(c(-c5ccc(S(=O)(=O)[O-])cc5)c5ccc2[nH]5)C=C4)C=C3)cc1
REMARK SMILES IDX 23 1 22 2 21 3 1 4 2 5 3 7 4 8 5 9 6 10 20 11 7 12 19 13
REMARK SMILES IDX 8 14 9 16 10 17 18 18 11 19 13 20 12 21 14 22 17 23 15 24
REMARK SMILES IDX 16 25 24 26 25 27 26 28 27 29 28 31 29 32 30 33 88 34 31 35
REMARK SMILES IDX 87 36 32 37 33 38 34 39 81 40 35 41 86 42 80 43 82 44 36 45
REMARK SMILES IDX 85 46 79 47 78 48 37 50 67 51 48 52 66 53 49 54 52 55 65 56
REMARK SMILES IDX 83 57 50 58 51 59 64 61 84 62 53 63 38 64 39 65 47 66 40 67
REMARK SMILES IDX 46 68 41 69 42 70 43 71 44 72 45 73 68 74 69 75 77 76 70 77
REMARK SMILES IDX 76 78 71 79 72 80 73 81 74 82 75 83 54 84 55 85 63 86 56 87
REMARK SMILES IDX 62 88 57 89 58 90 59 91 60 92 61 93
REMARK H PARENT 21 6 8 15 26 30 82 49 52 60
REMARK Flexibility Score: inf
ROOT
ATOM      1  C   UNL A   1      38.139  23.585  26.151  1.00  0.00     0.023 C 
ENDROOT
BRANCH   1   2
ATOM      2  C   UNL A   1      36.769  23.008  25.790  1.00  0.00     0.116 C 
BRANCH   2   3
ATOM      3  N   UNL A   1      36.098  23.702  24.704  1.00  0.00    -0.356 N 
ATOM      4  O   UNL A   1      34.034  22.867  25.242  1.00  0.00    -0.275 OA
ATOM      5  C   UNL A   1      34.728  23.632  24.576  1.00  0.00     0.220 C 
ATOM      6  H   UNL A   1      36.625  24.225  24.057  1.00  0.00     0.163 HD
BRANCH   5   7
ATOM      7  C   UNL A   1      34.103  24.621  23.608  1.00  0.00     0.100 C 
BRANCH   7   8
ATOM      8  C   UNL A   1      33.872  25.963  24.320  1.00  0.00     0.014 C 
BRANCH   8   9
ATOM      9  C   UNL A   1      32.409  26.449  24.445  1.00  0.00     0.000 C 
ATOM     10  C   UNL A   1      31.429  25.888  23.410  1.00  0.00     0.065 C 
ATOM     11  C   UNL A   1      32.352  27.994  24.496  1.00  0.00     0.065 C 
ATOM     12  C   UNL A   1      31.393  26.670  22.104  1.00  0.00     0.262 C 
ATOM     13  C   UNL A   1      32.248  28.669  23.124  1.00  0.00     0.262 C 
ATOM     14  N   UNL A   1      31.221  28.112  22.253  1.00  0.00    -0.332 N 
ATOM     15  H   UNL A   1      31.408  28.567  21.359  1.00  0.00     0.348 HD
BRANCH  14  16
ATOM     16  C   UNL A   1      29.823  28.559  22.404  1.00  0.00     0.189 C 
ATOM     17  C   UNL A   1      28.891  27.747  23.310  1.00  0.00     0.093 C 
ATOM     18  C   UNL A   1      29.702  30.047  22.825  1.00  0.00     0.101 C 
ATOM     19  C   UNL A   1      27.469  28.262  23.172  1.00  0.00     0.167 C 
ATOM     20  C   UNL A   1      28.218  30.515  22.789  1.00  0.00     0.084 C 
ATOM     21  O   UNL A   1      27.408  29.623  23.572  1.00  0.00    -0.374 OA
ATOM     22  C   UNL A   1      27.995  31.914  23.386  1.00  0.00     0.047 C 
ATOM     23  C   UNL A   1      27.678  30.644  21.367  1.00  0.00     0.105 C 
ATOM     24  C   UNL A   1      28.337  33.000  22.374  1.00  0.00     0.072 C 
ATOM     25  S   UNL A   1      28.350  32.205  20.753  1.00  0.00    -0.159 SA
ENDBRANCH  14  16
ENDBRANCH   8   9
ENDBRANCH   7   8
ENDBRANCH   5   7
ENDBRANCH   2   3
ENDBRANCH   1   2
BRANCH   1  26
ATOM     26  C   UNL A   1      39.202  22.577  26.610  1.00  0.00     0.023 C 
BRANCH  26  27
ATOM     27  C   UNL A   1      40.545  23.156  27.077  1.00  0.00     0.116 C 
BRANCH  27  28
ATOM     28  N   UNL A   1      41.207  23.966  26.065  1.00  0.00    -0.352 N 
ATOM     29  C   UNL A   1      41.617  25.282  26.051  1.00  0.00     0.251 C 
ATOM     30  H   UNL A   1      41.398  23.481  25.230  1.00  0.00     0.163 HD
ATOM     31  O   UNL A   1      42.057  25.735  24.994  1.00  0.00    -0.269 OA
BRANCH  29  32
ATOM     32  C   UNL A   1      41.538  26.180  27.237  1.00  0.00     0.039 A 
ATOM     33  C   UNL A   1      42.595  27.074  27.489  1.00  0.00     0.014 A 
ATOM     34  C   UNL A   1      40.502  26.110  28.160  1.00  0.00     0.014 A 
ATOM     35  C   UNL A   1      42.579  27.935  28.606  1.00  0.00     0.010 A 
ATOM     36  C   UNL A   1      40.474  27.005  29.235  1.00  0.00     0.010 A 
ATOM     37  C   UNL A   1      41.492  27.928  29.486  1.00  0.00    -0.014 A 
BRANCH  37  38
ATOM     38  C   UNL A   1      41.300  28.900  30.608  1.00  0.00     0.031 A 
ATOM     39  C   UNL A   1      42.109  28.819  31.887  1.00  0.00     0.074 A 
ATOM     40  C   UNL A   1      40.241  29.734  30.572  1.00  0.00     0.049 A 
ATOM     41  N   UNL A   1      41.956  29.480  33.012  1.00  0.00    -0.248 NA
ATOM     42  C   UNL A   1      43.192  27.828  31.925  1.00  0.00     0.031 C 
ATOM     43  C   UNL A   1      39.286  29.839  29.468  1.00  0.00     0.029 A 
ATOM     44  N   UNL A   1      39.770  30.630  31.503  1.00  0.00    -0.354 N 
ATOM     45  C   UNL A   1      42.882  28.945  33.907  1.00  0.00     0.074 A 
ATOM     46  C   UNL A   1      43.570  27.887  33.197  1.00  0.00     0.031 C 
ATOM     47  C   UNL A   1      38.367  30.769  29.769  1.00  0.00     0.029 A 
ATOM     48  C   UNL A   1      38.646  31.309  31.097  1.00  0.00     0.049 A 
ATOM     49  H   UNL A   1      40.199  30.773  32.378  1.00  0.00     0.167 HD
ATOM     50  C   UNL A   1      43.143  29.302  35.192  1.00  0.00     0.031 A 
ATOM     51  C   UNL A   1      37.923  32.269  31.707  1.00  0.00     0.031 A 
ATOM     52  C   UNL A   1      42.509  30.407  35.873  1.00  0.00     0.049 A 
ATOM     53  C   UNL A   1      38.328  32.762  33.068  1.00  0.00     0.074 A 
ATOM     54  C   UNL A   1      42.822  30.948  37.111  1.00  0.00     0.029 A 
ATOM     55  N   UNL A   1      41.450  31.148  35.376  1.00  0.00    -0.354 N 
ATOM     56  N   UNL A   1      39.281  32.321  33.854  1.00  0.00    -0.248 NA
ATOM     57  C   UNL A   1      37.575  33.901  33.613  1.00  0.00     0.031 C 
ATOM     58  C   UNL A   1      41.925  31.987  37.379  1.00  0.00     0.029 A 
ATOM     59  C   UNL A   1      41.092  32.134  36.283  1.00  0.00     0.049 A 
ATOM     60  H   UNL A   1      41.014  30.997  34.506  1.00  0.00     0.167 HD
ATOM     61  C   UNL A   1      39.263  33.152  34.971  1.00  0.00     0.074 A 
ATOM     62  C   UNL A   1      38.216  34.127  34.752  1.00  0.00     0.031 C 
ATOM     63  C   UNL A   1      40.050  33.108  36.073  1.00  0.00     0.031 A 
BRANCH  50  64
ATOM     64  C   UNL A   1      44.183  28.515  35.966  1.00  0.00    -0.014 A 
ATOM     65  C   UNL A   1      45.531  28.913  35.997  1.00  0.00     0.010 A 
ATOM     66  C   UNL A   1      43.785  27.421  36.761  1.00  0.00     0.010 A 
ATOM     67  C   UNL A   1      46.466  28.207  36.762  1.00  0.00     0.020 A 
ATOM     68  C   UNL A   1      44.710  26.736  37.559  1.00  0.00     0.020 A 
ATOM     69  C   UNL A   1      46.051  27.122  37.539  1.00  0.00     0.054 A 
BRANCH  69  70
ATOM     70  S   UNL A   1      47.279  26.258  38.557  1.00  0.00     0.124 S 
ATOM     71  O   UNL A   1      47.778  25.245  37.630  1.00  0.00    -0.237 OA
ATOM     72  O   UNL A   1      48.223  27.319  38.895  1.00  0.00    -0.237 OA
ATOM     73  O   UNL A   1      46.499  25.742  39.680  1.00  0.00    -0.744 OA
ENDBRANCH  69  70
ENDBRANCH  50  64
BRANCH  51  74
ATOM     74  C   UNL A   1      36.789  32.899  30.981  1.00  0.00    -0.014 A 
ATOM     75  C   UNL A   1      35.472  32.669  31.417  1.00  0.00     0.010 A 
ATOM     76  C   UNL A   1      37.014  33.756  29.890  1.00  0.00     0.010 A 
ATOM     77  C   UNL A   1      34.396  33.272  30.764  1.00  0.00     0.020 A 
ATOM     78  C   UNL A   1      35.939  34.384  29.252  1.00  0.00     0.020 A 
ATOM     79  C   UNL A   1      34.637  34.131  29.689  1.00  0.00     0.054 A 
BRANCH  79  80
ATOM     80  S   UNL A   1      33.225  34.956  28.903  1.00  0.00     0.124 S 
ATOM     81  O   UNL A   1      33.851  36.133  28.312  1.00  0.00    -0.237 OA
ATOM     82  O   UNL A   1      32.756  33.944  27.960  1.00  0.00    -0.237 OA
ATOM     83  O   UNL A   1      32.320  35.220  30.022  1.00  0.00    -0.744 OA
ENDBRANCH  79  80
ENDBRANCH  51  74
BRANCH  63  84
ATOM     84  C   UNL A   1      39.844  34.169  37.124  1.00  0.00    -0.014 A 
ATOM     85  C   UNL A   1      39.077  33.924  38.277  1.00  0.00     0.010 A 
ATOM     86  C   UNL A   1      40.464  35.425  36.973  1.00  0.00     0.010 A 
ATOM     87  C   UNL A   1      38.904  34.924  39.240  1.00  0.00     0.020 A 
ATOM     88  C   UNL A   1      40.317  36.417  37.945  1.00  0.00     0.020 A 
ATOM     89  C   UNL A   1      39.524  36.165  39.067  1.00  0.00     0.054 A 
BRANCH  89  90
ATOM     90  S   UNL A   1      39.311  37.434  40.347  1.00  0.00     0.124 S 
ATOM     91  O   UNL A   1      38.240  38.255  39.786  1.00  0.00    -0.237 OA
ATOM     92  O   UNL A   1      38.947  36.645  41.521  1.00  0.00    -0.237 OA
ATOM     93  O   UNL A   1      40.618  38.081  40.418  1.00  0.00    -0.744 OA
ENDBRANCH  89  90
ENDBRANCH  63  84
ENDBRANCH  37  38
ENDBRANCH  29  32
ENDBRANCH  27  28
ENDBRANCH  26  27
ENDBRANCH   1  26
TORSDOF 17
ENDMDL
MODEL 3
REMARK VINA RESULT:     -10.9      1.580      8.346
REMARK SMILES O=C(CCC1CC[NH+]([C@H]2CCO[C@@]3(CCSC3)C2)CC1)NCCCCNC(=O)c1ccc(-c2c3nc(c(-c4ccc(S(=O)(=O)[O-])cc4)c4ccc([nH]4)c(-c4ccc(S(=O)(=O)[O-])cc4)c4nc(c(-c5ccc(S(=O)(=O)[O-])cc5)c5ccc2[nH]5)C=C4)C=C3)cc1
REMARK SMILES IDX 23 1 22 2 21 3 1 4 2 5 3 7 4 8 5 9 6 10 20 11 7 12 19 13
REMARK SMILES IDX 8 14 9 16 10 17 18 18 11 19 13 20 12 21 14 22 17 23 15 24
REMARK SMILES IDX 16 25 24 26 25 27 26 28 27 29 28 31 29 32 30 33 88 34 31 35
REMARK SMILES IDX 87 36 32 37 33 38 34 39 81 40 35 41 86 42 80 43 82 44 36 45
REMARK SMILES IDX 85 46 79 47 78 48 37 50 67 51 48 52 66 53 49 54 52 55 65 56
REMARK SMILES IDX 83 57 50 58 51 59 64 61 84 62 53 63 38 64 39 65 47 66 40 67
REMARK SMILES IDX 46 68 41 69 42 70 43 71 44 72 45 73 68 74 69 75 77 76 70 77
REMARK SMILES IDX 76 78 71 79 72 80 73 81 74 82 75 83 54 84 55 85 63 86 56 87
REMARK SMILES IDX 62 88 57 89 58 90 59 91 60 92 61 93
REMARK H PARENT 21 6 8 15 26 30 82 49 52 60
REMARK Flexibility Score: inf
ROOT
ATOM      1  C   UNL A   1      42.341  21.654  26.668  1.00  0.00     0.023 C 
ENDROOT
BRANCH   1   2
ATOM      2  C   UNL A   1      41.003  22.105  27.257  1.00  0.00     0.116 C 
BRANCH   2   3
ATOM      3  N   UNL A   1      39.852  21.384  26.742  1.00  0.00    -0.356 N 
ATOM      4  O   UNL A   1      38.739  23.290  26.130  1.00  0.00    -0.275 OA
ATOM      5  C   UNL A   1      38.824  22.064  26.126  1.00  0.00     0.220 C 
ATOM      6  H   UNL A   1      39.807  20.404  26.833  1.00  0.00     0.163 HD
BRANCH   5   7
ATOM      7  C   UNL A   1      37.828  21.207  25.364  1.00  0.00     0.100 C 
BRANCH   7   8
ATOM      8  C   UNL A   1      37.337  21.970  24.123  1.00  0.00     0.014 C 
BRANCH   8   9
ATOM      9  C   UNL A   1      35.814  22.212  24.005  1.00  0.00     0.000 C 
ATOM     10  C   UNL A   1      35.364  23.675  24.068  1.00  0.00     0.065 C 
ATOM     11  C   UNL A   1      35.046  21.342  25.028  1.00  0.00     0.065 C 
ATOM     12  C   UNL A   1      35.162  24.201  25.482  1.00  0.00     0.262 C 
ATOM     13  C   UNL A   1      34.843  22.004  26.396  1.00  0.00     0.262 C 
ATOM     14  N   UNL A   1      34.327  23.365  26.339  1.00  0.00    -0.332 N 
ATOM     15  H   UNL A   1      34.412  23.683  27.304  1.00  0.00     0.348 HD
BRANCH  14  16
ATOM     16  C   UNL A   1      32.875  23.582  26.194  1.00  0.00     0.189 C 
ATOM     17  C   UNL A   1      31.938  22.990  27.252  1.00  0.00     0.093 C 
ATOM     18  C   UNL A   1      32.497  25.077  26.022  1.00  0.00     0.101 C 
ATOM     19  C   UNL A   1      30.495  23.164  26.812  1.00  0.00     0.167 C 
ATOM     20  C   UNL A   1      30.985  25.234  25.688  1.00  0.00     0.084 C 
ATOM     21  O   UNL A   1      30.197  24.545  26.673  1.00  0.00    -0.374 OA
ATOM     22  C   UNL A   1      30.495  26.690  25.703  1.00  0.00     0.047 C 
ATOM     23  C   UNL A   1      30.643  24.757  24.279  1.00  0.00     0.105 C 
ATOM     24  C   UNL A   1      30.831  27.393  24.394  1.00  0.00     0.072 C 
ATOM     25  S   UNL A   1      31.183  26.094  23.190  1.00  0.00    -0.159 SA
ENDBRANCH  14  16
ENDBRANCH   8   9
ENDBRANCH   7   8
ENDBRANCH   5   7
ENDBRANCH   2   3
ENDBRANCH   1   2
BRANCH   1  26
ATOM     26  C   UNL A   1      43.596  22.345  27.221  1.00  0.00     0.023 C 
BRANCH  26  27
ATOM     27  C   UNL A   1      43.591  23.879  27.225  1.00  0.00     0.116 C 
BRANCH  27  28
ATOM     28  N   UNL A   1      42.833  24.458  26.126  1.00  0.00    -0.352 N 
ATOM     29  C   UNL A   1      41.897  25.470  26.074  1.00  0.00     0.251 C 
ATOM     30  H   UNL A   1      43.024  24.048  25.252  1.00  0.00     0.163 HD
ATOM     31  O   UNL A   1      41.329  25.671  25.001  1.00  0.00    -0.269 OA
BRANCH  29  32
ATOM     32  C   UNL A   1      41.532  26.312  27.248  1.00  0.00     0.039 A 
ATOM     33  C   UNL A   1      40.507  25.877  28.107  1.00  0.00     0.014 A 
ATOM     34  C   UNL A   1      42.102  27.557  27.480  1.00  0.00     0.014 A 
ATOM     35  C   UNL A   1      40.110  26.643  29.224  1.00  0.00     0.010 A 
ATOM     36  C   UNL A   1      41.734  28.282  28.619  1.00  0.00     0.010 A 
ATOM     37  C   UNL A   1      40.746  27.854  29.509  1.00  0.00    -0.014 A 
BRANCH  37  38
ATOM     38  C   UNL A   1      40.513  28.667  30.745  1.00  0.00     0.031 A 
ATOM     39  C   UNL A   1      39.416  29.710  30.825  1.00  0.00     0.074 A 
ATOM     40  C   UNL A   1      41.430  28.625  31.733  1.00  0.00     0.049 A 
ATOM     41  N   UNL A   1      39.184  30.604  31.759  1.00  0.00    -0.248 NA
ATOM     42  C   UNL A   1      38.496  29.793  29.684  1.00  0.00     0.031 C 
ATOM     43  C   UNL A   1      42.617  27.770  31.748  1.00  0.00     0.029 A 
ATOM     44  N   UNL A   1      41.523  29.340  32.904  1.00  0.00    -0.354 N 
ATOM     45  C   UNL A   1      38.133  31.392  31.290  1.00  0.00     0.074 A 
ATOM     46  C   UNL A   1      37.796  30.882  29.978  1.00  0.00     0.031 C 
ATOM     47  C   UNL A   1      43.300  27.985  32.883  1.00  0.00     0.029 A 
ATOM     48  C   UNL A   1      42.617  29.010  33.667  1.00  0.00     0.049 A 
ATOM     49  H   UNL A   1      40.866  30.024  33.171  1.00  0.00     0.167 HD
ATOM     50  C   UNL A   1      37.503  32.434  31.894  1.00  0.00     0.031 A 
ATOM     51  C   UNL A   1      43.027  29.463  34.869  1.00  0.00     0.031 A 
ATOM     52  C   UNL A   1      37.791  32.892  33.233  1.00  0.00     0.049 A 
ATOM     53  C   UNL A   1      42.222  30.506  35.593  1.00  0.00     0.074 A 
ATOM     54  C   UNL A   1      37.100  33.826  33.991  1.00  0.00     0.029 A 
ATOM     55  N   UNL A   1      38.839  32.445  34.021  1.00  0.00    -0.354 N 
ATOM     56  N   UNL A   1      41.162  31.159  35.182  1.00  0.00    -0.248 NA
ATOM     57  C   UNL A   1      42.655  30.853  36.954  1.00  0.00     0.031 C 
ATOM     58  C   UNL A   1      37.755  33.974  35.217  1.00  0.00     0.029 A 
ATOM     59  C   UNL A   1      38.819  33.089  35.249  1.00  0.00     0.049 A 
ATOM     60  H   UNL A   1      39.503  31.771  33.748  1.00  0.00     0.167 HD
ATOM     61  C   UNL A   1      40.781  31.968  36.249  1.00  0.00     0.074 A 
ATOM     62  C   UNL A   1      41.716  31.713  37.324  1.00  0.00     0.031 C 
ATOM     63  C   UNL A   1      39.747  32.840  36.324  1.00  0.00     0.031 A 
BRANCH  50  64
ATOM     64  C   UNL A   1      36.407  33.156  31.135  1.00  0.00    -0.014 A 
ATOM     65  C   UNL A   1      35.103  33.261  31.651  1.00  0.00     0.010 A 
ATOM     66  C   UNL A   1      36.713  33.832  29.936  1.00  0.00     0.010 A 
ATOM     67  C   UNL A   1      34.119  33.979  30.964  1.00  0.00     0.020 A 
ATOM     68  C   UNL A   1      35.741  34.585  29.265  1.00  0.00     0.020 A 
ATOM     69  C   UNL A   1      34.443  34.637  29.774  1.00  0.00     0.054 A 
BRANCH  69  70
ATOM     70  S   UNL A   1      33.155  35.599  28.932  1.00  0.00     0.124 S 
ATOM     71  O   UNL A   1      32.348  36.069  30.054  1.00  0.00    -0.237 OA
ATOM     72  O   UNL A   1      33.923  36.629  28.237  1.00  0.00    -0.237 OA
ATOM     73  O   UNL A   1      32.503  34.621  28.062  1.00  0.00    -0.744 OA
ENDBRANCH  69  70
ENDBRANCH  50  64
BRANCH  51  74
ATOM     74  C   UNL A   1      44.221  28.851  35.509  1.00  0.00    -0.014 A 
ATOM     75  C   UNL A   1      45.482  29.451  35.346  1.00  0.00     0.010 A 
ATOM     76  C   UNL A   1      44.104  27.702  36.311  1.00  0.00     0.010 A 
ATOM     77  C   UNL A   1      46.610  28.906  35.960  1.00  0.00     0.020 A 
ATOM     78  C   UNL A   1      45.228  27.170  36.950  1.00  0.00     0.020 A 
ATOM     79  C   UNL A   1      46.475  27.772  36.764  1.00  0.00     0.054 A 
BRANCH  79  80
ATOM     80  S   UNL A   1      47.946  27.124  37.606  1.00  0.00     0.124 S 
ATOM     81  O   UNL A   1      48.726  26.595  36.493  1.00  0.00    -0.237 OA
ATOM     82  O   UNL A   1      48.488  28.317  38.251  1.00  0.00    -0.237 OA
ATOM     83  O   UNL A   1      47.400  26.124  38.522  1.00  0.00    -0.744 OA
ENDBRANCH  79  80
ENDBRANCH  51  74
BRANCH  63  84
ATOM     84  C   UNL A   1      39.534  33.563  37.630  1.00  0.00    -0.014 A 
ATOM     85  C   UNL A   1      40.092  34.833  37.868  1.00  0.00     0.010 A 
ATOM     86  C   UNL A   1      38.727  32.978  38.624  1.00  0.00     0.010 A 
ATOM     87  C   UNL A   1      39.877  35.485  39.086  1.00  0.00     0.020 A 
ATOM     88  C   UNL A   1      38.486  33.638  39.832  1.00  0.00     0.020 A 
ATOM     89  C   UNL A   1      39.076  34.883  40.062  1.00  0.00     0.054 A 
BRANCH  89  90
ATOM     90  S   UNL A   1      38.786  35.765  41.621  1.00  0.00     0.124 S 
ATOM     91  O   UNL A   1      37.436  35.328  41.971  1.00  0.00    -0.237 OA
ATOM     92  O   UNL A   1      39.852  35.256  42.479  1.00  0.00    -0.237 OA
ATOM     93  O   UNL A   1      38.908  37.173  41.252  1.00  0.00    -0.744 OA
ENDBRANCH  89  90
ENDBRANCH  63  84
ENDBRANCH  37  38
ENDBRANCH  29  32
ENDBRANCH  27  28
ENDBRANCH  26  27
ENDBRANCH   1  26
TORSDOF 17
ENDMDL
