MODEL 1
REMARK VINA RESULT:     -13.7      0.000      0.000
REMARK SMILES Cc1cccc(NS(=O)(=O)c2ccc(Br)c(C(=O)NCCCCNC(=O)c3ccc(-c4c5nc(c(-c6ccc(S(=O)(=O)[O-])cc6)c6ccc([nH]6)c(-c6ccc(S(=O)(=O)[O-])cc6)c6nc(c(-c7ccc(S(=O)(=O)[O-])cc7)c7ccc4[nH]7)C=C6)C=C5)cc3)c2)c1
REMARK SMILES IDX 21 1 20 2 19 3 17 4 18 5 16 7 11 8 12 9 87 10 13 11 14 12
REMARK SMILES IDX 15 13 8 14 9 15 10 16 7 17 6 19 1 20 2 21 3 22 88 23 4 24
REMARK SMILES IDX 5 25 22 26 23 27 24 28 25 29 26 31 27 32 28 33 86 34 29 35
REMARK SMILES IDX 85 36 30 37 31 38 32 39 79 40 33 41 84 42 78 43 80 44 34 45
REMARK SMILES IDX 83 46 77 47 76 48 35 50 65 51 46 52 64 53 47 54 50 55 63 56
REMARK SMILES IDX 81 57 48 58 49 59 62 61 82 62 51 63 36 64 37 65 45 66 38 67
REMARK SMILES IDX 44 68 39 69 40 70 41 71 42 72 43 73 66 74 67 75 75 76 68 77
REMARK SMILES IDX 74 78 69 79 70 80 71 81 72 82 73 83 52 84 53 85 61 86 54 87
REMARK SMILES IDX 60 88 55 89 56 90 57 91 58 92 59 93
REMARK H PARENT 19 6 7 18 24 30 80 49 50 60
REMARK Flexibility Score: inf
ROOT
ATOM      1  C   UNL A   1      32.122  29.778  27.040  1.00  0.00     0.023 C 
ENDROOT
BRANCH   1   2
ATOM      2  C   UNL A   1      32.285  28.778  25.898  1.00  0.00     0.116 C 
BRANCH   2   3
ATOM      3  N   UNL A   1      31.268  28.813  24.847  1.00  0.00    -0.352 N 
ATOM      4  C   UNL A   1      30.668  27.805  24.116  1.00  0.00     0.252 C 
ATOM      5  O   UNL A   1      29.749  28.100  23.350  1.00  0.00    -0.269 OA
ATOM      6  H   UNL A   1      30.955  29.718  24.620  1.00  0.00     0.163 HD
BRANCH   4   7
ATOM      7  C   UNL A   1      31.189  26.409  24.093  1.00  0.00     0.055 A 
ATOM      8  C   UNL A   1      30.975  24.149  24.971  1.00  0.00     0.088 A 
ATOM      9  C   UNL A   1      31.478  23.642  23.778  1.00  0.00     0.023 A 
ATOM     10  C   UNL A   1      30.727  25.525  25.084  1.00  0.00     0.037 A 
ATOM     11  C   UNL A   1      32.115  24.523  22.906  1.00  0.00     0.018 A 
ATOM     12  C   UNL A   1      32.083  25.898  23.157  1.00  0.00     0.030 A 
ATOM     13  Br  UNL A   1      33.533  26.928  22.465  1.00  0.00    -0.050 Br
BRANCH   8  14
ATOM     14  S   UNL A   1      30.751  23.100  26.384  1.00  0.00     0.261 S 
ATOM     15  O   UNL A   1      30.250  21.835  25.888  1.00  0.00    -0.201 OA
ATOM     16  O   UNL A   1      29.996  23.845  27.371  1.00  0.00    -0.201 OA
BRANCH  14  17
ATOM     17  N   UNL A   1      32.229  22.719  27.148  1.00  0.00    -0.280 N 
ATOM     18  H   UNL A   1      32.272  22.810  28.127  1.00  0.00     0.180 HD
BRANCH  17  19
ATOM     19  C   UNL A   1      33.414  22.278  26.472  1.00  0.00     0.049 A 
ATOM     20  C   UNL A   1      36.882  23.705  25.726  1.00  0.00     0.044 C 
ATOM     21  C   UNL A   1      35.708  22.770  25.787  1.00  0.00    -0.049 A 
ATOM     22  C   UNL A   1      35.793  21.501  25.208  1.00  0.00     0.003 A 
ATOM     23  C   UNL A   1      34.522  23.139  26.439  1.00  0.00     0.030 A 
ATOM     24  C   UNL A   1      34.672  20.673  25.171  1.00  0.00     0.002 A 
ATOM     25  C   UNL A   1      33.466  21.090  25.745  1.00  0.00     0.027 A 
ENDBRANCH  17  19
ENDBRANCH  14  17
ENDBRANCH   8  14
ENDBRANCH   4   7
ENDBRANCH   2   3
ENDBRANCH   1   2
BRANCH   1  26
ATOM     26  C   UNL A   1      33.224  30.811  27.196  1.00  0.00     0.023 C 
BRANCH  26  27
ATOM     27  C   UNL A   1      34.543  30.274  27.747  1.00  0.00     0.116 C 
BRANCH  27  28
ATOM     28  N   UNL A   1      35.353  31.266  28.448  1.00  0.00    -0.352 N 
ATOM     29  C   UNL A   1      36.615  31.102  29.023  1.00  0.00     0.251 C 
ATOM     30  H   UNL A   1      34.959  32.164  28.525  1.00  0.00     0.163 HD
ATOM     31  O   UNL A   1      37.161  31.946  29.684  1.00  0.00    -0.269 OA
BRANCH  29  32
ATOM     32  C   UNL A   1      37.337  29.856  28.673  1.00  0.00     0.039 A 
ATOM     33  C   UNL A   1      37.575  28.953  29.714  1.00  0.00     0.014 A 
ATOM     34  C   UNL A   1      38.043  29.786  27.478  1.00  0.00     0.014 A 
ATOM     35  C   UNL A   1      38.698  28.139  29.648  1.00  0.00     0.010 A 
ATOM     36  C   UNL A   1      39.227  29.076  27.468  1.00  0.00     0.010 A 
ATOM     37  C   UNL A   1      39.585  28.307  28.581  1.00  0.00    -0.014 A 
BRANCH  37  38
ATOM     38  C   UNL A   1      40.954  27.807  28.632  1.00  0.00     0.031 A 
ATOM     39  C   UNL A   1      41.238  26.422  28.209  1.00  0.00     0.074 A 
ATOM     40  C   UNL A   1      41.954  28.577  29.124  1.00  0.00     0.049 A 
ATOM     41  N   UNL A   1      42.094  25.653  28.794  1.00  0.00    -0.248 NA
ATOM     42  C   UNL A   1      40.519  25.771  27.116  1.00  0.00     0.031 C 
ATOM     43  C   UNL A   1      43.377  28.246  29.142  1.00  0.00     0.029 A 
ATOM     44  N   UNL A   1      41.864  29.720  29.925  1.00  0.00    -0.354 N 
ATOM     45  C   UNL A   1      42.241  24.540  27.998  1.00  0.00     0.074 A 
ATOM     46  C   UNL A   1      41.181  24.615  27.021  1.00  0.00     0.031 C 
ATOM     47  C   UNL A   1      43.956  28.926  30.144  1.00  0.00     0.029 A 
ATOM     48  C   UNL A   1      42.908  29.640  30.856  1.00  0.00     0.049 A 
ATOM     49  H   UNL A   1      41.197  30.440  29.849  1.00  0.00     0.167 HD
ATOM     50  C   UNL A   1      43.333  23.738  28.122  1.00  0.00     0.031 A 
ATOM     51  C   UNL A   1      42.727  29.644  32.207  1.00  0.00     0.031 A 
ATOM     52  C   UNL A   1      44.248  24.212  29.150  1.00  0.00     0.049 A 
ATOM     53  C   UNL A   1      43.269  28.395  32.872  1.00  0.00     0.074 A 
ATOM     54  C   UNL A   1      45.401  24.978  29.092  1.00  0.00     0.029 A 
ATOM     55  N   UNL A   1      43.851  24.197  30.481  1.00  0.00    -0.354 N 
ATOM     56  N   UNL A   1      43.611  27.317  32.222  1.00  0.00    -0.248 NA
ATOM     57  C   UNL A   1      43.436  28.244  34.315  1.00  0.00     0.031 C 
ATOM     58  C   UNL A   1      45.656  25.487  30.391  1.00  0.00     0.029 A 
ATOM     59  C   UNL A   1      44.679  25.002  31.242  1.00  0.00     0.049 A 
ATOM     60  H   UNL A   1      43.087  23.684  30.834  1.00  0.00     0.167 HD
ATOM     61  C   UNL A   1      44.045  26.358  33.103  1.00  0.00     0.074 A 
ATOM     62  C   UNL A   1      43.921  26.991  34.403  1.00  0.00     0.031 C 
ATOM     63  C   UNL A   1      44.470  25.129  32.678  1.00  0.00     0.031 A 
BRANCH  50  64
ATOM     64  C   UNL A   1      43.682  22.747  27.044  1.00  0.00    -0.014 A 
ATOM     65  C   UNL A   1      42.840  21.644  26.805  1.00  0.00     0.010 A 
ATOM     66  C   UNL A   1      44.872  22.816  26.291  1.00  0.00     0.010 A 
ATOM     67  C   UNL A   1      43.213  20.606  25.942  1.00  0.00     0.020 A 
ATOM     68  C   UNL A   1      45.275  21.765  25.451  1.00  0.00     0.020 A 
ATOM     69  C   UNL A   1      44.444  20.658  25.292  1.00  0.00     0.054 A 
BRANCH  69  70
ATOM     70  S   UNL A   1      44.954  19.247  24.272  1.00  0.00     0.124 S 
ATOM     71  O   UNL A   1      44.198  18.143  24.858  1.00  0.00    -0.237 OA
ATOM     72  O   UNL A   1      44.532  19.661  22.937  1.00  0.00    -0.237 OA
ATOM     73  O   UNL A   1      46.399  19.178  24.476  1.00  0.00    -0.744 OA
ENDBRANCH  69  70
ENDBRANCH  50  64
BRANCH  51  74
ATOM     74  C   UNL A   1      41.598  30.481  32.693  1.00  0.00    -0.014 A 
ATOM     75  C   UNL A   1      40.301  29.940  32.574  1.00  0.00     0.010 A 
ATOM     76  C   UNL A   1      41.800  31.558  33.571  1.00  0.00     0.010 A 
ATOM     77  C   UNL A   1      39.265  30.359  33.413  1.00  0.00     0.020 A 
ATOM     78  C   UNL A   1      40.762  31.980  34.421  1.00  0.00     0.020 A 
ATOM     79  C   UNL A   1      39.523  31.333  34.377  1.00  0.00     0.054 A 
BRANCH  79  80
ATOM     80  S   UNL A   1      38.248  31.659  35.633  1.00  0.00     0.124 S 
ATOM     81  O   UNL A   1      38.730  32.885  36.265  1.00  0.00    -0.237 OA
ATOM     82  O   UNL A   1      37.048  31.816  34.810  1.00  0.00    -0.237 OA
ATOM     83  O   UNL A   1      38.293  30.466  36.470  1.00  0.00    -0.744 OA
ENDBRANCH  79  80
ENDBRANCH  51  74
BRANCH  63  84
ATOM     84  C   UNL A   1      44.825  23.933  33.539  1.00  0.00    -0.014 A 
ATOM     85  C   UNL A   1      43.939  22.905  33.890  1.00  0.00     0.010 A 
ATOM     86  C   UNL A   1      46.180  23.762  33.929  1.00  0.00     0.010 A 
ATOM     87  C   UNL A   1      44.372  21.787  34.623  1.00  0.00     0.020 A 
ATOM     88  C   UNL A   1      46.631  22.633  34.617  1.00  0.00     0.020 A 
ATOM     89  C   UNL A   1      45.715  21.656  34.979  1.00  0.00     0.054 A 
BRANCH  89  90
ATOM     90  S   UNL A   1      46.284  20.168  35.840  1.00  0.00     0.124 S 
ATOM     91  O   UNL A   1      45.732  19.106  35.002  1.00  0.00    -0.237 OA
ATOM     92  O   UNL A   1      47.738  20.303  35.801  1.00  0.00    -0.237 OA
ATOM     93  O   UNL A   1      45.690  20.293  37.168  1.00  0.00    -0.744 OA
ENDBRANCH  89  90
ENDBRANCH  63  84
ENDBRANCH  37  38
ENDBRANCH  29  32
ENDBRANCH  27  28
ENDBRANCH  26  27
ENDBRANCH   1  26
TORSDOF 17
ENDMDL
MODEL 2
REMARK VINA RESULT:     -13.2      4.643     11.296
REMARK SMILES Cc1cccc(NS(=O)(=O)c2ccc(Br)c(C(=O)NCCCCNC(=O)c3ccc(-c4c5nc(c(-c6ccc(S(=O)(=O)[O-])cc6)c6ccc([nH]6)c(-c6ccc(S(=O)(=O)[O-])cc6)c6nc(c(-c7ccc(S(=O)(=O)[O-])cc7)c7ccc4[nH]7)C=C6)C=C5)cc3)c2)c1
REMARK SMILES IDX 21 1 20 2 19 3 17 4 18 5 16 7 11 8 12 9 87 10 13 11 14 12
REMARK SMILES IDX 15 13 8 14 9 15 10 16 7 17 6 19 1 20 2 21 3 22 88 23 4 24
REMARK SMILES IDX 5 25 22 26 23 27 24 28 25 29 26 31 27 32 28 33 86 34 29 35
REMARK SMILES IDX 85 36 30 37 31 38 32 39 79 40 33 41 84 42 78 43 80 44 34 45
REMARK SMILES IDX 83 46 77 47 76 48 35 50 65 51 46 52 64 53 47 54 50 55 63 56
REMARK SMILES IDX 81 57 48 58 49 59 62 61 82 62 51 63 36 64 37 65 45 66 38 67
REMARK SMILES IDX 44 68 39 69 40 70 41 71 42 72 43 73 66 74 67 75 75 76 68 77
REMARK SMILES IDX 74 78 69 79 70 80 71 81 72 82 73 83 52 84 53 85 61 86 54 87
REMARK SMILES IDX 60 88 55 89 56 90 57 91 58 92 59 93
REMARK H PARENT 19 6 7 18 24 30 80 49 50 60
REMARK Flexibility Score: inf
ROOT
ATOM      1  C   UNL A   1      36.871  21.646  25.348  1.00  0.00     0.023 C 
ENDROOT
BRANCH   1   2
ATOM      2  C   UNL A   1      35.986  22.814  25.774  1.00  0.00     0.116 C 
BRANCH   2   3
ATOM      3  N   UNL A   1      35.085  22.575  26.901  1.00  0.00    -0.352 N 
ATOM      4  C   UNL A   1      33.706  22.513  26.978  1.00  0.00     0.252 C 
ATOM      5  O   UNL A   1      33.189  22.188  28.048  1.00  0.00    -0.269 OA
ATOM      6  H   UNL A   1      35.543  22.431  27.760  1.00  0.00     0.163 HD
BRANCH   4   7
ATOM      7  C   UNL A   1      32.818  22.978  25.874  1.00  0.00     0.055 A 
ATOM      8  C   UNL A   1      31.546  24.828  24.935  1.00  0.00     0.088 A 
ATOM      9  C   UNL A   1      31.734  24.306  23.661  1.00  0.00     0.023 A 
ATOM     10  C   UNL A   1      32.183  24.223  26.029  1.00  0.00     0.037 A 
ATOM     11  C   UNL A   1      32.175  22.989  23.549  1.00  0.00     0.018 A 
ATOM     12  C   UNL A   1      32.578  22.289  24.689  1.00  0.00     0.030 A 
ATOM     13  Br  UNL A   1      32.407  20.388  24.633  1.00  0.00    -0.050 Br
BRANCH   8  14
ATOM     14  S   UNL A   1      30.425  26.175  25.212  1.00  0.00     0.261 S 
ATOM     15  O   UNL A   1      30.096  26.159  26.623  1.00  0.00    -0.201 OA
ATOM     16  O   UNL A   1      29.375  26.086  24.218  1.00  0.00    -0.201 OA
BRANCH  14  17
ATOM     17  N   UNL A   1      31.160  27.693  24.948  1.00  0.00    -0.280 N 
ATOM     18  H   UNL A   1      30.797  28.254  24.226  1.00  0.00     0.180 HD
BRANCH  17  19
ATOM     19  C   UNL A   1      32.266  28.212  25.699  1.00  0.00     0.049 A 
ATOM     20  C   UNL A   1      33.127  31.492  27.465  1.00  0.00     0.044 C 
ATOM     21  C   UNL A   1      33.219  30.087  26.946  1.00  0.00    -0.049 A 
ATOM     22  C   UNL A   1      34.354  29.315  27.211  1.00  0.00     0.003 A 
ATOM     23  C   UNL A   1      32.169  29.516  26.210  1.00  0.00     0.030 A 
ATOM     24  C   UNL A   1      34.487  28.049  26.641  1.00  0.00     0.002 A 
ATOM     25  C   UNL A   1      33.472  27.527  25.833  1.00  0.00     0.027 A 
ENDBRANCH  17  19
ENDBRANCH  14  17
ENDBRANCH   8  14
ENDBRANCH   4   7
ENDBRANCH   2   3
ENDBRANCH   1   2
BRANCH   1  26
ATOM     26  C   UNL A   1      38.364  21.811  25.578  1.00  0.00     0.023 C 
BRANCH  26  27
ATOM     27  C   UNL A   1      38.785  23.155  26.164  1.00  0.00     0.116 C 
BRANCH  27  28
ATOM     28  N   UNL A   1      40.178  23.216  26.596  1.00  0.00    -0.352 N 
ATOM     29  C   UNL A   1      40.883  24.314  27.094  1.00  0.00     0.251 C 
ATOM     30  H   UNL A   1      40.686  22.376  26.528  1.00  0.00     0.163 HD
ATOM     31  O   UNL A   1      42.065  24.303  27.318  1.00  0.00    -0.269 OA
BRANCH  29  32
ATOM     32  C   UNL A   1      40.072  25.498  27.467  1.00  0.00     0.039 A 
ATOM     33  C   UNL A   1      40.346  26.689  26.787  1.00  0.00     0.014 A 
ATOM     34  C   UNL A   1      39.364  25.493  28.663  1.00  0.00     0.014 A 
ATOM     35  C   UNL A   1      40.127  27.895  27.439  1.00  0.00     0.010 A 
ATOM     36  C   UNL A   1      39.268  26.680  29.361  1.00  0.00     0.010 A 
ATOM     37  C   UNL A   1      39.713  27.870  28.773  1.00  0.00    -0.014 A 
BRANCH  37  38
ATOM     38  C   UNL A   1      39.845  29.033  29.643  1.00  0.00     0.031 A 
ATOM     39  C   UNL A   1      38.808  30.083  29.614  1.00  0.00     0.074 A 
ATOM     40  C   UNL A   1      40.940  29.191  30.425  1.00  0.00     0.049 A 
ATOM     41  N   UNL A   1      39.060  31.345  29.712  1.00  0.00    -0.248 NA
ATOM     42  C   UNL A   1      37.393  29.784  29.409  1.00  0.00     0.031 C 
ATOM     43  C   UNL A   1      41.158  30.247  31.411  1.00  0.00     0.029 A 
ATOM     44  N   UNL A   1      42.186  28.564  30.322  1.00  0.00    -0.354 N 
ATOM     45  C   UNL A   1      37.851  31.984  29.866  1.00  0.00     0.074 A 
ATOM     46  C   UNL A   1      36.844  30.990  29.580  1.00  0.00     0.031 C 
ATOM     47  C   UNL A   1      42.481  30.413  31.566  1.00  0.00     0.029 A 
ATOM     48  C   UNL A   1      43.149  29.537  30.618  1.00  0.00     0.049 A 
ATOM     49  H   UNL A   1      42.352  27.622  30.088  1.00  0.00     0.167 HD
ATOM     50  C   UNL A   1      37.793  33.243  30.378  1.00  0.00     0.031 A 
ATOM     51  C   UNL A   1      44.149  29.904  29.767  1.00  0.00     0.031 A 
ATOM     52  C   UNL A   1      39.111  33.762  30.712  1.00  0.00     0.049 A 
ATOM     53  C   UNL A   1      44.105  31.376  29.414  1.00  0.00     0.074 A 
ATOM     54  C   UNL A   1      39.819  33.818  31.900  1.00  0.00     0.029 A 
ATOM     55  N   UNL A   1      40.025  34.014  29.696  1.00  0.00    -0.354 N 
ATOM     56  N   UNL A   1      43.082  32.149  29.655  1.00  0.00    -0.248 NA
ATOM     57  C   UNL A   1      45.184  32.087  28.733  1.00  0.00     0.031 C 
ATOM     58  C   UNL A   1      41.186  34.033  31.589  1.00  0.00     0.029 A 
ATOM     59  C   UNL A   1      41.300  34.143  30.215  1.00  0.00     0.049 A 
ATOM     60  H   UNL A   1      39.797  34.091  28.741  1.00  0.00     0.167 HD
ATOM     61  C   UNL A   1      43.339  33.420  29.202  1.00  0.00     0.074 A 
ATOM     62  C   UNL A   1      44.673  33.329  28.637  1.00  0.00     0.031 C 
ATOM     63  C   UNL A   1      42.429  34.431  29.339  1.00  0.00     0.031 A 
BRANCH  50  64
ATOM     64  C   UNL A   1      36.490  33.806  30.881  1.00  0.00    -0.014 A 
ATOM     65  C   UNL A   1      35.398  33.939  30.002  1.00  0.00     0.010 A 
ATOM     66  C   UNL A   1      36.316  34.291  32.193  1.00  0.00     0.010 A 
ATOM     67  C   UNL A   1      34.231  34.619  30.375  1.00  0.00     0.020 A 
ATOM     68  C   UNL A   1      35.167  35.007  32.567  1.00  0.00     0.020 A 
ATOM     69  C   UNL A   1      34.135  35.176  31.648  1.00  0.00     0.054 A 
BRANCH  69  70
ATOM     70  S   UNL A   1      32.663  36.150  32.066  1.00  0.00     0.124 S 
ATOM     71  O   UNL A   1      33.140  36.993  33.160  1.00  0.00    -0.237 OA
ATOM     72  O   UNL A   1      32.384  36.845  30.812  1.00  0.00    -0.237 OA
ATOM     73  O   UNL A   1      31.679  35.141  32.453  1.00  0.00    -0.744 OA
ENDBRANCH  69  70
ENDBRANCH  50  64
BRANCH  51  74
ATOM     74  C   UNL A   1      44.691  28.810  28.917  1.00  0.00    -0.014 A 
ATOM     75  C   UNL A   1      43.843  28.299  27.912  1.00  0.00     0.010 A 
ATOM     76  C   UNL A   1      46.069  28.555  28.828  1.00  0.00     0.010 A 
ATOM     77  C   UNL A   1      44.366  27.680  26.774  1.00  0.00     0.020 A 
ATOM     78  C   UNL A   1      46.600  27.936  27.682  1.00  0.00     0.020 A 
ATOM     79  C   UNL A   1      45.748  27.562  26.638  1.00  0.00     0.054 A 
BRANCH  79  80
ATOM     80  S   UNL A   1      46.412  27.012  25.036  1.00  0.00     0.124 S 
ATOM     81  O   UNL A   1      45.488  25.945  24.658  1.00  0.00    -0.237 OA
ATOM     82  O   UNL A   1      46.313  28.232  24.234  1.00  0.00    -0.237 OA
ATOM     83  O   UNL A   1      47.764  26.578  25.367  1.00  0.00    -0.744 OA
ENDBRANCH  79  80
ENDBRANCH  51  74
BRANCH  63  84
ATOM     84  C   UNL A   1      42.515  35.827  28.755  1.00  0.00    -0.014 A 
ATOM     85  C   UNL A   1      41.846  36.257  27.601  1.00  0.00     0.010 A 
ATOM     86  C   UNL A   1      43.223  36.819  29.483  1.00  0.00     0.010 A 
ATOM     87  C   UNL A   1      41.912  37.594  27.174  1.00  0.00     0.020 A 
ATOM     88  C   UNL A   1      43.258  38.161  29.093  1.00  0.00     0.020 A 
ATOM     89  C   UNL A   1      42.615  38.538  27.924  1.00  0.00     0.054 A 
BRANCH  89  90
ATOM     90  S   UNL A   1      42.618  40.278  27.420  1.00  0.00     0.124 S 
ATOM     91  O   UNL A   1      42.614  40.964  28.709  1.00  0.00    -0.237 OA
ATOM     92  O   UNL A   1      43.856  40.394  26.653  1.00  0.00    -0.237 OA
ATOM     93  O   UNL A   1      41.394  40.408  26.635  1.00  0.00    -0.744 OA
ENDBRANCH  89  90
ENDBRANCH  63  84
ENDBRANCH  37  38
ENDBRANCH  29  32
ENDBRANCH  27  28
ENDBRANCH  26  27
ENDBRANCH   1  26
TORSDOF 17
ENDMDL
MODEL 3
REMARK VINA RESULT:     -13.1      1.628      2.038
REMARK SMILES Cc1cccc(NS(=O)(=O)c2ccc(Br)c(C(=O)NCCCCNC(=O)c3ccc(-c4c5nc(c(-c6ccc(S(=O)(=O)[O-])cc6)c6ccc([nH]6)c(-c6ccc(S(=O)(=O)[O-])cc6)c6nc(c(-c7ccc(S(=O)(=O)[O-])cc7)c7ccc4[nH]7)C=C6)C=C5)cc3)c2)c1
REMARK SMILES IDX 21 1 20 2 19 3 17 4 18 5 16 7 11 8 12 9 87 10 13 11 14 12
REMARK SMILES IDX 15 13 8 14 9 15 10 16 7 17 6 19 1 20 2 21 3 22 88 23 4 24
REMARK SMILES IDX 5 25 22 26 23 27 24 28 25 29 26 31 27 32 28 33 86 34 29 35
REMARK SMILES IDX 85 36 30 37 31 38 32 39 79 40 33 41 84 42 78 43 80 44 34 45
REMARK SMILES IDX 83 46 77 47 76 48 35 50 65 51 46 52 64 53 47 54 50 55 63 56
REMARK SMILES IDX 81 57 48 58 49 59 62 61 82 62 51 63 36 64 37 65 45 66 38 67
REMARK SMILES IDX 44 68 39 69 40 70 41 71 42 72 43 73 66 74 67 75 75 76 68 77
REMARK SMILES IDX 74 78 69 79 70 80 71 81 72 82 73 83 52 84 53 85 61 86 54 87
REMARK SMILES IDX 60 88 55 89 56 90 57 91 58 92 59 93
REMARK H PARENT 19 6 7 18 24 30 80 49 50 60
REMARK Flexibility Score: inf
ROOT
ATOM      1  C   UNL A   1      32.631  30.530  26.638  1.00  0.00     0.023 C 
ENDROOT
BRANCH   1   2
ATOM      2  C   UNL A   1      32.350  29.587  25.471  1.00  0.00     0.116 C 
BRANCH   2   3
ATOM      3  N   UNL A   1      33.371  29.514  24.427  1.00  0.00    -0.352 N 
ATOM      4  C   UNL A   1      33.474  28.724  23.297  1.00  0.00     0.252 C 
ATOM      5  O   UNL A   1      34.400  28.937  22.512  1.00  0.00    -0.269 OA
ATOM      6  H   UNL A   1      34.120  30.139  24.551  1.00  0.00     0.163 HD
BRANCH   4   7
ATOM      7  C   UNL A   1      32.613  27.529  23.070  1.00  0.00     0.055 A 
ATOM      8  C   UNL A   1      32.528  25.110  22.804  1.00  0.00     0.088 A 
ATOM      9  C   UNL A   1      31.243  25.101  23.334  1.00  0.00     0.023 A 
ATOM     10  C   UNL A   1      33.254  26.311  22.777  1.00  0.00     0.037 A 
ATOM     11  C   UNL A   1      30.560  26.313  23.420  1.00  0.00     0.018 A 
ATOM     12  C   UNL A   1      31.224  27.511  23.144  1.00  0.00     0.030 A 
ATOM     13  Br  UNL A   1      30.152  28.960  22.517  1.00  0.00    -0.050 Br
BRANCH   8  14
ATOM     14  S   UNL A   1      33.218  23.655  22.060  1.00  0.00     0.261 S 
ATOM     15  O   UNL A   1      34.469  23.393  22.742  1.00  0.00    -0.201 OA
ATOM     16  O   UNL A   1      33.197  23.841  20.624  1.00  0.00    -0.201 OA
BRANCH  14  17
ATOM     17  N   UNL A   1      32.263  22.269  22.344  1.00  0.00    -0.280 N 
ATOM     18  H   UNL A   1      31.488  22.123  21.755  1.00  0.00     0.180 HD
BRANCH  17  19
ATOM     19  C   UNL A   1      32.503  21.303  23.375  1.00  0.00     0.049 A 
ATOM     20  C   UNL A   1      33.690  21.355  27.009  1.00  0.00     0.044 C 
ATOM     21  C   UNL A   1      33.197  20.866  25.678  1.00  0.00    -0.049 A 
ATOM     22  C   UNL A   1      32.969  19.502  25.474  1.00  0.00     0.003 A 
ATOM     23  C   UNL A   1      32.936  21.761  24.629  1.00  0.00     0.030 A 
ATOM     24  C   UNL A   1      32.613  19.035  24.209  1.00  0.00     0.002 A 
ATOM     25  C   UNL A   1      32.445  19.929  23.146  1.00  0.00     0.027 A 
ENDBRANCH  17  19
ENDBRANCH  14  17
ENDBRANCH   8  14
ENDBRANCH   4   7
ENDBRANCH   2   3
ENDBRANCH   1   2
BRANCH   1  26
ATOM     26  C   UNL A   1      33.697  30.085  27.625  1.00  0.00     0.023 C 
BRANCH  26  27
ATOM     27  C   UNL A   1      35.037  30.805  27.502  1.00  0.00     0.116 C 
BRANCH  27  28
ATOM     28  N   UNL A   1      35.518  31.403  28.744  1.00  0.00    -0.352 N 
ATOM     29  C   UNL A   1      36.395  30.858  29.684  1.00  0.00     0.251 C 
ATOM     30  H   UNL A   1      35.181  32.306  28.944  1.00  0.00     0.163 HD
ATOM     31  O   UNL A   1      36.648  31.377  30.740  1.00  0.00    -0.269 OA
BRANCH  29  32
ATOM     32  C   UNL A   1      37.126  29.637  29.267  1.00  0.00     0.039 A 
ATOM     33  C   UNL A   1      37.466  28.732  30.277  1.00  0.00     0.014 A 
ATOM     34  C   UNL A   1      37.743  29.600  28.022  1.00  0.00     0.014 A 
ATOM     35  C   UNL A   1      38.605  27.953  30.119  1.00  0.00     0.010 A 
ATOM     36  C   UNL A   1      38.943  28.926  27.917  1.00  0.00     0.010 A 
ATOM     37  C   UNL A   1      39.406  28.158  28.992  1.00  0.00    -0.014 A 
BRANCH  37  38
ATOM     38  C   UNL A   1      40.789  27.700  28.936  1.00  0.00     0.031 A 
ATOM     39  C   UNL A   1      41.081  26.328  28.476  1.00  0.00     0.074 A 
ATOM     40  C   UNL A   1      41.799  28.494  29.363  1.00  0.00     0.049 A 
ATOM     41  N   UNL A   1      42.001  25.579  28.986  1.00  0.00    -0.248 NA
ATOM     42  C   UNL A   1      40.304  25.667  27.429  1.00  0.00     0.031 C 
ATOM     43  C   UNL A   1      43.229  28.206  29.273  1.00  0.00     0.029 A 
ATOM     44  N   UNL A   1      41.734  29.625  30.183  1.00  0.00    -0.354 N 
ATOM     45  C   UNL A   1      42.121  24.479  28.168  1.00  0.00     0.074 A 
ATOM     46  C   UNL A   1      40.990  24.532  27.272  1.00  0.00     0.031 C 
ATOM     47  C   UNL A   1      43.859  28.893  30.238  1.00  0.00     0.029 A 
ATOM     48  C   UNL A   1      42.846  29.567  31.034  1.00  0.00     0.049 A 
ATOM     49  H   UNL A   1      41.043  30.326  30.165  1.00  0.00     0.167 HD
ATOM     50  C   UNL A   1      43.242  23.709  28.201  1.00  0.00     0.031 A 
ATOM     51  C   UNL A   1      42.765  29.551  32.394  1.00  0.00     0.031 A 
ATOM     52  C   UNL A   1      44.216  24.201  29.166  1.00  0.00     0.049 A 
ATOM     53  C   UNL A   1      43.390  28.313  33.002  1.00  0.00     0.074 A 
ATOM     54  C   UNL A   1      45.338  25.001  29.033  1.00  0.00     0.029 A 
ATOM     55  N   UNL A   1      43.919  24.159  30.522  1.00  0.00    -0.354 N 
ATOM     56  N   UNL A   1      43.715  27.252  32.316  1.00  0.00    -0.248 NA
ATOM     57  C   UNL A   1      43.668  28.152  34.427  1.00  0.00     0.031 C 
ATOM     58  C   UNL A   1      45.673  25.504  30.316  1.00  0.00     0.029 A 
ATOM     59  C   UNL A   1      44.776  24.981  31.230  1.00  0.00     0.049 A 
ATOM     60  H   UNL A   1      43.198  23.619  30.923  1.00  0.00     0.167 HD
ATOM     61  C   UNL A   1      44.241  26.297  33.150  1.00  0.00     0.074 A 
ATOM     62  C   UNL A   1      44.194  26.913  34.463  1.00  0.00     0.031 C 
ATOM     63  C   UNL A   1      44.670  25.087  32.679  1.00  0.00     0.031 A 
BRANCH  50  64
ATOM     64  C   UNL A   1      43.540  22.741  27.088  1.00  0.00    -0.014 A 
ATOM     65  C   UNL A   1      42.743  21.592  26.926  1.00  0.00     0.010 A 
ATOM     66  C   UNL A   1      44.645  22.879  26.223  1.00  0.00     0.010 A 
ATOM     67  C   UNL A   1      43.089  20.577  26.024  1.00  0.00     0.020 A 
ATOM     68  C   UNL A   1      45.023  21.853  25.342  1.00  0.00     0.020 A 
ATOM     69  C   UNL A   1      44.245  20.700  25.257  1.00  0.00     0.054 A 
BRANCH  69  70
ATOM     70  S   UNL A   1      44.732  19.322  24.183  1.00  0.00     0.124 S 
ATOM     71  O   UNL A   1      43.816  18.261  24.595  1.00  0.00    -0.237 OA
ATOM     72  O   UNL A   1      44.501  19.870  22.850  1.00  0.00    -0.237 OA
ATOM     73  O   UNL A   1      46.133  19.092  24.531  1.00  0.00    -0.744 OA
ENDBRANCH  69  70
ENDBRANCH  50  64
BRANCH  51  74
ATOM     74  C   UNL A   1      41.651  30.348  32.972  1.00  0.00    -0.014 A 
ATOM     75  C   UNL A   1      40.375  29.746  32.994  1.00  0.00     0.010 A 
ATOM     76  C   UNL A   1      41.886  31.456  33.803  1.00  0.00     0.010 A 
ATOM     77  C   UNL A   1      39.408  30.140  33.923  1.00  0.00     0.020 A 
ATOM     78  C   UNL A   1      40.918  31.853  34.743  1.00  0.00     0.020 A 
ATOM     79  C   UNL A   1      39.713  31.149  34.836  1.00  0.00     0.054 A 
BRANCH  79  80
ATOM     80  S   UNL A   1      38.553  31.450  36.205  1.00  0.00     0.124 S 
ATOM     81  O   UNL A   1      37.463  32.166  35.547  1.00  0.00    -0.237 OA
ATOM     82  O   UNL A   1      38.232  30.088  36.632  1.00  0.00    -0.237 OA
ATOM     83  O   UNL A   1      39.343  32.240  37.142  1.00  0.00    -0.744 OA
ENDBRANCH  79  80
ENDBRANCH  51  74
BRANCH  63  84
ATOM     84  C   UNL A   1      45.122  23.893  33.497  1.00  0.00    -0.014 A 
ATOM     85  C   UNL A   1      46.384  23.757  34.090  1.00  0.00     0.010 A 
ATOM     86  C   UNL A   1      44.170  22.883  33.797  1.00  0.00     0.010 A 
ATOM     87  C   UNL A   1      46.694  22.655  34.904  1.00  0.00     0.020 A 
ATOM     88  C   UNL A   1      44.452  21.806  34.642  1.00  0.00     0.020 A 
ATOM     89  C   UNL A   1      45.725  21.688  35.178  1.00  0.00     0.054 A 
BRANCH  89  90
ATOM     90  S   UNL A   1      46.101  20.321  36.304  1.00  0.00     0.124 S 
ATOM     91  O   UNL A   1      47.536  20.145  36.095  1.00  0.00    -0.237 OA
ATOM     92  O   UNL A   1      45.721  20.858  37.609  1.00  0.00    -0.237 OA
ATOM     93  O   UNL A   1      45.257  19.234  35.817  1.00  0.00    -0.744 OA
ENDBRANCH  89  90
ENDBRANCH  63  84
ENDBRANCH  37  38
ENDBRANCH  29  32
ENDBRANCH  27  28
ENDBRANCH  26  27
ENDBRANCH   1  26
TORSDOF 17
ENDMDL
