MODEL 1
REMARK VINA RESULT:      -9.3      0.000      0.000
REMARK SMILES CCC([NH3+])(CC)C(=O)N(CCC(=O)NCCCCNC(=O)c1ccc(-c2c3nc(c(-c4ccc(S(=O)(=O)[O-])cc4)c4ccc([nH]4)c(-c4ccc(S(=O)(=O)[O-])cc4)c4nc(c(-c5ccc(S(=O)(=O)[O-])cc5)c5ccc2[nH]5)C=C4)C=C3)cc1)C(C)C
REMARK SMILES IDX 15 1 14 2 12 3 13 4 11 6 10 7 9 8 7 9 8 10 3 11 2 12 1 13
REMARK SMILES IDX 4 14 5 18 6 19 82 20 83 21 84 22 16 23 17 24 18 25 19 26
REMARK SMILES IDX 20 27 21 29 22 30 23 31 81 32 24 33 80 34 25 35 26 36 27 37
REMARK SMILES IDX 74 38 28 39 79 40 73 41 75 42 29 43 78 44 72 45 71 46 30 48
REMARK SMILES IDX 60 49 41 50 59 51 42 52 45 53 58 54 76 55 43 56 44 57 57 59
REMARK SMILES IDX 77 60 46 61 31 62 32 63 40 64 33 65 39 66 34 67 35 68 36 69
REMARK SMILES IDX 37 70 38 71 61 72 62 73 70 74 63 75 69 76 64 77 65 78 66 79
REMARK SMILES IDX 67 80 68 81 47 82 48 83 56 84 49 85 55 86 50 87 51 88 52 89
REMARK SMILES IDX 53 90 54 91
REMARK H PARENT 14 5 4 15 4 16 4 17 19 28 75 47 45 58
REMARK Flexibility Score: inf
ROOT
ATOM      1  C   UNL A   1      33.633  28.150  25.901  1.00  0.00     0.116 C 
ENDROOT
BRANCH   1   2
ATOM      2  N   UNL A   1      32.572  27.239  26.329  1.00  0.00    -0.356 N 
ATOM      3  C   UNL A   1      32.458  25.883  26.373  1.00  0.00     0.221 C 
ATOM      4  O   UNL A   1      31.385  25.411  26.758  1.00  0.00    -0.275 OA
ATOM      5  H   UNL A   1      31.770  27.706  26.654  1.00  0.00     0.163 HD
BRANCH   3   6
ATOM      6  C   UNL A   1      33.586  24.952  25.972  1.00  0.00     0.121 C 
BRANCH   6   7
ATOM      7  C   UNL A   1      33.079  23.498  25.812  1.00  0.00     0.130 C 
BRANCH   7   8
ATOM      8  N   UNL A   1      33.691  22.783  24.669  1.00  0.00    -0.334 N 
BRANCH   8   9
ATOM      9  C   UNL A   1      33.981  23.228  23.380  1.00  0.00     0.284 C 
ATOM     10  O   UNL A   1      35.159  23.215  22.995  1.00  0.00    -0.268 OA
BRANCH   9  11
ATOM     11  C   UNL A   1      32.891  23.718  22.377  1.00  0.00     0.173 C 
BRANCH  11  12
ATOM     12  C   UNL A   1      31.471  23.393  22.968  1.00  0.00     0.075 C 
ATOM     13  C   UNL A   1      30.582  24.581  23.349  1.00  0.00     0.011 C 
ENDBRANCH  11  12
BRANCH  11  14
ATOM     14  N   UNL A   1      33.008  22.992  21.089  1.00  0.00    -0.345 N 
ATOM     15  H   UNL A   1      32.087  22.667  20.796  1.00  0.00     0.345 HD
ATOM     16  H   UNL A   1      33.629  22.191  21.205  1.00  0.00     0.345 HD
ATOM     17  H   UNL A   1      33.389  23.618  20.379  1.00  0.00     0.345 HD
ENDBRANCH  11  14
BRANCH  11  18
ATOM     18  C   UNL A   1      32.968  25.248  22.134  1.00  0.00     0.075 C 
ATOM     19  C   UNL A   1      32.515  25.702  20.748  1.00  0.00     0.011 C 
ENDBRANCH  11  18
ENDBRANCH   9  11
ENDBRANCH   8   9
BRANCH   8  20
ATOM     20  C   UNL A   1      33.943  21.361  24.916  1.00  0.00     0.079 C 
ATOM     21  C   UNL A   1      34.133  21.095  26.410  1.00  0.00     0.031 C 
ATOM     22  C   UNL A   1      32.956  20.415  24.231  1.00  0.00     0.031 C 
ENDBRANCH   8  20
ENDBRANCH   7   8
ENDBRANCH   6   7
ENDBRANCH   3   6
ENDBRANCH   1   2
BRANCH   1  23
ATOM     23  C   UNL A   1      33.993  29.138  27.024  1.00  0.00     0.023 C 
BRANCH  23  24
ATOM     24  C   UNL A   1      33.326  30.514  26.971  1.00  0.00     0.023 C 
BRANCH  24  25
ATOM     25  C   UNL A   1      34.035  31.675  27.658  1.00  0.00     0.116 C 
BRANCH  25  26
ATOM     26  N   UNL A   1      33.223  32.865  27.890  1.00  0.00    -0.352 N 
ATOM     27  C   UNL A   1      33.471  34.047  28.563  1.00  0.00     0.251 C 
ATOM     28  H   UNL A   1      32.325  32.818  27.489  1.00  0.00     0.163 HD
ATOM     29  O   UNL A   1      32.693  34.974  28.470  1.00  0.00    -0.269 OA
BRANCH  27  30
ATOM     30  C   UNL A   1      34.596  34.115  29.520  1.00  0.00     0.039 A 
ATOM     31  C   UNL A   1      34.355  33.667  30.821  1.00  0.00     0.014 A 
ATOM     32  C   UNL A   1      35.886  34.424  29.110  1.00  0.00     0.014 A 
ATOM     33  C   UNL A   1      35.432  33.350  31.647  1.00  0.00     0.010 A 
ATOM     34  C   UNL A   1      36.951  33.967  29.871  1.00  0.00     0.010 A 
ATOM     35  C   UNL A   1      36.736  33.392  31.134  1.00  0.00    -0.014 A 
BRANCH  35  36
ATOM     36  C   UNL A   1      37.882  32.795  31.871  1.00  0.00     0.031 A 
ATOM     37  C   UNL A   1      38.622  31.625  31.283  1.00  0.00     0.074 A 
ATOM     38  C   UNL A   1      38.179  33.228  33.116  1.00  0.00     0.049 A 
ATOM     39  N   UNL A   1      39.529  30.863  31.835  1.00  0.00    -0.248 NA
ATOM     40  C   UNL A   1      38.250  31.219  29.916  1.00  0.00     0.031 C 
ATOM     41  C   UNL A   1      37.485  34.301  33.841  1.00  0.00     0.029 A 
ATOM     42  N   UNL A   1      39.144  32.814  34.001  1.00  0.00    -0.354 N 
ATOM     43  C   UNL A   1      39.786  29.857  30.911  1.00  0.00     0.074 A 
ATOM     44  C   UNL A   1      38.905  30.077  29.786  1.00  0.00     0.031 C 
ATOM     45  C   UNL A   1      38.083  34.494  35.028  1.00  0.00     0.029 A 
ATOM     46  C   UNL A   1      39.166  33.532  35.175  1.00  0.00     0.049 A 
ATOM     47  H   UNL A   1      39.762  32.072  33.813  1.00  0.00     0.167 HD
ATOM     48  C   UNL A   1      40.695  28.856  30.978  1.00  0.00     0.031 A 
ATOM     49  C   UNL A   1      39.972  33.427  36.250  1.00  0.00     0.031 A 
ATOM     50  C   UNL A   1      41.629  28.696  32.056  1.00  0.00     0.049 A 
ATOM     51  C   UNL A   1      41.040  32.371  36.257  1.00  0.00     0.074 A 
ATOM     52  C   UNL A   1      42.656  27.778  32.175  1.00  0.00     0.029 A 
ATOM     53  N   UNL A   1      41.668  29.494  33.189  1.00  0.00    -0.354 N 
ATOM     54  N   UNL A   1      41.303  31.463  35.346  1.00  0.00    -0.248 NA
ATOM     55  C   UNL A   1      41.927  32.328  37.428  1.00  0.00     0.031 C 
ATOM     56  C   UNL A   1      43.308  28.010  33.390  1.00  0.00     0.029 A 
ATOM     57  C   UNL A   1      42.705  29.092  34.011  1.00  0.00     0.049 A 
ATOM     58  H   UNL A   1      41.050  30.236  33.380  1.00  0.00     0.167 HD
ATOM     59  C   UNL A   1      42.402  30.759  35.824  1.00  0.00     0.074 A 
ATOM     60  C   UNL A   1      42.762  31.354  37.096  1.00  0.00     0.031 C 
ATOM     61  C   UNL A   1      43.054  29.713  35.262  1.00  0.00     0.031 A 
BRANCH  48  62
ATOM     62  C   UNL A   1      40.730  27.876  29.838  1.00  0.00    -0.014 A 
ATOM     63  C   UNL A   1      39.721  26.907  29.685  1.00  0.00     0.010 A 
ATOM     64  C   UNL A   1      41.775  27.931  28.899  1.00  0.00     0.010 A 
ATOM     65  C   UNL A   1      39.786  25.977  28.644  1.00  0.00     0.020 A 
ATOM     66  C   UNL A   1      41.826  27.022  27.839  1.00  0.00     0.020 A 
ATOM     67  C   UNL A   1      40.842  26.037  27.732  1.00  0.00     0.054 A 
BRANCH  67  68
ATOM     68  S   UNL A   1      40.895  24.830  26.380  1.00  0.00     0.124 S 
ATOM     69  O   UNL A   1      41.147  25.686  25.224  1.00  0.00    -0.237 OA
ATOM     70  O   UNL A   1      42.001  23.959  26.769  1.00  0.00    -0.237 OA
ATOM     71  O   UNL A   1      39.573  24.208  26.420  1.00  0.00    -0.744 OA
ENDBRANCH  67  68
ENDBRANCH  48  62
BRANCH  49  72
ATOM     72  C   UNL A   1      39.832  34.371  37.392  1.00  0.00    -0.014 A 
ATOM     73  C   UNL A   1      40.570  35.568  37.411  1.00  0.00     0.010 A 
ATOM     74  C   UNL A   1      38.971  34.083  38.466  1.00  0.00     0.010 A 
ATOM     75  C   UNL A   1      40.476  36.444  38.495  1.00  0.00     0.020 A 
ATOM     76  C   UNL A   1      38.856  34.970  39.542  1.00  0.00     0.020 A 
ATOM     77  C   UNL A   1      39.621  36.138  39.557  1.00  0.00     0.054 A 
BRANCH  77  78
ATOM     78  S   UNL A   1      39.488  37.303  40.942  1.00  0.00     0.124 S 
ATOM     79  O   UNL A   1      38.974  36.449  42.007  1.00  0.00    -0.237 OA
ATOM     80  O   UNL A   1      40.866  37.761  41.107  1.00  0.00    -0.237 OA
ATOM     81  O   UNL A   1      38.560  38.315  40.445  1.00  0.00    -0.744 OA
ENDBRANCH  77  78
ENDBRANCH  49  72
BRANCH  61  82
ATOM     82  C   UNL A   1      44.248  29.172  35.995  1.00  0.00    -0.014 A 
ATOM     83  C   UNL A   1      45.523  29.733  35.815  1.00  0.00     0.010 A 
ATOM     84  C   UNL A   1      44.074  28.131  36.926  1.00  0.00     0.010 A 
ATOM     85  C   UNL A   1      46.613  29.246  36.540  1.00  0.00     0.020 A 
ATOM     86  C   UNL A   1      45.157  27.658  37.668  1.00  0.00     0.020 A 
ATOM     87  C   UNL A   1      46.422  28.212  37.462  1.00  0.00     0.054 A 
BRANCH  87  88
ATOM     88  S   UNL A   1      47.840  27.636  38.436  1.00  0.00     0.124 S 
ATOM     89  O   UNL A   1      47.340  26.378  38.984  1.00  0.00    -0.237 OA
ATOM     90  O   UNL A   1      48.893  27.509  37.430  1.00  0.00    -0.237 OA
ATOM     91  O   UNL A   1      48.045  28.705  39.411  1.00  0.00    -0.744 OA
ENDBRANCH  87  88
ENDBRANCH  61  82
ENDBRANCH  35  36
ENDBRANCH  27  30
ENDBRANCH  25  26
ENDBRANCH  24  25
ENDBRANCH  23  24
ENDBRANCH   1  23
TORSDOF 22
ENDMDL
MODEL 2
REMARK VINA RESULT:      -9.1      7.027     10.984
REMARK SMILES CCC([NH3+])(CC)C(=O)N(CCC(=O)NCCCCNC(=O)c1ccc(-c2c3nc(c(-c4ccc(S(=O)(=O)[O-])cc4)c4ccc([nH]4)c(-c4ccc(S(=O)(=O)[O-])cc4)c4nc(c(-c5ccc(S(=O)(=O)[O-])cc5)c5ccc2[nH]5)C=C4)C=C3)cc1)C(C)C
REMARK SMILES IDX 15 1 14 2 12 3 13 4 11 6 10 7 9 8 7 9 8 10 3 11 2 12 1 13
REMARK SMILES IDX 4 14 5 18 6 19 82 20 83 21 84 22 16 23 17 24 18 25 19 26
REMARK SMILES IDX 20 27 21 29 22 30 23 31 81 32 24 33 80 34 25 35 26 36 27 37
REMARK SMILES IDX 74 38 28 39 79 40 73 41 75 42 29 43 78 44 72 45 71 46 30 48
REMARK SMILES IDX 60 49 41 50 59 51 42 52 45 53 58 54 76 55 43 56 44 57 57 59
REMARK SMILES IDX 77 60 46 61 31 62 32 63 40 64 33 65 39 66 34 67 35 68 36 69
REMARK SMILES IDX 37 70 38 71 61 72 62 73 70 74 63 75 69 76 64 77 65 78 66 79
REMARK SMILES IDX 67 80 68 81 47 82 48 83 56 84 49 85 55 86 50 87 51 88 52 89
REMARK SMILES IDX 53 90 54 91
REMARK H PARENT 14 5 4 15 4 16 4 17 19 28 75 47 45 58
REMARK Flexibility Score: inf
ROOT
ATOM      1  C   UNL A   1      39.484  23.469  26.978  1.00  0.00     0.116 C 
ENDROOT
BRANCH   1   2
ATOM      2  N   UNL A   1      38.625  22.463  26.353  1.00  0.00    -0.356 N 
ATOM      3  C   UNL A   1      37.435  22.519  25.695  1.00  0.00     0.221 C 
ATOM      4  O   UNL A   1      36.938  21.455  25.317  1.00  0.00    -0.275 OA
ATOM      5  H   UNL A   1      38.985  21.549  26.425  1.00  0.00     0.163 HD
BRANCH   3   6
ATOM      6  C   UNL A   1      36.714  23.824  25.416  1.00  0.00     0.121 C 
BRANCH   6   7
ATOM      7  C   UNL A   1      35.291  23.816  26.025  1.00  0.00     0.130 C 
BRANCH   7   8
ATOM      8  N   UNL A   1      34.215  23.754  25.009  1.00  0.00    -0.334 N 
BRANCH   8   9
ATOM      9  C   UNL A   1      33.928  24.614  23.950  1.00  0.00     0.284 C 
ATOM     10  O   UNL A   1      34.374  24.345  22.825  1.00  0.00    -0.268 OA
BRANCH   9  11
ATOM     11  C   UNL A   1      33.043  25.890  24.098  1.00  0.00     0.173 C 
BRANCH  11  12
ATOM     12  C   UNL A   1      32.817  26.180  25.627  1.00  0.00     0.075 C 
ATOM     13  C   UNL A   1      31.398  25.990  26.173  1.00  0.00     0.011 C 
ENDBRANCH  11  12
BRANCH  11  14
ATOM     14  N   UNL A   1      31.708  25.669  23.491  1.00  0.00    -0.345 N 
ATOM     15  H   UNL A   1      31.014  26.236  23.977  1.00  0.00     0.345 HD
ATOM     16  H   UNL A   1      31.457  24.683  23.571  1.00  0.00     0.345 HD
ATOM     17  H   UNL A   1      31.734  25.934  22.506  1.00  0.00     0.345 HD
ENDBRANCH  11  14
BRANCH  11  18
ATOM     18  C   UNL A   1      33.713  27.139  23.469  1.00  0.00     0.075 C 
ATOM     19  C   UNL A   1      32.768  28.310  23.206  1.00  0.00     0.011 C 
ENDBRANCH  11  18
ENDBRANCH   9  11
ENDBRANCH   8   9
BRANCH   8  20
ATOM     20  C   UNL A   1      33.258  22.665  25.215  1.00  0.00     0.079 C 
ATOM     21  C   UNL A   1      33.728  21.389  24.514  1.00  0.00     0.031 C 
ATOM     22  C   UNL A   1      32.833  22.462  26.669  1.00  0.00     0.031 C 
ENDBRANCH   8  20
ENDBRANCH   7   8
ENDBRANCH   6   7
ENDBRANCH   3   6
ENDBRANCH   1   2
BRANCH   1  23
ATOM     23  C   UNL A   1      40.709  22.812  27.637  1.00  0.00     0.023 C 
BRANCH  23  24
ATOM     24  C   UNL A   1      40.787  21.285  27.577  1.00  0.00     0.023 C 
BRANCH  24  25
ATOM     25  C   UNL A   1      42.170  20.645  27.544  1.00  0.00     0.116 C 
BRANCH  25  26
ATOM     26  N   UNL A   1      42.500  19.913  26.325  1.00  0.00    -0.352 N 
ATOM     27  C   UNL A   1      43.502  20.070  25.386  1.00  0.00     0.251 C 
ATOM     28  H   UNL A   1      41.890  19.164  26.134  1.00  0.00     0.163 HD
ATOM     29  O   UNL A   1      43.679  19.218  24.538  1.00  0.00    -0.269 OA
BRANCH  27  30
ATOM     30  C   UNL A   1      44.243  21.347  25.321  1.00  0.00     0.039 A 
ATOM     31  C   UNL A   1      43.751  22.327  24.456  1.00  0.00     0.014 A 
ATOM     32  C   UNL A   1      45.266  21.644  26.211  1.00  0.00     0.014 A 
ATOM     33  C   UNL A   1      44.156  23.650  24.620  1.00  0.00     0.010 A 
ATOM     34  C   UNL A   1      45.552  22.975  26.473  1.00  0.00     0.010 A 
ATOM     35  C   UNL A   1      44.974  23.998  25.704  1.00  0.00    -0.014 A 
BRANCH  35  36
ATOM     36  C   UNL A   1      45.197  25.417  26.089  1.00  0.00     0.031 A 
ATOM     37  C   UNL A   1      46.564  26.026  25.942  1.00  0.00     0.074 A 
ATOM     38  C   UNL A   1      44.203  26.117  26.679  1.00  0.00     0.049 A 
ATOM     39  N   UNL A   1      47.002  27.180  26.373  1.00  0.00    -0.248 NA
ATOM     40  C   UNL A   1      47.593  25.205  25.279  1.00  0.00     0.031 C 
ATOM     41  C   UNL A   1      42.850  25.618  26.959  1.00  0.00     0.029 A 
ATOM     42  N   UNL A   1      44.176  27.404  27.156  1.00  0.00    -0.354 N 
ATOM     43  C   UNL A   1      48.362  27.194  26.089  1.00  0.00     0.074 A 
ATOM     44  C   UNL A   1      48.687  25.916  25.497  1.00  0.00     0.031 C 
ATOM     45  C   UNL A   1      42.117  26.603  27.503  1.00  0.00     0.029 A 
ATOM     46  C   UNL A   1      42.953  27.785  27.659  1.00  0.00     0.049 A 
ATOM     47  H   UNL A   1      44.960  27.999  27.140  1.00  0.00     0.167 HD
ATOM     48  C   UNL A   1      49.257  28.192  26.278  1.00  0.00     0.031 A 
ATOM     49  C   UNL A   1      42.551  28.958  28.186  1.00  0.00     0.031 A 
ATOM     50  C   UNL A   1      48.911  29.491  26.782  1.00  0.00     0.049 A 
ATOM     51  C   UNL A   1      43.539  30.085  28.291  1.00  0.00     0.074 A 
ATOM     52  C   UNL A   1      49.720  30.604  26.918  1.00  0.00     0.029 A 
ATOM     53  N   UNL A   1      47.644  29.859  27.206  1.00  0.00    -0.354 N 
ATOM     54  N   UNL A   1      44.810  30.095  27.965  1.00  0.00    -0.248 NA
ATOM     55  C   UNL A   1      43.041  31.360  28.825  1.00  0.00     0.031 C 
ATOM     56  C   UNL A   1      48.945  31.644  27.441  1.00  0.00     0.029 A 
ATOM     57  C   UNL A   1      47.647  31.185  27.601  1.00  0.00     0.049 A 
ATOM     58  H   UNL A   1      46.859  29.265  27.225  1.00  0.00     0.167 HD
ATOM     59  C   UNL A   1      45.255  31.385  28.230  1.00  0.00     0.074 A 
ATOM     60  C   UNL A   1      44.117  32.128  28.730  1.00  0.00     0.031 C 
ATOM     61  C   UNL A   1      46.496  31.906  28.076  1.00  0.00     0.031 A 
BRANCH  48  62
ATOM     62  C   UNL A   1      50.690  27.915  25.912  1.00  0.00    -0.014 A 
ATOM     63  C   UNL A   1      51.136  28.046  24.584  1.00  0.00     0.010 A 
ATOM     64  C   UNL A   1      51.605  27.535  26.908  1.00  0.00     0.010 A 
ATOM     65  C   UNL A   1      52.460  27.749  24.251  1.00  0.00     0.020 A 
ATOM     66  C   UNL A   1      52.937  27.266  26.584  1.00  0.00     0.020 A 
ATOM     67  C   UNL A   1      53.350  27.354  25.252  1.00  0.00     0.054 A 
BRANCH  67  68
ATOM     68  S   UNL A   1      55.067  26.989  24.797  1.00  0.00     0.124 S 
ATOM     69  O   UNL A   1      55.266  27.872  23.650  1.00  0.00    -0.237 OA
ATOM     70  O   UNL A   1      55.805  27.353  26.004  1.00  0.00    -0.237 OA
ATOM     71  O   UNL A   1      55.047  25.561  24.489  1.00  0.00    -0.744 OA
ENDBRANCH  67  68
ENDBRANCH  48  62
BRANCH  49  72
ATOM     72  C   UNL A   1      41.138  29.146  28.616  1.00  0.00    -0.014 A 
ATOM     73  C   UNL A   1      40.133  29.365  27.657  1.00  0.00     0.010 A 
ATOM     74  C   UNL A   1      40.787  29.115  29.978  1.00  0.00     0.010 A 
ATOM     75  C   UNL A   1      38.809  29.579  28.051  1.00  0.00     0.020 A 
ATOM     76  C   UNL A   1      39.460  29.306  30.374  1.00  0.00     0.020 A 
ATOM     77  C   UNL A   1      38.481  29.553  29.408  1.00  0.00     0.054 A 
BRANCH  77  78
ATOM     78  S   UNL A   1      36.752  29.804  29.899  1.00  0.00     0.124 S 
ATOM     79  O   UNL A   1      36.031  29.310  28.731  1.00  0.00    -0.237 OA
ATOM     80  O   UNL A   1      36.641  28.985  31.105  1.00  0.00    -0.237 OA
ATOM     81  O   UNL A   1      36.671  31.245  30.126  1.00  0.00    -0.744 OA
ENDBRANCH  77  78
ENDBRANCH  49  72
BRANCH  61  82
ATOM     82  C   UNL A   1      46.678  33.359  28.409  1.00  0.00    -0.014 A 
ATOM     83  C   UNL A   1      47.082  33.762  29.693  1.00  0.00     0.010 A 
ATOM     84  C   UNL A   1      46.508  34.326  27.401  1.00  0.00     0.010 A 
ATOM     85  C   UNL A   1      47.292  35.115  29.971  1.00  0.00     0.020 A 
ATOM     86  C   UNL A   1      46.738  35.676  27.671  1.00  0.00     0.020 A 
ATOM     87  C   UNL A   1      47.118  36.062  28.957  1.00  0.00     0.054 A 
BRANCH  87  88
ATOM     88  S   UNL A   1      47.454  37.807  29.324  1.00  0.00     0.124 S 
ATOM     89  O   UNL A   1      47.173  38.446  28.042  1.00  0.00    -0.237 OA
ATOM     90  O   UNL A   1      46.503  38.100  30.394  1.00  0.00    -0.237 OA
ATOM     91  O   UNL A   1      48.858  37.809  29.730  1.00  0.00    -0.744 OA
ENDBRANCH  87  88
ENDBRANCH  61  82
ENDBRANCH  35  36
ENDBRANCH  27  30
ENDBRANCH  25  26
ENDBRANCH  24  25
ENDBRANCH  23  24
ENDBRANCH   1  23
TORSDOF 22
ENDMDL
MODEL 3
REMARK VINA RESULT:      -9.1      2.332      8.345
REMARK SMILES CCC([NH3+])(CC)C(=O)N(CCC(=O)NCCCCNC(=O)c1ccc(-c2c3nc(c(-c4ccc(S(=O)(=O)[O-])cc4)c4ccc([nH]4)c(-c4ccc(S(=O)(=O)[O-])cc4)c4nc(c(-c5ccc(S(=O)(=O)[O-])cc5)c5ccc2[nH]5)C=C4)C=C3)cc1)C(C)C
REMARK SMILES IDX 15 1 14 2 12 3 13 4 11 6 10 7 9 8 7 9 8 10 3 11 2 12 1 13
REMARK SMILES IDX 4 14 5 18 6 19 82 20 83 21 84 22 16 23 17 24 18 25 19 26
REMARK SMILES IDX 20 27 21 29 22 30 23 31 81 32 24 33 80 34 25 35 26 36 27 37
REMARK SMILES IDX 74 38 28 39 79 40 73 41 75 42 29 43 78 44 72 45 71 46 30 48
REMARK SMILES IDX 60 49 41 50 59 51 42 52 45 53 58 54 76 55 43 56 44 57 57 59
REMARK SMILES IDX 77 60 46 61 31 62 32 63 40 64 33 65 39 66 34 67 35 68 36 69
REMARK SMILES IDX 37 70 38 71 61 72 62 73 70 74 63 75 69 76 64 77 65 78 66 79
REMARK SMILES IDX 67 80 68 81 47 82 48 83 56 84 49 85 55 86 50 87 51 88 52 89
REMARK SMILES IDX 53 90 54 91
REMARK H PARENT 14 5 4 15 4 16 4 17 19 28 75 47 45 58
REMARK Flexibility Score: inf
ROOT
ATOM      1  C   UNL A   1      37.649  22.246  25.782  1.00  0.00     0.116 C 
ENDROOT
BRANCH   1   2
ATOM      2  N   UNL A   1      37.399  22.420  24.351  1.00  0.00    -0.356 N 
ATOM      3  C   UNL A   1      36.441  23.070  23.636  1.00  0.00     0.221 C 
ATOM      4  O   UNL A   1      36.489  22.988  22.406  1.00  0.00    -0.275 OA
ATOM      5  H   UNL A   1      38.067  21.971  23.785  1.00  0.00     0.163 HD
BRANCH   3   6
ATOM      6  C   UNL A   1      35.336  23.878  24.290  1.00  0.00     0.121 C 
BRANCH   6   7
ATOM      7  C   UNL A   1      34.352  24.436  23.233  1.00  0.00     0.130 C 
BRANCH   7   8
ATOM      8  N   UNL A   1      32.930  24.191  23.564  1.00  0.00    -0.334 N 
BRANCH   8   9
ATOM      9  C   UNL A   1      32.301  23.037  24.030  1.00  0.00     0.284 C 
ATOM     10  O   UNL A   1      31.790  22.263  23.208  1.00  0.00    -0.268 OA
BRANCH   9  11
ATOM     11  C   UNL A   1      32.231  22.649  25.539  1.00  0.00     0.173 C 
BRANCH  11  12
ATOM     12  C   UNL A   1      30.770  22.177  25.877  1.00  0.00     0.075 C 
ATOM     13  C   UNL A   1      30.017  22.953  26.963  1.00  0.00     0.011 C 
ENDBRANCH  11  12
BRANCH  11  14
ATOM     14  N   UNL A   1      32.520  23.827  26.392  1.00  0.00    -0.345 N 
ATOM     15  H   UNL A   1      31.744  23.982  27.035  1.00  0.00     0.345 HD
ATOM     16  H   UNL A   1      32.643  24.651  25.803  1.00  0.00     0.345 HD
ATOM     17  H   UNL A   1      33.374  23.660  26.925  1.00  0.00     0.345 HD
ENDBRANCH  11  14
BRANCH  11  18
ATOM     18  C   UNL A   1      33.199  21.489  25.888  1.00  0.00     0.075 C 
ATOM     19  C   UNL A   1      34.035  21.708  27.148  1.00  0.00     0.011 C 
ENDBRANCH  11  18
ENDBRANCH   9  11
ENDBRANCH   8   9
BRANCH   8  20
ATOM     20  C   UNL A   1      32.042  25.316  23.266  1.00  0.00     0.079 C 
ATOM     21  C   UNL A   1      32.127  25.697  21.786  1.00  0.00     0.031 C 
ATOM     22  C   UNL A   1      30.615  25.152  23.790  1.00  0.00     0.031 C 
ENDBRANCH   8  20
ENDBRANCH   7   8
ENDBRANCH   6   7
ENDBRANCH   3   6
ENDBRANCH   1   2
BRANCH   1  23
ATOM     23  C   UNL A   1      39.139  21.971  26.049  1.00  0.00     0.023 C 
BRANCH  23  24
ATOM     24  C   UNL A   1      39.877  22.975  26.936  1.00  0.00     0.023 C 
BRANCH  24  25
ATOM     25  C   UNL A   1      39.509  24.449  26.799  1.00  0.00     0.116 C 
BRANCH  25  26
ATOM     26  N   UNL A   1      40.269  25.201  25.805  1.00  0.00    -0.352 N 
ATOM     27  C   UNL A   1      41.374  26.026  25.904  1.00  0.00     0.251 C 
ATOM     28  H   UNL A   1      39.929  25.102  24.886  1.00  0.00     0.163 HD
ATOM     29  O   UNL A   1      41.941  26.405  24.900  1.00  0.00    -0.269 OA
BRANCH  27  30
ATOM     30  C   UNL A   1      41.757  26.571  27.224  1.00  0.00     0.039 A 
ATOM     31  C   UNL A   1      42.253  27.876  27.256  1.00  0.00     0.014 A 
ATOM     32  C   UNL A   1      41.462  25.901  28.404  1.00  0.00     0.014 A 
ATOM     33  C   UNL A   1      42.273  28.572  28.463  1.00  0.00     0.010 A 
ATOM     34  C   UNL A   1      41.337  26.638  29.571  1.00  0.00     0.010 A 
ATOM     35  C   UNL A   1      41.708  27.992  29.609  1.00  0.00    -0.014 A 
BRANCH  35  36
ATOM     36  C   UNL A   1      41.444  28.789  30.836  1.00  0.00     0.031 A 
ATOM     37  C   UNL A   1      40.265  29.721  30.884  1.00  0.00     0.074 A 
ATOM     38  C   UNL A   1      42.330  28.764  31.856  1.00  0.00     0.049 A 
ATOM     39  N   UNL A   1      39.960  30.618  31.784  1.00  0.00    -0.248 NA
ATOM     40  C   UNL A   1      39.338  29.683  29.739  1.00  0.00     0.031 C 
ATOM     41  C   UNL A   1      43.563  27.968  31.905  1.00  0.00     0.029 A 
ATOM     42  N   UNL A   1      42.332  29.434  33.055  1.00  0.00    -0.354 N 
ATOM     43  C   UNL A   1      38.850  31.288  31.285  1.00  0.00     0.074 A 
ATOM     44  C   UNL A   1      38.565  30.729  29.982  1.00  0.00     0.031 C 
ATOM     45  C   UNL A   1      44.166  28.153  33.090  1.00  0.00     0.029 A 
ATOM     46  C   UNL A   1      43.397  29.115  33.868  1.00  0.00     0.049 A 
ATOM     47  H   UNL A   1      41.637  30.082  33.310  1.00  0.00     0.167 HD
ATOM     48  C   UNL A   1      38.113  32.262  31.870  1.00  0.00     0.031 A 
ATOM     49  C   UNL A   1      43.716  29.549  35.102  1.00  0.00     0.031 A 
ATOM     50  C   UNL A   1      38.345  32.749  33.200  1.00  0.00     0.049 A 
ATOM     51  C   UNL A   1      42.825  30.557  35.771  1.00  0.00     0.074 A 
ATOM     52  C   UNL A   1      37.599  33.661  33.924  1.00  0.00     0.029 A 
ATOM     53  N   UNL A   1      39.388  32.342  34.017  1.00  0.00    -0.354 N 
ATOM     54  N   UNL A   1      41.747  31.138  35.302  1.00  0.00    -0.248 NA
ATOM     55  C   UNL A   1      43.186  30.962  37.137  1.00  0.00     0.031 C 
ATOM     56  C   UNL A   1      38.201  33.818  35.176  1.00  0.00     0.029 A 
ATOM     57  C   UNL A   1      39.303  32.981  35.241  1.00  0.00     0.049 A 
ATOM     58  H   UNL A   1      40.086  31.695  33.763  1.00  0.00     0.167 HD
ATOM     59  C   UNL A   1      41.286  31.957  36.326  1.00  0.00     0.074 A 
ATOM     60  C   UNL A   1      42.194  31.787  37.442  1.00  0.00     0.031 C 
ATOM     61  C   UNL A   1      40.209  32.779  36.341  1.00  0.00     0.031 A 
BRANCH  48  62
ATOM     62  C   UNL A   1      36.976  32.841  31.074  1.00  0.00    -0.014 A 
ATOM     63  C   UNL A   1      37.209  33.789  30.061  1.00  0.00     0.010 A 
ATOM     64  C   UNL A   1      35.658  32.422  31.330  1.00  0.00     0.010 A 
ATOM     65  C   UNL A   1      36.140  34.348  29.356  1.00  0.00     0.020 A 
ATOM     66  C   UNL A   1      34.589  32.957  30.606  1.00  0.00     0.020 A 
ATOM     67  C   UNL A   1      34.837  33.933  29.638  1.00  0.00     0.054 A 
BRANCH  67  68
ATOM     68  S   UNL A   1      33.468  34.661  28.698  1.00  0.00     0.124 S 
ATOM     69  O   UNL A   1      32.519  34.990  29.759  1.00  0.00    -0.237 OA
ATOM     70  O   UNL A   1      34.098  35.805  28.044  1.00  0.00    -0.237 OA
ATOM     71  O   UNL A   1      33.053  33.584  27.801  1.00  0.00    -0.744 OA
ENDBRANCH  67  68
ENDBRANCH  48  62
BRANCH  49  72
ATOM     72  C   UNL A   1      44.909  29.005  35.808  1.00  0.00    -0.014 A 
ATOM     73  C   UNL A   1      46.155  29.643  35.678  1.00  0.00     0.010 A 
ATOM     74  C   UNL A   1      44.813  27.850  36.605  1.00  0.00     0.010 A 
ATOM     75  C   UNL A   1      47.290  29.121  36.305  1.00  0.00     0.020 A 
ATOM     76  C   UNL A   1      45.941  27.338  37.252  1.00  0.00     0.020 A 
ATOM     77  C   UNL A   1      47.177  27.968  37.086  1.00  0.00     0.054 A 
BRANCH  77  78
ATOM     78  S   UNL A   1      48.654  27.321  37.918  1.00  0.00     0.124 S 
ATOM     79  O   UNL A   1      49.460  28.526  38.084  1.00  0.00    -0.237 OA
ATOM     80  O   UNL A   1      48.105  26.751  39.147  1.00  0.00    -0.237 OA
ATOM     81  O   UNL A   1      49.176  26.343  36.967  1.00  0.00    -0.744 OA
ENDBRANCH  77  78
ENDBRANCH  49  72
BRANCH  61  82
ATOM     82  C   UNL A   1      39.927  33.522  37.615  1.00  0.00    -0.014 A 
ATOM     83  C   UNL A   1      40.438  34.814  37.827  1.00  0.00     0.010 A 
ATOM     84  C   UNL A   1      39.084  32.943  38.581  1.00  0.00     0.010 A 
ATOM     85  C   UNL A   1      40.126  35.508  38.999  1.00  0.00     0.020 A 
ATOM     86  C   UNL A   1      38.754  33.643  39.742  1.00  0.00     0.020 A 
ATOM     87  C   UNL A   1      39.286  34.917  39.948  1.00  0.00     0.054 A 
BRANCH  87  88
ATOM     88  S   UNL A   1      38.847  35.861  41.434  1.00  0.00     0.124 S 
ATOM     89  O   UNL A   1      37.544  35.298  41.777  1.00  0.00    -0.237 OA
ATOM     90  O   UNL A   1      39.934  35.537  42.355  1.00  0.00    -0.237 OA
ATOM     91  O   UNL A   1      38.826  37.246  40.969  1.00  0.00    -0.744 OA
ENDBRANCH  87  88
ENDBRANCH  61  82
ENDBRANCH  35  36
ENDBRANCH  27  30
ENDBRANCH  25  26
ENDBRANCH  24  25
ENDBRANCH  23  24
ENDBRANCH   1  23
TORSDOF 22
ENDMDL
