MODEL 1
REMARK VINA RESULT:     -12.6      0.000      0.000
REMARK SMILES O=C(Cc1c(C(=O)c2cc3c(cn2)CCCC3)[nH]c2cc(Cl)ccc12)NCCCCNC(=O)c1ccc(-c2c3nc(c(-c4ccc(S(=O)(=O)[O-])cc4)c4ccc([nH]4)c(-c4ccc(S(=O)(=O)[O-])cc4)c4nc(c(-c5ccc(S(=O)(=O)[O-])cc5)c5ccc2[nH]5)C=C4)C=C3)cc1
REMARK SMILES IDX 28 1 27 2 26 3 1 4 2 5 3 7 4 8 5 9 25 10 18 11 19 12 24 13
REMARK SMILES IDX 20 15 23 16 21 17 22 18 6 19 7 20 8 21 9 22 13 23 10 24
REMARK SMILES IDX 12 25 11 26 17 27 14 28 16 29 15 30 29 31 30 32 31 33 32 34
REMARK SMILES IDX 33 36 34 37 35 38 93 39 36 40 92 41 37 42 38 43 39 44 86 45
REMARK SMILES IDX 40 46 91 47 85 48 87 49 41 50 90 51 84 52 83 53 42 55 72 56
REMARK SMILES IDX 53 57 71 58 54 59 57 60 70 61 88 62 55 63 56 64 69 66 89 67
REMARK SMILES IDX 58 68 43 69 44 70 52 71 45 72 51 73 46 74 47 75 48 76 49 77
REMARK SMILES IDX 50 78 73 79 74 80 82 81 75 82 81 83 76 84 77 85 78 86 79 87
REMARK SMILES IDX 80 88 59 89 60 90 68 91 61 92 67 93 62 94 63 95 64 96 65 97
REMARK SMILES IDX 66 98
REMARK H PARENT 26 6 18 14 31 35 87 54 57 65
REMARK Flexibility Score: inf
ROOT
ATOM      1  C   UNL A   1      32.194  29.187  27.236  1.00  0.00     0.023 C 
ENDROOT
BRANCH   1   2
ATOM      2  C   UNL A   1      31.674  27.911  26.580  1.00  0.00     0.116 C 
BRANCH   2   3
ATOM      3  N   UNL A   1      32.709  27.088  25.986  1.00  0.00    -0.356 N 
ATOM      4  O   UNL A   1      31.805  25.126  26.753  1.00  0.00    -0.275 OA
ATOM      5  C   UNL A   1      32.670  25.709  26.103  1.00  0.00     0.224 C 
ATOM      6  H   UNL A   1      33.447  27.515  25.493  1.00  0.00     0.163 HD
BRANCH   5   7
ATOM      7  C   UNL A   1      33.760  24.975  25.339  1.00  0.00     0.138 C 
BRANCH   7   8
ATOM      8  C   UNL A   1      33.269  24.031  24.264  1.00  0.00    -0.002 A 
ATOM      9  C   UNL A   1      32.796  24.437  23.008  1.00  0.00     0.093 A 
ATOM     10  C   UNL A   1      33.126  22.597  24.325  1.00  0.00     0.004 A 
ATOM     11  N   UNL A   1      32.481  23.291  22.314  1.00  0.00    -0.351 N 
ATOM     12  C   UNL A   1      32.597  22.179  23.105  1.00  0.00     0.048 A 
ATOM     13  C   UNL A   1      33.383  21.601  25.293  1.00  0.00     0.012 A 
ATOM     14  H   UNL A   1      32.208  23.273  21.367  1.00  0.00     0.167 HD
ATOM     15  C   UNL A   1      32.285  20.843  22.817  1.00  0.00     0.047 A 
ATOM     16  C   UNL A   1      33.077  20.259  25.031  1.00  0.00     0.021 A 
ATOM     17  C   UNL A   1      32.528  19.895  23.811  1.00  0.00     0.043 A 
ATOM     18  Cl  UNL A   1      32.152  18.241  23.511  1.00  0.00    -0.084 Cl
BRANCH   9  19
ATOM     19  C   UNL A   1      32.667  25.795  22.473  1.00  0.00     0.227 C 
ATOM     20  O   UNL A   1      33.575  26.378  21.884  1.00  0.00    -0.285 OA
BRANCH  19  21
ATOM     21  C   UNL A   1      31.382  26.530  22.677  1.00  0.00     0.113 A 
ATOM     22  C   UNL A   1      31.225  27.819  22.176  1.00  0.00     0.036 A 
ATOM     23  N   UNL A   1      30.422  25.875  23.376  1.00  0.00    -0.252 NA
ATOM     24  C   UNL A   1      30.016  28.486  22.404  1.00  0.00    -0.041 A 
ATOM     25  C   UNL A   1      29.258  26.532  23.566  1.00  0.00     0.115 A 
ATOM     26  C   UNL A   1      29.008  27.829  23.125  1.00  0.00    -0.026 A 
ATOM     27  C   UNL A   1      29.845  29.908  21.930  1.00  0.00     0.036 C 
ATOM     28  C   UNL A   1      27.657  28.454  23.357  1.00  0.00     0.037 C 
ATOM     29  C   UNL A   1      28.382  30.352  21.883  1.00  0.00     0.005 C 
ATOM     30  C   UNL A   1      27.662  29.971  23.171  1.00  0.00     0.005 C 
ENDBRANCH  19  21
ENDBRANCH   9  19
ENDBRANCH   7   8
ENDBRANCH   5   7
ENDBRANCH   2   3
ENDBRANCH   1   2
BRANCH   1  31
ATOM     31  C   UNL A   1      33.529  29.716  26.702  1.00  0.00     0.023 C 
BRANCH  31  32
ATOM     32  C   UNL A   1      34.737  29.510  27.611  1.00  0.00     0.116 C 
BRANCH  32  33
ATOM     33  N   UNL A   1      34.828  30.495  28.678  1.00  0.00    -0.352 N 
ATOM     34  C   UNL A   1      35.876  30.796  29.520  1.00  0.00     0.251 C 
ATOM     35  H   UNL A   1      34.013  31.029  28.821  1.00  0.00     0.163 HD
ATOM     36  O   UNL A   1      35.702  31.580  30.450  1.00  0.00    -0.269 OA
BRANCH  34  37
ATOM     37  C   UNL A   1      37.198  30.150  29.341  1.00  0.00     0.039 A 
ATOM     38  C   UNL A   1      37.864  29.551  30.412  1.00  0.00     0.014 A 
ATOM     39  C   UNL A   1      37.789  30.150  28.072  1.00  0.00     0.014 A 
ATOM     40  C   UNL A   1      39.184  29.132  30.260  1.00  0.00     0.010 A 
ATOM     41  C   UNL A   1      39.086  29.651  27.903  1.00  0.00     0.010 A 
ATOM     42  C   UNL A   1      39.820  29.194  29.008  1.00  0.00    -0.014 A 
BRANCH  42  43
ATOM     43  C   UNL A   1      41.252  28.806  28.886  1.00  0.00     0.031 A 
ATOM     44  C   UNL A   1      41.636  27.413  28.450  1.00  0.00     0.074 A 
ATOM     45  C   UNL A   1      42.214  29.727  29.099  1.00  0.00     0.049 A 
ATOM     46  N   UNL A   1      42.830  26.916  28.248  1.00  0.00    -0.248 NA
ATOM     47  C   UNL A   1      40.545  26.454  28.204  1.00  0.00     0.031 C 
ATOM     48  C   UNL A   1      41.977  31.116  29.497  1.00  0.00     0.029 A 
ATOM     49  N   UNL A   1      43.581  29.647  28.977  1.00  0.00    -0.354 N 
ATOM     50  C   UNL A   1      42.636  25.594  27.863  1.00  0.00     0.074 A 
ATOM     51  C   UNL A   1      41.212  25.351  27.889  1.00  0.00     0.031 C 
ATOM     52  C   UNL A   1      43.147  31.771  29.524  1.00  0.00     0.029 A 
ATOM     53  C   UNL A   1      44.226  30.840  29.210  1.00  0.00     0.049 A 
ATOM     54  H   UNL A   1      44.054  28.815  28.745  1.00  0.00     0.167 HD
ATOM     55  C   UNL A   1      43.559  24.672  27.502  1.00  0.00     0.031 A 
ATOM     56  C   UNL A   1      45.537  31.156  29.179  1.00  0.00     0.031 A 
ATOM     57  C   UNL A   1      44.977  24.919  27.453  1.00  0.00     0.049 A 
ATOM     58  C   UNL A   1      46.544  30.097  28.832  1.00  0.00     0.074 A 
ATOM     59  C   UNL A   1      45.982  24.042  27.082  1.00  0.00     0.029 A 
ATOM     60  N   UNL A   1      45.590  26.119  27.772  1.00  0.00    -0.354 N 
ATOM     61  N   UNL A   1      46.337  28.855  28.471  1.00  0.00    -0.248 NA
ATOM     62  C   UNL A   1      47.963  30.478  28.892  1.00  0.00     0.031 C 
ATOM     63  C   UNL A   1      47.208  24.694  27.230  1.00  0.00     0.029 A 
ATOM     64  C   UNL A   1      46.962  25.997  27.630  1.00  0.00     0.049 A 
ATOM     65  H   UNL A   1      45.121  26.935  28.057  1.00  0.00     0.167 HD
ATOM     66  C   UNL A   1      47.595  28.309  28.247  1.00  0.00     0.074 A 
ATOM     67  C   UNL A   1      48.560  29.360  28.495  1.00  0.00     0.031 C 
ATOM     68  C   UNL A   1      47.918  27.048  27.875  1.00  0.00     0.031 A 
BRANCH  55  69
ATOM     69  C   UNL A   1      43.090  23.295  27.109  1.00  0.00    -0.014 A 
ATOM     70  C   UNL A   1      42.625  22.407  28.097  1.00  0.00     0.010 A 
ATOM     71  C   UNL A   1      43.258  22.829  25.793  1.00  0.00     0.010 A 
ATOM     72  C   UNL A   1      42.377  21.067  27.788  1.00  0.00     0.020 A 
ATOM     73  C   UNL A   1      42.987  21.495  25.474  1.00  0.00     0.020 A 
ATOM     74  C   UNL A   1      42.575  20.617  26.480  1.00  0.00     0.054 A 
BRANCH  74  75
ATOM     75  S   UNL A   1      42.301  18.861  26.107  1.00  0.00     0.124 S 
ATOM     76  O   UNL A   1      42.654  18.220  27.369  1.00  0.00    -0.237 OA
ATOM     77  O   UNL A   1      40.883  18.828  25.754  1.00  0.00    -0.237 OA
ATOM     78  O   UNL A   1      43.215  18.604  24.996  1.00  0.00    -0.744 OA
ENDBRANCH  74  75
ENDBRANCH  55  69
BRANCH  56  79
ATOM     79  C   UNL A   1      45.959  32.554  29.476  1.00  0.00    -0.014 A 
ATOM     80  C   UNL A   1      46.188  32.964  30.802  1.00  0.00     0.010 A 
ATOM     81  C   UNL A   1      46.076  33.497  28.440  1.00  0.00     0.010 A 
ATOM     82  C   UNL A   1      46.476  34.299  31.093  1.00  0.00     0.020 A 
ATOM     83  C   UNL A   1      46.396  34.828  28.725  1.00  0.00     0.020 A 
ATOM     84  C   UNL A   1      46.566  35.226  30.052  1.00  0.00     0.054 A 
BRANCH  84  85
ATOM     85  S   UNL A   1      46.917  36.960  30.453  1.00  0.00     0.124 S 
ATOM     86  O   UNL A   1      46.253  37.107  31.746  1.00  0.00    -0.237 OA
ATOM     87  O   UNL A   1      48.376  36.995  30.488  1.00  0.00    -0.237 OA
ATOM     88  O   UNL A   1      46.306  37.694  29.348  1.00  0.00    -0.744 OA
ENDBRANCH  84  85
ENDBRANCH  56  79
BRANCH  68  89
ATOM     89  C   UNL A   1      49.373  26.703  27.700  1.00  0.00    -0.014 A 
ATOM     90  C   UNL A   1      50.140  26.330  28.820  1.00  0.00     0.010 A 
ATOM     91  C   UNL A   1      50.011  26.884  26.461  1.00  0.00     0.010 A 
ATOM     92  C   UNL A   1      51.525  26.184  28.714  1.00  0.00     0.020 A 
ATOM     93  C   UNL A   1      51.394  26.712  26.346  1.00  0.00     0.020 A 
ATOM     94  C   UNL A   1      52.145  26.389  27.479  1.00  0.00     0.054 A 
BRANCH  94  95
ATOM     95  S   UNL A   1      53.949  26.235  27.367  1.00  0.00     0.124 S 
ATOM     96  O   UNL A   1      54.105  25.118  26.441  1.00  0.00    -0.237 OA
ATOM     97  O   UNL A   1      54.354  27.542  26.852  1.00  0.00    -0.237 OA
ATOM     98  O   UNL A   1      54.354  25.966  28.745  1.00  0.00    -0.744 OA
ENDBRANCH  94  95
ENDBRANCH  68  89
ENDBRANCH  42  43
ENDBRANCH  34  37
ENDBRANCH  32  33
ENDBRANCH  31  32
ENDBRANCH   1  31
TORSDOF 17
ENDMDL
MODEL 2
REMARK VINA RESULT:     -12.3      2.178      4.491
REMARK SMILES O=C(Cc1c(C(=O)c2cc3c(cn2)CCCC3)[nH]c2cc(Cl)ccc12)NCCCCNC(=O)c1ccc(-c2c3nc(c(-c4ccc(S(=O)(=O)[O-])cc4)c4ccc([nH]4)c(-c4ccc(S(=O)(=O)[O-])cc4)c4nc(c(-c5ccc(S(=O)(=O)[O-])cc5)c5ccc2[nH]5)C=C4)C=C3)cc1
REMARK SMILES IDX 28 1 27 2 26 3 1 4 2 5 3 7 4 8 5 9 25 10 18 11 19 12 24 13
REMARK SMILES IDX 20 15 23 16 21 17 22 18 6 19 7 20 8 21 9 22 13 23 10 24
REMARK SMILES IDX 12 25 11 26 17 27 14 28 16 29 15 30 29 31 30 32 31 33 32 34
REMARK SMILES IDX 33 36 34 37 35 38 93 39 36 40 92 41 37 42 38 43 39 44 86 45
REMARK SMILES IDX 40 46 91 47 85 48 87 49 41 50 90 51 84 52 83 53 42 55 72 56
REMARK SMILES IDX 53 57 71 58 54 59 57 60 70 61 88 62 55 63 56 64 69 66 89 67
REMARK SMILES IDX 58 68 43 69 44 70 52 71 45 72 51 73 46 74 47 75 48 76 49 77
REMARK SMILES IDX 50 78 73 79 74 80 82 81 75 82 81 83 76 84 77 85 78 86 79 87
REMARK SMILES IDX 80 88 59 89 60 90 68 91 61 92 67 93 62 94 63 95 64 96 65 97
REMARK SMILES IDX 66 98
REMARK H PARENT 26 6 18 14 31 35 87 54 57 65
REMARK Flexibility Score: inf
ROOT
ATOM      1  C   UNL A   1      35.235  31.665  27.666  1.00  0.00     0.023 C 
ENDROOT
BRANCH   1   2
ATOM      2  C   UNL A   1      35.331  30.146  27.788  1.00  0.00     0.116 C 
BRANCH   2   3
ATOM      3  N   UNL A   1      34.047  29.478  27.864  1.00  0.00    -0.356 N 
ATOM      4  O   UNL A   1      34.290  28.447  25.831  1.00  0.00    -0.275 OA
ATOM      5  C   UNL A   1      33.631  28.628  26.852  1.00  0.00     0.224 C 
ATOM      6  H   UNL A   1      33.465  29.629  28.644  1.00  0.00     0.163 HD
BRANCH   5   7
ATOM      7  C   UNL A   1      32.315  27.918  27.120  1.00  0.00     0.138 C 
BRANCH   7   8
ATOM      8  C   UNL A   1      31.518  27.553  25.887  1.00  0.00    -0.002 A 
ATOM      9  C   UNL A   1      31.325  26.243  25.426  1.00  0.00     0.093 A 
ATOM     10  C   UNL A   1      30.881  28.432  24.937  1.00  0.00     0.004 A 
ATOM     11  N   UNL A   1      30.524  26.329  24.310  1.00  0.00    -0.351 N 
ATOM     12  C   UNL A   1      30.306  27.632  23.950  1.00  0.00     0.048 A 
ATOM     13  C   UNL A   1      30.734  29.830  24.802  1.00  0.00     0.012 A 
ATOM     14  H   UNL A   1      30.155  25.551  23.831  1.00  0.00     0.167 HD
ATOM     15  C   UNL A   1      29.632  28.150  22.835  1.00  0.00     0.047 A 
ATOM     16  C   UNL A   1      30.067  30.372  23.695  1.00  0.00     0.021 A 
ATOM     17  C   UNL A   1      29.534  29.536  22.726  1.00  0.00     0.043 A 
ATOM     18  Cl  UNL A   1      28.724  30.222  21.369  1.00  0.00    -0.084 Cl
BRANCH   9  19
ATOM     19  C   UNL A   1      31.826  24.989  25.994  1.00  0.00     0.227 C 
ATOM     20  O   UNL A   1      31.334  24.451  26.984  1.00  0.00    -0.285 OA
BRANCH  19  21
ATOM     21  C   UNL A   1      33.018  24.340  25.366  1.00  0.00     0.113 A 
ATOM     22  C   UNL A   1      33.644  23.268  25.996  1.00  0.00     0.036 A 
ATOM     23  N   UNL A   1      33.434  24.865  24.188  1.00  0.00    -0.252 NA
ATOM     24  C   UNL A   1      34.770  22.698  25.390  1.00  0.00    -0.041 A 
ATOM     25  C   UNL A   1      34.510  24.285  23.614  1.00  0.00     0.115 A 
ATOM     26  C   UNL A   1      35.221  23.225  24.171  1.00  0.00    -0.026 A 
ATOM     27  C   UNL A   1      35.507  21.580  26.084  1.00  0.00     0.036 C 
ATOM     28  C   UNL A   1      36.384  22.626  23.425  1.00  0.00     0.037 C 
ATOM     29  C   UNL A   1      36.436  20.804  25.150  1.00  0.00     0.005 C 
ATOM     30  C   UNL A   1      37.277  21.758  24.311  1.00  0.00     0.005 C 
ENDBRANCH  19  21
ENDBRANCH   9  19
ENDBRANCH   7   8
ENDBRANCH   5   7
ENDBRANCH   2   3
ENDBRANCH   1   2
BRANCH   1  31
ATOM     31  C   UNL A   1      35.016  32.427  28.976  1.00  0.00     0.023 C 
BRANCH  31  32
ATOM     32  C   UNL A   1      36.196  32.439  29.943  1.00  0.00     0.116 C 
BRANCH  32  33
ATOM     33  N   UNL A   1      36.056  31.485  31.033  1.00  0.00    -0.352 N 
ATOM     34  C   UNL A   1      36.904  30.482  31.449  1.00  0.00     0.251 C 
ATOM     35  H   UNL A   1      35.224  31.569  31.554  1.00  0.00     0.163 HD
ATOM     36  O   UNL A   1      36.533  29.696  32.316  1.00  0.00    -0.269 OA
BRANCH  34  37
ATOM     37  C   UNL A   1      38.239  30.318  30.827  1.00  0.00     0.039 A 
ATOM     38  C   UNL A   1      38.375  29.971  29.481  1.00  0.00     0.014 A 
ATOM     39  C   UNL A   1      39.382  30.506  31.611  1.00  0.00     0.014 A 
ATOM     40  C   UNL A   1      39.628  29.628  28.978  1.00  0.00     0.010 A 
ATOM     41  C   UNL A   1      40.649  30.241  31.079  1.00  0.00     0.010 A 
ATOM     42  C   UNL A   1      40.780  29.740  29.774  1.00  0.00    -0.014 A 
BRANCH  42  43
ATOM     43  C   UNL A   1      42.097  29.301  29.235  1.00  0.00     0.031 A 
ATOM     44  C   UNL A   1      42.285  27.896  28.717  1.00  0.00     0.074 A 
ATOM     45  C   UNL A   1      43.111  30.186  29.145  1.00  0.00     0.049 A 
ATOM     46  N   UNL A   1      43.347  27.357  28.173  1.00  0.00    -0.248 NA
ATOM     47  C   UNL A   1      41.137  26.978  28.814  1.00  0.00     0.031 C 
ATOM     48  C   UNL A   1      43.051  31.582  29.585  1.00  0.00     0.029 A 
ATOM     49  N   UNL A   1      44.376  30.058  28.623  1.00  0.00    -0.354 N 
ATOM     50  C   UNL A   1      43.000  26.044  27.874  1.00  0.00     0.074 A 
ATOM     51  C   UNL A   1      41.640  25.852  28.324  1.00  0.00     0.031 C 
ATOM     52  C   UNL A   1      44.199  32.195  29.258  1.00  0.00     0.029 A 
ATOM     53  C   UNL A   1      45.103  31.226  28.645  1.00  0.00     0.049 A 
ATOM     54  H   UNL A   1      44.729  29.210  28.268  1.00  0.00     0.167 HD
ATOM     55  C   UNL A   1      43.741  25.090  27.263  1.00  0.00     0.031 A 
ATOM     56  C   UNL A   1      46.355  31.495  28.223  1.00  0.00     0.031 A 
ATOM     57  C   UNL A   1      45.089  25.286  26.793  1.00  0.00     0.049 A 
ATOM     58  C   UNL A   1      47.176  30.401  27.601  1.00  0.00     0.074 A 
ATOM     59  C   UNL A   1      45.907  24.374  26.147  1.00  0.00     0.029 A 
ATOM     60  N   UNL A   1      45.811  26.462  26.905  1.00  0.00    -0.354 N 
ATOM     61  N   UNL A   1      46.827  29.168  27.328  1.00  0.00    -0.248 NA
ATOM     62  C   UNL A   1      48.561  30.730  27.234  1.00  0.00     0.031 C 
ATOM     63  C   UNL A   1      47.143  24.981  25.919  1.00  0.00     0.029 A 
ATOM     64  C   UNL A   1      47.073  26.291  26.363  1.00  0.00     0.049 A 
ATOM     65  H   UNL A   1      45.476  27.294  27.310  1.00  0.00     0.167 HD
ATOM     66  C   UNL A   1      47.942  28.578  26.745  1.00  0.00     0.074 A 
ATOM     67  C   UNL A   1      48.973  29.593  26.687  1.00  0.00     0.031 C 
ATOM     68  C   UNL A   1      48.095  27.306  26.304  1.00  0.00     0.031 A 
BRANCH  55  69
ATOM     69  C   UNL A   1      43.129  23.732  27.038  1.00  0.00    -0.014 A 
ATOM     70  C   UNL A   1      43.168  22.770  28.064  1.00  0.00     0.010 A 
ATOM     71  C   UNL A   1      42.659  23.359  25.766  1.00  0.00     0.010 A 
ATOM     72  C   UNL A   1      42.790  21.448  27.814  1.00  0.00     0.020 A 
ATOM     73  C   UNL A   1      42.257  22.043  25.518  1.00  0.00     0.020 A 
ATOM     74  C   UNL A   1      42.351  21.090  26.536  1.00  0.00     0.054 A 
BRANCH  74  75
ATOM     75  S   UNL A   1      41.917  19.358  26.212  1.00  0.00     0.124 S 
ATOM     76  O   UNL A   1      42.306  18.705  27.457  1.00  0.00    -0.237 OA
ATOM     77  O   UNL A   1      40.480  19.432  25.957  1.00  0.00    -0.237 OA
ATOM     78  O   UNL A   1      42.729  19.018  25.045  1.00  0.00    -0.744 OA
ENDBRANCH  74  75
ENDBRANCH  55  69
BRANCH  56  79
ATOM     79  C   UNL A   1      46.895  32.875  28.369  1.00  0.00    -0.014 A 
ATOM     80  C   UNL A   1      46.746  33.813  27.331  1.00  0.00     0.010 A 
ATOM     81  C   UNL A   1      47.612  33.241  29.522  1.00  0.00     0.010 A 
ATOM     82  C   UNL A   1      47.344  35.072  27.419  1.00  0.00     0.020 A 
ATOM     83  C   UNL A   1      48.185  34.513  29.627  1.00  0.00     0.020 A 
ATOM     84  C   UNL A   1      48.072  35.409  28.563  1.00  0.00     0.054 A 
BRANCH  84  85
ATOM     85  S   UNL A   1      48.863  37.039  28.648  1.00  0.00     0.124 S 
ATOM     86  O   UNL A   1      50.131  36.791  27.967  1.00  0.00    -0.237 OA
ATOM     87  O   UNL A   1      47.921  37.893  27.929  1.00  0.00    -0.237 OA
ATOM     88  O   UNL A   1      48.961  37.295  30.082  1.00  0.00    -0.744 OA
ENDBRANCH  84  85
ENDBRANCH  56  79
BRANCH  68  89
ATOM     89  C   UNL A   1      49.419  26.910  25.708  1.00  0.00    -0.014 A 
ATOM     90  C   UNL A   1      50.431  26.393  26.540  1.00  0.00     0.010 A 
ATOM     91  C   UNL A   1      49.710  27.179  24.360  1.00  0.00     0.010 A 
ATOM     92  C   UNL A   1      51.721  26.191  26.045  1.00  0.00     0.020 A 
ATOM     93  C   UNL A   1      50.994  26.952  23.855  1.00  0.00     0.020 A 
ATOM     94  C   UNL A   1      51.998  26.485  24.706  1.00  0.00     0.054 A 
BRANCH  94  95
ATOM     95  S   UNL A   1      53.688  26.255  24.090  1.00  0.00     0.124 S 
ATOM     96  O   UNL A   1      54.357  27.460  24.570  1.00  0.00    -0.237 OA
ATOM     97  O   UNL A   1      54.099  25.008  24.733  1.00  0.00    -0.237 OA
ATOM     98  O   UNL A   1      53.515  26.170  22.642  1.00  0.00    -0.744 OA
ENDBRANCH  94  95
ENDBRANCH  68  89
ENDBRANCH  42  43
ENDBRANCH  34  37
ENDBRANCH  32  33
ENDBRANCH  31  32
ENDBRANCH   1  31
TORSDOF 17
ENDMDL
MODEL 3
REMARK VINA RESULT:     -12.3      5.273      9.463
REMARK SMILES O=C(Cc1c(C(=O)c2cc3c(cn2)CCCC3)[nH]c2cc(Cl)ccc12)NCCCCNC(=O)c1ccc(-c2c3nc(c(-c4ccc(S(=O)(=O)[O-])cc4)c4ccc([nH]4)c(-c4ccc(S(=O)(=O)[O-])cc4)c4nc(c(-c5ccc(S(=O)(=O)[O-])cc5)c5ccc2[nH]5)C=C4)C=C3)cc1
REMARK SMILES IDX 28 1 27 2 26 3 1 4 2 5 3 7 4 8 5 9 25 10 18 11 19 12 24 13
REMARK SMILES IDX 20 15 23 16 21 17 22 18 6 19 7 20 8 21 9 22 13 23 10 24
REMARK SMILES IDX 12 25 11 26 17 27 14 28 16 29 15 30 29 31 30 32 31 33 32 34
REMARK SMILES IDX 33 36 34 37 35 38 93 39 36 40 92 41 37 42 38 43 39 44 86 45
REMARK SMILES IDX 40 46 91 47 85 48 87 49 41 50 90 51 84 52 83 53 42 55 72 56
REMARK SMILES IDX 53 57 71 58 54 59 57 60 70 61 88 62 55 63 56 64 69 66 89 67
REMARK SMILES IDX 58 68 43 69 44 70 52 71 45 72 51 73 46 74 47 75 48 76 49 77
REMARK SMILES IDX 50 78 73 79 74 80 82 81 75 82 81 83 76 84 77 85 78 86 79 87
REMARK SMILES IDX 80 88 59 89 60 90 68 91 61 92 67 93 62 94 63 95 64 96 65 97
REMARK SMILES IDX 66 98
REMARK H PARENT 26 6 18 14 31 35 87 54 57 65
REMARK Flexibility Score: inf
ROOT
ATOM      1  C   UNL A   1      31.762  29.165  27.248  1.00  0.00     0.023 C 
ENDROOT
BRANCH   1   2
ATOM      2  C   UNL A   1      31.410  27.735  26.846  1.00  0.00     0.116 C 
BRANCH   2   3
ATOM      3  N   UNL A   1      32.482  27.031  26.169  1.00  0.00    -0.356 N 
ATOM      4  O   UNL A   1      31.768  24.965  26.860  1.00  0.00    -0.275 OA
ATOM      5  C   UNL A   1      32.557  25.649  26.211  1.00  0.00     0.224 C 
ATOM      6  H   UNL A   1      33.163  27.542  25.674  1.00  0.00     0.163 HD
BRANCH   5   7
ATOM      7  C   UNL A   1      33.669  25.047  25.369  1.00  0.00     0.138 C 
BRANCH   7   8
ATOM      8  C   UNL A   1      33.209  24.170  24.226  1.00  0.00    -0.002 A 
ATOM      9  C   UNL A   1      32.765  24.652  22.986  1.00  0.00     0.093 A 
ATOM     10  C   UNL A   1      33.071  22.735  24.194  1.00  0.00     0.004 A 
ATOM     11  N   UNL A   1      32.472  23.550  22.214  1.00  0.00    -0.351 N 
ATOM     12  C   UNL A   1      32.573  22.392  22.938  1.00  0.00     0.048 A 
ATOM     13  C   UNL A   1      33.309  21.681  25.105  1.00  0.00     0.012 A 
ATOM     14  H   UNL A   1      32.221  23.590  21.262  1.00  0.00     0.167 HD
ATOM     15  C   UNL A   1      32.274  21.075  22.561  1.00  0.00     0.047 A 
ATOM     16  C   UNL A   1      33.015  20.357  24.753  1.00  0.00     0.021 A 
ATOM     17  C   UNL A   1      32.498  20.068  23.499  1.00  0.00     0.043 A 
ATOM     18  Cl  UNL A   1      32.137  18.435  23.088  1.00  0.00    -0.084 Cl
BRANCH   9  19
ATOM     19  C   UNL A   1      32.643  26.040  22.533  1.00  0.00     0.227 C 
ATOM     20  O   UNL A   1      33.568  26.668  22.022  1.00  0.00    -0.285 OA
BRANCH  19  21
ATOM     21  C   UNL A   1      31.341  26.748  22.727  1.00  0.00     0.113 A 
ATOM     22  C   UNL A   1      31.151  28.022  22.198  1.00  0.00     0.036 A 
ATOM     23  N   UNL A   1      30.400  26.086  23.444  1.00  0.00    -0.252 NA
ATOM     24  C   UNL A   1      29.927  28.664  22.416  1.00  0.00    -0.041 A 
ATOM     25  C   UNL A   1      29.221  26.719  23.624  1.00  0.00     0.115 A 
ATOM     26  C   UNL A   1      28.938  28.000  23.156  1.00  0.00    -0.026 A 
ATOM     27  C   UNL A   1      29.720  30.071  21.912  1.00  0.00     0.036 C 
ATOM     28  C   UNL A   1      27.574  28.597  23.380  1.00  0.00     0.037 C 
ATOM     29  C   UNL A   1      28.247  30.479  21.861  1.00  0.00     0.005 C 
ATOM     30  C   UNL A   1      27.541  30.109  23.160  1.00  0.00     0.005 C 
ENDBRANCH  19  21
ENDBRANCH   9  19
ENDBRANCH   7   8
ENDBRANCH   5   7
ENDBRANCH   2   3
ENDBRANCH   1   2
BRANCH   1  31
ATOM     31  C   UNL A   1      32.811  29.864  26.379  1.00  0.00     0.023 C 
BRANCH  31  32
ATOM     32  C   UNL A   1      33.730  30.844  27.103  1.00  0.00     0.116 C 
BRANCH  32  33
ATOM     33  N   UNL A   1      33.146  32.167  27.265  1.00  0.00    -0.352 N 
ATOM     34  C   UNL A   1      33.501  33.195  28.111  1.00  0.00     0.251 C 
ATOM     35  H   UNL A   1      32.378  32.356  26.680  1.00  0.00     0.163 HD
ATOM     36  O   UNL A   1      32.788  34.193  28.184  1.00  0.00    -0.269 OA
BRANCH  34  37
ATOM     37  C   UNL A   1      34.707  33.088  28.965  1.00  0.00     0.039 A 
ATOM     38  C   UNL A   1      35.901  33.722  28.616  1.00  0.00     0.014 A 
ATOM     39  C   UNL A   1      34.645  32.327  30.138  1.00  0.00     0.014 A 
ATOM     40  C   UNL A   1      37.067  33.442  29.326  1.00  0.00     0.010 A 
ATOM     41  C   UNL A   1      35.801  32.115  30.898  1.00  0.00     0.010 A 
ATOM     42  C   UNL A   1      37.037  32.620  30.465  1.00  0.00    -0.014 A 
BRANCH  42  43
ATOM     43  C   UNL A   1      38.307  32.279  31.164  1.00  0.00     0.031 A 
ATOM     44  C   UNL A   1      38.615  32.858  32.523  1.00  0.00     0.074 A 
ATOM     45  C   UNL A   1      39.157  31.389  30.610  1.00  0.00     0.049 A 
ATOM     46  N   UNL A   1      39.649  32.637  33.295  1.00  0.00    -0.248 NA
ATOM     47  C   UNL A   1      37.639  33.804  33.094  1.00  0.00     0.031 C 
ATOM     48  C   UNL A   1      38.965  30.735  29.315  1.00  0.00     0.029 A 
ATOM     49  N   UNL A   1      40.334  30.856  31.079  1.00  0.00    -0.354 N 
ATOM     50  C   UNL A   1      39.454  33.416  34.431  1.00  0.00     0.074 A 
ATOM     51  C   UNL A   1      38.220  34.143  34.238  1.00  0.00     0.031 C 
ATOM     52  C   UNL A   1      39.949  29.844  29.122  1.00  0.00     0.029 A 
ATOM     53  C   UNL A   1      40.880  29.907  30.245  1.00  0.00     0.049 A 
ATOM     54  H   UNL A   1      40.747  31.127  31.931  1.00  0.00     0.167 HD
ATOM     55  C   UNL A   1      40.224  33.504  35.541  1.00  0.00     0.031 A 
ATOM     56  C   UNL A   1      42.002  29.168  30.362  1.00  0.00     0.031 A 
ATOM     57  C   UNL A   1      41.441  32.763  35.744  1.00  0.00     0.049 A 
ATOM     58  C   UNL A   1      42.868  29.329  31.579  1.00  0.00     0.074 A 
ATOM     59  C   UNL A   1      42.275  32.780  36.850  1.00  0.00     0.029 A 
ATOM     60  N   UNL A   1      41.995  31.872  34.840  1.00  0.00    -0.354 N 
ATOM     61  N   UNL A   1      42.663  30.070  32.640  1.00  0.00    -0.248 NA
ATOM     62  C   UNL A   1      44.120  28.558  31.616  1.00  0.00     0.031 C 
ATOM     63  C   UNL A   1      43.362  31.944  36.591  1.00  0.00     0.029 A 
ATOM     64  C   UNL A   1      43.172  31.354  35.353  1.00  0.00     0.049 A 
ATOM     65  H   UNL A   1      41.609  31.642  33.965  1.00  0.00     0.167 HD
ATOM     66  C   UNL A   1      43.751  29.846  33.476  1.00  0.00     0.074 A 
ATOM     67  C   UNL A   1      44.604  28.886  32.808  1.00  0.00     0.031 C 
ATOM     68  C   UNL A   1      44.017  30.394  34.686  1.00  0.00     0.031 A 
BRANCH  55  69
ATOM     69  C   UNL A   1      39.786  34.420  36.653  1.00  0.00    -0.014 A 
ATOM     70  C   UNL A   1      40.220  35.759  36.666  1.00  0.00     0.010 A 
ATOM     71  C   UNL A   1      39.081  33.918  37.762  1.00  0.00     0.010 A 
ATOM     72  C   UNL A   1      39.995  36.568  37.784  1.00  0.00     0.020 A 
ATOM     73  C   UNL A   1      38.833  34.731  38.871  1.00  0.00     0.020 A 
ATOM     74  C   UNL A   1      39.316  36.042  38.886  1.00  0.00     0.054 A 
BRANCH  74  75
ATOM     75  S   UNL A   1      39.082  37.088  40.351  1.00  0.00     0.124 S 
ATOM     76  O   UNL A   1      38.504  36.152  41.309  1.00  0.00    -0.237 OA
ATOM     77  O   UNL A   1      40.442  37.536  40.644  1.00  0.00    -0.237 OA
ATOM     78  O   UNL A   1      38.181  38.137  39.877  1.00  0.00    -0.744 OA
ENDBRANCH  74  75
ENDBRANCH  55  69
BRANCH  56  79
ATOM     79  C   UNL A   1      42.353  28.197  29.289  1.00  0.00    -0.014 A 
ATOM     80  C   UNL A   1      41.924  26.859  29.369  1.00  0.00     0.010 A 
ATOM     81  C   UNL A   1      43.167  28.589  28.212  1.00  0.00     0.010 A 
ATOM     82  C   UNL A   1      42.341  25.921  28.423  1.00  0.00     0.020 A 
ATOM     83  C   UNL A   1      43.561  27.659  27.245  1.00  0.00     0.020 A 
ATOM     84  C   UNL A   1      43.169  26.325  27.373  1.00  0.00     0.054 A 
BRANCH  84  85
ATOM     85  S   UNL A   1      43.721  25.086  26.168  1.00  0.00     0.124 S 
ATOM     86  O   UNL A   1      44.413  25.915  25.184  1.00  0.00    -0.237 OA
ATOM     87  O   UNL A   1      44.577  24.216  26.970  1.00  0.00    -0.237 OA
ATOM     88  O   UNL A   1      42.475  24.479  25.710  1.00  0.00    -0.744 OA
ENDBRANCH  84  85
ENDBRANCH  56  79
BRANCH  68  89
ATOM     89  C   UNL A   1      45.278  29.984  35.396  1.00  0.00    -0.014 A 
ATOM     90  C   UNL A   1      45.245  28.917  36.314  1.00  0.00     0.010 A 
ATOM     91  C   UNL A   1      46.456  30.738  35.262  1.00  0.00     0.010 A 
ATOM     92  C   UNL A   1      46.354  28.638  37.116  1.00  0.00     0.020 A 
ATOM     93  C   UNL A   1      47.577  30.444  36.045  1.00  0.00     0.020 A 
ATOM     94  C   UNL A   1      47.510  29.413  36.986  1.00  0.00     0.054 A 
BRANCH  94  95
ATOM     95  S   UNL A   1      48.927  29.062  38.063  1.00  0.00     0.124 S 
ATOM     96  O   UNL A   1      49.957  29.935  37.509  1.00  0.00    -0.237 OA
ATOM     97  O   UNL A   1      48.428  29.437  39.385  1.00  0.00    -0.237 OA
ATOM     98  O   UNL A   1      49.152  27.631  37.875  1.00  0.00    -0.744 OA
ENDBRANCH  94  95
ENDBRANCH  68  89
ENDBRANCH  42  43
ENDBRANCH  34  37
ENDBRANCH  32  33
ENDBRANCH  31  32
ENDBRANCH   1  31
TORSDOF 17
ENDMDL
