MODEL 1
REMARK VINA RESULT:     -13.4      0.000      0.000
REMARK SMILES Cc1cc(C(=O)NCCCCNC(=O)c2ccc(-c3c4nc(c(-c5ccc(S(=O)(=O)[O-])cc5)c5ccc([nH]5)c(-c5ccc(S(=O)(=O)[O-])cc5)c5nc(c(-c6ccc(S(=O)(=O)[O-])cc6)c6ccc3[nH]6)C=C5)C=C4)cc2)c2c(C)nn(-c3ccccc3)c2n1
REMARK SMILES IDX 10 1 9 2 8 3 7 4 5 5 6 6 4 8 1 9 2 10 3 11 87 12 86 13 75 14
REMARK SMILES IDX 79 15 76 16 78 17 77 18 80 19 81 20 85 21 82 22 84 23 83 24
REMARK SMILES IDX 11 25 12 26 13 27 14 29 15 30 16 31 74 32 17 33 73 34 18 35
REMARK SMILES IDX 19 36 20 37 67 38 21 39 72 40 66 41 68 42 22 43 71 44 65 45
REMARK SMILES IDX 64 46 23 48 53 49 34 50 52 51 35 52 38 53 51 54 69 55 36 56
REMARK SMILES IDX 37 57 50 59 70 60 39 61 24 62 25 63 33 64 26 65 32 66 27 67
REMARK SMILES IDX 28 68 29 69 30 70 31 71 54 72 55 73 63 74 56 75 62 76 57 77
REMARK SMILES IDX 58 78 59 79 60 80 61 81 40 82 41 83 49 84 42 85 48 86 43 87
REMARK SMILES IDX 44 88 45 89 46 90 47 91
REMARK H PARENT 7 7 12 28 68 47 38 58
REMARK Flexibility Score: inf
ROOT
ATOM      1  C   UNL A   1      36.611  22.136  24.785  1.00  0.00     0.023 C 
ENDROOT
BRANCH   1   2
ATOM      2  C   UNL A   1      36.242  22.890  23.493  1.00  0.00     0.023 C 
BRANCH   2   3
ATOM      3  C   UNL A   1      34.879  23.593  23.532  1.00  0.00     0.116 C 
BRANCH   3   4
ATOM      4  N   UNL A   1      34.258  23.416  24.833  1.00  0.00    -0.352 N 
ATOM      5  C   UNL A   1      33.595  24.227  25.721  1.00  0.00     0.252 C 
ATOM      6  O   UNL A   1      33.481  23.760  26.852  1.00  0.00    -0.269 OA
ATOM      7  H   UNL A   1      34.330  22.489  25.157  1.00  0.00     0.163 HD
BRANCH   5   8
ATOM      8  C   UNL A   1      33.024  25.570  25.421  1.00  0.00     0.054 A 
ATOM      9  C   UNL A   1      33.596  29.227  26.306  1.00  0.00     0.067 C 
ATOM     10  C   UNL A   1      32.995  27.992  25.699  1.00  0.00     0.041 A 
ATOM     11  C   UNL A   1      33.500  26.741  26.032  1.00  0.00     0.038 A 
ATOM     12  N   UNL A   1      32.002  28.179  24.821  1.00  0.00    -0.233 NA
ATOM     13  C   UNL A   1      31.473  27.040  24.325  1.00  0.00     0.164 A 
ATOM     14  C   UNL A   1      31.898  25.728  24.558  1.00  0.00     0.055 A 
ATOM     15  N   UNL A   1      30.332  26.967  23.550  1.00  0.00    -0.214 N 
ATOM     16  C   UNL A   1      30.972  24.950  23.778  1.00  0.00     0.070 A 
ATOM     17  N   UNL A   1      29.952  25.696  23.320  1.00  0.00    -0.171 NA
ATOM     18  C   UNL A   1      30.900  23.506  23.428  1.00  0.00     0.069 C 
BRANCH  15  19
ATOM     19  C   UNL A   1      29.551  28.042  23.069  1.00  0.00     0.067 A 
ATOM     20  C   UNL A   1      28.179  28.089  23.342  1.00  0.00     0.028 A 
ATOM     21  C   UNL A   1      30.169  29.060  22.335  1.00  0.00     0.028 A 
ATOM     22  C   UNL A   1      27.431  29.179  22.894  1.00  0.00     0.002 A 
ATOM     23  C   UNL A   1      29.400  30.112  21.838  1.00  0.00     0.002 A 
ATOM     24  C   UNL A   1      28.037  30.179  22.131  1.00  0.00     0.000 A 
ENDBRANCH  15  19
ENDBRANCH   5   8
ENDBRANCH   3   4
ENDBRANCH   2   3
ENDBRANCH   1   2
BRANCH   1  25
ATOM     25  C   UNL A   1      37.586  22.879  25.693  1.00  0.00     0.116 C 
BRANCH  25  26
ATOM     26  N   UNL A   1      38.644  22.005  26.187  1.00  0.00    -0.352 N 
ATOM     27  C   UNL A   1      39.871  22.339  26.717  1.00  0.00     0.251 C 
ATOM     28  H   UNL A   1      38.455  21.040  26.133  1.00  0.00     0.163 HD
ATOM     29  O   UNL A   1      40.776  21.518  26.729  1.00  0.00    -0.269 OA
BRANCH  27  30
ATOM     30  C   UNL A   1      40.074  23.682  27.287  1.00  0.00     0.039 A 
ATOM     31  C   UNL A   1      39.132  24.694  27.074  1.00  0.00     0.014 A 
ATOM     32  C   UNL A   1      41.247  23.939  27.998  1.00  0.00     0.014 A 
ATOM     33  C   UNL A   1      39.360  25.951  27.622  1.00  0.00     0.010 A 
ATOM     34  C   UNL A   1      41.421  25.142  28.634  1.00  0.00     0.010 A 
ATOM     35  C   UNL A   1      40.506  26.162  28.402  1.00  0.00    -0.014 A 
BRANCH  35  36
ATOM     36  C   UNL A   1      40.739  27.439  29.048  1.00  0.00     0.031 A 
ATOM     37  C   UNL A   1      41.933  28.174  28.568  1.00  0.00     0.074 A 
ATOM     38  C   UNL A   1      39.839  28.004  29.876  1.00  0.00     0.049 A 
ATOM     39  N   UNL A   1      43.043  28.348  29.201  1.00  0.00    -0.248 NA
ATOM     40  C   UNL A   1      41.957  28.652  27.176  1.00  0.00     0.031 C 
ATOM     41  C   UNL A   1      38.488  27.544  30.213  1.00  0.00     0.029 A 
ATOM     42  N   UNL A   1      39.917  29.199  30.513  1.00  0.00    -0.354 N 
ATOM     43  C   UNL A   1      43.836  29.138  28.379  1.00  0.00     0.074 A 
ATOM     44  C   UNL A   1      43.197  29.140  27.086  1.00  0.00     0.031 C 
ATOM     45  C   UNL A   1      37.804  28.552  30.800  1.00  0.00     0.029 A 
ATOM     46  C   UNL A   1      38.711  29.664  31.020  1.00  0.00     0.049 A 
ATOM     47  H   UNL A   1      40.762  29.696  30.610  1.00  0.00     0.167 HD
ATOM     48  C   UNL A   1      44.831  29.920  28.886  1.00  0.00     0.031 A 
ATOM     49  C   UNL A   1      38.479  30.896  31.543  1.00  0.00     0.031 A 
ATOM     50  C   UNL A   1      45.098  29.613  30.268  1.00  0.00     0.049 A 
ATOM     51  C   UNL A   1      39.800  31.415  31.989  1.00  0.00     0.074 A 
ATOM     52  C   UNL A   1      45.507  28.480  30.944  1.00  0.00     0.029 A 
ATOM     53  N   UNL A   1      44.518  30.431  31.212  1.00  0.00    -0.354 N 
ATOM     54  N   UNL A   1      40.496  30.854  32.941  1.00  0.00    -0.248 NA
ATOM     55  C   UNL A   1      40.570  32.238  31.066  1.00  0.00     0.031 C 
ATOM     56  C   UNL A   1      44.718  28.461  32.130  1.00  0.00     0.029 A 
ATOM     57  C   UNL A   1      43.936  29.619  32.153  1.00  0.00     0.049 A 
ATOM     58  H   UNL A   1      44.519  31.416  31.212  1.00  0.00     0.167 HD
ATOM     59  C   UNL A   1      41.810  30.885  32.494  1.00  0.00     0.074 A 
ATOM     60  C   UNL A   1      41.807  31.836  31.381  1.00  0.00     0.031 C 
ATOM     61  C   UNL A   1      42.717  29.935  32.873  1.00  0.00     0.031 A 
BRANCH  48  62
ATOM     62  C   UNL A   1      45.292  31.206  28.257  1.00  0.00    -0.014 A 
ATOM     63  C   UNL A   1      44.406  32.299  28.207  1.00  0.00     0.010 A 
ATOM     64  C   UNL A   1      46.462  31.287  27.475  1.00  0.00     0.010 A 
ATOM     65  C   UNL A   1      44.651  33.393  27.366  1.00  0.00     0.020 A 
ATOM     66  C   UNL A   1      46.738  32.390  26.666  1.00  0.00     0.020 A 
ATOM     67  C   UNL A   1      45.813  33.423  26.592  1.00  0.00     0.054 A 
BRANCH  67  68
ATOM     68  S   UNL A   1      46.050  34.769  25.407  1.00  0.00     0.124 S 
ATOM     69  O   UNL A   1      45.130  34.398  24.336  1.00  0.00    -0.237 OA
ATOM     70  O   UNL A   1      45.671  35.939  26.193  1.00  0.00    -0.237 OA
ATOM     71  O   UNL A   1      47.468  34.681  25.068  1.00  0.00    -0.744 OA
ENDBRANCH  67  68
ENDBRANCH  48  62
BRANCH  49  72
ATOM     72  C   UNL A   1      37.266  31.740  31.364  1.00  0.00    -0.014 A 
ATOM     73  C   UNL A   1      36.162  31.630  32.231  1.00  0.00     0.010 A 
ATOM     74  C   UNL A   1      37.294  32.850  30.492  1.00  0.00     0.010 A 
ATOM     75  C   UNL A   1      35.165  32.623  32.270  1.00  0.00     0.020 A 
ATOM     76  C   UNL A   1      36.304  33.838  30.518  1.00  0.00     0.020 A 
ATOM     77  C   UNL A   1      35.258  33.737  31.431  1.00  0.00     0.054 A 
BRANCH  77  78
ATOM     78  S   UNL A   1      34.061  35.095  31.599  1.00  0.00     0.124 S 
ATOM     79  O   UNL A   1      34.810  36.084  32.368  1.00  0.00    -0.237 OA
ATOM     80  O   UNL A   1      33.791  35.444  30.207  1.00  0.00    -0.237 OA
ATOM     81  O   UNL A   1      32.939  34.482  32.309  1.00  0.00    -0.744 OA
ENDBRANCH  77  78
ENDBRANCH  49  72
BRANCH  61  82
ATOM     82  C   UNL A   1      42.338  28.968  33.973  1.00  0.00    -0.014 A 
ATOM     83  C   UNL A   1      41.705  27.730  33.734  1.00  0.00     0.010 A 
ATOM     84  C   UNL A   1      42.831  29.228  35.263  1.00  0.00     0.010 A 
ATOM     85  C   UNL A   1      41.569  26.783  34.762  1.00  0.00     0.020 A 
ATOM     86  C   UNL A   1      42.713  28.283  36.286  1.00  0.00     0.020 A 
ATOM     87  C   UNL A   1      42.086  27.063  36.031  1.00  0.00     0.054 A 
BRANCH  87  88
ATOM     88  S   UNL A   1      41.967  25.811  37.342  1.00  0.00     0.124 S 
ATOM     89  O   UNL A   1      42.296  24.574  36.638  1.00  0.00    -0.237 OA
ATOM     90  O   UNL A   1      42.962  26.266  38.310  1.00  0.00    -0.237 OA
ATOM     91  O   UNL A   1      40.580  25.910  37.795  1.00  0.00    -0.744 OA
ENDBRANCH  87  88
ENDBRANCH  61  82
ENDBRANCH  35  36
ENDBRANCH  27  30
ENDBRANCH  25  26
ENDBRANCH   1  25
TORSDOF 15
ENDMDL
MODEL 2
REMARK VINA RESULT:     -13.2      3.029      9.809
REMARK SMILES Cc1cc(C(=O)NCCCCNC(=O)c2ccc(-c3c4nc(c(-c5ccc(S(=O)(=O)[O-])cc5)c5ccc([nH]5)c(-c5ccc(S(=O)(=O)[O-])cc5)c5nc(c(-c6ccc(S(=O)(=O)[O-])cc6)c6ccc3[nH]6)C=C5)C=C4)cc2)c2c(C)nn(-c3ccccc3)c2n1
REMARK SMILES IDX 10 1 9 2 8 3 7 4 5 5 6 6 4 8 1 9 2 10 3 11 87 12 86 13 75 14
REMARK SMILES IDX 79 15 76 16 78 17 77 18 80 19 81 20 85 21 82 22 84 23 83 24
REMARK SMILES IDX 11 25 12 26 13 27 14 29 15 30 16 31 74 32 17 33 73 34 18 35
REMARK SMILES IDX 19 36 20 37 67 38 21 39 72 40 66 41 68 42 22 43 71 44 65 45
REMARK SMILES IDX 64 46 23 48 53 49 34 50 52 51 35 52 38 53 51 54 69 55 36 56
REMARK SMILES IDX 37 57 50 59 70 60 39 61 24 62 25 63 33 64 26 65 32 66 27 67
REMARK SMILES IDX 28 68 29 69 30 70 31 71 54 72 55 73 63 74 56 75 62 76 57 77
REMARK SMILES IDX 58 78 59 79 60 80 61 81 40 82 41 83 49 84 42 85 48 86 43 87
REMARK SMILES IDX 44 88 45 89 46 90 47 91
REMARK H PARENT 7 7 12 28 68 47 38 58
REMARK Flexibility Score: inf
ROOT
ATOM      1  C   UNL A   1      33.129  28.684  26.071  1.00  0.00     0.023 C 
ENDROOT
BRANCH   1   2
ATOM      2  C   UNL A   1      32.816  27.183  26.221  1.00  0.00     0.023 C 
BRANCH   2   3
ATOM      3  C   UNL A   1      33.950  26.248  25.779  1.00  0.00     0.116 C 
BRANCH   3   4
ATOM      4  N   UNL A   1      33.797  25.897  24.378  1.00  0.00    -0.352 N 
ATOM      5  C   UNL A   1      34.195  24.853  23.581  1.00  0.00     0.252 C 
ATOM      6  O   UNL A   1      34.118  25.073  22.374  1.00  0.00    -0.269 OA
ATOM      7  H   UNL A   1      33.284  26.573  23.879  1.00  0.00     0.163 HD
BRANCH   5   8
ATOM      8  C   UNL A   1      34.685  23.528  24.055  1.00  0.00     0.054 A 
ATOM      9  C   UNL A   1      37.852  21.934  25.439  1.00  0.00     0.067 C 
ATOM     10  C   UNL A   1      36.444  22.091  24.941  1.00  0.00     0.041 A 
ATOM     11  C   UNL A   1      36.017  23.318  24.448  1.00  0.00     0.038 A 
ATOM     12  N   UNL A   1      35.652  21.016  25.037  1.00  0.00    -0.233 NA
ATOM     13  C   UNL A   1      34.405  21.194  24.550  1.00  0.00     0.164 A 
ATOM     14  C   UNL A   1      33.844  22.374  24.051  1.00  0.00     0.055 A 
ATOM     15  N   UNL A   1      33.472  20.193  24.373  1.00  0.00    -0.214 N 
ATOM     16  C   UNL A   1      32.514  21.964  23.685  1.00  0.00     0.070 A 
ATOM     17  N   UNL A   1      32.370  20.629  23.734  1.00  0.00    -0.171 NA
ATOM     18  C   UNL A   1      31.310  22.709  23.228  1.00  0.00     0.069 C 
BRANCH  15  19
ATOM     19  C   UNL A   1      33.597  18.830  24.726  1.00  0.00     0.067 A 
ATOM     20  C   UNL A   1      32.620  18.218  25.518  1.00  0.00     0.028 A 
ATOM     21  C   UNL A   1      34.698  18.103  24.260  1.00  0.00     0.028 A 
ATOM     22  C   UNL A   1      32.738  16.861  25.822  1.00  0.00     0.002 A 
ATOM     23  C   UNL A   1      34.840  16.764  24.623  1.00  0.00     0.002 A 
ATOM     24  C   UNL A   1      33.853  16.141  25.389  1.00  0.00     0.000 A 
ENDBRANCH  15  19
ENDBRANCH   5   8
ENDBRANCH   3   4
ENDBRANCH   2   3
ENDBRANCH   1   2
BRANCH   1  25
ATOM     25  C   UNL A   1      33.553  29.372  27.365  1.00  0.00     0.116 C 
BRANCH  25  26
ATOM     26  N   UNL A   1      33.804  30.795  27.167  1.00  0.00    -0.352 N 
ATOM     27  C   UNL A   1      34.862  31.560  27.607  1.00  0.00     0.251 C 
ATOM     28  H   UNL A   1      33.121  31.277  26.646  1.00  0.00     0.163 HD
ATOM     29  O   UNL A   1      34.746  32.774  27.691  1.00  0.00    -0.269 OA
BRANCH  27  30
ATOM     30  C   UNL A   1      36.136  30.906  27.953  1.00  0.00     0.039 A 
ATOM     31  C   UNL A   1      36.356  29.563  27.631  1.00  0.00     0.014 A 
ATOM     32  C   UNL A   1      37.097  31.638  28.653  1.00  0.00     0.014 A 
ATOM     33  C   UNL A   1      37.568  28.978  27.979  1.00  0.00     0.010 A 
ATOM     34  C   UNL A   1      38.334  31.098  28.897  1.00  0.00     0.010 A 
ATOM     35  C   UNL A   1      38.549  29.756  28.608  1.00  0.00    -0.014 A 
BRANCH  35  36
ATOM     36  C   UNL A   1      39.851  29.197  28.920  1.00  0.00     0.031 A 
ATOM     37  C   UNL A   1      40.134  29.042  30.366  1.00  0.00     0.074 A 
ATOM     38  C   UNL A   1      40.660  28.680  27.975  1.00  0.00     0.049 A 
ATOM     39  N   UNL A   1      40.949  29.745  31.077  1.00  0.00    -0.248 NA
ATOM     40  C   UNL A   1      39.323  28.095  31.148  1.00  0.00     0.031 C 
ATOM     41  C   UNL A   1      40.395  28.490  26.545  1.00  0.00     0.029 A 
ATOM     42  N   UNL A   1      41.876  28.102  28.134  1.00  0.00    -0.354 N 
ATOM     43  C   UNL A   1      40.919  29.197  32.353  1.00  0.00     0.074 A 
ATOM     44  C   UNL A   1      39.778  28.315  32.384  1.00  0.00     0.031 C 
ATOM     45  C   UNL A   1      41.315  27.645  26.027  1.00  0.00     0.029 A 
ATOM     46  C   UNL A   1      42.315  27.366  27.042  1.00  0.00     0.049 A 
ATOM     47  H   UNL A   1      42.407  28.198  28.959  1.00  0.00     0.167 HD
ATOM     48  C   UNL A   1      41.967  29.334  33.213  1.00  0.00     0.031 A 
ATOM     49  C   UNL A   1      43.403  26.554  27.003  1.00  0.00     0.031 A 
ATOM     50  C   UNL A   1      42.927  30.295  32.734  1.00  0.00     0.049 A 
ATOM     51  C   UNL A   1      44.313  27.025  28.081  1.00  0.00     0.074 A 
ATOM     52  C   UNL A   1      42.875  31.641  32.427  1.00  0.00     0.029 A 
ATOM     53  N   UNL A   1      44.038  29.800  32.087  1.00  0.00    -0.354 N 
ATOM     54  N   UNL A   1      44.869  28.207  28.073  1.00  0.00    -0.248 NA
ATOM     55  C   UNL A   1      44.218  26.397  29.393  1.00  0.00     0.031 C 
ATOM     56  C   UNL A   1      43.644  31.771  31.235  1.00  0.00     0.029 A 
ATOM     57  C   UNL A   1      44.190  30.521  30.929  1.00  0.00     0.049 A 
ATOM     58  H   UNL A   1      44.614  29.064  32.396  1.00  0.00     0.167 HD
ATOM     59  C   UNL A   1      44.789  28.651  29.386  1.00  0.00     0.074 A 
ATOM     60  C   UNL A   1      44.469  27.458  30.169  1.00  0.00     0.031 C 
ATOM     61  C   UNL A   1      44.706  29.982  29.686  1.00  0.00     0.031 A 
BRANCH  48  62
ATOM     62  C   UNL A   1      42.315  28.332  34.280  1.00  0.00    -0.014 A 
ATOM     63  C   UNL A   1      42.244  28.720  35.632  1.00  0.00     0.010 A 
ATOM     64  C   UNL A   1      42.969  27.118  33.991  1.00  0.00     0.010 A 
ATOM     65  C   UNL A   1      42.853  27.957  36.637  1.00  0.00     0.020 A 
ATOM     66  C   UNL A   1      43.542  26.328  34.988  1.00  0.00     0.020 A 
ATOM     67  C   UNL A   1      43.508  26.771  36.304  1.00  0.00     0.054 A 
BRANCH  67  68
ATOM     68  S   UNL A   1      44.410  25.868  37.587  1.00  0.00     0.124 S 
ATOM     69  O   UNL A   1      44.073  24.481  37.278  1.00  0.00    -0.237 OA
ATOM     70  O   UNL A   1      45.791  26.259  37.321  1.00  0.00    -0.237 OA
ATOM     71  O   UNL A   1      43.846  26.384  38.831  1.00  0.00    -0.744 OA
ENDBRANCH  67  68
ENDBRANCH  48  62
BRANCH  49  72
ATOM     72  C   UNL A   1      43.522  25.235  26.324  1.00  0.00    -0.014 A 
ATOM     73  C   UNL A   1      44.412  25.040  25.250  1.00  0.00     0.010 A 
ATOM     74  C   UNL A   1      42.947  24.083  26.902  1.00  0.00     0.010 A 
ATOM     75  C   UNL A   1      44.763  23.746  24.820  1.00  0.00     0.020 A 
ATOM     76  C   UNL A   1      43.283  22.793  26.477  1.00  0.00     0.020 A 
ATOM     77  C   UNL A   1      44.216  22.629  25.457  1.00  0.00     0.054 A 
BRANCH  77  78
ATOM     78  S   UNL A   1      44.794  20.964  25.011  1.00  0.00     0.124 S 
ATOM     79  O   UNL A   1      44.673  20.965  23.557  1.00  0.00    -0.237 OA
ATOM     80  O   UNL A   1      46.157  20.959  25.534  1.00  0.00    -0.237 OA
ATOM     81  O   UNL A   1      43.863  20.076  25.707  1.00  0.00    -0.744 OA
ENDBRANCH  77  78
ENDBRANCH  49  72
BRANCH  61  82
ATOM     82  C   UNL A   1      44.933  30.991  28.580  1.00  0.00    -0.014 A 
ATOM     83  C   UNL A   1      44.005  31.228  27.543  1.00  0.00     0.010 A 
ATOM     84  C   UNL A   1      46.018  31.873  28.719  1.00  0.00     0.010 A 
ATOM     85  C   UNL A   1      44.166  32.316  26.671  1.00  0.00     0.020 A 
ATOM     86  C   UNL A   1      46.175  32.967  27.864  1.00  0.00     0.020 A 
ATOM     87  C   UNL A   1      45.247  33.187  26.846  1.00  0.00     0.054 A 
BRANCH  87  88
ATOM     88  S   UNL A   1      45.418  34.630  25.757  1.00  0.00     0.124 S 
ATOM     89  O   UNL A   1      45.439  35.745  26.700  1.00  0.00    -0.237 OA
ATOM     90  O   UNL A   1      46.679  34.366  25.070  1.00  0.00    -0.237 OA
ATOM     91  O   UNL A   1      44.231  34.569  24.905  1.00  0.00    -0.744 OA
ENDBRANCH  87  88
ENDBRANCH  61  82
ENDBRANCH  35  36
ENDBRANCH  27  30
ENDBRANCH  25  26
ENDBRANCH   1  25
TORSDOF 15
ENDMDL
MODEL 3
REMARK VINA RESULT:     -13.1      1.509      2.320
REMARK SMILES Cc1cc(C(=O)NCCCCNC(=O)c2ccc(-c3c4nc(c(-c5ccc(S(=O)(=O)[O-])cc5)c5ccc([nH]5)c(-c5ccc(S(=O)(=O)[O-])cc5)c5nc(c(-c6ccc(S(=O)(=O)[O-])cc6)c6ccc3[nH]6)C=C5)C=C4)cc2)c2c(C)nn(-c3ccccc3)c2n1
REMARK SMILES IDX 10 1 9 2 8 3 7 4 5 5 6 6 4 8 1 9 2 10 3 11 87 12 86 13 75 14
REMARK SMILES IDX 79 15 76 16 78 17 77 18 80 19 81 20 85 21 82 22 84 23 83 24
REMARK SMILES IDX 11 25 12 26 13 27 14 29 15 30 16 31 74 32 17 33 73 34 18 35
REMARK SMILES IDX 19 36 20 37 67 38 21 39 72 40 66 41 68 42 22 43 71 44 65 45
REMARK SMILES IDX 64 46 23 48 53 49 34 50 52 51 35 52 38 53 51 54 69 55 36 56
REMARK SMILES IDX 37 57 50 59 70 60 39 61 24 62 25 63 33 64 26 65 32 66 27 67
REMARK SMILES IDX 28 68 29 69 30 70 31 71 54 72 55 73 63 74 56 75 62 76 57 77
REMARK SMILES IDX 58 78 59 79 60 80 61 81 40 82 41 83 49 84 42 85 48 86 43 87
REMARK SMILES IDX 44 88 45 89 46 90 47 91
REMARK H PARENT 7 7 12 28 68 47 38 58
REMARK Flexibility Score: inf
ROOT
ATOM      1  C   UNL A   1      37.752  21.504  25.058  1.00  0.00     0.023 C 
ENDROOT
BRANCH   1   2
ATOM      2  C   UNL A   1      36.305  22.029  25.090  1.00  0.00     0.023 C 
BRANCH   2   3
ATOM      3  C   UNL A   1      35.304  21.097  25.787  1.00  0.00     0.116 C 
BRANCH   3   4
ATOM      4  N   UNL A   1      34.369  20.549  24.820  1.00  0.00    -0.352 N 
ATOM      5  C   UNL A   1      33.063  20.791  24.474  1.00  0.00     0.252 C 
ATOM      6  O   UNL A   1      32.540  19.905  23.802  1.00  0.00    -0.269 OA
ATOM      7  H   UNL A   1      34.769  19.826  24.284  1.00  0.00     0.163 HD
BRANCH   5   8
ATOM      8  C   UNL A   1      32.273  22.002  24.835  1.00  0.00     0.054 A 
ATOM      9  C   UNL A   1      29.468  23.039  27.188  1.00  0.00     0.067 C 
ATOM     10  C   UNL A   1      30.527  23.110  26.126  1.00  0.00     0.041 A 
ATOM     11  C   UNL A   1      31.217  21.961  25.759  1.00  0.00     0.038 A 
ATOM     12  N   UNL A   1      30.774  24.319  25.606  1.00  0.00    -0.233 NA
ATOM     13  C   UNL A   1      31.713  24.329  24.635  1.00  0.00     0.164 A 
ATOM     14  C   UNL A   1      32.492  23.257  24.189  1.00  0.00     0.055 A 
ATOM     15  N   UNL A   1      32.010  25.411  23.831  1.00  0.00    -0.214 N 
ATOM     16  C   UNL A   1      33.298  23.856  23.159  1.00  0.00     0.070 A 
ATOM     17  N   UNL A   1      32.879  25.096  22.853  1.00  0.00    -0.171 NA
ATOM     18  C   UNL A   1      34.448  23.365  22.353  1.00  0.00     0.069 C 
BRANCH  15  19
ATOM     19  C   UNL A   1      31.464  26.712  23.906  1.00  0.00     0.067 A 
ATOM     20  C   UNL A   1      31.881  27.591  24.912  1.00  0.00     0.028 A 
ATOM     21  C   UNL A   1      30.518  27.112  22.955  1.00  0.00     0.028 A 
ATOM     22  C   UNL A   1      31.363  28.886  24.947  1.00  0.00     0.002 A 
ATOM     23  C   UNL A   1      29.959  28.387  23.038  1.00  0.00     0.002 A 
ATOM     24  C   UNL A   1      30.393  29.277  24.021  1.00  0.00     0.000 A 
ENDBRANCH  15  19
ENDBRANCH   5   8
ENDBRANCH   3   4
ENDBRANCH   2   3
ENDBRANCH   1   2
BRANCH   1  25
ATOM     25  C   UNL A   1      38.675  22.132  26.098  1.00  0.00     0.116 C 
BRANCH  25  26
ATOM     26  N   UNL A   1      40.048  21.657  25.966  1.00  0.00    -0.352 N 
ATOM     27  C   UNL A   1      41.226  22.363  26.072  1.00  0.00     0.251 C 
ATOM     28  H   UNL A   1      40.146  20.696  25.774  1.00  0.00     0.163 HD
ATOM     29  O   UNL A   1      42.250  21.922  25.571  1.00  0.00    -0.269 OA
BRANCH  27  30
ATOM     30  C   UNL A   1      41.244  23.638  26.810  1.00  0.00     0.039 A 
ATOM     31  C   UNL A   1      41.926  23.745  28.026  1.00  0.00     0.014 A 
ATOM     32  C   UNL A   1      40.526  24.719  26.298  1.00  0.00     0.014 A 
ATOM     33  C   UNL A   1      41.917  24.963  28.697  1.00  0.00     0.010 A 
ATOM     34  C   UNL A   1      40.607  25.950  26.898  1.00  0.00     0.010 A 
ATOM     35  C   UNL A   1      41.257  26.058  28.122  1.00  0.00    -0.014 A 
BRANCH  35  36
ATOM     36  C   UNL A   1      41.288  27.360  28.759  1.00  0.00     0.031 A 
ATOM     37  C   UNL A   1      42.447  28.208  28.392  1.00  0.00     0.074 A 
ATOM     38  C   UNL A   1      40.251  27.839  29.474  1.00  0.00     0.049 A 
ATOM     39  N   UNL A   1      43.459  28.503  29.136  1.00  0.00    -0.248 NA
ATOM     40  C   UNL A   1      42.573  28.669  27.000  1.00  0.00     0.031 C 
ATOM     41  C   UNL A   1      38.925  27.246  29.677  1.00  0.00     0.029 A 
ATOM     42  N   UNL A   1      40.139  29.043  30.088  1.00  0.00    -0.354 N 
ATOM     43  C   UNL A   1      44.252  29.361  28.385  1.00  0.00     0.074 A 
ATOM     44  C   UNL A   1      43.759  29.281  27.031  1.00  0.00     0.031 C 
ATOM     45  C   UNL A   1      38.083  28.186  30.164  1.00  0.00     0.029 A 
ATOM     46  C   UNL A   1      38.845  29.388  30.453  1.00  0.00     0.049 A 
ATOM     47  H   UNL A   1      40.914  29.625  30.263  1.00  0.00     0.167 HD
ATOM     48  C   UNL A   1      45.102  30.247  28.976  1.00  0.00     0.031 A 
ATOM     49  C   UNL A   1      38.434  30.596  30.920  1.00  0.00     0.031 A 
ATOM     50  C   UNL A   1      45.247  29.986  30.385  1.00  0.00     0.049 A 
ATOM     51  C   UNL A   1      39.640  31.253  31.491  1.00  0.00     0.074 A 
ATOM     52  C   UNL A   1      45.693  28.910  31.127  1.00  0.00     0.029 A 
ATOM     53  N   UNL A   1      44.489  30.752  31.243  1.00  0.00    -0.354 N 
ATOM     54  N   UNL A   1      40.282  30.779  32.525  1.00  0.00    -0.248 NA
ATOM     55  C   UNL A   1      40.418  32.140  30.637  1.00  0.00     0.031 C 
ATOM     56  C   UNL A   1      44.787  28.823  32.222  1.00  0.00     0.029 A 
ATOM     57  C   UNL A   1      43.894  29.896  32.136  1.00  0.00     0.049 A 
ATOM     58  H   UNL A   1      44.390  31.731  31.220  1.00  0.00     0.167 HD
ATOM     59  C   UNL A   1      41.627  30.940  32.219  1.00  0.00     0.074 A 
ATOM     60  C   UNL A   1      41.647  31.871  31.091  1.00  0.00     0.031 C 
ATOM     61  C   UNL A   1      42.579  30.093  32.714  1.00  0.00     0.031 A 
BRANCH  48  62
ATOM     62  C   UNL A   1      45.496  31.566  28.370  1.00  0.00    -0.014 A 
ATOM     63  C   UNL A   1      44.498  32.386  27.808  1.00  0.00     0.010 A 
ATOM     64  C   UNL A   1      46.837  31.899  28.092  1.00  0.00     0.010 A 
ATOM     65  C   UNL A   1      44.828  33.450  26.958  1.00  0.00     0.020 A 
ATOM     66  C   UNL A   1      47.179  32.982  27.281  1.00  0.00     0.020 A 
ATOM     67  C   UNL A   1      46.169  33.732  26.693  1.00  0.00     0.054 A 
BRANCH  67  68
ATOM     68  S   UNL A   1      46.581  35.015  25.485  1.00  0.00     0.124 S 
ATOM     69  O   UNL A   1      47.961  34.680  25.143  1.00  0.00    -0.237 OA
ATOM     70  O   UNL A   1      45.592  34.778  24.438  1.00  0.00    -0.237 OA
ATOM     71  O   UNL A   1      46.409  36.258  26.233  1.00  0.00    -0.744 OA
ENDBRANCH  67  68
ENDBRANCH  48  62
BRANCH  49  72
ATOM     72  C   UNL A   1      37.169  31.307  30.593  1.00  0.00    -0.014 A 
ATOM     73  C   UNL A   1      36.739  32.421  31.341  1.00  0.00     0.010 A 
ATOM     74  C   UNL A   1      36.505  31.055  29.373  1.00  0.00     0.010 A 
ATOM     75  C   UNL A   1      35.736  33.282  30.855  1.00  0.00     0.020 A 
ATOM     76  C   UNL A   1      35.501  31.900  28.886  1.00  0.00     0.020 A 
ATOM     77  C   UNL A   1      35.143  33.030  29.615  1.00  0.00     0.054 A 
BRANCH  77  78
ATOM     78  S   UNL A   1      33.969  34.229  28.917  1.00  0.00     0.124 S 
ATOM     79  O   UNL A   1      33.190  34.628  30.086  1.00  0.00    -0.237 OA
ATOM     80  O   UNL A   1      34.858  35.250  28.369  1.00  0.00    -0.237 OA
ATOM     81  O   UNL A   1      33.232  33.453  27.920  1.00  0.00    -0.744 OA
ENDBRANCH  77  78
ENDBRANCH  49  72
BRANCH  61  82
ATOM     82  C   UNL A   1      42.183  29.105  33.791  1.00  0.00    -0.014 A 
ATOM     83  C   UNL A   1      41.741  27.793  33.515  1.00  0.00     0.010 A 
ATOM     84  C   UNL A   1      42.472  29.447  35.122  1.00  0.00     0.010 A 
ATOM     85  C   UNL A   1      41.592  26.855  34.549  1.00  0.00     0.020 A 
ATOM     86  C   UNL A   1      42.341  28.513  36.154  1.00  0.00     0.020 A 
ATOM     87  C   UNL A   1      41.904  27.219  35.863  1.00  0.00     0.054 A 
BRANCH  87  88
ATOM     88  S   UNL A   1      41.772  25.986  37.189  1.00  0.00     0.124 S 
ATOM     89  O   UNL A   1      42.822  26.397  38.118  1.00  0.00    -0.237 OA
ATOM     90  O   UNL A   1      40.404  26.173  37.665  1.00  0.00    -0.237 OA
ATOM     91  O   UNL A   1      42.016  24.714  36.509  1.00  0.00    -0.744 OA
ENDBRANCH  87  88
ENDBRANCH  61  82
ENDBRANCH  35  36
ENDBRANCH  27  30
ENDBRANCH  25  26
ENDBRANCH   1  25
TORSDOF 15
ENDMDL
