MODEL 1
REMARK VINA RESULT:     -11.6      0.000      0.000
REMARK SMILES COc1ccc([C@@H]2CC[NH2+][C@H]2C(=O)NCCCCNC(=O)c2ccc(-c3c4nc(c(-c5ccc(S(=O)(=O)[O-])cc5)c5ccc([nH]5)c(-c5ccc(S(=O)(=O)[O-])cc5)c5nc(c(-c6ccc(S(=O)(=O)[O-])cc6)c6ccc3[nH]6)C=C5)C=C4)cc2)c2ccccc12
REMARK SMILES IDX 17 1 16 2 15 3 14 4 12 5 13 6 11 8 7 9 8 10 9 11 10 12 6 15
REMARK SMILES IDX 3 16 4 17 87 18 5 19 82 20 86 21 83 22 85 23 84 24 2 25 1 26
REMARK SMILES IDX 18 27 19 28 20 29 21 31 22 32 23 33 81 34 24 35 80 36 25 37
REMARK SMILES IDX 26 38 27 39 74 40 28 41 79 42 73 43 75 44 29 45 78 46 72 47
REMARK SMILES IDX 71 48 30 50 60 51 41 52 59 53 42 54 45 55 58 56 76 57 43 58
REMARK SMILES IDX 44 59 57 61 77 62 46 63 31 64 32 65 40 66 33 67 39 68 34 69
REMARK SMILES IDX 35 70 36 71 37 72 38 73 61 74 62 75 70 76 63 77 69 78 64 79
REMARK SMILES IDX 65 80 66 81 67 82 68 83 47 84 48 85 56 86 49 87 55 88 50 89
REMARK SMILES IDX 51 90 52 91 53 92 54 93
REMARK H PARENT 14 7 10 13 10 14 19 30 75 49 45 60
REMARK Flexibility Score: inf
ROOT
ATOM      1  C   UNL A   1      34.009  28.227  25.723  1.00  0.00     0.023 C 
ENDROOT
BRANCH   1   2
ATOM      2  C   UNL A   1      32.995  28.796  24.742  1.00  0.00     0.023 C 
BRANCH   2   3
ATOM      3  C   UNL A   1      32.190  27.762  23.946  1.00  0.00     0.116 C 
BRANCH   3   4
ATOM      4  N   UNL A   1      32.897  27.269  22.774  1.00  0.00    -0.351 N 
ATOM      5  C   UNL A   1      33.139  26.003  22.313  1.00  0.00     0.278 C 
ATOM      6  O   UNL A   1      33.793  25.911  21.268  1.00  0.00    -0.268 OA
ATOM      7  H   UNL A   1      33.272  27.980  22.206  1.00  0.00     0.163 HD
BRANCH   5   8
ATOM      8  C   UNL A   1      32.613  24.731  23.025  1.00  0.00     0.280 C 
ATOM      9  C   UNL A   1      32.809  24.697  24.544  1.00  0.00     0.094 C 
ATOM     10  C   UNL A   1      31.418  24.361  25.112  1.00  0.00     0.076 C 
ATOM     11  C   UNL A   1      30.602  23.897  23.924  1.00  0.00     0.262 C 
ATOM     12  N   UNL A   1      31.151  24.594  22.766  1.00  0.00    -0.335 N 
ATOM     13  H   UNL A   1      30.719  25.513  22.669  1.00  0.00     0.346 HD
ATOM     14  H   UNL A   1      30.970  24.083  21.901  1.00  0.00     0.346 HD
BRANCH   9  15
ATOM     15  C   UNL A   1      33.992  23.905  25.105  1.00  0.00    -0.030 A 
ATOM     16  C   UNL A   1      36.432  22.534  25.395  1.00  0.00     0.126 A 
ATOM     17  C   UNL A   1      36.365  23.909  25.624  1.00  0.00     0.047 A 
ATOM     18  C   UNL A   1      35.260  21.797  25.120  1.00  0.00     0.024 A 
ATOM     19  C   UNL A   1      35.156  24.586  25.491  1.00  0.00     0.009 A 
ATOM     20  C   UNL A   1      34.015  22.471  25.040  1.00  0.00    -0.011 A 
ATOM     21  C   UNL A   1      35.303  20.397  24.915  1.00  0.00     0.012 A 
ATOM     22  C   UNL A   1      32.863  21.664  24.871  1.00  0.00     0.009 A 
ATOM     23  C   UNL A   1      34.151  19.645  24.699  1.00  0.00     0.001 A 
ATOM     24  C   UNL A   1      32.923  20.279  24.703  1.00  0.00     0.001 A 
BRANCH  16  25
ATOM     25  O   UNL A   1      37.621  21.843  25.358  1.00  0.00    -0.496 OA
ATOM     26  C   UNL A   1      38.695  22.418  26.084  1.00  0.00     0.278 C 
ENDBRANCH  16  25
ENDBRANCH   9  15
ENDBRANCH   5   8
ENDBRANCH   3   4
ENDBRANCH   2   3
ENDBRANCH   1   2
BRANCH   1  27
ATOM     27  C   UNL A   1      33.631  28.404  27.181  1.00  0.00     0.116 C 
BRANCH  27  28
ATOM     28  N   UNL A   1      33.521  29.799  27.586  1.00  0.00    -0.352 N 
ATOM     29  C   UNL A   1      34.483  30.594  28.158  1.00  0.00     0.251 C 
ATOM     30  H   UNL A   1      32.647  30.226  27.429  1.00  0.00     0.163 HD
ATOM     31  O   UNL A   1      34.212  31.729  28.536  1.00  0.00    -0.269 OA
BRANCH  29  32
ATOM     32  C   UNL A   1      35.835  30.036  28.350  1.00  0.00     0.039 A 
ATOM     33  C   UNL A   1      36.749  30.096  27.297  1.00  0.00     0.014 A 
ATOM     34  C   UNL A   1      36.215  29.534  29.598  1.00  0.00     0.014 A 
ATOM     35  C   UNL A   1      38.071  29.713  27.518  1.00  0.00     0.010 A 
ATOM     36  C   UNL A   1      37.549  29.241  29.840  1.00  0.00     0.010 A 
ATOM     37  C   UNL A   1      38.488  29.317  28.800  1.00  0.00    -0.014 A 
BRANCH  37  38
ATOM     38  C   UNL A   1      39.895  28.949  29.078  1.00  0.00     0.031 A 
ATOM     39  C   UNL A   1      40.817  29.965  29.694  1.00  0.00     0.074 A 
ATOM     40  C   UNL A   1      40.358  27.738  28.714  1.00  0.00     0.049 A 
ATOM     41  N   UNL A   1      42.097  29.873  29.943  1.00  0.00    -0.248 NA
ATOM     42  C   UNL A   1      40.229  31.269  30.044  1.00  0.00     0.031 C 
ATOM     43  C   UNL A   1      39.570  26.683  28.069  1.00  0.00     0.029 A 
ATOM     44  N   UNL A   1      41.609  27.189  28.833  1.00  0.00    -0.354 N 
ATOM     45  C   UNL A   1      42.469  31.110  30.455  1.00  0.00     0.074 A 
ATOM     46  C   UNL A   1      41.295  31.953  30.429  1.00  0.00     0.031 C 
ATOM     47  C   UNL A   1      40.349  25.606  27.879  1.00  0.00     0.029 A 
ATOM     48  C   UNL A   1      41.697  25.904  28.353  1.00  0.00     0.049 A 
ATOM     49  H   UNL A   1      42.374  27.671  29.225  1.00  0.00     0.167 HD
ATOM     50  C   UNL A   1      43.674  31.503  30.931  1.00  0.00     0.031 A 
ATOM     51  C   UNL A   1      42.746  25.061  28.305  1.00  0.00     0.031 A 
ATOM     52  C   UNL A   1      44.833  30.654  30.977  1.00  0.00     0.049 A 
ATOM     53  C   UNL A   1      44.072  25.513  28.851  1.00  0.00     0.074 A 
ATOM     54  C   UNL A   1      46.089  30.937  31.482  1.00  0.00     0.029 A 
ATOM     55  N   UNL A   1      44.873  29.350  30.504  1.00  0.00    -0.354 N 
ATOM     56  N   UNL A   1      44.393  26.671  29.379  1.00  0.00    -0.248 NA
ATOM     57  C   UNL A   1      45.173  24.542  28.806  1.00  0.00     0.031 C 
ATOM     58  C   UNL A   1      46.900  29.813  31.285  1.00  0.00     0.029 A 
ATOM     59  C   UNL A   1      46.134  28.816  30.699  1.00  0.00     0.049 A 
ATOM     60  H   UNL A   1      44.116  28.875  30.093  1.00  0.00     0.167 HD
ATOM     61  C   UNL A   1      45.726  26.556  29.757  1.00  0.00     0.074 A 
ATOM     62  C   UNL A   1      46.147  25.215  29.406  1.00  0.00     0.031 C 
ATOM     63  C   UNL A   1      46.528  27.476  30.346  1.00  0.00     0.031 A 
BRANCH  50  64
ATOM     64  C   UNL A   1      43.786  32.915  31.439  1.00  0.00    -0.014 A 
ATOM     65  C   UNL A   1      43.417  33.241  32.757  1.00  0.00     0.010 A 
ATOM     66  C   UNL A   1      44.268  33.929  30.591  1.00  0.00     0.010 A 
ATOM     67  C   UNL A   1      43.477  34.564  33.202  1.00  0.00     0.020 A 
ATOM     68  C   UNL A   1      44.357  35.249  31.043  1.00  0.00     0.020 A 
ATOM     69  C   UNL A   1      43.940  35.561  32.339  1.00  0.00     0.054 A 
BRANCH  69  70
ATOM     70  S   UNL A   1      44.010  37.270  32.942  1.00  0.00     0.124 S 
ATOM     71  O   UNL A   1      43.778  38.030  31.716  1.00  0.00    -0.237 OA
ATOM     72  O   UNL A   1      42.925  37.311  33.920  1.00  0.00    -0.237 OA
ATOM     73  O   UNL A   1      45.354  37.384  33.502  1.00  0.00    -0.744 OA
ENDBRANCH  69  70
ENDBRANCH  50  64
BRANCH  51  74
ATOM     74  C   UNL A   1      42.573  23.690  27.753  1.00  0.00    -0.014 A 
ATOM     75  C   UNL A   1      42.195  22.630  28.596  1.00  0.00     0.010 A 
ATOM     76  C   UNL A   1      42.768  23.439  26.383  1.00  0.00     0.010 A 
ATOM     77  C   UNL A   1      42.031  21.340  28.083  1.00  0.00     0.020 A 
ATOM     78  C   UNL A   1      42.581  22.155  25.862  1.00  0.00     0.020 A 
ATOM     79  C   UNL A   1      42.225  21.111  26.719  1.00  0.00     0.054 A 
BRANCH  79  80
ATOM     80  S   UNL A   1      41.955  19.440  26.064  1.00  0.00     0.124 S 
ATOM     81  O   UNL A   1      42.411  18.604  27.170  1.00  0.00    -0.237 OA
ATOM     82  O   UNL A   1      40.515  19.427  25.812  1.00  0.00    -0.237 OA
ATOM     83  O   UNL A   1      42.788  19.405  24.865  1.00  0.00    -0.744 OA
ENDBRANCH  79  80
ENDBRANCH  51  74
BRANCH  63  84
ATOM     84  C   UNL A   1      47.930  27.052  30.686  1.00  0.00    -0.014 A 
ATOM     85  C   UNL A   1      49.001  27.312  29.815  1.00  0.00     0.010 A 
ATOM     86  C   UNL A   1      48.184  26.434  31.925  1.00  0.00     0.010 A 
ATOM     87  C   UNL A   1      50.301  26.934  30.165  1.00  0.00     0.020 A 
ATOM     88  C   UNL A   1      49.484  26.078  32.288  1.00  0.00     0.020 A 
ATOM     89  C   UNL A   1      50.533  26.319  31.400  1.00  0.00     0.054 A 
BRANCH  89  90
ATOM     90  S   UNL A   1      52.234  25.880  31.852  1.00  0.00     0.124 S 
ATOM     91  O   UNL A   1      52.532  26.858  32.894  1.00  0.00    -0.237 OA
ATOM     92  O   UNL A   1      52.099  24.498  32.307  1.00  0.00    -0.237 OA
ATOM     93  O   UNL A   1      52.977  26.050  30.605  1.00  0.00    -0.744 OA
ENDBRANCH  89  90
ENDBRANCH  63  84
ENDBRANCH  37  38
ENDBRANCH  29  32
ENDBRANCH  27  28
ENDBRANCH   1  27
TORSDOF 16
ENDMDL
MODEL 2
REMARK VINA RESULT:     -11.5      0.943      1.847
REMARK SMILES COc1ccc([C@@H]2CC[NH2+][C@H]2C(=O)NCCCCNC(=O)c2ccc(-c3c4nc(c(-c5ccc(S(=O)(=O)[O-])cc5)c5ccc([nH]5)c(-c5ccc(S(=O)(=O)[O-])cc5)c5nc(c(-c6ccc(S(=O)(=O)[O-])cc6)c6ccc3[nH]6)C=C5)C=C4)cc2)c2ccccc12
REMARK SMILES IDX 17 1 16 2 15 3 14 4 12 5 13 6 11 8 7 9 8 10 9 11 10 12 6 15
REMARK SMILES IDX 3 16 4 17 87 18 5 19 82 20 86 21 83 22 85 23 84 24 2 25 1 26
REMARK SMILES IDX 18 27 19 28 20 29 21 31 22 32 23 33 81 34 24 35 80 36 25 37
REMARK SMILES IDX 26 38 27 39 74 40 28 41 79 42 73 43 75 44 29 45 78 46 72 47
REMARK SMILES IDX 71 48 30 50 60 51 41 52 59 53 42 54 45 55 58 56 76 57 43 58
REMARK SMILES IDX 44 59 57 61 77 62 46 63 31 64 32 65 40 66 33 67 39 68 34 69
REMARK SMILES IDX 35 70 36 71 37 72 38 73 61 74 62 75 70 76 63 77 69 78 64 79
REMARK SMILES IDX 65 80 66 81 67 82 68 83 47 84 48 85 56 86 49 87 55 88 50 89
REMARK SMILES IDX 51 90 52 91 53 92 54 93
REMARK H PARENT 14 7 10 13 10 14 19 30 75 49 45 60
REMARK Flexibility Score: inf
ROOT
ATOM      1  C   UNL A   1      33.032  28.600  25.250  1.00  0.00     0.023 C 
ENDROOT
BRANCH   1   2
ATOM      2  C   UNL A   1      33.582  28.509  23.835  1.00  0.00     0.023 C 
BRANCH   2   3
ATOM      3  C   UNL A   1      32.536  28.369  22.724  1.00  0.00     0.116 C 
BRANCH   3   4
ATOM      4  N   UNL A   1      32.919  27.411  21.698  1.00  0.00    -0.351 N 
ATOM      5  C   UNL A   1      32.686  26.069  21.562  1.00  0.00     0.278 C 
ATOM      6  O   UNL A   1      33.163  25.523  20.560  1.00  0.00    -0.268 OA
ATOM      7  H   UNL A   1      33.444  27.802  20.964  1.00  0.00     0.163 HD
BRANCH   5   8
ATOM      8  C   UNL A   1      31.851  25.250  22.580  1.00  0.00     0.280 C 
ATOM      9  C   UNL A   1      32.632  24.684  23.770  1.00  0.00     0.094 C 
ATOM     10  C   UNL A   1      31.834  25.128  25.009  1.00  0.00     0.076 C 
ATOM     11  C   UNL A   1      30.502  25.612  24.476  1.00  0.00     0.262 C 
ATOM     12  N   UNL A   1      30.769  26.114  23.132  1.00  0.00    -0.335 N 
ATOM     13  H   UNL A   1      31.075  27.086  23.172  1.00  0.00     0.346 HD
ATOM     14  H   UNL A   1      29.932  26.085  22.549  1.00  0.00     0.346 HD
BRANCH   9  15
ATOM     15  C   UNL A   1      33.069  23.218  23.721  1.00  0.00    -0.030 A 
ATOM     16  C   UNL A   1      33.612  20.537  24.380  1.00  0.00     0.126 A 
ATOM     17  C   UNL A   1      32.373  20.894  23.847  1.00  0.00     0.047 A 
ATOM     18  C   UNL A   1      34.644  21.494  24.495  1.00  0.00     0.024 A 
ATOM     19  C   UNL A   1      32.107  22.219  23.512  1.00  0.00     0.009 A 
ATOM     20  C   UNL A   1      34.399  22.835  24.101  1.00  0.00    -0.011 A 
ATOM     21  C   UNL A   1      35.918  21.145  25.004  1.00  0.00     0.012 A 
ATOM     22  C   UNL A   1      35.504  23.721  24.137  1.00  0.00     0.009 A 
ATOM     23  C   UNL A   1      36.964  22.061  25.072  1.00  0.00     0.001 A 
ATOM     24  C   UNL A   1      36.763  23.348  24.612  1.00  0.00     0.001 A 
BRANCH  16  25
ATOM     25  O   UNL A   1      33.876  19.281  24.872  1.00  0.00    -0.496 OA
ATOM     26  C   UNL A   1      32.775  18.388  24.916  1.00  0.00     0.278 C 
ENDBRANCH  16  25
ENDBRANCH   9  15
ENDBRANCH   5   8
ENDBRANCH   3   4
ENDBRANCH   2   3
ENDBRANCH   1   2
BRANCH   1  27
ATOM     27  C   UNL A   1      34.084  28.863  26.311  1.00  0.00     0.116 C 
BRANCH  27  28
ATOM     28  N   UNL A   1      33.855  30.091  27.061  1.00  0.00    -0.352 N 
ATOM     29  C   UNL A   1      34.677  30.683  27.988  1.00  0.00     0.251 C 
ATOM     30  H   UNL A   1      33.005  30.554  26.881  1.00  0.00     0.163 HD
ATOM     31  O   UNL A   1      34.303  31.670  28.613  1.00  0.00    -0.269 OA
BRANCH  29  32
ATOM     32  C   UNL A   1      35.997  30.079  28.248  1.00  0.00     0.039 A 
ATOM     33  C   UNL A   1      36.988  30.170  27.269  1.00  0.00     0.014 A 
ATOM     34  C   UNL A   1      36.271  29.501  29.491  1.00  0.00     0.014 A 
ATOM     35  C   UNL A   1      38.281  29.739  27.565  1.00  0.00     0.010 A 
ATOM     36  C   UNL A   1      37.576  29.159  29.812  1.00  0.00     0.010 A 
ATOM     37  C   UNL A   1      38.591  29.264  28.850  1.00  0.00    -0.014 A 
BRANCH  37  38
ATOM     38  C   UNL A   1      39.965  28.843  29.210  1.00  0.00     0.031 A 
ATOM     39  C   UNL A   1      40.871  29.808  29.924  1.00  0.00     0.074 A 
ATOM     40  C   UNL A   1      40.417  27.631  28.834  1.00  0.00     0.049 A 
ATOM     41  N   UNL A   1      42.127  29.668  30.256  1.00  0.00    -0.248 NA
ATOM     42  C   UNL A   1      40.297  31.117  30.282  1.00  0.00     0.031 C 
ATOM     43  C   UNL A   1      39.646  26.625  28.098  1.00  0.00     0.029 A 
ATOM     44  N   UNL A   1      41.640  27.041  29.017  1.00  0.00    -0.354 N 
ATOM     45  C   UNL A   1      42.498  30.874  30.838  1.00  0.00     0.074 A 
ATOM     46  C   UNL A   1      41.353  31.753  30.763  1.00  0.00     0.031 C 
ATOM     47  C   UNL A   1      40.405  25.532  27.922  1.00  0.00     0.029 A 
ATOM     48  C   UNL A   1      41.725  25.771  28.498  1.00  0.00     0.049 A 
ATOM     49  H   UNL A   1      42.390  27.485  29.478  1.00  0.00     0.167 HD
ATOM     50  C   UNL A   1      43.678  31.213  31.409  1.00  0.00     0.031 A 
ATOM     51  C   UNL A   1      42.750  24.898  28.491  1.00  0.00     0.031 A 
ATOM     52  C   UNL A   1      44.806  30.327  31.502  1.00  0.00     0.049 A 
ATOM     53  C   UNL A   1      44.048  25.289  29.142  1.00  0.00     0.074 A 
ATOM     54  C   UNL A   1      46.031  30.553  32.103  1.00  0.00     0.029 A 
ATOM     55  N   UNL A   1      44.841  29.040  30.986  1.00  0.00    -0.354 N 
ATOM     56  N   UNL A   1      44.364  26.417  29.732  1.00  0.00    -0.248 NA
ATOM     57  C   UNL A   1      45.121  24.287  29.136  1.00  0.00     0.031 C 
ATOM     58  C   UNL A   1      46.821  29.412  31.920  1.00  0.00     0.029 A 
ATOM     59  C   UNL A   1      46.070  28.460  31.247  1.00  0.00     0.049 A 
ATOM     60  H   UNL A   1      44.101  28.603  30.507  1.00  0.00     0.167 HD
ATOM     61  C   UNL A   1      45.663  26.248  30.196  1.00  0.00     0.074 A 
ATOM     62  C   UNL A   1      46.070  24.907  29.826  1.00  0.00     0.031 C 
ATOM     63  C   UNL A   1      46.449  27.122  30.872  1.00  0.00     0.031 A 
BRANCH  50  64
ATOM     64  C   UNL A   1      43.794  32.602  31.975  1.00  0.00    -0.014 A 
ATOM     65  C   UNL A   1      43.418  32.876  33.303  1.00  0.00     0.010 A 
ATOM     66  C   UNL A   1      44.288  33.646  31.173  1.00  0.00     0.010 A 
ATOM     67  C   UNL A   1      43.483  34.179  33.803  1.00  0.00     0.020 A 
ATOM     68  C   UNL A   1      44.382  34.946  31.679  1.00  0.00     0.020 A 
ATOM     69  C   UNL A   1      43.958  35.208  32.984  1.00  0.00     0.054 A 
BRANCH  69  70
ATOM     70  S   UNL A   1      44.033  36.890  33.657  1.00  0.00     0.124 S 
ATOM     71  O   UNL A   1      45.007  36.738  34.735  1.00  0.00    -0.237 OA
ATOM     72  O   UNL A   1      44.484  37.676  32.510  1.00  0.00    -0.237 OA
ATOM     73  O   UNL A   1      42.662  37.152  34.087  1.00  0.00    -0.744 OA
ENDBRANCH  69  70
ENDBRANCH  50  64
BRANCH  51  74
ATOM     74  C   UNL A   1      42.577  23.553  27.878  1.00  0.00    -0.014 A 
ATOM     75  C   UNL A   1      43.050  23.301  26.578  1.00  0.00     0.010 A 
ATOM     76  C   UNL A   1      41.956  22.513  28.594  1.00  0.00     0.010 A 
ATOM     77  C   UNL A   1      42.891  22.039  25.997  1.00  0.00     0.020 A 
ATOM     78  C   UNL A   1      41.817  21.244  28.025  1.00  0.00     0.020 A 
ATOM     79  C   UNL A   1      42.275  21.018  26.726  1.00  0.00     0.054 A 
BRANCH  79  80
ATOM     80  S   UNL A   1      42.127  19.373  25.973  1.00  0.00     0.124 S 
ATOM     81  O   UNL A   1      42.629  18.508  27.037  1.00  0.00    -0.237 OA
ATOM     82  O   UNL A   1      40.695  19.277  25.701  1.00  0.00    -0.237 OA
ATOM     83  O   UNL A   1      42.973  19.464  24.786  1.00  0.00    -0.744 OA
ENDBRANCH  79  80
ENDBRANCH  51  74
BRANCH  63  84
ATOM     84  C   UNL A   1      47.811  26.643  31.292  1.00  0.00    -0.014 A 
ATOM     85  C   UNL A   1      48.020  26.048  32.547  1.00  0.00     0.010 A 
ATOM     86  C   UNL A   1      48.886  26.740  30.389  1.00  0.00     0.010 A 
ATOM     87  C   UNL A   1      49.289  25.583  32.904  1.00  0.00     0.020 A 
ATOM     88  C   UNL A   1      50.150  26.256  30.732  1.00  0.00     0.020 A 
ATOM     89  C   UNL A   1      50.346  25.692  31.994  1.00  0.00     0.054 A 
BRANCH  89  90
ATOM     90  S   UNL A   1      51.972  25.039  32.461  1.00  0.00     0.124 S 
ATOM     91  O   UNL A   1      52.138  25.575  33.809  1.00  0.00    -0.237 OA
ATOM     92  O   UNL A   1      51.775  23.594  32.378  1.00  0.00    -0.237 OA
ATOM     93  O   UNL A   1      52.871  25.598  31.453  1.00  0.00    -0.744 OA
ENDBRANCH  89  90
ENDBRANCH  63  84
ENDBRANCH  37  38
ENDBRANCH  29  32
ENDBRANCH  27  28
ENDBRANCH   1  27
TORSDOF 16
ENDMDL
MODEL 3
REMARK VINA RESULT:     -11.4      2.711      9.204
REMARK SMILES COc1ccc([C@@H]2CC[NH2+][C@H]2C(=O)NCCCCNC(=O)c2ccc(-c3c4nc(c(-c5ccc(S(=O)(=O)[O-])cc5)c5ccc([nH]5)c(-c5ccc(S(=O)(=O)[O-])cc5)c5nc(c(-c6ccc(S(=O)(=O)[O-])cc6)c6ccc3[nH]6)C=C5)C=C4)cc2)c2ccccc12
REMARK SMILES IDX 17 1 16 2 15 3 14 4 12 5 13 6 11 8 7 9 8 10 9 11 10 12 6 15
REMARK SMILES IDX 3 16 4 17 87 18 5 19 82 20 86 21 83 22 85 23 84 24 2 25 1 26
REMARK SMILES IDX 18 27 19 28 20 29 21 31 22 32 23 33 81 34 24 35 80 36 25 37
REMARK SMILES IDX 26 38 27 39 74 40 28 41 79 42 73 43 75 44 29 45 78 46 72 47
REMARK SMILES IDX 71 48 30 50 60 51 41 52 59 53 42 54 45 55 58 56 76 57 43 58
REMARK SMILES IDX 44 59 57 61 77 62 46 63 31 64 32 65 40 66 33 67 39 68 34 69
REMARK SMILES IDX 35 70 36 71 37 72 38 73 61 74 62 75 70 76 63 77 69 78 64 79
REMARK SMILES IDX 65 80 66 81 67 82 68 83 47 84 48 85 56 86 49 87 55 88 50 89
REMARK SMILES IDX 51 90 52 91 53 92 54 93
REMARK H PARENT 14 7 10 13 10 14 19 30 75 49 45 60
REMARK Flexibility Score: inf
ROOT
ATOM      1  C   UNL A   1      35.778  23.399  24.760  1.00  0.00     0.023 C 
ENDROOT
BRANCH   1   2
ATOM      2  C   UNL A   1      34.999  24.137  25.838  1.00  0.00     0.023 C 
BRANCH   2   3
ATOM      3  C   UNL A   1      34.208  23.251  26.808  1.00  0.00     0.116 C 
BRANCH   3   4
ATOM      4  N   UNL A   1      33.140  22.507  26.158  1.00  0.00    -0.351 N 
ATOM      5  C   UNL A   1      31.805  22.765  26.002  1.00  0.00     0.278 C 
ATOM      6  O   UNL A   1      31.144  21.914  25.396  1.00  0.00    -0.268 OA
ATOM      7  H   UNL A   1      33.433  21.659  25.756  1.00  0.00     0.163 HD
BRANCH   5   8
ATOM      8  C   UNL A   1      31.129  24.060  26.522  1.00  0.00     0.280 C 
ATOM      9  C   UNL A   1      31.138  25.245  25.552  1.00  0.00     0.094 C 
ATOM     10  C   UNL A   1      29.673  25.712  25.491  1.00  0.00     0.076 C 
ATOM     11  C   UNL A   1      28.983  25.021  26.648  1.00  0.00     0.262 C 
ATOM     12  N   UNL A   1      29.704  23.770  26.852  1.00  0.00    -0.335 N 
ATOM     13  H   UNL A   1      29.337  23.044  26.236  1.00  0.00     0.346 HD
ATOM     14  H   UNL A   1      29.602  23.431  27.810  1.00  0.00     0.346 HD
BRANCH   9  15
ATOM     15  C   UNL A   1      32.200  26.330  25.740  1.00  0.00    -0.030 A 
ATOM     16  C   UNL A   1      33.521  28.798  26.023  1.00  0.00     0.126 A 
ATOM     17  C   UNL A   1      33.024  28.133  27.144  1.00  0.00     0.047 A 
ATOM     18  C   UNL A   1      33.463  28.194  24.749  1.00  0.00     0.024 A 
ATOM     19  C   UNL A   1      32.379  26.907  27.006  1.00  0.00     0.009 A 
ATOM     20  C   UNL A   1      32.860  26.918  24.609  1.00  0.00    -0.011 A 
ATOM     21  C   UNL A   1      33.990  28.839  23.604  1.00  0.00     0.012 A 
ATOM     22  C   UNL A   1      32.931  26.316  23.328  1.00  0.00     0.009 A 
ATOM     23  C   UNL A   1      33.993  28.234  22.350  1.00  0.00     0.001 A 
ATOM     24  C   UNL A   1      33.484  26.957  22.217  1.00  0.00     0.001 A 
BRANCH  16  25
ATOM     25  O   UNL A   1      34.024  30.077  26.079  1.00  0.00    -0.496 OA
ATOM     26  C   UNL A   1      33.788  30.784  27.286  1.00  0.00     0.278 C 
ENDBRANCH  16  25
ENDBRANCH   9  15
ENDBRANCH   5   8
ENDBRANCH   3   4
ENDBRANCH   2   3
ENDBRANCH   1   2
BRANCH   1  27
ATOM     27  C   UNL A   1      37.256  23.736  24.721  1.00  0.00     0.116 C 
BRANCH  27  28
ATOM     28  N   UNL A   1      38.103  22.695  25.289  1.00  0.00    -0.352 N 
ATOM     29  C   UNL A   1      39.092  22.828  26.233  1.00  0.00     0.251 C 
ATOM     30  H   UNL A   1      37.946  21.782  24.956  1.00  0.00     0.163 HD
ATOM     31  O   UNL A   1      39.789  21.869  26.545  1.00  0.00    -0.269 OA
BRANCH  29  32
ATOM     32  C   UNL A   1      39.324  24.159  26.827  1.00  0.00     0.039 A 
ATOM     33  C   UNL A   1      38.835  24.424  28.106  1.00  0.00     0.014 A 
ATOM     34  C   UNL A   1      40.099  25.103  26.147  1.00  0.00     0.014 A 
ATOM     35  C   UNL A   1      39.181  25.620  28.734  1.00  0.00     0.010 A 
ATOM     36  C   UNL A   1      40.516  26.248  26.809  1.00  0.00     0.010 A 
ATOM     37  C   UNL A   1      40.053  26.523  28.104  1.00  0.00    -0.014 A 
BRANCH  37  38
ATOM     38  C   UNL A   1      40.477  27.779  28.765  1.00  0.00     0.031 A 
ATOM     39  C   UNL A   1      41.856  27.872  29.360  1.00  0.00     0.074 A 
ATOM     40  C   UNL A   1      39.608  28.800  28.891  1.00  0.00     0.049 A 
ATOM     41  N   UNL A   1      42.392  28.846  30.048  1.00  0.00    -0.248 NA
ATOM     42  C   UNL A   1      42.734  26.702  29.189  1.00  0.00     0.031 C 
ATOM     43  C   UNL A   1      38.229  28.810  28.393  1.00  0.00     0.029 A 
ATOM     44  N   UNL A   1      39.755  30.028  29.482  1.00  0.00    -0.354 N 
ATOM     45  C   UNL A   1      43.657  28.397  30.409  1.00  0.00     0.074 A 
ATOM     46  C   UNL A   1      43.786  27.045  29.914  1.00  0.00     0.031 C 
ATOM     47  C   UNL A   1      37.670  29.998  28.672  1.00  0.00     0.029 A 
ATOM     48  C   UNL A   1      38.634  30.819  29.399  1.00  0.00     0.049 A 
ATOM     49  H   UNL A   1      40.586  30.316  29.926  1.00  0.00     0.167 HD
ATOM     50  C   UNL A   1      44.635  29.059  31.070  1.00  0.00     0.031 A 
ATOM     51  C   UNL A   1      38.411  32.066  29.855  1.00  0.00     0.031 A 
ATOM     52  C   UNL A   1      44.510  30.412  31.539  1.00  0.00     0.049 A 
ATOM     53  C   UNL A   1      39.516  32.789  30.576  1.00  0.00     0.074 A 
ATOM     54  C   UNL A   1      45.456  31.193  32.178  1.00  0.00     0.029 A 
ATOM     55  N   UNL A   1      43.367  31.187  31.412  1.00  0.00    -0.354 N 
ATOM     56  N   UNL A   1      40.724  32.366  30.864  1.00  0.00    -0.248 NA
ATOM     57  C   UNL A   1      39.231  34.159  31.020  1.00  0.00     0.031 C 
ATOM     58  C   UNL A   1      44.873  32.432  32.467  1.00  0.00     0.029 A 
ATOM     59  C   UNL A   1      43.580  32.437  31.967  1.00  0.00     0.049 A 
ATOM     60  H   UNL A   1      42.529  30.892  30.989  1.00  0.00     0.167 HD
ATOM     61  C   UNL A   1      41.354  33.431  31.497  1.00  0.00     0.074 A 
ATOM     62  C   UNL A   1      40.397  34.519  31.542  1.00  0.00     0.031 C 
ATOM     63  C   UNL A   1      42.613  33.505  31.994  1.00  0.00     0.031 A 
BRANCH  50  64
ATOM     64  C   UNL A   1      45.921  28.319  31.317  1.00  0.00    -0.014 A 
ATOM     65  C   UNL A   1      46.994  28.410  30.410  1.00  0.00     0.010 A 
ATOM     66  C   UNL A   1      46.064  27.525  32.469  1.00  0.00     0.010 A 
ATOM     67  C   UNL A   1      48.165  27.679  30.623  1.00  0.00     0.020 A 
ATOM     68  C   UNL A   1      47.245  26.815  32.700  1.00  0.00     0.020 A 
ATOM     69  C   UNL A   1      48.280  26.879  31.763  1.00  0.00     0.054 A 
BRANCH  69  70
ATOM     70  S   UNL A   1      49.811  25.941  32.017  1.00  0.00     0.124 S 
ATOM     71  O   UNL A   1      49.502  25.184  33.227  1.00  0.00    -0.237 OA
ATOM     72  O   UNL A   1      49.913  25.152  30.792  1.00  0.00    -0.237 OA
ATOM     73  O   UNL A   1      50.829  26.977  32.173  1.00  0.00    -0.744 OA
ENDBRANCH  69  70
ENDBRANCH  50  64
BRANCH  51  74
ATOM     74  C   UNL A   1      37.099  32.725  29.609  1.00  0.00    -0.014 A 
ATOM     75  C   UNL A   1      36.082  32.658  30.576  1.00  0.00     0.010 A 
ATOM     76  C   UNL A   1      36.866  33.435  28.418  1.00  0.00     0.010 A 
ATOM     77  C   UNL A   1      34.848  33.275  30.352  1.00  0.00     0.020 A 
ATOM     78  C   UNL A   1      35.642  34.074  28.200  1.00  0.00     0.020 A 
ATOM     79  C   UNL A   1      34.636  33.980  29.164  1.00  0.00     0.054 A 
BRANCH  79  80
ATOM     80  S   UNL A   1      33.045  34.819  28.915  1.00  0.00     0.124 S 
ATOM     81  O   UNL A   1      32.484  34.809  30.263  1.00  0.00    -0.237 OA
ATOM     82  O   UNL A   1      33.453  36.127  28.409  1.00  0.00    -0.237 OA
ATOM     83  O   UNL A   1      32.362  33.970  27.943  1.00  0.00    -0.744 OA
ENDBRANCH  79  80
ENDBRANCH  51  74
BRANCH  63  84
ATOM     84  C   UNL A   1      43.044  34.816  32.591  1.00  0.00    -0.014 A 
ATOM     85  C   UNL A   1      43.594  35.833  31.794  1.00  0.00     0.010 A 
ATOM     86  C   UNL A   1      42.840  35.050  33.964  1.00  0.00     0.010 A 
ATOM     87  C   UNL A   1      43.960  37.055  32.366  1.00  0.00     0.020 A 
ATOM     88  C   UNL A   1      43.183  36.278  34.534  1.00  0.00     0.020 A 
ATOM     89  C   UNL A   1      43.753  37.268  33.733  1.00  0.00     0.054 A 
BRANCH  89  90
ATOM     90  S   UNL A   1      44.192  38.878  34.444  1.00  0.00     0.124 S 
ATOM     91  O   UNL A   1      45.537  39.086  33.915  1.00  0.00    -0.237 OA
ATOM     92  O   UNL A   1      43.160  39.761  33.904  1.00  0.00    -0.237 OA
ATOM     93  O   UNL A   1      44.117  38.651  35.885  1.00  0.00    -0.744 OA
ENDBRANCH  89  90
ENDBRANCH  63  84
ENDBRANCH  37  38
ENDBRANCH  29  32
ENDBRANCH  27  28
ENDBRANCH   1  27
TORSDOF 16
ENDMDL
