MODEL 1
REMARK VINA RESULT:     -11.2      0.000      0.000
REMARK SMILES Cn1nc(N2CCC(CC(=O)NCCCCNC(=O)c3ccc(-c4c5nc(c(-c6ccc(S(=O)(=O)[O-])cc6)c6ccc([nH]6)c(-c6ccc(S(=O)(=O)[O-])cc6)c6nc(c(-c7ccc(S(=O)(=O)[O-])cc7)c7ccc4[nH]7)C=C6)C=C5)cc3)CC2)c(=O)n(C)c1=O
REMARK SMILES IDX 15 1 14 2 13 3 12 4 10 5 11 6 9 8 8 9 5 10 6 11 81 12 7 13
REMARK SMILES IDX 80 14 4 15 1 16 2 17 3 18 86 19 84 20 87 21 82 22 85 23
REMARK SMILES IDX 83 24 16 25 17 26 18 27 19 29 20 30 21 31 79 32 22 33 78 34
REMARK SMILES IDX 23 35 24 36 25 37 72 38 26 39 77 40 71 41 73 42 27 43 76 44
REMARK SMILES IDX 70 45 69 46 28 48 58 49 39 50 57 51 40 52 43 53 56 54 74 55
REMARK SMILES IDX 41 56 42 57 55 59 75 60 44 61 29 62 30 63 38 64 31 65 37 66
REMARK SMILES IDX 32 67 33 68 34 69 35 70 36 71 59 72 60 73 68 74 61 75 67 76
REMARK SMILES IDX 62 77 63 78 64 79 65 80 66 81 45 82 46 83 54 84 47 85 53 86
REMARK SMILES IDX 48 87 49 88 50 89 51 90 52 91
REMARK H PARENT 12 7 17 28 73 47 43 58
REMARK Flexibility Score: inf
ROOT
ATOM      1  C   UNL A   1      33.743  28.476  25.766  1.00  0.00     0.023 C 
ENDROOT
BRANCH   1   2
ATOM      2  C   UNL A   1      32.926  29.376  24.857  1.00  0.00     0.023 C 
BRANCH   2   3
ATOM      3  C   UNL A   1      31.446  29.007  24.735  1.00  0.00     0.116 C 
BRANCH   3   4
ATOM      4  N   UNL A   1      31.121  28.512  23.407  1.00  0.00    -0.356 N 
ATOM      5  C   UNL A   1      30.988  27.234  22.947  1.00  0.00     0.220 C 
ATOM      6  O   UNL A   1      30.759  27.062  21.748  1.00  0.00    -0.275 OA
ATOM      7  H   UNL A   1      30.973  29.211  22.731  1.00  0.00     0.163 HD
BRANCH   5   8
ATOM      8  C   UNL A   1      31.125  26.045  23.885  1.00  0.00     0.103 C 
BRANCH   8   9
ATOM      9  C   UNL A   1      32.582  25.713  24.272  1.00  0.00     0.002 C 
ATOM     10  N   UNL A   1      34.429  23.539  24.693  1.00  0.00    -0.351 N 
ATOM     11  C   UNL A   1      33.954  24.223  25.873  1.00  0.00     0.118 C 
ATOM     12  C   UNL A   1      34.633  24.378  23.528  1.00  0.00     0.118 C 
ATOM     13  C   UNL A   1      32.627  24.885  25.559  1.00  0.00     0.025 C 
ATOM     14  C   UNL A   1      33.286  24.979  23.113  1.00  0.00     0.025 C 
BRANCH  10  15
ATOM     15  C   UNL A   1      34.527  22.161  24.643  1.00  0.00     0.215 A 
ATOM     16  C   UNL A   1      32.410  19.271  24.353  1.00  0.00     0.180 C 
ATOM     17  N   UNL A   1      33.631  20.039  24.541  1.00  0.00    -0.216 N 
ATOM     18  N   UNL A   1      33.470  21.403  24.568  1.00  0.00    -0.145 NA
ATOM     19  C   UNL A   1      34.851  19.374  24.652  1.00  0.00     0.346 A 
ATOM     20  N   UNL A   1      35.968  20.170  24.800  1.00  0.00    -0.259 N 
ATOM     21  O   UNL A   1      34.933  18.144  24.602  1.00  0.00    -0.246 OA
ATOM     22  C   UNL A   1      35.924  21.544  24.715  1.00  0.00     0.299 A 
ATOM     23  C   UNL A   1      37.267  19.565  24.995  1.00  0.00     0.159 C 
ATOM     24  O   UNL A   1      36.905  22.280  24.709  1.00  0.00    -0.265 OA
ENDBRANCH  10  15
ENDBRANCH   8   9
ENDBRANCH   5   8
ENDBRANCH   3   4
ENDBRANCH   2   3
ENDBRANCH   1   2
BRANCH   1  25
ATOM     25  C   UNL A   1      33.489  28.711  27.243  1.00  0.00     0.116 C 
BRANCH  25  26
ATOM     26  N   UNL A   1      33.524  30.122  27.614  1.00  0.00    -0.352 N 
ATOM     27  C   UNL A   1      34.553  30.841  28.183  1.00  0.00     0.251 C 
ATOM     28  H   UNL A   1      32.700  30.630  27.434  1.00  0.00     0.163 HD
ATOM     29  O   UNL A   1      34.386  31.995  28.543  1.00  0.00    -0.269 OA
BRANCH  27  30
ATOM     30  C   UNL A   1      35.850  30.164  28.380  1.00  0.00     0.039 A 
ATOM     31  C   UNL A   1      36.810  30.220  27.370  1.00  0.00     0.014 A 
ATOM     32  C   UNL A   1      36.143  29.580  29.614  1.00  0.00     0.014 A 
ATOM     33  C   UNL A   1      38.103  29.768  27.636  1.00  0.00     0.010 A 
ATOM     34  C   UNL A   1      37.454  29.243  29.912  1.00  0.00     0.010 A 
ATOM     35  C   UNL A   1      38.445  29.321  28.923  1.00  0.00    -0.014 A 
BRANCH  35  36
ATOM     36  C   UNL A   1      39.825  28.894  29.252  1.00  0.00     0.031 A 
ATOM     37  C   UNL A   1      40.726  29.832  30.009  1.00  0.00     0.074 A 
ATOM     38  C   UNL A   1      40.285  27.701  28.825  1.00  0.00     0.049 A 
ATOM     39  N   UNL A   1      41.975  29.670  30.358  1.00  0.00    -0.248 NA
ATOM     40  C   UNL A   1      40.162  31.138  30.390  1.00  0.00     0.031 C 
ATOM     41  C   UNL A   1      39.527  26.732  28.030  1.00  0.00     0.029 A 
ATOM     42  N   UNL A   1      41.504  27.098  29.006  1.00  0.00    -0.354 N 
ATOM     43  C   UNL A   1      42.347  30.859  30.975  1.00  0.00     0.074 A 
ATOM     44  C   UNL A   1      41.218  31.758  30.889  1.00  0.00     0.031 C 
ATOM     45  C   UNL A   1      40.279  25.634  27.840  1.00  0.00     0.029 A 
ATOM     46  C   UNL A   1      41.581  25.835  28.469  1.00  0.00     0.049 A 
ATOM     47  H   UNL A   1      42.254  27.529  29.477  1.00  0.00     0.167 HD
ATOM     48  C   UNL A   1      43.508  31.165  31.596  1.00  0.00     0.031 A 
ATOM     49  C   UNL A   1      42.583  24.935  28.494  1.00  0.00     0.031 A 
ATOM     50  C   UNL A   1      44.610  30.254  31.720  1.00  0.00     0.049 A 
ATOM     51  C   UNL A   1      43.861  25.285  29.203  1.00  0.00     0.074 A 
ATOM     52  C   UNL A   1      45.804  30.434  32.392  1.00  0.00     0.029 A 
ATOM     53  N   UNL A   1      44.645  28.984  31.166  1.00  0.00    -0.354 N 
ATOM     54  N   UNL A   1      44.169  26.390  29.841  1.00  0.00    -0.248 NA
ATOM     55  C   UNL A   1      44.924  24.271  29.201  1.00  0.00     0.031 C 
ATOM     56  C   UNL A   1      46.578  29.283  32.214  1.00  0.00     0.029 A 
ATOM     57  C   UNL A   1      45.848  28.373  31.464  1.00  0.00     0.049 A 
ATOM     58  H   UNL A   1      43.920  28.577  30.637  1.00  0.00     0.167 HD
ATOM     59  C   UNL A   1      45.456  26.199  30.328  1.00  0.00     0.074 A 
ATOM     60  C   UNL A   1      45.865  24.869  29.923  1.00  0.00     0.031 C 
ATOM     61  C   UNL A   1      46.231  27.049  31.045  1.00  0.00     0.031 A 
BRANCH  48  62
ATOM     62  C   UNL A   1      43.621  32.537  32.202  1.00  0.00    -0.014 A 
ATOM     63  C   UNL A   1      43.107  32.800  33.485  1.00  0.00     0.010 A 
ATOM     64  C   UNL A   1      44.239  33.574  31.482  1.00  0.00     0.010 A 
ATOM     65  C   UNL A   1      43.157  34.090  34.015  1.00  0.00     0.020 A 
ATOM     66  C   UNL A   1      44.316  34.862  32.023  1.00  0.00     0.020 A 
ATOM     67  C   UNL A   1      43.754  35.116  33.276  1.00  0.00     0.054 A 
BRANCH  67  68
ATOM     68  S   UNL A   1      43.801  36.783  33.988  1.00  0.00     0.124 S 
ATOM     69  O   UNL A   1      42.462  36.903  34.559  1.00  0.00    -0.237 OA
ATOM     70  O   UNL A   1      44.890  36.689  34.956  1.00  0.00    -0.237 OA
ATOM     71  O   UNL A   1      44.067  37.643  32.836  1.00  0.00    -0.744 OA
ENDBRANCH  67  68
ENDBRANCH  48  62
BRANCH  49  72
ATOM     72  C   UNL A   1      42.390  23.598  27.872  1.00  0.00    -0.014 A 
ATOM     73  C   UNL A   1      42.971  23.312  26.624  1.00  0.00     0.010 A 
ATOM     74  C   UNL A   1      41.673  22.589  28.541  1.00  0.00     0.010 A 
ATOM     75  C   UNL A   1      42.839  22.041  26.056  1.00  0.00     0.020 A 
ATOM     76  C   UNL A   1      41.555  21.311  27.984  1.00  0.00     0.020 A 
ATOM     77  C   UNL A   1      42.137  21.048  26.742  1.00  0.00     0.054 A 
BRANCH  77  78
ATOM     78  S   UNL A   1      42.048  19.384  26.019  1.00  0.00     0.124 S 
ATOM     79  O   UNL A   1      40.615  19.224  25.801  1.00  0.00    -0.237 OA
ATOM     80  O   UNL A   1      42.862  19.521  24.814  1.00  0.00    -0.237 OA
ATOM     81  O   UNL A   1      42.625  18.530  27.056  1.00  0.00    -0.744 OA
ENDBRANCH  77  78
ENDBRANCH  49  72
BRANCH  61  82
ATOM     82  C   UNL A   1      47.601  26.578  31.441  1.00  0.00    -0.014 A 
ATOM     83  C   UNL A   1      47.791  25.859  32.633  1.00  0.00     0.010 A 
ATOM     84  C   UNL A   1      48.680  26.751  30.556  1.00  0.00     0.010 A 
ATOM     85  C   UNL A   1      49.043  25.318  32.934  1.00  0.00     0.020 A 
ATOM     86  C   UNL A   1      49.928  26.194  30.846  1.00  0.00     0.020 A 
ATOM     87  C   UNL A   1      50.101  25.483  32.035  1.00  0.00     0.054 A 
BRANCH  87  88
ATOM     88  S   UNL A   1      51.689  24.688  32.407  1.00  0.00     0.124 S 
ATOM     89  O   UNL A   1      51.887  25.046  33.809  1.00  0.00    -0.237 OA
ATOM     90  O   UNL A   1      51.409  23.278  32.151  1.00  0.00    -0.237 OA
ATOM     91  O   UNL A   1      52.617  25.312  31.468  1.00  0.00    -0.744 OA
ENDBRANCH  87  88
ENDBRANCH  61  82
ENDBRANCH  35  36
ENDBRANCH  27  30
ENDBRANCH  25  26
ENDBRANCH   1  25
TORSDOF 16
ENDMDL
MODEL 2
REMARK VINA RESULT:     -11.1      2.556      9.771
REMARK SMILES Cn1nc(N2CCC(CC(=O)NCCCCNC(=O)c3ccc(-c4c5nc(c(-c6ccc(S(=O)(=O)[O-])cc6)c6ccc([nH]6)c(-c6ccc(S(=O)(=O)[O-])cc6)c6nc(c(-c7ccc(S(=O)(=O)[O-])cc7)c7ccc4[nH]7)C=C6)C=C5)cc3)CC2)c(=O)n(C)c1=O
REMARK SMILES IDX 15 1 14 2 13 3 12 4 10 5 11 6 9 8 8 9 5 10 6 11 81 12 7 13
REMARK SMILES IDX 80 14 4 15 1 16 2 17 3 18 86 19 84 20 87 21 82 22 85 23
REMARK SMILES IDX 83 24 16 25 17 26 18 27 19 29 20 30 21 31 79 32 22 33 78 34
REMARK SMILES IDX 23 35 24 36 25 37 72 38 26 39 77 40 71 41 73 42 27 43 76 44
REMARK SMILES IDX 70 45 69 46 28 48 58 49 39 50 57 51 40 52 43 53 56 54 74 55
REMARK SMILES IDX 41 56 42 57 55 59 75 60 44 61 29 62 30 63 38 64 31 65 37 66
REMARK SMILES IDX 32 67 33 68 34 69 35 70 36 71 59 72 60 73 68 74 61 75 67 76
REMARK SMILES IDX 62 77 63 78 64 79 65 80 66 81 45 82 46 83 54 84 47 85 53 86
REMARK SMILES IDX 48 87 49 88 50 89 51 90 52 91
REMARK H PARENT 12 7 17 28 73 47 43 58
REMARK Flexibility Score: inf
ROOT
ATOM      1  C   UNL A   1      36.342  22.803  24.299  1.00  0.00     0.023 C 
ENDROOT
BRANCH   1   2
ATOM      2  C   UNL A   1      36.181  21.315  24.547  1.00  0.00     0.023 C 
BRANCH   2   3
ATOM      3  C   UNL A   1      35.356  20.946  25.783  1.00  0.00     0.116 C 
BRANCH   3   4
ATOM      4  N   UNL A   1      34.093  20.324  25.422  1.00  0.00    -0.356 N 
ATOM      5  C   UNL A   1      32.830  20.839  25.387  1.00  0.00     0.220 C 
ATOM      6  O   UNL A   1      31.896  20.089  25.096  1.00  0.00    -0.275 OA
ATOM      7  H   UNL A   1      34.160  19.378  25.159  1.00  0.00     0.163 HD
BRANCH   5   8
ATOM      8  C   UNL A   1      32.572  22.305  25.704  1.00  0.00     0.103 C 
BRANCH   8   9
ATOM      9  C   UNL A   1      32.163  23.150  24.479  1.00  0.00     0.002 C 
ATOM     10  N   UNL A   1      31.524  25.829  23.624  1.00  0.00    -0.351 N 
ATOM     11  C   UNL A   1      30.420  24.903  23.731  1.00  0.00     0.118 C 
ATOM     12  C   UNL A   1      32.774  25.257  23.164  1.00  0.00     0.118 C 
ATOM     13  C   UNL A   1      30.794  23.800  24.701  1.00  0.00     0.025 C 
ATOM     14  C   UNL A   1      33.241  24.213  24.182  1.00  0.00     0.025 C 
BRANCH  10  15
ATOM     15  C   UNL A   1      31.425  27.130  24.082  1.00  0.00     0.215 A 
ATOM     16  C   UNL A   1      32.393  29.121  26.913  1.00  0.00     0.180 C 
ATOM     17  N   UNL A   1      31.750  28.786  25.652  1.00  0.00    -0.216 N 
ATOM     18  N   UNL A   1      31.895  27.483  25.244  1.00  0.00    -0.145 NA
ATOM     19  C   UNL A   1      31.071  29.776  24.943  1.00  0.00     0.346 A 
ATOM     20  N   UNL A   1      30.512  29.391  23.742  1.00  0.00    -0.259 N 
ATOM     21  O   UNL A   1      30.991  30.937  25.355  1.00  0.00    -0.246 OA
ATOM     22  C   UNL A   1      30.708  28.145  23.192  1.00  0.00     0.299 A 
ATOM     23  C   UNL A   1      29.728  30.334  22.975  1.00  0.00     0.159 C 
ATOM     24  O   UNL A   1      30.342  27.805  22.071  1.00  0.00    -0.265 OA
ENDBRANCH  10  15
ENDBRANCH   8   9
ENDBRANCH   5   8
ENDBRANCH   3   4
ENDBRANCH   2   3
ENDBRANCH   1   2
BRANCH   1  25
ATOM     25  C   UNL A   1      37.331  23.473  25.233  1.00  0.00     0.116 C 
BRANCH  25  26
ATOM     26  N   UNL A   1      38.466  22.621  25.573  1.00  0.00    -0.352 N 
ATOM     27  C   UNL A   1      39.614  22.944  26.264  1.00  0.00     0.251 C 
ATOM     28  H   UNL A   1      38.404  21.687  25.266  1.00  0.00     0.163 HD
ATOM     29  O   UNL A   1      40.529  22.143  26.367  1.00  0.00    -0.269 OA
BRANCH  27  30
ATOM     30  C   UNL A   1      39.721  24.298  26.841  1.00  0.00     0.039 A 
ATOM     31  C   UNL A   1      39.269  24.524  28.141  1.00  0.00     0.014 A 
ATOM     32  C   UNL A   1      40.377  25.303  26.127  1.00  0.00     0.014 A 
ATOM     33  C   UNL A   1      39.561  25.740  28.760  1.00  0.00     0.010 A 
ATOM     34  C   UNL A   1      40.768  26.459  26.784  1.00  0.00     0.010 A 
ATOM     35  C   UNL A   1      40.354  26.695  28.103  1.00  0.00    -0.014 A 
BRANCH  35  36
ATOM     36  C   UNL A   1      40.733  27.969  28.758  1.00  0.00     0.031 A 
ATOM     37  C   UNL A   1      42.131  28.137  29.290  1.00  0.00     0.074 A 
ATOM     38  C   UNL A   1      39.816  28.942  28.929  1.00  0.00     0.049 A 
ATOM     39  N   UNL A   1      42.651  29.150  29.931  1.00  0.00    -0.248 NA
ATOM     40  C   UNL A   1      43.054  27.002  29.110  1.00  0.00     0.031 C 
ATOM     41  C   UNL A   1      38.413  28.873  28.513  1.00  0.00     0.029 A 
ATOM     42  N   UNL A   1      39.932  30.187  29.494  1.00  0.00    -0.354 N 
ATOM     43  C   UNL A   1      43.948  28.763  30.249  1.00  0.00     0.074 A 
ATOM     44  C   UNL A   1      44.112  27.401  29.796  1.00  0.00     0.031 C 
ATOM     45  C   UNL A   1      37.814  30.044  28.788  1.00  0.00     0.029 A 
ATOM     46  C   UNL A   1      38.778  30.933  29.428  1.00  0.00     0.049 A 
ATOM     47  H   UNL A   1      40.762  30.516  29.908  1.00  0.00     0.167 HD
ATOM     48  C   UNL A   1      44.931  29.489  30.829  1.00  0.00     0.031 A 
ATOM     49  C   UNL A   1      38.531  32.196  29.825  1.00  0.00     0.031 A 
ATOM     50  C   UNL A   1      44.778  30.856  31.236  1.00  0.00     0.049 A 
ATOM     51  C   UNL A   1      39.640  32.994  30.453  1.00  0.00     0.074 A 
ATOM     52  C   UNL A   1      45.729  31.708  31.765  1.00  0.00     0.029 A 
ATOM     53  N   UNL A   1      43.596  31.574  31.146  1.00  0.00    -0.354 N 
ATOM     54  N   UNL A   1      40.881  32.634  30.683  1.00  0.00    -0.248 NA
ATOM     55  C   UNL A   1      39.321  34.365  30.870  1.00  0.00     0.031 C 
ATOM     56  C   UNL A   1      45.112  32.934  32.029  1.00  0.00     0.029 A 
ATOM     57  C   UNL A   1      43.787  32.856  31.628  1.00  0.00     0.049 A 
ATOM     58  H   UNL A   1      42.746  31.224  30.793  1.00  0.00     0.167 HD
ATOM     59  C   UNL A   1      41.494  33.739  31.260  1.00  0.00     0.074 A 
ATOM     60  C   UNL A   1      40.493  34.784  31.332  1.00  0.00     0.031 C 
ATOM     61  C   UNL A   1      42.771  33.876  31.692  1.00  0.00     0.031 A 
BRANCH  48  62
ATOM     62  C   UNL A   1      46.257  28.809  31.030  1.00  0.00    -0.014 A 
ATOM     63  C   UNL A   1      47.208  28.769  29.993  1.00  0.00     0.010 A 
ATOM     64  C   UNL A   1      46.555  28.198  32.260  1.00  0.00     0.010 A 
ATOM     65  C   UNL A   1      48.410  28.080  30.164  1.00  0.00     0.020 A 
ATOM     66  C   UNL A   1      47.771  27.533  32.444  1.00  0.00     0.020 A 
ATOM     67  C   UNL A   1      48.681  27.459  31.387  1.00  0.00     0.054 A 
BRANCH  67  68
ATOM     68  S   UNL A   1      50.248  26.569  31.579  1.00  0.00     0.124 S 
ATOM     69  O   UNL A   1      50.144  26.073  32.949  1.00  0.00    -0.237 OA
ATOM     70  O   UNL A   1      50.172  25.552  30.535  1.00  0.00    -0.237 OA
ATOM     71  O   UNL A   1      51.260  27.601  31.367  1.00  0.00    -0.744 OA
ENDBRANCH  67  68
ENDBRANCH  48  62
BRANCH  49  72
ATOM     72  C   UNL A   1      37.192  32.796  29.587  1.00  0.00    -0.014 A 
ATOM     73  C   UNL A   1      36.326  33.036  30.669  1.00  0.00     0.010 A 
ATOM     74  C   UNL A   1      36.793  33.179  28.294  1.00  0.00     0.010 A 
ATOM     75  C   UNL A   1      35.086  33.647  30.462  1.00  0.00     0.020 A 
ATOM     76  C   UNL A   1      35.560  33.808  28.086  1.00  0.00     0.020 A 
ATOM     77  C   UNL A   1      34.713  34.034  29.174  1.00  0.00     0.054 A 
BRANCH  77  78
ATOM     78  S   UNL A   1      33.133  34.899  28.944  1.00  0.00     0.124 S 
ATOM     79  O   UNL A   1      32.563  34.852  30.286  1.00  0.00    -0.237 OA
ATOM     80  O   UNL A   1      33.560  36.217  28.481  1.00  0.00    -0.237 OA
ATOM     81  O   UNL A   1      32.444  34.090  27.941  1.00  0.00    -0.744 OA
ENDBRANCH  77  78
ENDBRANCH  49  72
BRANCH  61  82
ATOM     82  C   UNL A   1      43.169  35.198  32.285  1.00  0.00    -0.014 A 
ATOM     83  C   UNL A   1      43.700  36.213  31.473  1.00  0.00     0.010 A 
ATOM     84  C   UNL A   1      42.895  35.464  33.639  1.00  0.00     0.010 A 
ATOM     85  C   UNL A   1      43.953  37.479  32.006  1.00  0.00     0.020 A 
ATOM     86  C   UNL A   1      43.128  36.735  34.170  1.00  0.00     0.020 A 
ATOM     87  C   UNL A   1      43.657  37.733  33.349  1.00  0.00     0.054 A 
BRANCH  87  88
ATOM     88  S   UNL A   1      43.905  39.413  33.990  1.00  0.00     0.124 S 
ATOM     89  O   UNL A   1      44.036  39.175  35.425  1.00  0.00    -0.237 OA
ATOM     90  O   UNL A   1      45.124  39.839  33.308  1.00  0.00    -0.237 OA
ATOM     91  O   UNL A   1      42.692  40.120  33.584  1.00  0.00    -0.744 OA
ENDBRANCH  87  88
ENDBRANCH  61  82
ENDBRANCH  35  36
ENDBRANCH  27  30
ENDBRANCH  25  26
ENDBRANCH   1  25
TORSDOF 16
ENDMDL
MODEL 3
REMARK VINA RESULT:     -10.7      3.122      3.897
REMARK SMILES Cn1nc(N2CCC(CC(=O)NCCCCNC(=O)c3ccc(-c4c5nc(c(-c6ccc(S(=O)(=O)[O-])cc6)c6ccc([nH]6)c(-c6ccc(S(=O)(=O)[O-])cc6)c6nc(c(-c7ccc(S(=O)(=O)[O-])cc7)c7ccc4[nH]7)C=C6)C=C5)cc3)CC2)c(=O)n(C)c1=O
REMARK SMILES IDX 15 1 14 2 13 3 12 4 10 5 11 6 9 8 8 9 5 10 6 11 81 12 7 13
REMARK SMILES IDX 80 14 4 15 1 16 2 17 3 18 86 19 84 20 87 21 82 22 85 23
REMARK SMILES IDX 83 24 16 25 17 26 18 27 19 29 20 30 21 31 79 32 22 33 78 34
REMARK SMILES IDX 23 35 24 36 25 37 72 38 26 39 77 40 71 41 73 42 27 43 76 44
REMARK SMILES IDX 70 45 69 46 28 48 58 49 39 50 57 51 40 52 43 53 56 54 74 55
REMARK SMILES IDX 41 56 42 57 55 59 75 60 44 61 29 62 30 63 38 64 31 65 37 66
REMARK SMILES IDX 32 67 33 68 34 69 35 70 36 71 59 72 60 73 68 74 61 75 67 76
REMARK SMILES IDX 62 77 63 78 64 79 65 80 66 81 45 82 46 83 54 84 47 85 53 86
REMARK SMILES IDX 48 87 49 88 50 89 51 90 52 91
REMARK H PARENT 12 7 17 28 73 47 43 58
REMARK Flexibility Score: inf
ROOT
ATOM      1  C   UNL A   1      34.372  28.788  27.262  1.00  0.00     0.023 C 
ENDROOT
BRANCH   1   2
ATOM      2  C   UNL A   1      34.193  29.065  25.781  1.00  0.00     0.023 C 
BRANCH   2   3
ATOM      3  C   UNL A   1      33.721  27.871  24.947  1.00  0.00     0.116 C 
BRANCH   3   4
ATOM      4  N   UNL A   1      32.408  28.102  24.368  1.00  0.00    -0.356 N 
ATOM      5  C   UNL A   1      31.195  27.561  24.680  1.00  0.00     0.220 C 
ATOM      6  O   UNL A   1      30.217  27.878  24.000  1.00  0.00    -0.275 OA
ATOM      7  H   UNL A   1      32.391  28.756  23.632  1.00  0.00     0.163 HD
BRANCH   5   8
ATOM      8  C   UNL A   1      31.047  26.583  25.836  1.00  0.00     0.103 C 
BRANCH   8   9
ATOM      9  C   UNL A   1      30.720  25.139  25.399  1.00  0.00     0.002 C 
ATOM     10  N   UNL A   1      31.884  22.544  24.920  1.00  0.00    -0.351 N 
ATOM     11  C   UNL A   1      31.496  23.305  23.755  1.00  0.00     0.118 C 
ATOM     12  C   UNL A   1      31.018  22.690  26.074  1.00  0.00     0.118 C 
ATOM     13  C   UNL A   1      31.470  24.778  24.114  1.00  0.00     0.025 C 
ATOM     14  C   UNL A   1      31.054  24.150  26.534  1.00  0.00     0.025 C 
BRANCH  10  15
ATOM     15  C   UNL A   1      33.082  21.856  24.971  1.00  0.00     0.215 A 
ATOM     16  C   UNL A   1      36.589  22.487  25.434  1.00  0.00     0.180 C 
ATOM     17  N   UNL A   1      35.376  21.735  25.152  1.00  0.00    -0.216 N 
ATOM     18  N   UNL A   1      34.218  22.472  25.128  1.00  0.00    -0.145 NA
ATOM     19  C   UNL A   1      35.453  20.357  24.955  1.00  0.00     0.346 A 
ATOM     20  N   UNL A   1      34.259  19.707  24.721  1.00  0.00    -0.259 N 
ATOM     21  O   UNL A   1      36.524  19.747  25.007  1.00  0.00    -0.246 OA
ATOM     22  C   UNL A   1      33.038  20.337  24.800  1.00  0.00     0.299 A 
ATOM     23  C   UNL A   1      34.251  18.290  24.435  1.00  0.00     0.159 C 
ATOM     24  O   UNL A   1      31.949  19.774  24.730  1.00  0.00    -0.265 OA
ENDBRANCH  10  15
ENDBRANCH   8   9
ENDBRANCH   5   8
ENDBRANCH   3   4
ENDBRANCH   2   3
ENDBRANCH   1   2
BRANCH   1  25
ATOM     25  C   UNL A   1      35.568  29.491  27.873  1.00  0.00     0.116 C 
BRANCH  25  26
ATOM     26  N   UNL A   1      35.349  29.901  29.256  1.00  0.00    -0.352 N 
ATOM     27  C   UNL A   1      36.274  30.089  30.260  1.00  0.00     0.251 C 
ATOM     28  H   UNL A   1      34.410  30.066  29.507  1.00  0.00     0.163 HD
ATOM     29  O   UNL A   1      35.918  30.321  31.404  1.00  0.00    -0.269 OA
BRANCH  27  30
ATOM     30  C   UNL A   1      37.705  29.960  29.920  1.00  0.00     0.039 A 
ATOM     31  C   UNL A   1      38.601  29.529  30.898  1.00  0.00     0.014 A 
ATOM     32  C   UNL A   1      38.122  30.154  28.602  1.00  0.00     0.014 A 
ATOM     33  C   UNL A   1      39.906  29.204  30.527  1.00  0.00     0.010 A 
ATOM     34  C   UNL A   1      39.380  29.717  28.217  1.00  0.00     0.010 A 
ATOM     35  C   UNL A   1      40.290  29.251  29.177  1.00  0.00    -0.014 A 
BRANCH  35  36
ATOM     36  C   UNL A   1      41.649  28.851  28.744  1.00  0.00     0.031 A 
ATOM     37  C   UNL A   1      42.756  29.870  28.753  1.00  0.00     0.074 A 
ATOM     38  C   UNL A   1      41.876  27.602  28.291  1.00  0.00     0.049 A 
ATOM     39  N   UNL A   1      44.000  29.738  28.375  1.00  0.00    -0.248 NA
ATOM     40  C   UNL A   1      42.409  31.227  29.211  1.00  0.00     0.031 C 
ATOM     41  C   UNL A   1      40.870  26.542  28.175  1.00  0.00     0.029 A 
ATOM     42  N   UNL A   1      43.031  27.009  27.847  1.00  0.00    -0.354 N 
ATOM     43  C   UNL A   1      44.572  30.996  28.528  1.00  0.00     0.074 A 
ATOM     44  C   UNL A   1      43.525  31.892  28.963  1.00  0.00     0.031 C 
ATOM     45  C   UNL A   1      41.464  25.416  27.745  1.00  0.00     0.029 A 
ATOM     46  C   UNL A   1      42.882  25.681  27.523  1.00  0.00     0.049 A 
ATOM     47  H   UNL A   1      43.887  27.490  27.768  1.00  0.00     0.167 HD
ATOM     48  C   UNL A   1      45.862  31.366  28.363  1.00  0.00     0.031 A 
ATOM     49  C   UNL A   1      43.789  24.777  27.107  1.00  0.00     0.031 A 
ATOM     50  C   UNL A   1      46.908  30.463  27.976  1.00  0.00     0.049 A 
ATOM     51  C   UNL A   1      45.222  25.202  26.945  1.00  0.00     0.074 A 
ATOM     52  C   UNL A   1      48.260  30.716  27.851  1.00  0.00     0.029 A 
ATOM     53  N   UNL A   1      46.714  29.127  27.662  1.00  0.00    -0.354 N 
ATOM     54  N   UNL A   1      45.758  26.380  27.161  1.00  0.00    -0.248 NA
ATOM     55  C   UNL A   1      46.173  24.179  26.489  1.00  0.00     0.031 C 
ATOM     56  C   UNL A   1      48.882  29.538  27.426  1.00  0.00     0.029 A 
ATOM     57  C   UNL A   1      47.921  28.544  27.324  1.00  0.00     0.049 A 
ATOM     58  H   UNL A   1      45.846  28.662  27.676  1.00  0.00     0.167 HD
ATOM     59  C   UNL A   1      47.111  26.237  26.880  1.00  0.00     0.074 A 
ATOM     60  C   UNL A   1      47.315  24.857  26.490  1.00  0.00     0.031 C 
ATOM     61  C   UNL A   1      48.096  27.167  26.937  1.00  0.00     0.031 A 
BRANCH  48  62
ATOM     62  C   UNL A   1      46.200  32.808  28.626  1.00  0.00    -0.014 A 
ATOM     63  C   UNL A   1      46.134  33.760  27.592  1.00  0.00     0.010 A 
ATOM     64  C   UNL A   1      46.594  33.215  29.912  1.00  0.00     0.010 A 
ATOM     65  C   UNL A   1      46.511  35.083  27.826  1.00  0.00     0.020 A 
ATOM     66  C   UNL A   1      46.945  34.546  30.156  1.00  0.00     0.020 A 
ATOM     67  C   UNL A   1      46.922  35.467  29.106  1.00  0.00     0.054 A 
BRANCH  67  68
ATOM     68  S   UNL A   1      47.410  37.191  29.380  1.00  0.00     0.124 S 
ATOM     69  O   UNL A   1      46.117  37.871  29.384  1.00  0.00    -0.237 OA
ATOM     70  O   UNL A   1      48.092  37.132  30.670  1.00  0.00    -0.237 OA
ATOM     71  O   UNL A   1      48.269  37.494  28.238  1.00  0.00    -0.744 OA
ENDBRANCH  67  68
ENDBRANCH  48  62
BRANCH  49  72
ATOM     72  C   UNL A   1      43.374  23.368  26.871  1.00  0.00    -0.014 A 
ATOM     73  C   UNL A   1      43.404  22.835  25.571  1.00  0.00     0.010 A 
ATOM     74  C   UNL A   1      42.996  22.539  27.943  1.00  0.00     0.010 A 
ATOM     75  C   UNL A   1      43.065  21.497  25.347  1.00  0.00     0.020 A 
ATOM     76  C   UNL A   1      42.674  21.196  27.724  1.00  0.00     0.020 A 
ATOM     77  C   UNL A   1      42.708  20.685  26.425  1.00  0.00     0.054 A 
BRANCH  77  78
ATOM     78  S   UNL A   1      42.350  18.931  26.117  1.00  0.00     0.124 S 
ATOM     79  O   UNL A   1      42.601  18.336  27.425  1.00  0.00    -0.237 OA
ATOM     80  O   UNL A   1      40.952  18.966  25.693  1.00  0.00    -0.237 OA
ATOM     81  O   UNL A   1      43.300  18.568  25.068  1.00  0.00    -0.744 OA
ENDBRANCH  77  78
ENDBRANCH  49  72
BRANCH  61  82
ATOM     82  C   UNL A   1      49.487  26.733  26.571  1.00  0.00    -0.014 A 
ATOM     83  C   UNL A   1      50.308  26.098  27.517  1.00  0.00     0.010 A 
ATOM     84  C   UNL A   1      49.926  26.852  25.240  1.00  0.00     0.010 A 
ATOM     85  C   UNL A   1      51.551  25.587  27.138  1.00  0.00     0.020 A 
ATOM     86  C   UNL A   1      51.160  26.325  24.854  1.00  0.00     0.020 A 
ATOM     87  C   UNL A   1      51.965  25.697  25.806  1.00  0.00     0.054 A 
BRANCH  87  88
ATOM     88  S   UNL A   1      53.541  24.940  25.322  1.00  0.00     0.124 S 
ATOM     89  O   UNL A   1      53.818  25.602  24.050  1.00  0.00    -0.237 OA
ATOM     90  O   UNL A   1      54.424  25.304  26.426  1.00  0.00    -0.237 OA
ATOM     91  O   UNL A   1      53.226  23.516  25.227  1.00  0.00    -0.744 OA
ENDBRANCH  87  88
ENDBRANCH  61  82
ENDBRANCH  35  36
ENDBRANCH  27  30
ENDBRANCH  25  26
ENDBRANCH   1  25
TORSDOF 16
ENDMDL
