MODEL 1
REMARK VINA RESULT:     -12.7      0.000      0.000
REMARK SMILES Cc1ccc(NS(=O)(=O)c2cc(C(=O)Nc3ccccc3C(=O)NCCCCNC(=O)c3ccc(-c4c5nc(c(-c6ccc(S(=O)(=O)[O-])cc6)c6ccc([nH]6)c(-c6ccc(S(=O)(=O)[O-])cc6)c6nc(c(-c7ccc(S(=O)(=O)[O-])cc7)c7ccc4[nH]7)C=C6)C=C5)cc3)ccc2Br)cc1
REMARK SMILES IDX 25 1 24 2 22 3 23 4 21 6 16 7 17 8 18 9 20 10 19 11 15 12
REMARK SMILES IDX 13 13 14 14 12 16 10 17 11 18 94 19 93 20 95 21 92 22 7 23
REMARK SMILES IDX 8 24 9 25 6 26 5 28 1 29 2 30 3 31 97 32 4 33 96 34 26 35
REMARK SMILES IDX 27 36 28 37 29 38 30 39 31 41 32 42 33 43 91 44 34 45 90 46
REMARK SMILES IDX 35 47 36 48 37 49 84 50 38 51 89 52 83 53 85 54 39 55 88 56
REMARK SMILES IDX 82 57 81 58 40 60 70 61 51 62 69 63 52 64 55 65 68 66 86 67
REMARK SMILES IDX 53 68 54 69 67 71 87 72 56 73 41 74 42 75 50 76 43 77 49 78
REMARK SMILES IDX 44 79 45 80 46 81 47 82 48 83 71 84 72 85 80 86 73 87 79 88
REMARK SMILES IDX 74 89 75 90 76 91 77 92 78 93 57 94 58 95 66 96 59 97 65 98
REMARK SMILES IDX 60 99 61 100 62 101 63 102 64 103
REMARK H PARENT 24 5 15 15 6 27 29 40 85 59 55 70
REMARK Flexibility Score: inf
ROOT
ATOM      1  C   UNL A   1      33.255  27.352  26.064  1.00  0.00     0.116 C 
ENDROOT
BRANCH   1   2
ATOM      2  N   UNL A   1      34.034  27.549  24.855  1.00  0.00    -0.352 N 
ATOM      3  C   UNL A   1      33.761  28.367  23.775  1.00  0.00     0.253 C 
ATOM      4  O   UNL A   1      34.628  28.593  22.939  1.00  0.00    -0.269 OA
ATOM      5  H   UNL A   1      34.869  27.030  24.795  1.00  0.00     0.163 HD
BRANCH   3   6
ATOM      6  C   UNL A   1      32.372  28.844  23.541  1.00  0.00     0.063 A 
ATOM      7  C   UNL A   1      31.421  28.204  22.125  1.00  0.00     0.054 A 
ATOM      8  C   UNL A   1      29.515  28.904  21.929  1.00  0.00     0.027 A 
ATOM      9  C   UNL A   1      28.848  29.995  23.201  1.00  0.00     0.002 A 
ATOM     10  C   UNL A   1      31.582  29.961  24.663  1.00  0.00     0.016 A 
ATOM     11  C   UNL A   1      29.892  30.478  24.518  1.00  0.00     0.001 A 
BRANCH   7  12
ATOM     12  N   UNL A   1      32.233  27.165  21.391  1.00  0.00    -0.321 N 
ATOM     13  C   UNL A   1      32.581  25.816  21.630  1.00  0.00     0.255 C 
ATOM     14  O   UNL A   1      33.202  25.215  20.747  1.00  0.00    -0.269 OA
ATOM     15  H   UNL A   1      32.607  27.506  20.547  1.00  0.00     0.170 HD
BRANCH  13  16
ATOM     16  C   UNL A   1      32.106  24.987  22.790  1.00  0.00     0.041 A 
ATOM     17  C   UNL A   1      32.892  23.877  24.816  1.00  0.00     0.102 A 
ATOM     18  C   UNL A   1      33.028  24.294  23.516  1.00  0.00     0.037 A 
ATOM     19  C   UNL A   1      31.607  23.740  25.292  1.00  0.00     0.038 A 
ATOM     20  C   UNL A   1      30.549  24.232  24.492  1.00  0.00     0.018 A 
ATOM     21  Br  UNL A   1      31.198  22.819  26.886  1.00  0.00    -0.049 Br
ATOM     22  C   UNL A   1      30.809  24.933  23.285  1.00  0.00     0.015 A 
BRANCH  17  23
ATOM     23  S   UNL A   1      34.434  23.792  25.725  1.00  0.00     0.263 S 
ATOM     24  O   UNL A   1      34.117  23.506  27.106  1.00  0.00    -0.201 OA
ATOM     25  O   UNL A   1      35.190  24.975  25.370  1.00  0.00    -0.201 OA
BRANCH  23  26
ATOM     26  N   UNL A   1      35.298  22.400  25.168  1.00  0.00    -0.280 N 
ATOM     27  H   UNL A   1      34.767  21.736  24.671  1.00  0.00     0.180 HD
BRANCH  26  28
ATOM     28  C   UNL A   1      36.780  22.067  25.349  1.00  0.00     0.049 A 
ATOM     29  C   UNL A   1      41.229  19.746  26.407  1.00  0.00     0.044 C 
ATOM     30  C   UNL A   1      39.999  20.474  25.947  1.00  0.00    -0.051 A 
ATOM     31  C   UNL A   1      38.641  19.581  25.226  1.00  0.00     0.005 A 
ATOM     32  C   UNL A   1      39.921  22.154  26.394  1.00  0.00     0.005 A 
ATOM     33  C   UNL A   1      37.061  20.320  24.905  1.00  0.00     0.027 A 
ATOM     34  C   UNL A   1      38.393  23.036  26.126  1.00  0.00     0.027 A 
ENDBRANCH  26  28
ENDBRANCH  23  26
ENDBRANCH  17  23
ENDBRANCH  13  16
ENDBRANCH   7  12
ENDBRANCH   3   6
ENDBRANCH   1   2
BRANCH   1  35
ATOM     35  C   UNL A   1      33.569  28.218  27.268  1.00  0.00     0.023 C 
BRANCH  35  36
ATOM     36  C   UNL A   1      34.489  29.385  27.090  1.00  0.00     0.023 C 
BRANCH  36  37
ATOM     37  C   UNL A   1      33.838  30.672  27.481  1.00  0.00     0.116 C 
BRANCH  37  38
ATOM     38  N   UNL A   1      34.714  31.757  27.862  1.00  0.00    -0.352 N 
ATOM     39  C   UNL A   1      35.623  31.682  28.915  1.00  0.00     0.251 C 
ATOM     40  H   UNL A   1      34.665  32.595  27.349  1.00  0.00     0.163 HD
ATOM     41  O   UNL A   1      35.806  32.611  29.689  1.00  0.00    -0.269 OA
BRANCH  39  42
ATOM     42  C   UNL A   1      36.487  30.467  28.953  1.00  0.00     0.039 A 
ATOM     43  C   UNL A   1      36.489  29.683  30.112  1.00  0.00     0.014 A 
ATOM     44  C   UNL A   1      37.562  30.403  28.088  1.00  0.00     0.014 A 
ATOM     45  C   UNL A   1      37.675  29.078  30.506  1.00  0.00     0.010 A 
ATOM     46  C   UNL A   1      38.778  30.163  28.634  1.00  0.00     0.010 A 
ATOM     47  C   UNL A   1      38.825  29.456  29.829  1.00  0.00    -0.014 A 
BRANCH  47  48
ATOM     48  C   UNL A   1      40.156  28.945  30.023  1.00  0.00     0.031 A 
ATOM     49  C   UNL A   1      40.321  27.596  29.409  1.00  0.00     0.074 A 
ATOM     50  C   UNL A   1      41.065  29.879  30.402  1.00  0.00     0.049 A 
ATOM     51  N   UNL A   1      41.168  26.716  29.786  1.00  0.00    -0.248 NA
ATOM     52  C   UNL A   1      39.444  27.043  28.345  1.00  0.00     0.031 C 
ATOM     53  C   UNL A   1      42.515  29.928  30.279  1.00  0.00     0.029 A 
ATOM     54  N   UNL A   1      40.789  31.010  31.178  1.00  0.00    -0.354 N 
ATOM     55  C   UNL A   1      41.284  25.820  28.735  1.00  0.00     0.074 A 
ATOM     56  C   UNL A   1      40.066  25.912  27.994  1.00  0.00     0.031 C 
ATOM     57  C   UNL A   1      43.014  30.771  31.209  1.00  0.00     0.029 A 
ATOM     58  C   UNL A   1      41.896  31.256  32.009  1.00  0.00     0.049 A 
ATOM     59  H   UNL A   1      39.962  31.543  31.147  1.00  0.00     0.167 HD
ATOM     60  C   UNL A   1      42.520  25.321  28.464  1.00  0.00     0.031 A 
ATOM     61  C   UNL A   1      41.757  31.064  33.360  1.00  0.00     0.031 A 
ATOM     62  C   UNL A   1      43.466  25.953  29.375  1.00  0.00     0.049 A 
ATOM     63  C   UNL A   1      42.442  29.776  33.758  1.00  0.00     0.074 A 
ATOM     64  C   UNL A   1      44.304  27.042  29.214  1.00  0.00     0.029 A 
ATOM     65  N   UNL A   1      43.299  25.761  30.732  1.00  0.00    -0.354 N 
ATOM     66  N   UNL A   1      42.546  28.742  32.966  1.00  0.00    -0.248 NA
ATOM     67  C   UNL A   1      43.176  29.611  35.010  1.00  0.00     0.031 C 
ATOM     68  C   UNL A   1      44.608  27.531  30.512  1.00  0.00     0.029 A 
ATOM     69  C   UNL A   1      43.924  26.762  31.439  1.00  0.00     0.049 A 
ATOM     70  H   UNL A   1      42.803  25.013  31.137  1.00  0.00     0.167 HD
ATOM     71  C   UNL A   1      43.415  27.844  33.523  1.00  0.00     0.074 A 
ATOM     72  C   UNL A   1      43.752  28.412  34.816  1.00  0.00     0.031 C 
ATOM     73  C   UNL A   1      43.875  26.732  32.885  1.00  0.00     0.031 A 
BRANCH  60  74
ATOM     74  C   UNL A   1      43.005  24.536  27.274  1.00  0.00    -0.014 A 
ATOM     75  C   UNL A   1      43.749  23.367  27.560  1.00  0.00     0.010 A 
ATOM     76  C   UNL A   1      42.786  24.820  25.914  1.00  0.00     0.010 A 
ATOM     77  C   UNL A   1      44.272  22.540  26.571  1.00  0.00     0.020 A 
ATOM     78  C   UNL A   1      43.306  23.983  24.899  1.00  0.00     0.020 A 
ATOM     79  C   UNL A   1      44.047  22.849  25.239  1.00  0.00     0.054 A 
BRANCH  79  80
ATOM     80  S   UNL A   1      44.724  21.715  23.998  1.00  0.00     0.124 S 
ATOM     81  O   UNL A   1      44.159  20.431  24.408  1.00  0.00    -0.237 OA
ATOM     82  O   UNL A   1      44.196  22.262  22.751  1.00  0.00    -0.237 OA
ATOM     83  O   UNL A   1      46.170  21.838  24.168  1.00  0.00    -0.744 OA
ENDBRANCH  79  80
ENDBRANCH  60  74
BRANCH  61  84
ATOM     84  C   UNL A   1      40.413  31.538  33.832  1.00  0.00    -0.014 A 
ATOM     85  C   UNL A   1      39.498  30.528  34.221  1.00  0.00     0.010 A 
ATOM     86  C   UNL A   1      40.273  32.823  34.387  1.00  0.00     0.010 A 
ATOM     87  C   UNL A   1      38.636  30.728  35.304  1.00  0.00     0.020 A 
ATOM     88  C   UNL A   1      39.392  33.028  35.460  1.00  0.00     0.020 A 
ATOM     89  C   UNL A   1      38.638  31.960  35.957  1.00  0.00     0.054 A 
BRANCH  89  90
ATOM     90  S   UNL A   1      37.771  32.083  37.551  1.00  0.00     0.124 S 
ATOM     91  O   UNL A   1      37.372  30.698  37.785  1.00  0.00    -0.237 OA
ATOM     92  O   UNL A   1      38.823  32.595  38.435  1.00  0.00    -0.237 OA
ATOM     93  O   UNL A   1      36.681  33.006  37.266  1.00  0.00    -0.744 OA
ENDBRANCH  89  90
ENDBRANCH  61  84
BRANCH  73  94
ATOM     94  C   UNL A   1      44.420  25.516  33.580  1.00  0.00    -0.014 A 
ATOM     95  C   UNL A   1      45.746  25.091  33.444  1.00  0.00     0.010 A 
ATOM     96  C   UNL A   1      43.619  24.836  34.533  1.00  0.00     0.010 A 
ATOM     97  C   UNL A   1      46.207  23.963  34.119  1.00  0.00     0.020 A 
ATOM     98  C   UNL A   1      44.098  23.772  35.285  1.00  0.00     0.020 A 
ATOM     99  C   UNL A   1      45.376  23.307  35.027  1.00  0.00     0.054 A 
BRANCH  99 100
ATOM    100  S   UNL A   1      45.992  21.834  35.854  1.00  0.00     0.124 S 
ATOM    101  O   UNL A   1      47.417  21.898  35.541  1.00  0.00    -0.237 OA
ATOM    102  O   UNL A   1      45.643  22.086  37.251  1.00  0.00    -0.237 OA
ATOM    103  O   UNL A   1      45.259  20.743  35.219  1.00  0.00    -0.744 OA
ENDBRANCH  99 100
ENDBRANCH  73  94
ENDBRANCH  47  48
ENDBRANCH  39  42
ENDBRANCH  37  38
ENDBRANCH  36  37
ENDBRANCH  35  36
ENDBRANCH   1  35
TORSDOF 19
ENDMDL
MODEL 2
REMARK VINA RESULT:     -12.0      2.606      3.612
REMARK SMILES Cc1ccc(NS(=O)(=O)c2cc(C(=O)Nc3ccccc3C(=O)NCCCCNC(=O)c3ccc(-c4c5nc(c(-c6ccc(S(=O)(=O)[O-])cc6)c6ccc([nH]6)c(-c6ccc(S(=O)(=O)[O-])cc6)c6nc(c(-c7ccc(S(=O)(=O)[O-])cc7)c7ccc4[nH]7)C=C6)C=C5)cc3)ccc2Br)cc1
REMARK SMILES IDX 25 1 24 2 22 3 23 4 21 6 16 7 17 8 18 9 20 10 19 11 15 12
REMARK SMILES IDX 13 13 14 14 12 16 10 17 11 18 94 19 93 20 95 21 92 22 7 23
REMARK SMILES IDX 8 24 9 25 6 26 5 28 1 29 2 30 3 31 97 32 4 33 96 34 26 35
REMARK SMILES IDX 27 36 28 37 29 38 30 39 31 41 32 42 33 43 91 44 34 45 90 46
REMARK SMILES IDX 35 47 36 48 37 49 84 50 38 51 89 52 83 53 85 54 39 55 88 56
REMARK SMILES IDX 82 57 81 58 40 60 70 61 51 62 69 63 52 64 55 65 68 66 86 67
REMARK SMILES IDX 53 68 54 69 67 71 87 72 56 73 41 74 42 75 50 76 43 77 49 78
REMARK SMILES IDX 44 79 45 80 46 81 47 82 48 83 71 84 72 85 80 86 73 87 79 88
REMARK SMILES IDX 74 89 75 90 76 91 77 92 78 93 57 94 58 95 66 96 59 97 65 98
REMARK SMILES IDX 60 99 61 100 62 101 63 102 64 103
REMARK H PARENT 24 5 15 15 6 27 29 40 85 59 55 70
REMARK Flexibility Score: inf
ROOT
ATOM      1  C   UNL A   1      33.027  27.705  26.457  1.00  0.00     0.116 C 
ENDROOT
BRANCH   1   2
ATOM      2  N   UNL A   1      33.848  27.749  25.261  1.00  0.00    -0.352 N 
ATOM      3  C   UNL A   1      33.680  28.519  24.126  1.00  0.00     0.253 C 
ATOM      4  O   UNL A   1      34.583  28.608  23.302  1.00  0.00    -0.269 OA
ATOM      5  H   UNL A   1      34.629  27.150  25.256  1.00  0.00     0.163 HD
BRANCH   3   6
ATOM      6  C   UNL A   1      32.349  29.111  23.824  1.00  0.00     0.063 A 
ATOM      7  C   UNL A   1      31.461  28.619  22.311  1.00  0.00     0.054 A 
ATOM      8  C   UNL A   1      29.629  29.470  22.023  1.00  0.00     0.027 A 
ATOM      9  C   UNL A   1      28.951  30.540  23.307  1.00  0.00     0.002 A 
ATOM     10  C   UNL A   1      31.561  30.224  24.950  1.00  0.00     0.016 A 
ATOM     11  C   UNL A   1      29.927  30.874  24.719  1.00  0.00     0.001 A 
BRANCH   7  12
ATOM     12  N   UNL A   1      32.249  27.562  21.576  1.00  0.00    -0.321 N 
ATOM     13  C   UNL A   1      32.508  26.187  21.779  1.00  0.00     0.255 C 
ATOM     14  O   UNL A   1      33.138  25.583  20.904  1.00  0.00    -0.269 OA
ATOM     15  H   UNL A   1      32.683  27.911  20.765  1.00  0.00     0.170 HD
BRANCH  13  16
ATOM     16  C   UNL A   1      31.930  25.345  22.881  1.00  0.00     0.041 A 
ATOM     17  C   UNL A   1      32.563  24.018  24.829  1.00  0.00     0.102 A 
ATOM     18  C   UNL A   1      32.757  24.501  23.559  1.00  0.00     0.037 A 
ATOM     19  C   UNL A   1      31.268  24.004  25.296  1.00  0.00     0.038 A 
ATOM     20  C   UNL A   1      30.282  24.671  24.531  1.00  0.00     0.018 A 
ATOM     21  Br  UNL A   1      30.741  23.036  26.825  1.00  0.00    -0.049 Br
ATOM     22  C   UNL A   1      30.631  25.414  23.373  1.00  0.00     0.015 A 
BRANCH  17  23
ATOM     23  S   UNL A   1      34.077  23.691  25.729  1.00  0.00     0.263 S 
ATOM     24  O   UNL A   1      33.734  22.926  26.907  1.00  0.00    -0.201 OA
ATOM     25  O   UNL A   1      34.772  24.956  25.846  1.00  0.00    -0.201 OA
BRANCH  23  26
ATOM     26  N   UNL A   1      35.041  22.622  24.769  1.00  0.00    -0.280 N 
ATOM     27  H   UNL A   1      35.795  23.037  24.291  1.00  0.00     0.180 HD
BRANCH  26  28
ATOM     28  C   UNL A   1      34.873  21.115  24.566  1.00  0.00     0.049 A 
ATOM     29  C   UNL A   1      33.100  16.303  24.528  1.00  0.00     0.044 C 
ATOM     30  C   UNL A   1      33.662  17.687  24.373  1.00  0.00    -0.051 A 
ATOM     31  C   UNL A   1      32.582  19.070  24.089  1.00  0.00     0.005 A 
ATOM     32  C   UNL A   1      35.357  17.843  24.732  1.00  0.00     0.005 A 
ATOM     33  C   UNL A   1      33.131  20.755  24.160  1.00  0.00     0.027 A 
ATOM     34  C   UNL A   1      36.058  19.481  24.833  1.00  0.00     0.027 A 
ENDBRANCH  26  28
ENDBRANCH  23  26
ENDBRANCH  17  23
ENDBRANCH  13  16
ENDBRANCH   7  12
ENDBRANCH   3   6
ENDBRANCH   1   2
BRANCH   1  35
ATOM     35  C   UNL A   1      33.430  28.569  27.636  1.00  0.00     0.023 C 
BRANCH  35  36
ATOM     36  C   UNL A   1      34.181  29.836  27.371  1.00  0.00     0.023 C 
BRANCH  36  37
ATOM     37  C   UNL A   1      35.593  29.758  27.855  1.00  0.00     0.116 C 
BRANCH  37  38
ATOM     38  N   UNL A   1      35.805  29.919  29.275  1.00  0.00    -0.352 N 
ATOM     39  C   UNL A   1      36.920  29.426  29.950  1.00  0.00     0.251 C 
ATOM     40  H   UNL A   1      35.126  30.406  29.795  1.00  0.00     0.163 HD
ATOM     41  O   UNL A   1      36.837  28.901  31.052  1.00  0.00    -0.269 OA
BRANCH  39  42
ATOM     42  C   UNL A   1      38.246  29.716  29.334  1.00  0.00     0.039 A 
ATOM     43  C   UNL A   1      38.439  29.405  27.983  1.00  0.00     0.014 A 
ATOM     44  C   UNL A   1      39.341  29.835  30.167  1.00  0.00     0.014 A 
ATOM     45  C   UNL A   1      39.687  28.954  27.575  1.00  0.00     0.010 A 
ATOM     46  C   UNL A   1      40.412  29.053  29.891  1.00  0.00     0.010 A 
ATOM     47  C   UNL A   1      40.601  28.652  28.575  1.00  0.00    -0.014 A 
BRANCH  47  48
ATOM     48  C   UNL A   1      41.961  28.211  28.406  1.00  0.00     0.031 A 
ATOM     49  C   UNL A   1      42.056  26.723  28.382  1.00  0.00     0.074 A 
ATOM     50  C   UNL A   1      42.813  29.175  27.973  1.00  0.00     0.049 A 
ATOM     51  N   UNL A   1      43.090  26.048  28.707  1.00  0.00    -0.248 NA
ATOM     52  C   UNL A   1      40.920  25.813  28.084  1.00  0.00     0.031 C 
ATOM     53  C   UNL A   1      44.085  29.101  27.270  1.00  0.00     0.029 A 
ATOM     54  N   UNL A   1      42.706  30.540  28.264  1.00  0.00    -0.354 N 
ATOM     55  C   UNL A   1      42.914  24.786  28.159  1.00  0.00     0.074 A 
ATOM     56  C   UNL A   1      41.504  24.612  28.004  1.00  0.00     0.031 C 
ATOM     57  C   UNL A   1      44.784  30.235  27.493  1.00  0.00     0.029 A 
ATOM     58  C   UNL A   1      44.004  31.063  28.402  1.00  0.00     0.049 A 
ATOM     59  H   UNL A   1      41.868  31.047  28.356  1.00  0.00     0.167 HD
ATOM     60  C   UNL A   1      44.006  24.164  27.641  1.00  0.00     0.031 A 
ATOM     61  C   UNL A   1      44.419  31.468  29.645  1.00  0.00     0.031 A 
ATOM     62  C   UNL A   1      45.136  25.079  27.754  1.00  0.00     0.049 A 
ATOM     63  C   UNL A   1      45.368  30.440  30.218  1.00  0.00     0.074 A 
ATOM     64  C   UNL A   1      45.696  25.957  26.844  1.00  0.00     0.029 A 
ATOM     65  N   UNL A   1      45.528  25.487  29.013  1.00  0.00    -0.354 N 
ATOM     66  N   UNL A   1      45.298  29.164  29.945  1.00  0.00    -0.248 NA
ATOM     67  C   UNL A   1      46.540  30.787  31.018  1.00  0.00     0.031 C 
ATOM     68  C   UNL A   1      46.405  26.935  27.590  1.00  0.00     0.029 A 
ATOM     69  C   UNL A   1      46.237  26.663  28.937  1.00  0.00     0.049 A 
ATOM     70  H   UNL A   1      45.328  25.004  29.848  1.00  0.00     0.167 HD
ATOM     71  C   UNL A   1      46.425  28.548  30.416  1.00  0.00     0.074 A 
ATOM     72  C   UNL A   1      47.152  29.594  31.113  1.00  0.00     0.031 C 
ATOM     73  C   UNL A   1      46.749  27.251  30.157  1.00  0.00     0.031 A 
BRANCH  60  74
ATOM     74  C   UNL A   1      44.099  22.927  26.787  1.00  0.00    -0.014 A 
ATOM     75  C   UNL A   1      45.372  22.641  26.241  1.00  0.00     0.010 A 
ATOM     76  C   UNL A   1      43.071  22.015  26.488  1.00  0.00     0.010 A 
ATOM     77  C   UNL A   1      45.618  21.541  25.425  1.00  0.00     0.020 A 
ATOM     78  C   UNL A   1      43.310  20.888  25.666  1.00  0.00     0.020 A 
ATOM     79  C   UNL A   1      44.584  20.663  25.141  1.00  0.00     0.054 A 
BRANCH  79  80
ATOM     80  S   UNL A   1      44.974  19.231  24.102  1.00  0.00     0.124 S 
ATOM     81  O   UNL A   1      44.382  19.606  22.820  1.00  0.00    -0.237 OA
ATOM     82  O   UNL A   1      46.434  19.207  24.134  1.00  0.00    -0.237 OA
ATOM     83  O   UNL A   1      44.319  18.118  24.785  1.00  0.00    -0.744 OA
ENDBRANCH  79  80
ENDBRANCH  60  74
BRANCH  61  84
ATOM     84  C   UNL A   1      43.307  32.158  30.382  1.00  0.00    -0.014 A 
ATOM     85  C   UNL A   1      42.759  31.455  31.484  1.00  0.00     0.010 A 
ATOM     86  C   UNL A   1      43.216  33.561  30.366  1.00  0.00     0.010 A 
ATOM     87  C   UNL A   1      42.359  32.139  32.636  1.00  0.00     0.020 A 
ATOM     88  C   UNL A   1      42.795  34.246  31.517  1.00  0.00     0.020 A 
ATOM     89  C   UNL A   1      42.444  33.530  32.666  1.00  0.00     0.054 A 
BRANCH  89  90
ATOM     90  S   UNL A   1      42.246  34.364  34.270  1.00  0.00     0.124 S 
ATOM     91  O   UNL A   1      41.503  33.368  35.038  1.00  0.00    -0.237 OA
ATOM     92  O   UNL A   1      43.638  34.569  34.684  1.00  0.00    -0.237 OA
ATOM     93  O   UNL A   1      41.503  35.570  33.929  1.00  0.00    -0.744 OA
ENDBRANCH  89  90
ENDBRANCH  61  84
BRANCH  73  94
ATOM     94  C   UNL A   1      47.674  26.419  31.001  1.00  0.00    -0.014 A 
ATOM     95  C   UNL A   1      48.975  26.090  30.606  1.00  0.00     0.010 A 
ATOM     96  C   UNL A   1      47.290  26.064  32.320  1.00  0.00     0.010 A 
ATOM     97  C   UNL A   1      49.799  25.326  31.430  1.00  0.00     0.020 A 
ATOM     98  C   UNL A   1      48.140  25.389  33.186  1.00  0.00     0.020 A 
ATOM     99  C   UNL A   1      49.371  24.974  32.709  1.00  0.00     0.054 A 
BRANCH  99 100
ATOM    100  S   UNL A   1      50.446  23.958  33.732  1.00  0.00     0.124 S 
ATOM    101  O   UNL A   1      50.754  22.855  32.825  1.00  0.00    -0.237 OA
ATOM    102  O   UNL A   1      51.557  24.864  34.019  1.00  0.00    -0.237 OA
ATOM    103  O   UNL A   1      49.615  23.613  34.880  1.00  0.00    -0.744 OA
ENDBRANCH  99 100
ENDBRANCH  73  94
ENDBRANCH  47  48
ENDBRANCH  39  42
ENDBRANCH  37  38
ENDBRANCH  36  37
ENDBRANCH  35  36
ENDBRANCH   1  35
TORSDOF 19
ENDMDL
MODEL 3
REMARK VINA RESULT:     -11.3      7.027     13.226
REMARK SMILES Cc1ccc(NS(=O)(=O)c2cc(C(=O)Nc3ccccc3C(=O)NCCCCNC(=O)c3ccc(-c4c5nc(c(-c6ccc(S(=O)(=O)[O-])cc6)c6ccc([nH]6)c(-c6ccc(S(=O)(=O)[O-])cc6)c6nc(c(-c7ccc(S(=O)(=O)[O-])cc7)c7ccc4[nH]7)C=C6)C=C5)cc3)ccc2Br)cc1
REMARK SMILES IDX 25 1 24 2 22 3 23 4 21 6 16 7 17 8 18 9 20 10 19 11 15 12
REMARK SMILES IDX 13 13 14 14 12 16 10 17 11 18 94 19 93 20 95 21 92 22 7 23
REMARK SMILES IDX 8 24 9 25 6 26 5 28 1 29 2 30 3 31 97 32 4 33 96 34 26 35
REMARK SMILES IDX 27 36 28 37 29 38 30 39 31 41 32 42 33 43 91 44 34 45 90 46
REMARK SMILES IDX 35 47 36 48 37 49 84 50 38 51 89 52 83 53 85 54 39 55 88 56
REMARK SMILES IDX 82 57 81 58 40 60 70 61 51 62 69 63 52 64 55 65 68 66 86 67
REMARK SMILES IDX 53 68 54 69 67 71 87 72 56 73 41 74 42 75 50 76 43 77 49 78
REMARK SMILES IDX 44 79 45 80 46 81 47 82 48 83 71 84 72 85 80 86 73 87 79 88
REMARK SMILES IDX 74 89 75 90 76 91 77 92 78 93 57 94 58 95 66 96 59 97 65 98
REMARK SMILES IDX 60 99 61 100 62 101 63 102 64 103
REMARK H PARENT 24 5 15 15 6 27 29 40 85 59 55 70
REMARK Flexibility Score: inf
ROOT
ATOM      1  C   UNL A   1      45.120  31.815  26.542  1.00  0.00     0.116 C 
ENDROOT
BRANCH   1   2
ATOM      2  N   UNL A   1      44.775  32.483  25.300  1.00  0.00    -0.352 N 
ATOM      3  C   UNL A   1      44.586  33.832  25.069  1.00  0.00     0.253 C 
ATOM      4  O   UNL A   1      44.524  34.258  23.921  1.00  0.00    -0.269 OA
ATOM      5  H   UNL A   1      44.659  31.897  24.517  1.00  0.00     0.163 HD
BRANCH   3   6
ATOM      6  C   UNL A   1      44.299  34.745  26.207  1.00  0.00     0.063 A 
ATOM      7  C   UNL A   1      45.655  35.692  26.973  1.00  0.00     0.054 A 
ATOM      8  C   UNL A   1      45.133  36.938  28.502  1.00  0.00     0.027 A 
ATOM      9  C   UNL A   1      43.389  37.125  28.921  1.00  0.00     0.002 A 
ATOM     10  C   UNL A   1      42.647  35.004  26.785  1.00  0.00     0.016 A 
ATOM     11  C   UNL A   1      42.213  36.166  28.052  1.00  0.00     0.001 A 
BRANCH   7  12
ATOM     12  N   UNL A   1      46.945  35.426  26.236  1.00  0.00    -0.321 N 
ATOM     13  C   UNL A   1      48.077  36.199  25.892  1.00  0.00     0.255 C 
ATOM     14  O   UNL A   1      49.027  35.623  25.350  1.00  0.00    -0.269 OA
ATOM     15  H   UNL A   1      47.014  34.496  25.921  1.00  0.00     0.170 HD
BRANCH  13  16
ATOM     16  C   UNL A   1      48.309  37.629  26.292  1.00  0.00     0.041 A 
ATOM     17  C   UNL A   1      47.269  39.836  26.249  1.00  0.00     0.102 A 
ATOM     18  C   UNL A   1      47.540  38.598  25.722  1.00  0.00     0.037 A 
ATOM     19  C   UNL A   1      48.163  40.325  27.175  1.00  0.00     0.038 A 
ATOM     20  C   UNL A   1      49.157  39.443  27.664  1.00  0.00     0.018 A 
ATOM     21  Br  UNL A   1      48.195  42.130  27.715  1.00  0.00    -0.049 Br
ATOM     22  C   UNL A   1      49.171  38.075  27.288  1.00  0.00     0.015 A 
BRANCH  17  23
ATOM     23  S   UNL A   1      45.672  40.500  25.782  1.00  0.00     0.263 S 
ATOM     24  O   UNL A   1      44.672  39.504  26.096  1.00  0.00    -0.201 OA
ATOM     25  O   UNL A   1      45.812  41.007  24.433  1.00  0.00    -0.201 OA
BRANCH  23  26
ATOM     26  N   UNL A   1      45.324  41.828  26.835  1.00  0.00    -0.280 N 
ATOM     27  H   UNL A   1      45.820  42.659  26.654  1.00  0.00     0.180 HD
BRANCH  26  28
ATOM     28  C   UNL A   1      44.347  41.877  28.011  1.00  0.00     0.049 A 
ATOM     29  C   UNL A   1      42.238  42.260  32.670  1.00  0.00     0.044 C 
ATOM     30  C   UNL A   1      42.729  42.253  31.251  1.00  0.00    -0.051 A 
ATOM     31  C   UNL A   1      44.080  43.301  30.760  1.00  0.00     0.005 A 
ATOM     32  C   UNL A   1      42.058  41.006  30.241  1.00  0.00     0.005 A 
ATOM     33  C   UNL A   1      44.888  43.161  29.188  1.00  0.00     0.027 A 
ATOM     34  C   UNL A   1      42.767  40.748  28.623  1.00  0.00     0.027 A 
ENDBRANCH  26  28
ENDBRANCH  23  26
ENDBRANCH  17  23
ENDBRANCH  13  16
ENDBRANCH   7  12
ENDBRANCH   3   6
ENDBRANCH   1   2
BRANCH   1  35
ATOM     35  C   UNL A   1      46.149  30.704  26.497  1.00  0.00     0.023 C 
BRANCH  35  36
ATOM     36  C   UNL A   1      47.330  30.784  27.412  1.00  0.00     0.023 C 
BRANCH  36  37
ATOM     37  C   UNL A   1      46.924  31.082  28.820  1.00  0.00     0.116 C 
BRANCH  37  38
ATOM     38  N   UNL A   1      47.519  32.245  29.438  1.00  0.00    -0.352 N 
ATOM     39  C   UNL A   1      46.812  33.407  29.738  1.00  0.00     0.251 C 
ATOM     40  H   UNL A   1      48.478  32.215  29.659  1.00  0.00     0.163 HD
ATOM     41  O   UNL A   1      47.278  34.523  29.555  1.00  0.00    -0.269 OA
BRANCH  39  42
ATOM     42  C   UNL A   1      45.514  33.223  30.449  1.00  0.00     0.039 A 
ATOM     43  C   UNL A   1      45.486  32.419  31.594  1.00  0.00     0.014 A 
ATOM     44  C   UNL A   1      44.347  33.442  29.744  1.00  0.00     0.014 A 
ATOM     45  C   UNL A   1      44.361  31.642  31.836  1.00  0.00     0.010 A 
ATOM     46  C   UNL A   1      43.434  32.440  29.737  1.00  0.00     0.010 A 
ATOM     47  C   UNL A   1      43.422  31.567  30.817  1.00  0.00    -0.014 A 
BRANCH  47  48
ATOM     48  C   UNL A   1      42.164  30.867  30.843  1.00  0.00     0.031 A 
ATOM     49  C   UNL A   1      42.053  29.896  29.716  1.00  0.00     0.074 A 
ATOM     50  C   UNL A   1      41.496  30.959  32.022  1.00  0.00     0.049 A 
ATOM     51  N   UNL A   1      40.956  29.491  29.202  1.00  0.00    -0.248 NA
ATOM     52  C   UNL A   1      43.209  29.353  28.957  1.00  0.00     0.031 C 
ATOM     53  C   UNL A   1      40.487  30.107  32.634  1.00  0.00     0.029 A 
ATOM     54  N   UNL A   1      41.538  32.054  32.892  1.00  0.00    -0.354 N 
ATOM     55  C   UNL A   1      41.263  28.330  28.509  1.00  0.00     0.074 A 
ATOM     56  C   UNL A   1      42.652  28.413  28.185  1.00  0.00     0.031 C 
ATOM     57  C   UNL A   1      39.775  30.830  33.525  1.00  0.00     0.029 A 
ATOM     58  C   UNL A   1      40.267  32.200  33.476  1.00  0.00     0.049 A 
ATOM     59  H   UNL A   1      42.321  32.623  33.067  1.00  0.00     0.167 HD
ATOM     60  C   UNL A   1      40.361  27.314  28.547  1.00  0.00     0.031 A 
ATOM     61  C   UNL A   1      39.511  33.293  33.137  1.00  0.00     0.031 A 
ATOM     62  C   UNL A   1      39.266  27.722  29.418  1.00  0.00     0.049 A 
ATOM     63  C   UNL A   1      38.416  32.871  32.183  1.00  0.00     0.074 A 
ATOM     64  C   UNL A   1      39.016  27.468  30.755  1.00  0.00     0.029 A 
ATOM     65  N   UNL A   1      38.527  28.835  29.067  1.00  0.00    -0.354 N 
ATOM     66  N   UNL A   1      38.540  31.883  31.337  1.00  0.00    -0.248 NA
ATOM     67  C   UNL A   1      37.067  33.430  32.212  1.00  0.00     0.031 C 
ATOM     68  C   UNL A   1      38.136  28.483  31.216  1.00  0.00     0.029 A 
ATOM     69  C   UNL A   1      37.894  29.358  30.170  1.00  0.00     0.049 A 
ATOM     70  H   UNL A   1      38.462  29.202  28.155  1.00  0.00     0.167 HD
ATOM     71  C   UNL A   1      37.313  31.604  30.800  1.00  0.00     0.074 A 
ATOM     72  C   UNL A   1      36.432  32.620  31.347  1.00  0.00     0.031 C 
ATOM     73  C   UNL A   1      37.056  30.527  30.007  1.00  0.00     0.031 A 
BRANCH  60  74
ATOM     74  C   UNL A   1      40.501  25.880  28.108  1.00  0.00    -0.014 A 
ATOM     75  C   UNL A   1      39.411  25.340  27.387  1.00  0.00     0.010 A 
ATOM     76  C   UNL A   1      41.599  25.025  28.316  1.00  0.00     0.010 A 
ATOM     77  C   UNL A   1      39.385  24.029  26.920  1.00  0.00     0.020 A 
ATOM     78  C   UNL A   1      41.588  23.693  27.840  1.00  0.00     0.020 A 
ATOM     79  C   UNL A   1      40.478  23.207  27.146  1.00  0.00     0.054 A 
BRANCH  79  80
ATOM     80  S   UNL A   1      40.400  21.522  26.484  1.00  0.00     0.124 S 
ATOM     81  O   UNL A   1      40.510  20.707  27.693  1.00  0.00    -0.237 OA
ATOM     82  O   UNL A   1      39.093  21.501  25.832  1.00  0.00    -0.237 OA
ATOM     83  O   UNL A   1      41.546  21.450  25.582  1.00  0.00    -0.744 OA
ENDBRANCH  79  80
ENDBRANCH  60  74
BRANCH  61  84
ATOM     84  C   UNL A   1      40.369  34.520  33.017  1.00  0.00    -0.014 A 
ATOM     85  C   UNL A   1      40.727  35.152  34.234  1.00  0.00     0.010 A 
ATOM     86  C   UNL A   1      41.206  34.687  31.900  1.00  0.00     0.010 A 
ATOM     87  C   UNL A   1      41.994  35.721  34.394  1.00  0.00     0.020 A 
ATOM     88  C   UNL A   1      42.470  35.278  32.057  1.00  0.00     0.020 A 
ATOM     89  C   UNL A   1      42.881  35.719  33.319  1.00  0.00     0.054 A 
BRANCH  89  90
ATOM     90  S   UNL A   1      44.618  36.149  33.645  1.00  0.00     0.124 S 
ATOM     91  O   UNL A   1      44.499  37.506  34.171  1.00  0.00    -0.237 OA
ATOM     92  O   UNL A   1      45.010  35.126  34.620  1.00  0.00    -0.237 OA
ATOM     93  O   UNL A   1      45.239  36.041  32.332  1.00  0.00    -0.744 OA
ENDBRANCH  89  90
ENDBRANCH  61  84
BRANCH  73  94
ATOM     94  C   UNL A   1      35.907  30.436  29.041  1.00  0.00    -0.014 A 
ATOM     95  C   UNL A   1      35.248  31.561  28.534  1.00  0.00     0.010 A 
ATOM     96  C   UNL A   1      35.552  29.177  28.493  1.00  0.00     0.010 A 
ATOM     97  C   UNL A   1      34.195  31.425  27.631  1.00  0.00     0.020 A 
ATOM     98  C   UNL A   1      34.571  29.040  27.519  1.00  0.00     0.020 A 
ATOM     99  C   UNL A   1      33.860  30.164  27.138  1.00  0.00     0.054 A 
BRANCH  99 100
ATOM    100  S   UNL A   1      32.473  30.022  26.002  1.00  0.00     0.124 S 
ATOM    101  O   UNL A   1      33.159  29.805  24.731  1.00  0.00    -0.237 OA
ATOM    102  O   UNL A   1      31.749  28.867  26.531  1.00  0.00    -0.237 OA
ATOM    103  O   UNL A   1      31.781  31.300  26.132  1.00  0.00    -0.744 OA
ENDBRANCH  99 100
ENDBRANCH  73  94
ENDBRANCH  47  48
ENDBRANCH  39  42
ENDBRANCH  37  38
ENDBRANCH  36  37
ENDBRANCH  35  36
ENDBRANCH   1  35
TORSDOF 19
ENDMDL
