MODEL 1
REMARK VINA RESULT:      -9.9      0.000      0.000
REMARK SMILES C[C@H]([NH2+]C[C@]1(C)CCCO1)[C@H](C)C(=O)NCCCCNC(=O)c1ccc(-c2c3nc(c(-c4ccc(S(=O)(=O)[O-])cc4)c4ccc([nH]4)c(-c4ccc(S(=O)(=O)[O-])cc4)c4nc(c(-c5ccc(S(=O)(=O)[O-])cc5)c5ccc2[nH]5)C=C4)C=C3)cc1
REMARK SMILES IDX 17 1 16 2 15 3 13 4 14 5 11 7 12 8 2 9 1 10 3 11 4 14 5 15
REMARK SMILES IDX 7 16 10 17 6 18 8 19 9 20 18 21 19 22 20 23 21 24 22 26
REMARK SMILES IDX 23 27 24 28 82 29 25 30 81 31 26 32 27 33 28 34 75 35 29 36
REMARK SMILES IDX 80 37 74 38 76 39 30 40 79 41 73 42 72 43 31 45 61 46 42 47
REMARK SMILES IDX 60 48 43 49 46 50 59 51 77 52 44 53 45 54 58 56 78 57 47 58
REMARK SMILES IDX 32 59 33 60 41 61 34 62 40 63 35 64 36 65 37 66 38 67 39 68
REMARK SMILES IDX 62 69 63 70 71 71 64 72 70 73 65 74 66 75 67 76 68 77 69 78
REMARK SMILES IDX 48 79 49 80 57 81 50 82 56 83 51 84 52 85 53 86 54 87 55 88
REMARK H PARENT 15 6 3 12 3 13 20 25 76 44 46 55
REMARK Flexibility Score: inf
ROOT
ATOM      1  C   UNL A   1      33.736  28.156  24.672  1.00  0.00     0.023 C 
ENDROOT
BRANCH   1   2
ATOM      2  C   UNL A   1      33.091  28.917  23.519  1.00  0.00     0.116 C 
BRANCH   2   3
ATOM      3  N   UNL A   1      32.600  28.019  22.493  1.00  0.00    -0.356 N 
ATOM      4  C   UNL A   1      31.425  27.345  22.382  1.00  0.00     0.228 C 
ATOM      5  O   UNL A   1      31.300  26.593  21.408  1.00  0.00    -0.275 OA
ATOM      6  H   UNL A   1      33.226  27.871  21.749  1.00  0.00     0.163 HD
BRANCH   4   7
ATOM      7  C   UNL A   1      30.309  27.451  23.417  1.00  0.00     0.133 C 
ATOM      8  C   UNL A   1      29.415  28.629  23.000  1.00  0.00     0.024 C 
BRANCH   7   9
ATOM      9  C   UNL A   1      29.543  26.134  23.753  1.00  0.00     0.191 C 
ATOM     10  C   UNL A   1      28.053  26.435  24.008  1.00  0.00     0.076 C 
BRANCH   9  11
ATOM     11  N   UNL A   1      29.980  25.382  24.950  1.00  0.00    -0.341 N 
ATOM     12  H   UNL A   1      29.273  24.676  25.154  1.00  0.00     0.346 HD
ATOM     13  H   UNL A   1      30.093  26.074  25.691  1.00  0.00     0.346 HD
BRANCH  11  14
ATOM     14  C   UNL A   1      31.275  24.704  24.829  1.00  0.00     0.296 C 
BRANCH  14  15
ATOM     15  C   UNL A   1      31.553  23.595  25.887  1.00  0.00     0.114 C 
ATOM     16  C   UNL A   1      32.797  23.852  26.735  1.00  0.00     0.043 C 
ATOM     17  O   UNL A   1      31.873  22.381  25.165  1.00  0.00    -0.369 OA
ATOM     18  C   UNL A   1      30.317  23.326  26.741  1.00  0.00     0.048 C 
ATOM     19  C   UNL A   1      33.909  23.458  25.794  1.00  0.00     0.032 C 
ATOM     20  C   UNL A   1      33.304  22.288  25.041  1.00  0.00     0.161 C 
ENDBRANCH  14  15
ENDBRANCH  11  14
ENDBRANCH   9  11
ENDBRANCH   7   9
ENDBRANCH   4   7
ENDBRANCH   2   3
ENDBRANCH   1   2
BRANCH   1  21
ATOM     21  C   UNL A   1      32.855  28.011  25.913  1.00  0.00     0.023 C 
BRANCH  21  22
ATOM     22  C   UNL A   1      33.530  28.379  27.230  1.00  0.00     0.116 C 
BRANCH  22  23
ATOM     23  N   UNL A   1      33.478  29.809  27.505  1.00  0.00    -0.352 N 
ATOM     24  C   UNL A   1      34.436  30.616  28.071  1.00  0.00     0.251 C 
ATOM     25  H   UNL A   1      32.642  30.259  27.249  1.00  0.00     0.163 HD
ATOM     26  O   UNL A   1      34.162  31.772  28.382  1.00  0.00    -0.269 OA
BRANCH  24  27
ATOM     27  C   UNL A   1      35.785  30.073  28.326  1.00  0.00     0.039 A 
ATOM     28  C   UNL A   1      36.734  30.101  27.301  1.00  0.00     0.014 A 
ATOM     29  C   UNL A   1      36.119  29.570  29.586  1.00  0.00     0.014 A 
ATOM     30  C   UNL A   1      38.043  29.691  27.564  1.00  0.00     0.010 A 
ATOM     31  C   UNL A   1      37.439  29.232  29.865  1.00  0.00     0.010 A 
ATOM     32  C   UNL A   1      38.415  29.289  28.859  1.00  0.00    -0.014 A 
BRANCH  32  33
ATOM     33  C   UNL A   1      39.819  28.933  29.185  1.00  0.00     0.031 A 
ATOM     34  C   UNL A   1      40.721  29.946  29.836  1.00  0.00     0.074 A 
ATOM     35  C   UNL A   1      40.301  27.725  28.833  1.00  0.00     0.049 A 
ATOM     36  N   UNL A   1      41.990  29.845  30.139  1.00  0.00    -0.248 NA
ATOM     37  C   UNL A   1      40.125  31.250  30.170  1.00  0.00     0.031 C 
ATOM     38  C   UNL A   1      39.539  26.670  28.160  1.00  0.00     0.029 A 
ATOM     39  N   UNL A   1      41.552  27.182  28.987  1.00  0.00    -0.354 N 
ATOM     40  C   UNL A   1      42.348  31.076  30.680  1.00  0.00     0.074 A 
ATOM     41  C   UNL A   1      41.175  31.921  30.618  1.00  0.00     0.031 C 
ATOM     42  C   UNL A   1      40.330  25.599  27.986  1.00  0.00     0.029 A 
ATOM     43  C   UNL A   1      41.664  25.901  28.496  1.00  0.00     0.049 A 
ATOM     44  H   UNL A   1      42.300  27.663  29.409  1.00  0.00     0.167 HD
ATOM     45  C   UNL A   1      43.537  31.460  31.201  1.00  0.00     0.031 A 
ATOM     46  C   UNL A   1      42.720  25.067  28.456  1.00  0.00     0.031 A 
ATOM     47  C   UNL A   1      44.698  30.614  31.270  1.00  0.00     0.049 A 
ATOM     48  C   UNL A   1      44.035  25.521  29.029  1.00  0.00     0.074 A 
ATOM     49  C   UNL A   1      45.935  30.894  31.823  1.00  0.00     0.029 A 
ATOM     50  N   UNL A   1      44.767  29.323  30.768  1.00  0.00    -0.354 N 
ATOM     51  N   UNL A   1      44.337  26.668  29.590  1.00  0.00    -0.248 NA
ATOM     52  C   UNL A   1      45.149  24.565  28.972  1.00  0.00     0.031 C 
ATOM     53  C   UNL A   1      46.766  29.789  31.615  1.00  0.00     0.029 A 
ATOM     54  C   UNL A   1      46.030  28.799  30.981  1.00  0.00     0.049 A 
ATOM     55  H   UNL A   1      44.026  28.849  30.325  1.00  0.00     0.167 HD
ATOM     56  C   UNL A   1      45.667  26.559  29.979  1.00  0.00     0.074 A 
ATOM     57  C   UNL A   1      46.108  25.233  29.599  1.00  0.00     0.031 C 
ATOM     58  C   UNL A   1      46.453  27.476  30.597  1.00  0.00     0.031 A 
BRANCH  45  59
ATOM     59  C   UNL A   1      43.636  32.865  31.737  1.00  0.00    -0.014 A 
ATOM     60  C   UNL A   1      44.062  33.925  30.917  1.00  0.00     0.010 A 
ATOM     61  C   UNL A   1      43.279  33.133  33.071  1.00  0.00     0.010 A 
ATOM     62  C   UNL A   1      44.177  35.218  31.432  1.00  0.00     0.020 A 
ATOM     63  C   UNL A   1      43.363  34.432  33.583  1.00  0.00     0.020 A 
ATOM     64  C   UNL A   1      43.832  35.463  32.765  1.00  0.00     0.054 A 
BRANCH  64  65
ATOM     65  S   UNL A   1      43.981  37.152  33.406  1.00  0.00     0.124 S 
ATOM     66  O   UNL A   1      45.350  37.159  33.918  1.00  0.00    -0.237 OA
ATOM     67  O   UNL A   1      43.753  37.968  32.216  1.00  0.00    -0.237 OA
ATOM     68  O   UNL A   1      42.936  37.231  34.422  1.00  0.00    -0.744 OA
ENDBRANCH  64  65
ENDBRANCH  45  59
BRANCH  46  69
ATOM     69  C   UNL A   1      42.572  23.706  27.872  1.00  0.00    -0.014 A 
ATOM     70  C   UNL A   1      42.113  22.640  28.666  1.00  0.00     0.010 A 
ATOM     71  C   UNL A   1      42.872  23.472  26.518  1.00  0.00     0.010 A 
ATOM     72  C   UNL A   1      41.973  21.360  28.121  1.00  0.00     0.020 A 
ATOM     73  C   UNL A   1      42.708  22.198  25.963  1.00  0.00     0.020 A 
ATOM     74  C   UNL A   1      42.270  21.148  26.771  1.00  0.00     0.054 A 
BRANCH  74  75
ATOM     75  S   UNL A   1      42.029  19.491  26.073  1.00  0.00     0.124 S 
ATOM     76  O   UNL A   1      42.535  18.634  27.142  1.00  0.00    -0.237 OA
ATOM     77  O   UNL A   1      40.585  19.446  25.856  1.00  0.00    -0.237 OA
ATOM     78  O   UNL A   1      42.833  19.514  24.853  1.00  0.00    -0.744 OA
ENDBRANCH  74  75
ENDBRANCH  46  69
BRANCH  58  79
ATOM     79  C   UNL A   1      47.862  27.066  30.934  1.00  0.00    -0.014 A 
ATOM     80  C   UNL A   1      48.167  26.449  32.160  1.00  0.00     0.010 A 
ATOM     81  C   UNL A   1      48.883  27.251  29.984  1.00  0.00     0.010 A 
ATOM     82  C   UNL A   1      49.476  26.049  32.441  1.00  0.00     0.020 A 
ATOM     83  C   UNL A   1      50.188  26.828  30.251  1.00  0.00     0.020 A 
ATOM     84  C   UNL A   1      50.478  26.241  31.484  1.00  0.00     0.054 A 
BRANCH  84  85
ATOM     85  S   UNL A   1      52.160  25.670  31.852  1.00  0.00     0.124 S 
ATOM     86  O   UNL A   1      52.872  26.011  30.624  1.00  0.00    -0.237 OA
ATOM     87  O   UNL A   1      52.518  26.463  33.027  1.00  0.00    -0.237 OA
ATOM     88  O   UNL A   1      51.994  24.240  32.101  1.00  0.00    -0.744 OA
ENDBRANCH  84  85
ENDBRANCH  58  79
ENDBRANCH  32  33
ENDBRANCH  24  27
ENDBRANCH  22  23
ENDBRANCH  21  22
ENDBRANCH   1  21
TORSDOF 18
ENDMDL
MODEL 2
REMARK VINA RESULT:      -9.4      4.818      9.742
REMARK SMILES C[C@H]([NH2+]C[C@]1(C)CCCO1)[C@H](C)C(=O)NCCCCNC(=O)c1ccc(-c2c3nc(c(-c4ccc(S(=O)(=O)[O-])cc4)c4ccc([nH]4)c(-c4ccc(S(=O)(=O)[O-])cc4)c4nc(c(-c5ccc(S(=O)(=O)[O-])cc5)c5ccc2[nH]5)C=C4)C=C3)cc1
REMARK SMILES IDX 17 1 16 2 15 3 13 4 14 5 11 7 12 8 2 9 1 10 3 11 4 14 5 15
REMARK SMILES IDX 7 16 10 17 6 18 8 19 9 20 18 21 19 22 20 23 21 24 22 26
REMARK SMILES IDX 23 27 24 28 82 29 25 30 81 31 26 32 27 33 28 34 75 35 29 36
REMARK SMILES IDX 80 37 74 38 76 39 30 40 79 41 73 42 72 43 31 45 61 46 42 47
REMARK SMILES IDX 60 48 43 49 46 50 59 51 77 52 44 53 45 54 58 56 78 57 47 58
REMARK SMILES IDX 32 59 33 60 41 61 34 62 40 63 35 64 36 65 37 66 38 67 39 68
REMARK SMILES IDX 62 69 63 70 71 71 64 72 70 73 65 74 66 75 67 76 68 77 69 78
REMARK SMILES IDX 48 79 49 80 57 81 50 82 56 83 51 84 52 85 53 86 54 87 55 88
REMARK H PARENT 15 6 3 12 3 13 20 25 76 44 46 55
REMARK Flexibility Score: inf
ROOT
ATOM      1  C   UNL A   1      37.764  23.532  25.387  1.00  0.00     0.023 C 
ENDROOT
BRANCH   1   2
ATOM      2  C   UNL A   1      36.288  23.880  25.537  1.00  0.00     0.116 C 
BRANCH   2   3
ATOM      3  N   UNL A   1      35.637  23.041  26.523  1.00  0.00    -0.356 N 
ATOM      4  C   UNL A   1      34.885  21.918  26.386  1.00  0.00     0.228 C 
ATOM      5  O   UNL A   1      34.403  21.436  27.417  1.00  0.00    -0.275 OA
ATOM      6  H   UNL A   1      35.761  23.336  27.453  1.00  0.00     0.163 HD
BRANCH   4   7
ATOM      7  C   UNL A   1      34.589  21.281  25.032  1.00  0.00     0.133 C 
ATOM      8  C   UNL A   1      35.441  20.005  24.934  1.00  0.00     0.024 C 
BRANCH   7   9
ATOM      9  C   UNL A   1      33.084  21.092  24.664  1.00  0.00     0.191 C 
ATOM     10  C   UNL A   1      32.696  22.037  23.510  1.00  0.00     0.076 C 
BRANCH   9  11
ATOM     11  N   UNL A   1      32.088  21.369  25.723  1.00  0.00    -0.341 N 
ATOM     12  H   UNL A   1      32.582  21.752  26.528  1.00  0.00     0.346 HD
ATOM     13  H   UNL A   1      31.624  20.480  25.911  1.00  0.00     0.346 HD
BRANCH  11  14
ATOM     14  C   UNL A   1      31.024  22.309  25.355  1.00  0.00     0.296 C 
BRANCH  14  15
ATOM     15  C   UNL A   1      30.624  23.334  26.458  1.00  0.00     0.114 C 
ATOM     16  C   UNL A   1      30.274  24.717  25.914  1.00  0.00     0.043 C 
ATOM     17  O   UNL A   1      31.797  23.572  27.273  1.00  0.00    -0.369 OA
ATOM     18  C   UNL A   1      29.527  22.774  27.360  1.00  0.00     0.048 C 
ATOM     19  C   UNL A   1      31.636  25.304  25.637  1.00  0.00     0.032 C 
ATOM     20  C   UNL A   1      32.473  24.739  26.769  1.00  0.00     0.161 C 
ENDBRANCH  14  15
ENDBRANCH  11  14
ENDBRANCH   9  11
ENDBRANCH   7   9
ENDBRANCH   4   7
ENDBRANCH   2   3
ENDBRANCH   1   2
BRANCH   1  21
ATOM     21  C   UNL A   1      38.387  22.855  26.609  1.00  0.00     0.023 C 
BRANCH  21  22
ATOM     22  C   UNL A   1      39.701  23.466  27.085  1.00  0.00     0.116 C 
BRANCH  22  23
ATOM     23  N   UNL A   1      40.375  24.227  26.041  1.00  0.00    -0.352 N 
ATOM     24  C   UNL A   1      40.846  25.517  26.080  1.00  0.00     0.251 C 
ATOM     25  H   UNL A   1      40.512  23.751  25.191  1.00  0.00     0.163 HD
ATOM     26  O   UNL A   1      41.242  26.059  25.052  1.00  0.00    -0.269 OA
BRANCH  24  27
ATOM     27  C   UNL A   1      40.849  26.251  27.361  1.00  0.00     0.039 A 
ATOM     28  C   UNL A   1      41.916  27.103  27.655  1.00  0.00     0.014 A 
ATOM     29  C   UNL A   1      39.780  26.122  28.252  1.00  0.00     0.014 A 
ATOM     30  C   UNL A   1      41.875  27.884  28.812  1.00  0.00     0.010 A 
ATOM     31  C   UNL A   1      39.707  26.954  29.365  1.00  0.00     0.010 A 
ATOM     32  C   UNL A   1      40.752  27.843  29.656  1.00  0.00    -0.014 A 
BRANCH  32  33
ATOM     33  C   UNL A   1      40.646  28.728  30.845  1.00  0.00     0.031 A 
ATOM     34  C   UNL A   1      39.623  29.830  30.874  1.00  0.00     0.074 A 
ATOM     35  C   UNL A   1      41.513  28.582  31.866  1.00  0.00     0.049 A 
ATOM     36  N   UNL A   1      39.420  30.743  31.789  1.00  0.00    -0.248 NA
ATOM     37  C   UNL A   1      38.726  29.936  29.710  1.00  0.00     0.031 C 
ATOM     38  C   UNL A   1      42.576  27.577  31.940  1.00  0.00     0.029 A 
ATOM     39  N   UNL A   1      41.641  29.287  33.037  1.00  0.00    -0.354 N 
ATOM     40  C   UNL A   1      38.387  31.539  31.306  1.00  0.00     0.074 A 
ATOM     41  C   UNL A   1      38.042  31.034  29.995  1.00  0.00     0.031 C 
ATOM     42  C   UNL A   1      43.228  27.712  33.106  1.00  0.00     0.029 A 
ATOM     43  C   UNL A   1      42.660  28.835  33.845  1.00  0.00     0.049 A 
ATOM     44  H   UNL A   1      41.061  30.044  33.276  1.00  0.00     0.167 HD
ATOM     45  C   UNL A   1      37.769  32.584  31.906  1.00  0.00     0.031 A 
ATOM     46  C   UNL A   1      43.089  29.277  35.042  1.00  0.00     0.031 A 
ATOM     47  C   UNL A   1      38.109  33.078  33.214  1.00  0.00     0.049 A 
ATOM     48  C   UNL A   1      42.395  30.447  35.684  1.00  0.00     0.074 A 
ATOM     49  C   UNL A   1      37.510  34.100  33.930  1.00  0.00     0.029 A 
ATOM     50  N   UNL A   1      39.141  32.589  34.001  1.00  0.00    -0.354 N 
ATOM     51  N   UNL A   1      41.382  31.151  35.237  1.00  0.00    -0.248 NA
ATOM     52  C   UNL A   1      42.897  30.878  36.996  1.00  0.00     0.031 C 
ATOM     53  C   UNL A   1      38.208  34.258  35.131  1.00  0.00     0.029 A 
ATOM     54  C   UNL A   1      39.209  33.299  35.187  1.00  0.00     0.049 A 
ATOM     55  H   UNL A   1      39.738  31.846  33.752  1.00  0.00     0.167 HD
ATOM     56  C   UNL A   1      41.107  32.087  36.227  1.00  0.00     0.074 A 
ATOM     57  C   UNL A   1      42.052  31.854  37.299  1.00  0.00     0.031 C 
ATOM     58  C   UNL A   1      40.155  33.054  36.245  1.00  0.00     0.031 A 
BRANCH  45  59
ATOM     59  C   UNL A   1      36.659  33.261  31.146  1.00  0.00    -0.014 A 
ATOM     60  C   UNL A   1      36.929  34.022  29.994  1.00  0.00     0.010 A 
ATOM     61  C   UNL A   1      35.327  33.119  31.575  1.00  0.00     0.010 A 
ATOM     62  C   UNL A   1      35.895  34.669  29.313  1.00  0.00     0.020 A 
ATOM     63  C   UNL A   1      34.285  33.739  30.878  1.00  0.00     0.020 A 
ATOM     64  C   UNL A   1      34.579  34.528  29.763  1.00  0.00     0.054 A 
BRANCH  64  65
ATOM     65  S   UNL A   1      33.254  35.370  28.855  1.00  0.00     0.124 S 
ATOM     66  O   UNL A   1      34.008  36.302  28.020  1.00  0.00    -0.237 OA
ATOM     67  O   UNL A   1      32.606  34.272  28.141  1.00  0.00    -0.237 OA
ATOM     68  O   UNL A   1      32.450  35.986  29.907  1.00  0.00    -0.744 OA
ENDBRANCH  64  65
ENDBRANCH  45  59
BRANCH  46  69
ATOM     69  C   UNL A   1      44.222  28.594  35.725  1.00  0.00    -0.014 A 
ATOM     70  C   UNL A   1      45.543  29.027  35.514  1.00  0.00     0.010 A 
ATOM     71  C   UNL A   1      43.986  27.519  36.600  1.00  0.00     0.010 A 
ATOM     72  C   UNL A   1      46.609  28.387  36.152  1.00  0.00     0.020 A 
ATOM     73  C   UNL A   1      45.048  26.893  37.261  1.00  0.00     0.020 A 
ATOM     74  C   UNL A   1      46.354  27.324  37.025  1.00  0.00     0.054 A 
BRANCH  74  75
ATOM     75  S   UNL A   1      47.749  26.544  37.884  1.00  0.00     0.124 S 
ATOM     76  O   UNL A   1      47.965  27.456  39.003  1.00  0.00    -0.237 OA
ATOM     77  O   UNL A   1      47.211  25.231  38.233  1.00  0.00    -0.237 OA
ATOM     78  O   UNL A   1      48.805  26.527  36.875  1.00  0.00    -0.744 OA
ENDBRANCH  74  75
ENDBRANCH  46  69
BRANCH  58  79
ATOM     79  C   UNL A   1      40.063  33.911  37.480  1.00  0.00    -0.014 A 
ATOM     80  C   UNL A   1      40.898  35.027  37.657  1.00  0.00     0.010 A 
ATOM     81  C   UNL A   1      39.083  33.624  38.449  1.00  0.00     0.010 A 
ATOM     82  C   UNL A   1      40.775  35.826  38.797  1.00  0.00     0.020 A 
ATOM     83  C   UNL A   1      38.940  34.436  39.577  1.00  0.00     0.020 A 
ATOM     84  C   UNL A   1      39.796  35.525  39.749  1.00  0.00     0.054 A 
BRANCH  84  85
ATOM     85  S   UNL A   1      39.624  36.605  41.196  1.00  0.00     0.124 S 
ATOM     86  O   UNL A   1      40.952  37.206  41.287  1.00  0.00    -0.237 OA
ATOM     87  O   UNL A   1      38.550  37.511  40.795  1.00  0.00    -0.237 OA
ATOM     88  O   UNL A   1      39.282  35.685  42.277  1.00  0.00    -0.744 OA
ENDBRANCH  84  85
ENDBRANCH  58  79
ENDBRANCH  32  33
ENDBRANCH  24  27
ENDBRANCH  22  23
ENDBRANCH  21  22
ENDBRANCH   1  21
TORSDOF 18
ENDMDL
MODEL 3
REMARK VINA RESULT:      -9.4      1.194      8.559
REMARK SMILES C[C@H]([NH2+]C[C@]1(C)CCCO1)[C@H](C)C(=O)NCCCCNC(=O)c1ccc(-c2c3nc(c(-c4ccc(S(=O)(=O)[O-])cc4)c4ccc([nH]4)c(-c4ccc(S(=O)(=O)[O-])cc4)c4nc(c(-c5ccc(S(=O)(=O)[O-])cc5)c5ccc2[nH]5)C=C4)C=C3)cc1
REMARK SMILES IDX 17 1 16 2 15 3 13 4 14 5 11 7 12 8 2 9 1 10 3 11 4 14 5 15
REMARK SMILES IDX 7 16 10 17 6 18 8 19 9 20 18 21 19 22 20 23 21 24 22 26
REMARK SMILES IDX 23 27 24 28 82 29 25 30 81 31 26 32 27 33 28 34 75 35 29 36
REMARK SMILES IDX 80 37 74 38 76 39 30 40 79 41 73 42 72 43 31 45 61 46 42 47
REMARK SMILES IDX 60 48 43 49 46 50 59 51 77 52 44 53 45 54 58 56 78 57 47 58
REMARK SMILES IDX 32 59 33 60 41 61 34 62 40 63 35 64 36 65 37 66 38 67 39 68
REMARK SMILES IDX 62 69 63 70 71 71 64 72 70 73 65 74 66 75 67 76 68 77 69 78
REMARK SMILES IDX 48 79 49 80 57 81 50 82 56 83 51 84 52 85 53 86 54 87 55 88
REMARK H PARENT 15 6 3 12 3 13 20 25 76 44 46 55
REMARK Flexibility Score: inf
ROOT
ATOM      1  C   UNL A   1      32.796  29.214  24.839  1.00  0.00     0.023 C 
ENDROOT
BRANCH   1   2
ATOM      2  C   UNL A   1      31.639  28.456  24.200  1.00  0.00     0.116 C 
BRANCH   2   3
ATOM      3  N   UNL A   1      32.082  27.641  23.088  1.00  0.00    -0.356 N 
ATOM      4  C   UNL A   1      32.067  26.295  22.904  1.00  0.00     0.228 C 
ATOM      5  O   UNL A   1      32.571  25.865  21.860  1.00  0.00    -0.275 OA
ATOM      6  H   UNL A   1      32.460  28.150  22.336  1.00  0.00     0.163 HD
BRANCH   4   7
ATOM      7  C   UNL A   1      31.505  25.324  23.938  1.00  0.00     0.133 C 
ATOM      8  C   UNL A   1      30.477  24.438  23.217  1.00  0.00     0.024 C 
BRANCH   7   9
ATOM      9  C   UNL A   1      32.545  24.548  24.803  1.00  0.00     0.191 C 
ATOM     10  C   UNL A   1      32.487  25.029  26.266  1.00  0.00     0.076 C 
BRANCH   9  11
ATOM     11  N   UNL A   1      33.971  24.676  24.427  1.00  0.00    -0.341 N 
ATOM     12  H   UNL A   1      34.497  24.925  25.265  1.00  0.00     0.346 HD
ATOM     13  H   UNL A   1      34.006  25.387  23.696  1.00  0.00     0.346 HD
BRANCH  11  14
ATOM     14  C   UNL A   1      34.581  23.473  23.851  1.00  0.00     0.296 C 
BRANCH  14  15
ATOM     15  C   UNL A   1      35.095  22.423  24.880  1.00  0.00     0.114 C 
ATOM     16  C   UNL A   1      35.641  23.041  26.166  1.00  0.00     0.043 C 
ATOM     17  O   UNL A   1      36.248  21.773  24.294  1.00  0.00    -0.369 OA
ATOM     18  C   UNL A   1      34.038  21.357  25.156  1.00  0.00     0.048 C 
ATOM     19  C   UNL A   1      37.005  23.522  25.733  1.00  0.00     0.032 C 
ATOM     20  C   UNL A   1      37.434  22.449  24.750  1.00  0.00     0.161 C 
ENDBRANCH  14  15
ENDBRANCH  11  14
ENDBRANCH   9  11
ENDBRANCH   7   9
ENDBRANCH   4   7
ENDBRANCH   2   3
ENDBRANCH   1   2
BRANCH   1  21
ATOM     21  C   UNL A   1      33.885  28.326  25.441  1.00  0.00     0.023 C 
BRANCH  21  22
ATOM     22  C   UNL A   1      33.980  28.363  26.964  1.00  0.00     0.116 C 
BRANCH  22  23
ATOM     23  N   UNL A   1      33.801  29.704  27.503  1.00  0.00    -0.352 N 
ATOM     24  C   UNL A   1      34.680  30.466  28.234  1.00  0.00     0.251 C 
ATOM     25  H   UNL A   1      32.930  30.123  27.317  1.00  0.00     0.163 HD
ATOM     26  O   UNL A   1      34.304  31.515  28.751  1.00  0.00    -0.269 OA
BRANCH  24  27
ATOM     27  C   UNL A   1      36.070  30.002  28.413  1.00  0.00     0.039 A 
ATOM     28  C   UNL A   1      36.961  30.091  27.341  1.00  0.00     0.014 A 
ATOM     29  C   UNL A   1      36.498  29.510  29.649  1.00  0.00     0.014 A 
ATOM     30  C   UNL A   1      38.303  29.756  27.532  1.00  0.00     0.010 A 
ATOM     31  C   UNL A   1      37.848  29.248  29.857  1.00  0.00     0.010 A 
ATOM     32  C   UNL A   1      38.765  29.368  28.801  1.00  0.00    -0.014 A 
BRANCH  32  33
ATOM     33  C   UNL A   1      40.203  29.092  29.050  1.00  0.00     0.031 A 
ATOM     34  C   UNL A   1      40.781  27.746  28.707  1.00  0.00     0.074 A 
ATOM     35  C   UNL A   1      40.969  30.026  29.645  1.00  0.00     0.049 A 
ATOM     36  N   UNL A   1      41.992  27.294  28.909  1.00  0.00    -0.248 NA
ATOM     37  C   UNL A   1      39.873  26.772  28.078  1.00  0.00     0.031 C 
ATOM     38  C   UNL A   1      40.517  31.356  30.063  1.00  0.00     0.029 A 
ATOM     39  N   UNL A   1      42.292  29.997  30.010  1.00  0.00    -0.354 N 
ATOM     40  C   UNL A   1      41.987  25.981  28.449  1.00  0.00     0.074 A 
ATOM     41  C   UNL A   1      40.640  25.695  28.006  1.00  0.00     0.031 C 
ATOM     42  C   UNL A   1      41.552  32.024  30.599  1.00  0.00     0.029 A 
ATOM     43  C   UNL A   1      42.728  31.161  30.602  1.00  0.00     0.049 A 
ATOM     44  H   UNL A   1      42.875  29.218  29.863  1.00  0.00     0.167 HD
ATOM     45  C   UNL A   1      43.013  25.101  28.382  1.00  0.00     0.031 A 
ATOM     46  C   UNL A   1      43.937  31.493  31.096  1.00  0.00     0.031 A 
ATOM     47  C   UNL A   1      44.354  25.393  28.815  1.00  0.00     0.049 A 
ATOM     48  C   UNL A   1      45.059  30.494  31.022  1.00  0.00     0.074 A 
ATOM     49  C   UNL A   1      45.476  24.585  28.744  1.00  0.00     0.029 A 
ATOM     50  N   UNL A   1      44.754  26.584  29.402  1.00  0.00    -0.354 N 
ATOM     51  N   UNL A   1      45.049  29.278  30.529  1.00  0.00    -0.248 NA
ATOM     52  C   UNL A   1      46.359  30.916  31.562  1.00  0.00     0.031 C 
ATOM     53  C   UNL A   1      46.545  25.271  29.328  1.00  0.00     0.029 A 
ATOM     54  C   UNL A   1      46.102  26.527  29.715  1.00  0.00     0.049 A 
ATOM     55  H   UNL A   1      44.167  27.356  29.570  1.00  0.00     0.167 HD
ATOM     56  C   UNL A   1      46.346  28.801  30.674  1.00  0.00     0.074 A 
ATOM     57  C   UNL A   1      47.117  29.862  31.290  1.00  0.00     0.031 C 
ATOM     58  C   UNL A   1      46.854  27.592  30.327  1.00  0.00     0.031 A 
BRANCH  45  59
ATOM     59  C   UNL A   1      42.719  23.736  27.818  1.00  0.00    -0.014 A 
ATOM     60  C   UNL A   1      42.260  22.694  28.644  1.00  0.00     0.010 A 
ATOM     61  C   UNL A   1      42.883  23.495  26.442  1.00  0.00     0.010 A 
ATOM     62  C   UNL A   1      42.017  21.424  28.115  1.00  0.00     0.020 A 
ATOM     63  C   UNL A   1      42.612  22.234  25.902  1.00  0.00     0.020 A 
ATOM     64  C   UNL A   1      42.200  21.201  26.747  1.00  0.00     0.054 A 
BRANCH  64  65
ATOM     65  S   UNL A   1      41.868  19.545  26.084  1.00  0.00     0.124 S 
ATOM     66  O   UNL A   1      40.435  19.616  25.804  1.00  0.00    -0.237 OA
ATOM     67  O   UNL A   1      42.733  19.491  24.909  1.00  0.00    -0.237 OA
ATOM     68  O   UNL A   1      42.245  18.652  27.176  1.00  0.00    -0.744 OA
ENDBRANCH  64  65
ENDBRANCH  45  59
BRANCH  46  69
ATOM     69  C   UNL A   1      44.155  32.844  31.683  1.00  0.00    -0.014 A 
ATOM     70  C   UNL A   1      43.974  33.056  33.061  1.00  0.00     0.010 A 
ATOM     71  C   UNL A   1      44.559  33.919  30.872  1.00  0.00     0.010 A 
ATOM     72  C   UNL A   1      44.176  34.323  33.615  1.00  0.00     0.020 A 
ATOM     73  C   UNL A   1      44.789  35.182  31.427  1.00  0.00     0.020 A 
ATOM     74  C   UNL A   1      44.585  35.378  32.794  1.00  0.00     0.054 A 
BRANCH  74  75
ATOM     75  S   UNL A   1      44.895  37.001  33.545  1.00  0.00     0.124 S 
ATOM     76  O   UNL A   1      44.241  37.902  32.600  1.00  0.00    -0.237 OA
ATOM     77  O   UNL A   1      44.248  36.875  34.849  1.00  0.00    -0.237 OA
ATOM     78  O   UNL A   1      46.353  37.085  33.587  1.00  0.00    -0.744 OA
ENDBRANCH  74  75
ENDBRANCH  46  69
BRANCH  58  79
ATOM     79  C   UNL A   1      48.322  27.362  30.571  1.00  0.00    -0.014 A 
ATOM     80  C   UNL A   1      49.284  27.706  29.605  1.00  0.00     0.010 A 
ATOM     81  C   UNL A   1      48.745  26.848  31.810  1.00  0.00     0.010 A 
ATOM     82  C   UNL A   1      50.643  27.510  29.864  1.00  0.00     0.020 A 
ATOM     83  C   UNL A   1      50.105  26.677  32.082  1.00  0.00     0.020 A 
ATOM     84  C   UNL A   1      51.045  26.998  31.101  1.00  0.00     0.054 A 
BRANCH  84  85
ATOM     85  S   UNL A   1      52.817  26.800  31.431  1.00  0.00     0.124 S 
ATOM     86  O   UNL A   1      52.868  25.465  32.023  1.00  0.00    -0.237 OA
ATOM     87  O   UNL A   1      53.407  26.919  30.100  1.00  0.00    -0.237 OA
ATOM     88  O   UNL A   1      53.125  27.898  32.344  1.00  0.00    -0.744 OA
ENDBRANCH  84  85
ENDBRANCH  58  79
ENDBRANCH  32  33
ENDBRANCH  24  27
ENDBRANCH  22  23
ENDBRANCH  21  22
ENDBRANCH   1  21
TORSDOF 18
ENDMDL
