MODEL 1
REMARK VINA RESULT:     -10.8      0.000      0.000
REMARK SMILES CCCc1nnc(SCC(=O)NCCCCNC(=O)c2ccc(-c3c4nc(c(-c5ccc(S(=O)(=O)[O-])cc5)c5ccc([nH]5)c(-c5ccc(S(=O)(=O)[O-])cc5)c5nc(c(-c6ccc(S(=O)(=O)[O-])cc6)c6ccc3[nH]6)C=C5)C=C4)cc2)n1C[C@H]1CCCO1
REMARK SMILES IDX 14 1 13 2 12 3 10 4 11 5 9 7 8 8 7 9 4 10 5 11 80 12 6 13
REMARK SMILES IDX 3 14 2 15 1 16 81 17 82 18 83 19 86 20 84 21 85 22 15 23
REMARK SMILES IDX 16 24 17 25 18 26 19 28 20 29 21 30 79 31 22 32 78 33 23 34
REMARK SMILES IDX 24 35 25 36 72 37 26 38 77 39 71 40 73 41 27 42 76 43 70 44
REMARK SMILES IDX 69 45 28 47 58 48 39 49 57 50 40 51 43 52 56 53 74 54 41 55
REMARK SMILES IDX 42 56 55 58 75 59 44 60 29 61 30 62 38 63 31 64 37 65 32 66
REMARK SMILES IDX 33 67 34 68 35 69 36 70 59 71 60 72 68 73 61 74 67 75 62 76
REMARK SMILES IDX 63 77 64 78 65 79 66 80 45 81 46 82 54 83 47 84 53 85 48 86
REMARK SMILES IDX 49 87 50 88 51 89 52 90
REMARK H PARENT 12 6 17 27 73 46 43 57
REMARK Flexibility Score: inf
ROOT
ATOM      1  C   UNL A   1      38.183  21.475  25.403  1.00  0.00     0.023 C 
ENDROOT
BRANCH   1   2
ATOM      2  C   UNL A   1      36.942  21.773  24.573  1.00  0.00     0.116 C 
BRANCH   2   3
ATOM      3  N   UNL A   1      35.925  20.773  24.757  1.00  0.00    -0.355 N 
ATOM      4  C   UNL A   1      34.656  20.980  25.185  1.00  0.00     0.230 C 
ATOM      5  O   UNL A   1      33.967  19.984  25.407  1.00  0.00    -0.274 OA
ATOM      6  H   UNL A   1      36.176  19.843  24.551  1.00  0.00     0.163 HD
BRANCH   4   7
ATOM      7  C   UNL A   1      34.110  22.390  25.251  1.00  0.00     0.178 C 
BRANCH   7   8
ATOM      8  S   UNL A   1      33.753  23.072  26.853  1.00  0.00    -0.076 SA
BRANCH   8   9
ATOM      9  C   UNL A   1      32.240  23.899  26.878  1.00  0.00     0.191 A 
ATOM     10  C   UNL A   1      30.492  25.060  26.284  1.00  0.00     0.133 A 
ATOM     11  N   UNL A   1      30.067  24.003  26.946  1.00  0.00    -0.134 NA
ATOM     12  N   UNL A   1      31.871  25.148  26.441  1.00  0.00    -0.303 N 
ATOM     13  N   UNL A   1      31.162  23.272  27.307  1.00  0.00    -0.123 NA
BRANCH  10  14
ATOM     14  C   UNL A   1      29.644  25.821  25.312  1.00  0.00     0.077 C 
BRANCH  14  15
ATOM     15  C   UNL A   1      29.899  25.564  23.830  1.00  0.00     0.005 C 
ATOM     16  C   UNL A   1      30.517  24.209  23.527  1.00  0.00     0.004 C 
ENDBRANCH  14  15
ENDBRANCH  10  14
BRANCH  12  17
ATOM     17  C   UNL A   1      32.677  26.280  26.064  1.00  0.00     0.158 C 
BRANCH  17  18
ATOM     18  C   UNL A   1      32.186  27.690  26.460  1.00  0.00     0.138 C 
ATOM     19  C   UNL A   1      33.046  28.605  27.324  1.00  0.00     0.036 C 
ATOM     20  O   UNL A   1      31.989  28.431  25.239  1.00  0.00    -0.376 OA
ATOM     21  C   UNL A   1      33.830  29.466  26.355  1.00  0.00     0.031 C 
ATOM     22  C   UNL A   1      33.028  29.407  25.076  1.00  0.00     0.160 C 
ENDBRANCH  17  18
ENDBRANCH  12  17
ENDBRANCH   8   9
ENDBRANCH   7   8
ENDBRANCH   4   7
ENDBRANCH   2   3
ENDBRANCH   1   2
BRANCH   1  23
ATOM     23  C   UNL A   1      38.797  22.666  26.146  1.00  0.00     0.023 C 
BRANCH  23  24
ATOM     24  C   UNL A   1      39.947  22.305  27.071  1.00  0.00     0.116 C 
BRANCH  24  25
ATOM     25  N   UNL A   1      41.171  22.016  26.331  1.00  0.00    -0.352 N 
ATOM     26  C   UNL A   1      42.107  22.898  25.830  1.00  0.00     0.251 C 
ATOM     27  H   UNL A   1      41.353  21.064  26.167  1.00  0.00     0.163 HD
ATOM     28  O   UNL A   1      42.914  22.546  24.991  1.00  0.00    -0.269 OA
BRANCH  26  29
ATOM     29  C   UNL A   1      42.112  24.276  26.353  1.00  0.00     0.039 A 
ATOM     30  C   UNL A   1      41.426  25.298  25.701  1.00  0.00     0.014 A 
ATOM     31  C   UNL A   1      42.780  24.514  27.550  1.00  0.00     0.014 A 
ATOM     32  C   UNL A   1      41.360  26.546  26.314  1.00  0.00     0.010 A 
ATOM     33  C   UNL A   1      42.596  25.690  28.223  1.00  0.00     0.010 A 
ATOM     34  C   UNL A   1      41.933  26.725  27.585  1.00  0.00    -0.014 A 
BRANCH  34  35
ATOM     35  C   UNL A   1      41.746  27.961  28.327  1.00  0.00     0.031 A 
ATOM     36  C   UNL A   1      42.777  28.994  28.057  1.00  0.00     0.074 A 
ATOM     37  C   UNL A   1      40.628  28.236  29.029  1.00  0.00     0.049 A 
ATOM     38  N   UNL A   1      43.737  29.349  28.842  1.00  0.00    -0.248 NA
ATOM     39  C   UNL A   1      42.861  29.583  26.710  1.00  0.00     0.031 C 
ATOM     40  C   UNL A   1      39.385  27.458  29.123  1.00  0.00     0.029 A 
ATOM     41  N   UNL A   1      40.325  29.358  29.731  1.00  0.00    -0.354 N 
ATOM     42  C   UNL A   1      44.407  30.375  28.189  1.00  0.00     0.074 A 
ATOM     43  C   UNL A   1      43.958  30.339  26.819  1.00  0.00     0.031 C 
ATOM     44  C   UNL A   1      38.400  28.239  29.624  1.00  0.00     0.029 A 
ATOM     45  C   UNL A   1      38.980  29.500  30.049  1.00  0.00     0.049 A 
ATOM     46  H   UNL A   1      41.005  30.019  29.994  1.00  0.00     0.167 HD
ATOM     47  C   UNL A   1      45.090  31.327  28.884  1.00  0.00     0.031 A 
ATOM     48  C   UNL A   1      38.389  30.596  30.589  1.00  0.00     0.031 A 
ATOM     49  C   UNL A   1      45.216  30.974  30.277  1.00  0.00     0.049 A 
ATOM     50  C   UNL A   1      39.466  31.379  31.247  1.00  0.00     0.074 A 
ATOM     51  C   UNL A   1      45.784  29.920  30.964  1.00  0.00     0.029 A 
ATOM     52  N   UNL A   1      44.321  31.557  31.144  1.00  0.00    -0.354 N 
ATOM     53  N   UNL A   1      40.133  30.943  32.279  1.00  0.00    -0.248 NA
ATOM     54  C   UNL A   1      40.127  32.420  30.476  1.00  0.00     0.031 C 
ATOM     55  C   UNL A   1      44.860  29.627  32.010  1.00  0.00     0.029 A 
ATOM     56  C   UNL A   1      43.830  30.569  31.961  1.00  0.00     0.049 A 
ATOM     57  H   UNL A   1      44.076  32.511  31.174  1.00  0.00     0.167 HD
ATOM     58  C   UNL A   1      41.449  31.304  32.030  1.00  0.00     0.074 A 
ATOM     59  C   UNL A   1      41.369  32.296  30.957  1.00  0.00     0.031 C 
ATOM     60  C   UNL A   1      42.490  30.563  32.513  1.00  0.00     0.031 A 
BRANCH  47  61
ATOM     61  C   UNL A   1      45.291  32.742  28.411  1.00  0.00    -0.014 A 
ATOM     62  C   UNL A   1      46.580  33.308  28.497  1.00  0.00     0.010 A 
ATOM     63  C   UNL A   1      44.222  33.619  28.140  1.00  0.00     0.010 A 
ATOM     64  C   UNL A   1      46.778  34.688  28.374  1.00  0.00     0.020 A 
ATOM     65  C   UNL A   1      44.413  34.992  27.972  1.00  0.00     0.020 A 
ATOM     66  C   UNL A   1      45.689  35.522  28.121  1.00  0.00     0.054 A 
BRANCH  66  67
ATOM     67  S   UNL A   1      45.947  37.311  28.043  1.00  0.00     0.124 S 
ATOM     68  O   UNL A   1      47.256  37.399  27.404  1.00  0.00    -0.237 OA
ATOM     69  O   UNL A   1      44.813  37.750  27.234  1.00  0.00    -0.237 OA
ATOM     70  O   UNL A   1      45.904  37.723  29.444  1.00  0.00    -0.744 OA
ENDBRANCH  66  67
ENDBRANCH  47  61
BRANCH  48  71
ATOM     71  C   UNL A   1      37.060  31.174  30.263  1.00  0.00    -0.014 A 
ATOM     72  C   UNL A   1      36.346  31.920  31.222  1.00  0.00     0.010 A 
ATOM     73  C   UNL A   1      36.638  31.263  28.921  1.00  0.00     0.010 A 
ATOM     74  C   UNL A   1      35.312  32.791  30.839  1.00  0.00     0.020 A 
ATOM     75  C   UNL A   1      35.603  32.123  28.533  1.00  0.00     0.020 A 
ATOM     76  C   UNL A   1      34.967  32.910  29.491  1.00  0.00     0.054 A 
BRANCH  76  77
ATOM     77  S   UNL A   1      33.795  34.201  28.974  1.00  0.00     0.124 S 
ATOM     78  O   UNL A   1      33.132  34.540  30.229  1.00  0.00    -0.237 OA
ATOM     79  O   UNL A   1      34.677  35.228  28.425  1.00  0.00    -0.237 OA
ATOM     80  O   UNL A   1      32.951  33.525  27.990  1.00  0.00    -0.744 OA
ENDBRANCH  76  77
ENDBRANCH  48  71
BRANCH  60  81
ATOM     81  C   UNL A   1      42.199  29.510  33.561  1.00  0.00    -0.014 A 
ATOM     82  C   UNL A   1      41.651  28.240  33.286  1.00  0.00     0.010 A 
ATOM     83  C   UNL A   1      42.621  29.782  34.874  1.00  0.00     0.010 A 
ATOM     84  C   UNL A   1      41.488  27.292  34.310  1.00  0.00     0.020 A 
ATOM     85  C   UNL A   1      42.482  28.836  35.892  1.00  0.00     0.020 A 
ATOM     86  C   UNL A   1      41.900  27.601  35.610  1.00  0.00     0.054 A 
BRANCH  86  87
ATOM     87  S   UNL A   1      41.688  26.378  36.934  1.00  0.00     0.124 S 
ATOM     88  O   UNL A   1      40.416  26.774  37.531  1.00  0.00    -0.237 OA
ATOM     89  O   UNL A   1      41.675  25.110  36.207  1.00  0.00    -0.237 OA
ATOM     90  O   UNL A   1      42.860  26.581  37.786  1.00  0.00    -0.744 OA
ENDBRANCH  86  87
ENDBRANCH  60  81
ENDBRANCH  34  35
ENDBRANCH  26  29
ENDBRANCH  24  25
ENDBRANCH  23  24
ENDBRANCH   1  23
TORSDOF 20
ENDMDL
MODEL 2
REMARK VINA RESULT:     -10.5      3.667      8.126
REMARK SMILES CCCc1nnc(SCC(=O)NCCCCNC(=O)c2ccc(-c3c4nc(c(-c5ccc(S(=O)(=O)[O-])cc5)c5ccc([nH]5)c(-c5ccc(S(=O)(=O)[O-])cc5)c5nc(c(-c6ccc(S(=O)(=O)[O-])cc6)c6ccc3[nH]6)C=C5)C=C4)cc2)n1C[C@H]1CCCO1
REMARK SMILES IDX 14 1 13 2 12 3 10 4 11 5 9 7 8 8 7 9 4 10 5 11 80 12 6 13
REMARK SMILES IDX 3 14 2 15 1 16 81 17 82 18 83 19 86 20 84 21 85 22 15 23
REMARK SMILES IDX 16 24 17 25 18 26 19 28 20 29 21 30 79 31 22 32 78 33 23 34
REMARK SMILES IDX 24 35 25 36 72 37 26 38 77 39 71 40 73 41 27 42 76 43 70 44
REMARK SMILES IDX 69 45 28 47 58 48 39 49 57 50 40 51 43 52 56 53 74 54 41 55
REMARK SMILES IDX 42 56 55 58 75 59 44 60 29 61 30 62 38 63 31 64 37 65 32 66
REMARK SMILES IDX 33 67 34 68 35 69 36 70 59 71 60 72 68 73 61 74 67 75 62 76
REMARK SMILES IDX 63 77 64 78 65 79 66 80 45 81 46 82 54 83 47 84 53 85 48 86
REMARK SMILES IDX 49 87 50 88 51 89 52 90
REMARK H PARENT 12 6 17 27 73 46 43 57
REMARK Flexibility Score: inf
ROOT
ATOM      1  C   UNL A   1      35.881  21.726  25.175  1.00  0.00     0.023 C 
ENDROOT
BRANCH   1   2
ATOM      2  C   UNL A   1      34.785  21.446  26.195  1.00  0.00     0.116 C 
BRANCH   2   3
ATOM      3  N   UNL A   1      34.037  20.264  25.863  1.00  0.00    -0.355 N 
ATOM      4  C   UNL A   1      32.775  20.218  25.371  1.00  0.00     0.230 C 
ATOM      5  O   UNL A   1      32.249  19.109  25.271  1.00  0.00    -0.274 OA
ATOM      6  H   UNL A   1      34.487  19.399  26.008  1.00  0.00     0.163 HD
BRANCH   4   7
ATOM      7  C   UNL A   1      32.125  21.485  24.859  1.00  0.00     0.178 C 
BRANCH   7   8
ATOM      8  S   UNL A   1      30.919  22.281  25.893  1.00  0.00    -0.076 SA
BRANCH   8   9
ATOM      9  C   UNL A   1      30.907  23.991  25.671  1.00  0.00     0.191 A 
ATOM     10  C   UNL A   1      30.415  25.995  24.965  1.00  0.00     0.133 A 
ATOM     11  N   UNL A   1      30.503  26.042  26.280  1.00  0.00    -0.134 NA
ATOM     12  N   UNL A   1      30.910  24.768  24.538  1.00  0.00    -0.303 N 
ATOM     13  N   UNL A   1      30.799  24.783  26.720  1.00  0.00    -0.123 NA
BRANCH  10  14
ATOM     14  C   UNL A   1      29.642  26.988  24.155  1.00  0.00     0.077 C 
BRANCH  14  15
ATOM     15  C   UNL A   1      30.349  28.296  23.813  1.00  0.00     0.005 C 
ATOM     16  C   UNL A   1      30.306  28.663  22.338  1.00  0.00     0.004 C 
ENDBRANCH  14  15
ENDBRANCH  10  14
BRANCH  12  17
ATOM     17  C   UNL A   1      31.194  24.421  23.170  1.00  0.00     0.158 C 
BRANCH  17  18
ATOM     18  C   UNL A   1      32.636  24.613  22.653  1.00  0.00     0.138 C 
ATOM     19  C   UNL A   1      33.030  25.864  21.876  1.00  0.00     0.036 C 
ATOM     20  O   UNL A   1      33.505  24.619  23.804  1.00  0.00    -0.376 OA
ATOM     21  C   UNL A   1      33.578  26.831  22.906  1.00  0.00     0.031 C 
ATOM     22  C   UNL A   1      33.976  25.949  24.066  1.00  0.00     0.160 C 
ENDBRANCH  17  18
ENDBRANCH  12  17
ENDBRANCH   8   9
ENDBRANCH   7   8
ENDBRANCH   4   7
ENDBRANCH   2   3
ENDBRANCH   1   2
BRANCH   1  23
ATOM     23  C   UNL A   1      36.903  20.606  24.963  1.00  0.00     0.023 C 
BRANCH  23  24
ATOM     24  C   UNL A   1      38.325  20.968  25.361  1.00  0.00     0.116 C 
BRANCH  24  25
ATOM     25  N   UNL A   1      39.166  19.786  25.512  1.00  0.00    -0.352 N 
ATOM     26  C   UNL A   1      40.498  19.711  25.867  1.00  0.00     0.251 C 
ATOM     27  H   UNL A   1      38.724  18.924  25.337  1.00  0.00     0.163 HD
ATOM     28  O   UNL A   1      41.143  18.699  25.672  1.00  0.00    -0.269 OA
BRANCH  26  29
ATOM     29  C   UNL A   1      41.111  20.889  26.506  1.00  0.00     0.039 A 
ATOM     30  C   UNL A   1      41.759  21.865  25.751  1.00  0.00     0.014 A 
ATOM     31  C   UNL A   1      40.979  21.024  27.884  1.00  0.00     0.014 A 
ATOM     32  C   UNL A   1      42.202  23.015  26.396  1.00  0.00     0.010 A 
ATOM     33  C   UNL A   1      41.280  22.210  28.495  1.00  0.00     0.010 A 
ATOM     34  C   UNL A   1      41.940  23.185  27.766  1.00  0.00    -0.014 A 
BRANCH  34  35
ATOM     35  C   UNL A   1      42.241  24.438  28.440  1.00  0.00     0.031 A 
ATOM     36  C   UNL A   1      41.244  25.512  28.200  1.00  0.00     0.074 A 
ATOM     37  C   UNL A   1      43.209  24.559  29.371  1.00  0.00     0.049 A 
ATOM     38  N   UNL A   1      41.397  26.551  27.451  1.00  0.00    -0.248 NA
ATOM     39  C   UNL A   1      39.873  25.339  28.707  1.00  0.00     0.031 C 
ATOM     40  C   UNL A   1      44.060  23.513  29.955  1.00  0.00     0.029 A 
ATOM     41  N   UNL A   1      43.561  25.657  30.087  1.00  0.00    -0.354 N 
ATOM     42  C   UNL A   1      40.227  27.289  27.578  1.00  0.00     0.074 A 
ATOM     43  C   UNL A   1      39.263  26.410  28.191  1.00  0.00     0.031 C 
ATOM     44  C   UNL A   1      44.636  23.980  31.088  1.00  0.00     0.029 A 
ATOM     45  C   UNL A   1      44.341  25.396  31.207  1.00  0.00     0.049 A 
ATOM     46  H   UNL A   1      43.285  26.567  29.832  1.00  0.00     0.167 HD
ATOM     47  C   UNL A   1      40.221  28.639  27.394  1.00  0.00     0.031 A 
ATOM     48  C   UNL A   1      44.684  26.283  32.176  1.00  0.00     0.031 A 
ATOM     49  C   UNL A   1      41.466  29.101  26.832  1.00  0.00     0.049 A 
ATOM     50  C   UNL A   1      44.539  27.637  31.585  1.00  0.00     0.074 A 
ATOM     51  C   UNL A   1      42.161  28.842  25.667  1.00  0.00     0.029 A 
ATOM     52  N   UNL A   1      42.382  29.630  27.714  1.00  0.00    -0.354 N 
ATOM     53  N   UNL A   1      45.282  28.069  30.605  1.00  0.00    -0.248 NA
ATOM     54  C   UNL A   1      43.267  28.326  31.750  1.00  0.00     0.031 C 
ATOM     55  C   UNL A   1      43.528  28.767  26.068  1.00  0.00     0.029 A 
ATOM     56  C   UNL A   1      43.603  29.072  27.429  1.00  0.00     0.049 A 
ATOM     57  H   UNL A   1      42.195  30.289  28.421  1.00  0.00     0.167 HD
ATOM     58  C   UNL A   1      44.406  28.743  29.766  1.00  0.00     0.074 A 
ATOM     59  C   UNL A   1      43.202  28.953  30.571  1.00  0.00     0.031 C 
ATOM     60  C   UNL A   1      44.628  28.813  28.419  1.00  0.00     0.031 A 
BRANCH  47  61
ATOM     61  C   UNL A   1      39.270  29.584  28.080  1.00  0.00    -0.014 A 
ATOM     62  C   UNL A   1      39.632  30.115  29.335  1.00  0.00     0.010 A 
ATOM     63  C   UNL A   1      37.934  29.759  27.669  1.00  0.00     0.010 A 
ATOM     64  C   UNL A   1      38.688  30.738  30.159  1.00  0.00     0.020 A 
ATOM     65  C   UNL A   1      36.994  30.417  28.465  1.00  0.00     0.020 A 
ATOM     66  C   UNL A   1      37.371  30.876  29.720  1.00  0.00     0.054 A 
BRANCH  66  67
ATOM     67  S   UNL A   1      36.144  31.611  30.828  1.00  0.00     0.124 S 
ATOM     68  O   UNL A   1      35.055  31.921  29.907  1.00  0.00    -0.237 OA
ATOM     69  O   UNL A   1      35.890  30.524  31.769  1.00  0.00    -0.237 OA
ATOM     70  O   UNL A   1      36.839  32.766  31.390  1.00  0.00    -0.744 OA
ENDBRANCH  66  67
ENDBRANCH  47  61
BRANCH  48  71
ATOM     71  C   UNL A   1      44.767  26.050  33.641  1.00  0.00    -0.014 A 
ATOM     72  C   UNL A   1      44.285  24.853  34.207  1.00  0.00     0.010 A 
ATOM     73  C   UNL A   1      45.601  26.859  34.439  1.00  0.00     0.010 A 
ATOM     74  C   UNL A   1      44.698  24.438  35.484  1.00  0.00     0.020 A 
ATOM     75  C   UNL A   1      46.010  26.456  35.716  1.00  0.00     0.020 A 
ATOM     76  C   UNL A   1      45.583  25.229  36.220  1.00  0.00     0.054 A 
BRANCH  76  77
ATOM     77  S   UNL A   1      46.294  24.584  37.765  1.00  0.00     0.124 S 
ATOM     78  O   UNL A   1      47.655  24.245  37.363  1.00  0.00    -0.237 OA
ATOM     79  O   UNL A   1      46.165  25.721  38.672  1.00  0.00    -0.237 OA
ATOM     80  O   UNL A   1      45.439  23.442  38.085  1.00  0.00    -0.744 OA
ENDBRANCH  76  77
ENDBRANCH  48  71
BRANCH  60  81
ATOM     81  C   UNL A   1      45.985  28.398  27.891  1.00  0.00    -0.014 A 
ATOM     82  C   UNL A   1      47.080  29.271  27.730  1.00  0.00     0.010 A 
ATOM     83  C   UNL A   1      46.190  27.026  27.666  1.00  0.00     0.010 A 
ATOM     84  C   UNL A   1      48.330  28.786  27.309  1.00  0.00     0.020 A 
ATOM     85  C   UNL A   1      47.435  26.533  27.269  1.00  0.00     0.020 A 
ATOM     86  C   UNL A   1      48.496  27.418  27.075  1.00  0.00     0.054 A 
BRANCH  86  87
ATOM     87  S   UNL A   1      50.108  26.789  26.529  1.00  0.00     0.124 S 
ATOM     88  O   UNL A   1      51.044  27.636  27.263  1.00  0.00    -0.237 OA
ATOM     89  O   UNL A   1      50.068  25.388  26.942  1.00  0.00    -0.237 OA
ATOM     90  O   UNL A   1      50.092  26.999  25.081  1.00  0.00    -0.744 OA
ENDBRANCH  86  87
ENDBRANCH  60  81
ENDBRANCH  34  35
ENDBRANCH  26  29
ENDBRANCH  24  25
ENDBRANCH  23  24
ENDBRANCH   1  23
TORSDOF 20
ENDMDL
MODEL 3
REMARK VINA RESULT:     -10.4      3.173      7.851
REMARK SMILES CCCc1nnc(SCC(=O)NCCCCNC(=O)c2ccc(-c3c4nc(c(-c5ccc(S(=O)(=O)[O-])cc5)c5ccc([nH]5)c(-c5ccc(S(=O)(=O)[O-])cc5)c5nc(c(-c6ccc(S(=O)(=O)[O-])cc6)c6ccc3[nH]6)C=C5)C=C4)cc2)n1C[C@H]1CCCO1
REMARK SMILES IDX 14 1 13 2 12 3 10 4 11 5 9 7 8 8 7 9 4 10 5 11 80 12 6 13
REMARK SMILES IDX 3 14 2 15 1 16 81 17 82 18 83 19 86 20 84 21 85 22 15 23
REMARK SMILES IDX 16 24 17 25 18 26 19 28 20 29 21 30 79 31 22 32 78 33 23 34
REMARK SMILES IDX 24 35 25 36 72 37 26 38 77 39 71 40 73 41 27 42 76 43 70 44
REMARK SMILES IDX 69 45 28 47 58 48 39 49 57 50 40 51 43 52 56 53 74 54 41 55
REMARK SMILES IDX 42 56 55 58 75 59 44 60 29 61 30 62 38 63 31 64 37 65 32 66
REMARK SMILES IDX 33 67 34 68 35 69 36 70 59 71 60 72 68 73 61 74 67 75 62 76
REMARK SMILES IDX 63 77 64 78 65 79 66 80 45 81 46 82 54 83 47 84 53 85 48 86
REMARK SMILES IDX 49 87 50 88 51 89 52 90
REMARK H PARENT 12 6 17 27 73 46 43 57
REMARK Flexibility Score: inf
ROOT
ATOM      1  C   UNL A   1      36.222  21.435  24.661  1.00  0.00     0.023 C 
ENDROOT
BRANCH   1   2
ATOM      2  C   UNL A   1      34.751  21.227  24.995  1.00  0.00     0.116 C 
BRANCH   2   3
ATOM      3  N   UNL A   1      33.891  21.826  24.011  1.00  0.00    -0.355 N 
ATOM      4  C   UNL A   1      32.535  21.846  24.027  1.00  0.00     0.230 C 
ATOM      5  O   UNL A   1      31.967  22.291  23.031  1.00  0.00    -0.274 OA
ATOM      6  H   UNL A   1      34.330  22.268  23.248  1.00  0.00     0.163 HD
BRANCH   4   7
ATOM      7  C   UNL A   1      31.797  21.446  25.286  1.00  0.00     0.178 C 
BRANCH   7   8
ATOM      8  S   UNL A   1      31.055  22.731  26.263  1.00  0.00    -0.076 SA
BRANCH   8   9
ATOM      9  C   UNL A   1      31.823  24.256  26.011  1.00  0.00     0.191 A 
ATOM     10  C   UNL A   1      32.374  26.360  26.167  1.00  0.00     0.133 A 
ATOM     11  N   UNL A   1      33.487  25.654  26.136  1.00  0.00    -0.134 NA
ATOM     12  N   UNL A   1      31.315  25.520  25.840  1.00  0.00    -0.303 N 
ATOM     13  N   UNL A   1      33.138  24.336  26.050  1.00  0.00    -0.123 NA
BRANCH  10  14
ATOM     14  C   UNL A   1      32.287  27.738  26.747  1.00  0.00     0.077 C 
BRANCH  14  15
ATOM     15  C   UNL A   1      32.804  28.881  25.880  1.00  0.00     0.005 C 
ATOM     16  C   UNL A   1      31.830  30.038  25.724  1.00  0.00     0.004 C 
ENDBRANCH  14  15
ENDBRANCH  10  14
BRANCH  12  17
ATOM     17  C   UNL A   1      29.974  25.955  25.547  1.00  0.00     0.158 C 
BRANCH  17  18
ATOM     18  C   UNL A   1      29.604  26.236  24.073  1.00  0.00     0.138 C 
ATOM     19  C   UNL A   1      29.903  27.586  23.434  1.00  0.00     0.036 C 
ATOM     20  O   UNL A   1      30.329  25.288  23.264  1.00  0.00    -0.376 OA
ATOM     21  C   UNL A   1      31.254  27.432  22.764  1.00  0.00     0.031 C 
ATOM     22  C   UNL A   1      31.405  25.941  22.575  1.00  0.00     0.160 C 
ENDBRANCH  17  18
ENDBRANCH  12  17
ENDBRANCH   8   9
ENDBRANCH   7   8
ENDBRANCH   4   7
ENDBRANCH   2   3
ENDBRANCH   1   2
BRANCH   1  23
ATOM     23  C   UNL A   1      37.179  20.335  25.130  1.00  0.00     0.023 C 
BRANCH  23  24
ATOM     24  C   UNL A   1      38.621  20.786  25.296  1.00  0.00     0.116 C 
BRANCH  24  25
ATOM     25  N   UNL A   1      39.528  19.656  25.474  1.00  0.00    -0.352 N 
ATOM     26  C   UNL A   1      40.856  19.663  25.853  1.00  0.00     0.251 C 
ATOM     27  H   UNL A   1      39.140  18.769  25.301  1.00  0.00     0.163 HD
ATOM     28  O   UNL A   1      41.562  18.689  25.679  1.00  0.00    -0.269 OA
BRANCH  26  29
ATOM     29  C   UNL A   1      41.387  20.881  26.489  1.00  0.00     0.039 A 
ATOM     30  C   UNL A   1      42.045  21.857  25.744  1.00  0.00     0.014 A 
ATOM     31  C   UNL A   1      41.167  21.051  27.852  1.00  0.00     0.014 A 
ATOM     32  C   UNL A   1      42.409  23.041  26.378  1.00  0.00     0.010 A 
ATOM     33  C   UNL A   1      41.389  22.265  28.443  1.00  0.00     0.010 A 
ATOM     34  C   UNL A   1      42.058  23.242  27.724  1.00  0.00    -0.014 A 
BRANCH  34  35
ATOM     35  C   UNL A   1      42.273  24.524  28.375  1.00  0.00     0.031 A 
ATOM     36  C   UNL A   1      41.182  25.506  28.158  1.00  0.00     0.074 A 
ATOM     37  C   UNL A   1      43.259  24.739  29.270  1.00  0.00     0.049 A 
ATOM     38  N   UNL A   1      41.220  26.545  27.394  1.00  0.00    -0.248 NA
ATOM     39  C   UNL A   1      39.848  25.225  28.714  1.00  0.00     0.031 C 
ATOM     40  C   UNL A   1      44.214  23.776  29.835  1.00  0.00     0.029 A 
ATOM     41  N   UNL A   1      43.540  25.872  29.963  1.00  0.00    -0.354 N 
ATOM     42  C   UNL A   1      39.996  27.183  27.554  1.00  0.00     0.074 A 
ATOM     43  C   UNL A   1      39.132  26.233  28.209  1.00  0.00     0.031 C 
ATOM     44  C   UNL A   1      44.786  24.304  30.942  1.00  0.00     0.029 A 
ATOM     45  C   UNL A   1      44.376  25.692  31.057  1.00  0.00     0.049 A 
ATOM     46  H   UNL A   1      43.179  26.752  29.709  1.00  0.00     0.167 HD
ATOM     47  C   UNL A   1      39.870  28.525  27.357  1.00  0.00     0.031 A 
ATOM     48  C   UNL A   1      44.674  26.617  32.006  1.00  0.00     0.031 A 
ATOM     49  C   UNL A   1      41.052  29.083  26.749  1.00  0.00     0.049 A 
ATOM     50  C   UNL A   1      44.395  27.946  31.407  1.00  0.00     0.074 A 
ATOM     51  C   UNL A   1      41.726  28.870  25.563  1.00  0.00     0.029 A 
ATOM     52  N   UNL A   1      41.948  29.699  27.592  1.00  0.00    -0.354 N 
ATOM     53  N   UNL A   1      45.065  28.427  30.397  1.00  0.00    -0.248 NA
ATOM     54  C   UNL A   1      43.076  28.526  31.608  1.00  0.00     0.031 C 
ATOM     55  C   UNL A   1      43.108  28.916  25.917  1.00  0.00     0.029 A 
ATOM     56  C   UNL A   1      43.202  29.243  27.271  1.00  0.00     0.049 A 
ATOM     57  H   UNL A   1      41.729  30.349  28.299  1.00  0.00     0.167 HD
ATOM     58  C   UNL A   1      44.108  29.013  29.582  1.00  0.00     0.074 A 
ATOM     59  C   UNL A   1      42.918  29.131  30.426  1.00  0.00     0.031 C 
ATOM     60  C   UNL A   1      44.278  29.085  28.228  1.00  0.00     0.031 A 
BRANCH  47  61
ATOM     61  C   UNL A   1      38.866  29.395  28.066  1.00  0.00    -0.014 A 
ATOM     62  C   UNL A   1      37.610  29.611  27.461  1.00  0.00     0.010 A 
ATOM     63  C   UNL A   1      39.202  30.218  29.160  1.00  0.00     0.010 A 
ATOM     64  C   UNL A   1      36.762  30.636  27.895  1.00  0.00     0.020 A 
ATOM     65  C   UNL A   1      38.344  31.215  29.628  1.00  0.00     0.020 A 
ATOM     66  C   UNL A   1      37.140  31.437  28.972  1.00  0.00     0.054 A 
BRANCH  66  67
ATOM     67  S   UNL A   1      36.070  32.809  29.470  1.00  0.00     0.124 S 
ATOM     68  O   UNL A   1      35.156  32.154  30.401  1.00  0.00    -0.237 OA
ATOM     69  O   UNL A   1      37.023  33.741  30.066  1.00  0.00    -0.237 OA
ATOM     70  O   UNL A   1      35.474  33.251  28.213  1.00  0.00    -0.744 OA
ENDBRANCH  66  67
ENDBRANCH  47  61
BRANCH  48  71
ATOM     71  C   UNL A   1      44.827  26.410  33.469  1.00  0.00    -0.014 A 
ATOM     72  C   UNL A   1      45.069  27.501  34.327  1.00  0.00     0.010 A 
ATOM     73  C   UNL A   1      44.421  25.195  34.057  1.00  0.00     0.010 A 
ATOM     74  C   UNL A   1      44.825  27.406  35.708  1.00  0.00     0.020 A 
ATOM     75  C   UNL A   1      44.184  25.090  35.434  1.00  0.00     0.020 A 
ATOM     76  C   UNL A   1      44.354  26.207  36.249  1.00  0.00     0.054 A 
BRANCH  76  77
ATOM     77  S   UNL A   1      43.820  26.154  37.987  1.00  0.00     0.124 S 
ATOM     78  O   UNL A   1      42.372  26.301  37.872  1.00  0.00    -0.237 OA
ATOM     79  O   UNL A   1      44.291  24.842  38.423  1.00  0.00    -0.237 OA
ATOM     80  O   UNL A   1      44.512  27.290  38.593  1.00  0.00    -0.744 OA
ENDBRANCH  76  77
ENDBRANCH  48  71
BRANCH  60  81
ATOM     81  C   UNL A   1      45.647  28.779  27.658  1.00  0.00    -0.014 A 
ATOM     82  C   UNL A   1      45.997  27.565  27.031  1.00  0.00     0.010 A 
ATOM     83  C   UNL A   1      46.584  29.827  27.649  1.00  0.00     0.010 A 
ATOM     84  C   UNL A   1      47.268  27.395  26.456  1.00  0.00     0.020 A 
ATOM     85  C   UNL A   1      47.841  29.671  27.061  1.00  0.00     0.020 A 
ATOM     86  C   UNL A   1      48.185  28.450  26.482  1.00  0.00     0.054 A 
BRANCH  86  87
ATOM     87  S   UNL A   1      49.827  28.231  25.742  1.00  0.00     0.124 S 
ATOM     88  O   UNL A   1      49.509  27.805  24.383  1.00  0.00    -0.237 OA
ATOM     89  O   UNL A   1      50.419  29.562  25.864  1.00  0.00    -0.237 OA
ATOM     90  O   UNL A   1      50.452  27.207  26.580  1.00  0.00    -0.744 OA
ENDBRANCH  86  87
ENDBRANCH  60  81
ENDBRANCH  34  35
ENDBRANCH  26  29
ENDBRANCH  24  25
ENDBRANCH  23  24
ENDBRANCH   1  23
TORSDOF 20
ENDMDL
