MODEL 1
REMARK VINA RESULT:     -10.5      0.000      0.000
REMARK SMILES Cc1cc(Br)cc([N+](=O)[O-])c1OCCC[C@@](C)([NH3+])C(=O)NCCCCNC(=O)c1ccc(-c2c3nc(c(-c4ccc(S(=O)(=O)[O-])cc4)c4ccc([nH]4)c(-c4ccc(S(=O)(=O)[O-])cc4)c4nc(c(-c5ccc(S(=O)(=O)[O-])cc5)c5ccc2[nH]5)C=C4)C=C3)cc1
REMARK SMILES IDX 22 1 21 2 19 3 20 4 16 6 17 7 15 8 14 9 13 10 12 11 11 12
REMARK SMILES IDX 1 13 2 14 3 15 4 16 7 17 5 18 6 19 8 20 9 21 10 22 18 23
REMARK SMILES IDX 23 27 24 28 25 29 26 30 27 31 28 33 29 34 30 35 88 36 31 37
REMARK SMILES IDX 87 38 32 39 33 40 34 41 81 42 35 43 86 44 80 45 82 46 36 47
REMARK SMILES IDX 85 48 79 49 78 50 37 52 67 53 48 54 66 55 49 56 52 57 65 58
REMARK SMILES IDX 83 59 50 60 51 61 64 63 84 64 53 65 38 66 39 67 47 68 40 69
REMARK SMILES IDX 46 70 41 71 42 72 43 73 44 74 45 75 68 76 69 77 77 78 70 79
REMARK SMILES IDX 76 80 71 81 72 82 73 83 74 84 75 85 54 86 55 87 63 88 56 89
REMARK SMILES IDX 62 90 57 91 58 92 59 93 60 94 61 95
REMARK H PARENT 21 5 18 24 18 25 18 26 26 32 82 51 52 62
REMARK Flexibility Score: inf
ROOT
ATOM      1  C   UNL A   1      32.356  29.355  26.046  1.00  0.00     0.116 C 
ENDROOT
BRANCH   1   2
ATOM      2  N   UNL A   1      31.478  30.148  25.208  1.00  0.00    -0.351 N 
ATOM      3  C   UNL A   1      30.540  29.823  24.279  1.00  0.00     0.280 C 
ATOM      4  O   UNL A   1      29.721  30.720  24.046  1.00  0.00    -0.268 OA
ATOM      5  H   UNL A   1      31.581  31.118  25.339  1.00  0.00     0.163 HD
BRANCH   3   6
ATOM      6  C   UNL A   1      30.428  28.439  23.564  1.00  0.00     0.171 C 
ATOM      7  C   UNL A   1      30.514  28.734  22.060  1.00  0.00     0.090 C 
BRANCH   6   8
ATOM      8  C   UNL A   1      31.521  27.392  23.993  1.00  0.00     0.082 C 
BRANCH   8   9
ATOM      9  C   UNL A   1      32.168  26.448  22.956  1.00  0.00     0.049 C 
BRANCH   9  10
ATOM     10  C   UNL A   1      31.383  25.167  22.562  1.00  0.00     0.230 C 
BRANCH  10  11
ATOM     11  O   UNL A   1      31.062  24.394  23.733  1.00  0.00    -0.487 OA
BRANCH  11  12
ATOM     12  C   UNL A   1      32.104  23.790  24.409  1.00  0.00     0.200 A 
ATOM     13  C   UNL A   1      32.607  22.234  22.452  1.00  0.00     0.049 C 
ATOM     14  C   UNL A   1      32.982  22.952  23.697  1.00  0.00    -0.001 A 
ATOM     15  C   UNL A   1      34.308  22.775  24.126  1.00  0.00     0.023 A 
ATOM     16  C   UNL A   1      34.752  23.355  25.302  1.00  0.00     0.025 A 
ATOM     17  C   UNL A   1      32.542  24.277  25.654  1.00  0.00     0.312 A 
ATOM     18  Br  UNL A   1      36.564  23.170  25.795  1.00  0.00    -0.051 Br
ATOM     19  C   UNL A   1      33.864  24.059  26.101  1.00  0.00     0.105 A 
BRANCH  17  20
ATOM     20  N   UNL A   1      31.637  24.974  26.567  1.00  0.00     0.066 N 
ATOM     21  O   UNL A   1      30.505  24.492  26.724  1.00  0.00    -0.258 OA
ATOM     22  O   UNL A   1      32.016  26.037  27.073  1.00  0.00    -0.258 OA
ENDBRANCH  17  20
ENDBRANCH  11  12
ENDBRANCH  10  11
ENDBRANCH   9  10
ENDBRANCH   8   9
ENDBRANCH   6   8
BRANCH   6  23
ATOM     23  N   UNL A   1      29.106  27.786  23.750  1.00  0.00    -0.345 N 
ATOM     24  H   UNL A   1      28.398  28.497  23.931  1.00  0.00     0.345 HD
ATOM     25  H   UNL A   1      29.152  27.143  24.540  1.00  0.00     0.345 HD
ATOM     26  H   UNL A   1      28.861  27.269  22.906  1.00  0.00     0.345 HD
ENDBRANCH   6  23
ENDBRANCH   3   6
ENDBRANCH   1   2
BRANCH   1  27
ATOM     27  C   UNL A   1      33.242  30.225  26.942  1.00  0.00     0.023 C 
BRANCH  27  28
ATOM     28  C   UNL A   1      34.605  29.626  27.313  1.00  0.00     0.023 C 
BRANCH  28  29
ATOM     29  C   UNL A   1      35.533  30.534  28.114  1.00  0.00     0.116 C 
BRANCH  29  30
ATOM     30  N   UNL A   1      35.510  30.261  29.540  1.00  0.00    -0.352 N 
ATOM     31  C   UNL A   1      36.514  29.821  30.363  1.00  0.00     0.251 C 
ATOM     32  H   UNL A   1      34.644  30.415  29.982  1.00  0.00     0.163 HD
ATOM     33  O   UNL A   1      36.261  29.574  31.541  1.00  0.00    -0.269 OA
BRANCH  31  34
ATOM     34  C   UNL A   1      37.879  29.601  29.836  1.00  0.00     0.039 A 
ATOM     35  C   UNL A   1      38.912  29.382  30.750  1.00  0.00     0.014 A 
ATOM     36  C   UNL A   1      38.150  29.615  28.465  1.00  0.00     0.014 A 
ATOM     37  C   UNL A   1      40.203  29.128  30.288  1.00  0.00     0.010 A 
ATOM     38  C   UNL A   1      39.422  29.283  28.003  1.00  0.00     0.010 A 
ATOM     39  C   UNL A   1      40.465  29.045  28.910  1.00  0.00    -0.014 A 
BRANCH  39  40
ATOM     40  C   UNL A   1      41.827  28.702  28.423  1.00  0.00     0.031 A 
ATOM     41  C   UNL A   1      42.901  29.754  28.352  1.00  0.00     0.074 A 
ATOM     42  C   UNL A   1      42.088  27.440  28.028  1.00  0.00     0.049 A 
ATOM     43  N   UNL A   1      44.157  29.623  28.003  1.00  0.00    -0.248 NA
ATOM     44  C   UNL A   1      42.516  31.132  28.695  1.00  0.00     0.031 C 
ATOM     45  C   UNL A   1      41.115  26.345  27.996  1.00  0.00     0.029 A 
ATOM     46  N   UNL A   1      43.251  26.861  27.588  1.00  0.00    -0.354 N 
ATOM     47  C   UNL A   1      44.706  30.899  28.078  1.00  0.00     0.074 A 
ATOM     48  C   UNL A   1      43.635  31.798  28.447  1.00  0.00     0.031 C 
ATOM     49  C   UNL A   1      41.732  25.219  27.607  1.00  0.00     0.029 A 
ATOM     50  C   UNL A   1      43.133  25.515  27.328  1.00  0.00     0.049 A 
ATOM     51  H   UNL A   1      44.091  27.361  27.471  1.00  0.00     0.167 HD
ATOM     52  C   UNL A   1      45.989  31.284  27.882  1.00  0.00     0.031 A 
ATOM     53  C   UNL A   1      44.051  24.618  26.920  1.00  0.00     0.031 A 
ATOM     54  C   UNL A   1      47.053  30.385  27.517  1.00  0.00     0.049 A 
ATOM     55  C   UNL A   1      45.472  25.067  26.718  1.00  0.00     0.074 A 
ATOM     56  C   UNL A   1      48.397  30.666  27.345  1.00  0.00     0.029 A 
ATOM     57  N   UNL A   1      46.893  29.030  27.265  1.00  0.00    -0.354 N 
ATOM     58  N   UNL A   1      45.987  26.265  26.869  1.00  0.00    -0.248 NA
ATOM     59  C   UNL A   1      46.439  24.039  26.314  1.00  0.00     0.031 C 
ATOM     60  C   UNL A   1      49.041  29.493  26.936  1.00  0.00     0.029 A 
ATOM     61  C   UNL A   1      48.110  28.466  26.920  1.00  0.00     0.049 A 
ATOM     62  H   UNL A   1      46.040  28.542  27.325  1.00  0.00     0.167 HD
ATOM     63  C   UNL A   1      47.346  26.127  26.607  1.00  0.00     0.074 A 
ATOM     64  C   UNL A   1      47.573  24.728  26.308  1.00  0.00     0.031 C 
ATOM     65  C   UNL A   1      48.319  27.073  26.616  1.00  0.00     0.031 A 
BRANCH  52  66
ATOM     66  C   UNL A   1      46.313  32.746  28.056  1.00  0.00    -0.014 A 
ATOM     67  C   UNL A   1      46.708  33.260  29.306  1.00  0.00     0.010 A 
ATOM     68  C   UNL A   1      46.259  33.614  26.950  1.00  0.00     0.010 A 
ATOM     69  C   UNL A   1      47.000  34.619  29.455  1.00  0.00     0.020 A 
ATOM     70  C   UNL A   1      46.582  34.968  27.088  1.00  0.00     0.020 A 
ATOM     71  C   UNL A   1      46.933  35.464  28.345  1.00  0.00     0.054 A 
BRANCH  71  72
ATOM     72  S   UNL A   1      47.341  37.218  28.564  1.00  0.00     0.124 S 
ATOM     73  O   UNL A   1      48.802  37.194  28.532  1.00  0.00    -0.237 OA
ATOM     74  O   UNL A   1      46.698  37.844  27.411  1.00  0.00    -0.237 OA
ATOM     75  O   UNL A   1      46.752  37.553  29.859  1.00  0.00    -0.744 OA
ENDBRANCH  71  72
ENDBRANCH  52  66
BRANCH  53  76
ATOM     76  C   UNL A   1      43.659  23.196  26.710  1.00  0.00    -0.014 A 
ATOM     77  C   UNL A   1      42.991  22.480  27.719  1.00  0.00     0.010 A 
ATOM     78  C   UNL A   1      43.943  22.553  25.492  1.00  0.00     0.010 A 
ATOM     79  C   UNL A   1      42.633  21.143  27.522  1.00  0.00     0.020 A 
ATOM     80  C   UNL A   1      43.559  21.227  25.279  1.00  0.00     0.020 A 
ATOM     81  C   UNL A   1      42.917  20.525  26.302  1.00  0.00     0.054 A 
BRANCH  81  82
ATOM     82  S   UNL A   1      42.399  18.805  26.049  1.00  0.00     0.124 S 
ATOM     83  O   UNL A   1      43.299  18.369  24.986  1.00  0.00    -0.237 OA
ATOM     84  O   UNL A   1      42.633  18.210  27.362  1.00  0.00    -0.237 OA
ATOM     85  O   UNL A   1      40.993  18.925  25.670  1.00  0.00    -0.744 OA
ENDBRANCH  81  82
ENDBRANCH  53  76
BRANCH  65  86
ATOM     86  C   UNL A   1      49.727  26.614  26.333  1.00  0.00    -0.014 A 
ATOM     87  C   UNL A   1      50.332  26.829  25.083  1.00  0.00     0.010 A 
ATOM     88  C   UNL A   1      50.461  25.974  27.349  1.00  0.00     0.010 A 
ATOM     89  C   UNL A   1      51.628  26.364  24.836  1.00  0.00     0.020 A 
ATOM     90  C   UNL A   1      51.767  25.539  27.117  1.00  0.00     0.020 A 
ATOM     91  C   UNL A   1      52.335  25.716  25.854  1.00  0.00     0.054 A 
BRANCH  91  92
ATOM     92  S   UNL A   1      54.016  25.130  25.514  1.00  0.00     0.124 S 
ATOM     93  O   UNL A   1      54.792  25.822  26.539  1.00  0.00    -0.237 OA
ATOM     94  O   UNL A   1      53.893  23.685  25.688  1.00  0.00    -0.237 OA
ATOM     95  O   UNL A   1      54.265  25.568  24.142  1.00  0.00    -0.744 OA
ENDBRANCH  91  92
ENDBRANCH  65  86
ENDBRANCH  39  40
ENDBRANCH  31  34
ENDBRANCH  29  30
ENDBRANCH  28  29
ENDBRANCH  27  28
ENDBRANCH   1  27
TORSDOF 21
ENDMDL
MODEL 2
REMARK VINA RESULT:      -9.9      5.995     10.397
REMARK SMILES Cc1cc(Br)cc([N+](=O)[O-])c1OCCC[C@@](C)([NH3+])C(=O)NCCCCNC(=O)c1ccc(-c2c3nc(c(-c4ccc(S(=O)(=O)[O-])cc4)c4ccc([nH]4)c(-c4ccc(S(=O)(=O)[O-])cc4)c4nc(c(-c5ccc(S(=O)(=O)[O-])cc5)c5ccc2[nH]5)C=C4)C=C3)cc1
REMARK SMILES IDX 22 1 21 2 19 3 20 4 16 6 17 7 15 8 14 9 13 10 12 11 11 12
REMARK SMILES IDX 1 13 2 14 3 15 4 16 7 17 5 18 6 19 8 20 9 21 10 22 18 23
REMARK SMILES IDX 23 27 24 28 25 29 26 30 27 31 28 33 29 34 30 35 88 36 31 37
REMARK SMILES IDX 87 38 32 39 33 40 34 41 81 42 35 43 86 44 80 45 82 46 36 47
REMARK SMILES IDX 85 48 79 49 78 50 37 52 67 53 48 54 66 55 49 56 52 57 65 58
REMARK SMILES IDX 83 59 50 60 51 61 64 63 84 64 53 65 38 66 39 67 47 68 40 69
REMARK SMILES IDX 46 70 41 71 42 72 43 73 44 74 45 75 68 76 69 77 77 78 70 79
REMARK SMILES IDX 76 80 71 81 72 82 73 83 74 84 75 85 54 86 55 87 63 88 56 89
REMARK SMILES IDX 62 90 57 91 58 92 59 93 60 94 61 95
REMARK H PARENT 21 5 18 24 18 25 18 26 26 32 82 51 52 62
REMARK Flexibility Score: inf
ROOT
ATOM      1  C   UNL A   1      31.639  29.109  25.436  1.00  0.00     0.116 C 
ENDROOT
BRANCH   1   2
ATOM      2  N   UNL A   1      31.082  28.806  24.131  1.00  0.00    -0.351 N 
ATOM      3  C   UNL A   1      30.490  27.699  23.610  1.00  0.00     0.280 C 
ATOM      4  O   UNL A   1      29.796  27.916  22.608  1.00  0.00    -0.268 OA
ATOM      5  H   UNL A   1      31.146  29.554  23.494  1.00  0.00     0.163 HD
BRANCH   3   6
ATOM      6  C   UNL A   1      30.602  26.259  24.203  1.00  0.00     0.171 C 
ATOM      7  C   UNL A   1      30.275  25.301  23.048  1.00  0.00     0.090 C 
BRANCH   6   8
ATOM      8  C   UNL A   1      32.003  25.919  24.832  1.00  0.00     0.082 C 
BRANCH   8   9
ATOM      9  C   UNL A   1      32.597  24.497  24.729  1.00  0.00     0.049 C 
BRANCH   9  10
ATOM     10  C   UNL A   1      31.949  23.382  25.594  1.00  0.00     0.230 C 
BRANCH  10  11
ATOM     11  O   UNL A   1      32.958  22.667  26.331  1.00  0.00    -0.487 OA
BRANCH  11  12
ATOM     12  C   UNL A   1      34.011  22.129  25.619  1.00  0.00     0.200 A 
ATOM     13  C   UNL A   1      35.572  24.031  26.291  1.00  0.00     0.049 C 
ATOM     14  C   UNL A   1      35.304  22.649  25.818  1.00  0.00    -0.001 A 
ATOM     15  C   UNL A   1      36.438  21.848  25.604  1.00  0.00     0.023 A 
ATOM     16  C   UNL A   1      36.310  20.561  25.113  1.00  0.00     0.025 A 
ATOM     17  C   UNL A   1      33.910  20.862  25.017  1.00  0.00     0.312 A 
ATOM     18  Br  UNL A   1      37.850  19.486  24.926  1.00  0.00    -0.051 Br
ATOM     19  C   UNL A   1      35.058  20.078  24.763  1.00  0.00     0.105 A 
BRANCH  17  20
ATOM     20  N   UNL A   1      32.626  20.324  24.571  1.00  0.00     0.066 N 
ATOM     21  O   UNL A   1      32.041  19.541  25.335  1.00  0.00    -0.258 OA
ATOM     22  O   UNL A   1      32.227  20.615  23.436  1.00  0.00    -0.258 OA
ENDBRANCH  17  20
ENDBRANCH  11  12
ENDBRANCH  10  11
ENDBRANCH   9  10
ENDBRANCH   8   9
ENDBRANCH   6   8
BRANCH   6  23
ATOM     23  N   UNL A   1      29.579  25.968  25.240  1.00  0.00    -0.345 N 
ATOM     24  H   UNL A   1      28.739  26.516  25.053  1.00  0.00     0.345 HD
ATOM     25  H   UNL A   1      29.947  26.213  26.159  1.00  0.00     0.345 HD
ATOM     26  H   UNL A   1      29.347  24.975  25.221  1.00  0.00     0.345 HD
ENDBRANCH   6  23
ENDBRANCH   3   6
ENDBRANCH   1   2
BRANCH   1  27
ATOM     27  C   UNL A   1      31.546  30.599  25.772  1.00  0.00     0.023 C 
BRANCH  27  28
ATOM     28  C   UNL A   1      32.058  31.000  27.162  1.00  0.00     0.023 C 
BRANCH  28  29
ATOM     29  C   UNL A   1      33.219  31.990  27.181  1.00  0.00     0.116 C 
BRANCH  29  30
ATOM     30  N   UNL A   1      32.861  33.283  27.737  1.00  0.00    -0.352 N 
ATOM     31  C   UNL A   1      33.450  33.995  28.750  1.00  0.00     0.251 C 
ATOM     32  H   UNL A   1      32.077  33.713  27.324  1.00  0.00     0.163 HD
ATOM     33  O   UNL A   1      32.935  35.047  29.124  1.00  0.00    -0.269 OA
BRANCH  31  34
ATOM     34  C   UNL A   1      34.667  33.485  29.418  1.00  0.00     0.039 A 
ATOM     35  C   UNL A   1      35.898  34.039  29.059  1.00  0.00     0.014 A 
ATOM     36  C   UNL A   1      34.611  32.474  30.381  1.00  0.00     0.014 A 
ATOM     37  C   UNL A   1      37.062  33.615  29.699  1.00  0.00     0.010 A 
ATOM     38  C   UNL A   1      35.763  32.108  31.075  1.00  0.00     0.010 A 
ATOM     39  C   UNL A   1      37.002  32.668  30.735  1.00  0.00    -0.014 A 
BRANCH  39  40
ATOM     40  C   UNL A   1      38.236  32.272  31.463  1.00  0.00     0.031 A 
ATOM     41  C   UNL A   1      39.187  31.268  30.869  1.00  0.00     0.074 A 
ATOM     42  C   UNL A   1      38.488  32.809  32.674  1.00  0.00     0.049 A 
ATOM     43  N   UNL A   1      40.334  30.845  31.339  1.00  0.00    -0.248 NA
ATOM     44  C   UNL A   1      38.794  30.642  29.597  1.00  0.00     0.031 C 
ATOM     45  C   UNL A   1      37.615  33.750  33.381  1.00  0.00     0.029 A 
ATOM     46  N   UNL A   1      39.557  32.652  33.519  1.00  0.00    -0.354 N 
ATOM     47  C   UNL A   1      40.793  29.902  30.425  1.00  0.00     0.074 A 
ATOM     48  C   UNL A   1      39.775  29.771  29.408  1.00  0.00     0.031 C 
ATOM     49  C   UNL A   1      38.204  34.121  34.528  1.00  0.00     0.029 A 
ATOM     50  C   UNL A   1      39.478  33.422  34.657  1.00  0.00     0.049 A 
ATOM     51  H   UNL A   1      40.310  32.046  33.330  1.00  0.00     0.167 HD
ATOM     52  C   UNL A   1      41.966  29.225  30.421  1.00  0.00     0.031 A 
ATOM     53  C   UNL A   1      40.340  33.558  35.684  1.00  0.00     0.031 A 
ATOM     54  C   UNL A   1      42.978  29.361  31.436  1.00  0.00     0.049 A 
ATOM     55  C   UNL A   1      41.639  32.803  35.652  1.00  0.00     0.074 A 
ATOM     56  C   UNL A   1      44.223  28.758  31.497  1.00  0.00     0.029 A 
ATOM     57  N   UNL A   1      42.862  30.152  32.569  1.00  0.00    -0.354 N 
ATOM     58  N   UNL A   1      42.088  31.973  34.740  1.00  0.00    -0.248 NA
ATOM     59  C   UNL A   1      42.558  33.021  36.776  1.00  0.00     0.031 C 
ATOM     60  C   UNL A   1      44.837  29.143  32.694  1.00  0.00     0.029 A 
ATOM     61  C   UNL A   1      44.003  30.038  33.346  1.00  0.00     0.049 A 
ATOM     62  H   UNL A   1      42.083  30.713  32.789  1.00  0.00     0.167 HD
ATOM     63  C   UNL A   1      43.357  31.594  35.167  1.00  0.00     0.074 A 
ATOM     64  C   UNL A   1      43.607  32.300  36.406  1.00  0.00     0.031 C 
ATOM     65  C   UNL A   1      44.235  30.740  34.582  1.00  0.00     0.031 A 
BRANCH  52  66
ATOM     66  C   UNL A   1      42.216  28.271  29.281  1.00  0.00    -0.014 A 
ATOM     67  C   UNL A   1      42.885  28.690  28.115  1.00  0.00     0.010 A 
ATOM     68  C   UNL A   1      41.812  26.927  29.388  1.00  0.00     0.010 A 
ATOM     69  C   UNL A   1      43.106  27.797  27.063  1.00  0.00     0.020 A 
ATOM     70  C   UNL A   1      42.059  26.022  28.350  1.00  0.00     0.020 A 
ATOM     71  C   UNL A   1      42.689  26.469  27.187  1.00  0.00     0.054 A 
BRANCH  71  72
ATOM     72  S   UNL A   1      43.010  25.326  25.815  1.00  0.00     0.124 S 
ATOM     73  O   UNL A   1      44.469  25.361  25.730  1.00  0.00    -0.237 OA
ATOM     74  O   UNL A   1      42.439  24.073  26.301  1.00  0.00    -0.237 OA
ATOM     75  O   UNL A   1      42.306  25.933  24.686  1.00  0.00    -0.744 OA
ENDBRANCH  71  72
ENDBRANCH  52  66
BRANCH  53  76
ATOM     76  C   UNL A   1      40.012  34.475  36.812  1.00  0.00    -0.014 A 
ATOM     77  C   UNL A   1      40.356  35.837  36.752  1.00  0.00     0.010 A 
ATOM     78  C   UNL A   1      39.341  33.990  37.949  1.00  0.00     0.010 A 
ATOM     79  C   UNL A   1      40.055  36.692  37.816  1.00  0.00     0.020 A 
ATOM     80  C   UNL A   1      39.011  34.848  39.002  1.00  0.00     0.020 A 
ATOM     81  C   UNL A   1      39.382  36.192  38.934  1.00  0.00     0.054 A 
BRANCH  81  82
ATOM     82  S   UNL A   1      38.958  37.330  40.282  1.00  0.00     0.124 S 
ATOM     83  O   UNL A   1      40.272  37.685  40.805  1.00  0.00    -0.237 OA
ATOM     84  O   UNL A   1      38.245  38.395  39.582  1.00  0.00    -0.237 OA
ATOM     85  O   UNL A   1      38.129  36.515  41.168  1.00  0.00    -0.744 OA
ENDBRANCH  81  82
ENDBRANCH  53  76
BRANCH  65  86
ATOM     86  C   UNL A   1      45.569  30.556  35.261  1.00  0.00    -0.014 A 
ATOM     87  C   UNL A   1      46.616  31.477  35.087  1.00  0.00     0.010 A 
ATOM     88  C   UNL A   1      45.764  29.448  36.107  1.00  0.00     0.010 A 
ATOM     89  C   UNL A   1      47.853  31.265  35.703  1.00  0.00     0.020 A 
ATOM     90  C   UNL A   1      46.988  29.251  36.751  1.00  0.00     0.020 A 
ATOM     91  C   UNL A   1      48.032  30.149  36.527  1.00  0.00     0.054 A 
BRANCH  91  92
ATOM     92  S   UNL A   1      49.643  29.900  37.321  1.00  0.00     0.124 S 
ATOM     93  O   UNL A   1      49.376  28.761  38.195  1.00  0.00    -0.237 OA
ATOM     94  O   UNL A   1      50.522  29.628  36.187  1.00  0.00    -0.237 OA
ATOM     95  O   UNL A   1      49.892  31.167  38.006  1.00  0.00    -0.744 OA
ENDBRANCH  91  92
ENDBRANCH  65  86
ENDBRANCH  39  40
ENDBRANCH  31  34
ENDBRANCH  29  30
ENDBRANCH  28  29
ENDBRANCH  27  28
ENDBRANCH   1  27
TORSDOF 21
ENDMDL
MODEL 3
REMARK VINA RESULT:      -9.9      8.690     15.211
REMARK SMILES Cc1cc(Br)cc([N+](=O)[O-])c1OCCC[C@@](C)([NH3+])C(=O)NCCCCNC(=O)c1ccc(-c2c3nc(c(-c4ccc(S(=O)(=O)[O-])cc4)c4ccc([nH]4)c(-c4ccc(S(=O)(=O)[O-])cc4)c4nc(c(-c5ccc(S(=O)(=O)[O-])cc5)c5ccc2[nH]5)C=C4)C=C3)cc1
REMARK SMILES IDX 22 1 21 2 19 3 20 4 16 6 17 7 15 8 14 9 13 10 12 11 11 12
REMARK SMILES IDX 1 13 2 14 3 15 4 16 7 17 5 18 6 19 8 20 9 21 10 22 18 23
REMARK SMILES IDX 23 27 24 28 25 29 26 30 27 31 28 33 29 34 30 35 88 36 31 37
REMARK SMILES IDX 87 38 32 39 33 40 34 41 81 42 35 43 86 44 80 45 82 46 36 47
REMARK SMILES IDX 85 48 79 49 78 50 37 52 67 53 48 54 66 55 49 56 52 57 65 58
REMARK SMILES IDX 83 59 50 60 51 61 64 63 84 64 53 65 38 66 39 67 47 68 40 69
REMARK SMILES IDX 46 70 41 71 42 72 43 73 44 74 45 75 68 76 69 77 77 78 70 79
REMARK SMILES IDX 76 80 71 81 72 82 73 83 74 84 75 85 54 86 55 87 63 88 56 89
REMARK SMILES IDX 62 90 57 91 58 92 59 93 60 94 61 95
REMARK H PARENT 21 5 18 24 18 25 18 26 26 32 82 51 52 62
REMARK Flexibility Score: inf
ROOT
ATOM      1  C   UNL A   1      46.226  43.414  23.696  1.00  0.00     0.116 C 
ENDROOT
BRANCH   1   2
ATOM      2  N   UNL A   1      45.111  42.761  24.356  1.00  0.00    -0.351 N 
ATOM      3  C   UNL A   1      43.798  42.623  24.037  1.00  0.00     0.280 C 
ATOM      4  O   UNL A   1      43.227  41.691  24.618  1.00  0.00    -0.268 OA
ATOM      5  H   UNL A   1      45.356  42.331  25.206  1.00  0.00     0.163 HD
BRANCH   3   6
ATOM      6  C   UNL A   1      43.028  43.505  23.003  1.00  0.00     0.171 C 
ATOM      7  C   UNL A   1      43.423  44.957  23.311  1.00  0.00     0.090 C 
BRANCH   6   8
ATOM      8  C   UNL A   1      43.320  43.153  21.498  1.00  0.00     0.082 C 
BRANCH   8   9
ATOM      9  C   UNL A   1      42.167  42.901  20.502  1.00  0.00     0.049 C 
BRANCH   9  10
ATOM     10  C   UNL A   1      41.898  43.985  19.423  1.00  0.00     0.230 C 
BRANCH  10  11
ATOM     11  O   UNL A   1      42.983  44.035  18.480  1.00  0.00    -0.487 OA
BRANCH  11  12
ATOM     12  C   UNL A   1      43.458  45.279  18.115  1.00  0.00     0.200 A 
ATOM     13  C   UNL A   1      41.726  45.510  16.258  1.00  0.00     0.049 C 
ATOM     14  C   UNL A   1      42.695  46.069  17.235  1.00  0.00    -0.001 A 
ATOM     15  C   UNL A   1      42.791  47.470  17.265  1.00  0.00     0.023 A 
ATOM     16  C   UNL A   1      43.698  48.098  18.100  1.00  0.00     0.025 A 
ATOM     17  C   UNL A   1      44.449  45.930  18.872  1.00  0.00     0.312 A 
ATOM     18  Br  UNL A   1      43.732  49.982  18.177  1.00  0.00    -0.051 Br
ATOM     19  C   UNL A   1      44.570  47.337  18.865  1.00  0.00     0.105 A 
BRANCH  17  20
ATOM     20  N   UNL A   1      45.435  45.182  19.651  1.00  0.00     0.066 N 
ATOM     21  O   UNL A   1      45.717  45.616  20.779  1.00  0.00    -0.258 OA
ATOM     22  O   UNL A   1      45.987  44.208  19.123  1.00  0.00    -0.258 OA
ENDBRANCH  17  20
ENDBRANCH  11  12
ENDBRANCH  10  11
ENDBRANCH   9  10
ENDBRANCH   8   9
ENDBRANCH   6   8
BRANCH   6  23
ATOM     23  N   UNL A   1      41.553  43.467  23.179  1.00  0.00    -0.345 N 
ATOM     24  H   UNL A   1      41.290  42.605  23.657  1.00  0.00     0.345 HD
ATOM     25  H   UNL A   1      41.100  43.500  22.265  1.00  0.00     0.345 HD
ATOM     26  H   UNL A   1      41.255  44.268  23.735  1.00  0.00     0.345 HD
ENDBRANCH   6  23
ENDBRANCH   3   6
ENDBRANCH   1   2
BRANCH   1  27
ATOM     27  C   UNL A   1      46.998  44.337  24.642  1.00  0.00     0.023 C 
BRANCH  27  28
ATOM     28  C   UNL A   1      46.175  44.971  25.772  1.00  0.00     0.023 C 
BRANCH  28  29
ATOM     29  C   UNL A   1      46.870  45.068  27.126  1.00  0.00     0.116 C 
BRANCH  29  30
ATOM     30  N   UNL A   1      45.972  45.437  28.206  1.00  0.00    -0.352 N 
ATOM     31  C   UNL A   1      45.217  44.640  29.028  1.00  0.00     0.251 C 
ATOM     32  H   UNL A   1      45.894  46.404  28.373  1.00  0.00     0.163 HD
ATOM     33  O   UNL A   1      44.453  45.164  29.836  1.00  0.00    -0.269 OA
BRANCH  31  34
ATOM     34  C   UNL A   1      45.284  43.167  28.917  1.00  0.00     0.039 A 
ATOM     35  C   UNL A   1      44.657  42.558  27.826  1.00  0.00     0.014 A 
ATOM     36  C   UNL A   1      45.944  42.385  29.868  1.00  0.00     0.014 A 
ATOM     37  C   UNL A   1      44.736  41.175  27.664  1.00  0.00     0.010 A 
ATOM     38  C   UNL A   1      46.090  41.014  29.663  1.00  0.00     0.010 A 
ATOM     39  C   UNL A   1      45.480  40.393  28.564  1.00  0.00    -0.014 A 
BRANCH  39  40
ATOM     40  C   UNL A   1      45.621  38.930  28.348  1.00  0.00     0.031 A 
ATOM     41  C   UNL A   1      46.861  38.366  27.707  1.00  0.00     0.074 A 
ATOM     42  C   UNL A   1      44.618  38.109  28.718  1.00  0.00     0.049 A 
ATOM     43  N   UNL A   1      47.176  37.115  27.488  1.00  0.00    -0.248 NA
ATOM     44  C   UNL A   1      47.866  39.329  27.229  1.00  0.00     0.031 C 
ATOM     45  C   UNL A   1      43.343  38.538  29.298  1.00  0.00     0.029 A 
ATOM     46  N   UNL A   1      44.516  36.741  28.672  1.00  0.00    -0.354 N 
ATOM     47  C   UNL A   1      48.410  37.141  26.844  1.00  0.00     0.074 A 
ATOM     48  C   UNL A   1      48.755  38.532  26.654  1.00  0.00     0.031 C 
ATOM     49  C   UNL A   1      42.608  37.456  29.597  1.00  0.00     0.029 A 
ATOM     50  C   UNL A   1      43.341  36.258  29.200  1.00  0.00     0.049 A 
ATOM     51  H   UNL A   1      45.217  36.160  28.298  1.00  0.00     0.167 HD
ATOM     52  C   UNL A   1      49.193  36.103  26.468  1.00  0.00     0.031 A 
ATOM     53  C   UNL A   1      42.906  34.993  29.357  1.00  0.00     0.031 A 
ATOM     54  C   UNL A   1      48.845  34.720  26.661  1.00  0.00     0.049 A 
ATOM     55  C   UNL A   1      43.798  33.857  28.940  1.00  0.00     0.074 A 
ATOM     56  C   UNL A   1      49.592  33.594  26.362  1.00  0.00     0.029 A 
ATOM     57  N   UNL A   1      47.648  34.272  27.202  1.00  0.00    -0.354 N 
ATOM     58  N   UNL A   1      44.994  33.903  28.403  1.00  0.00    -0.248 NA
ATOM     59  C   UNL A   1      43.290  32.499  29.172  1.00  0.00     0.031 C 
ATOM     60  C   UNL A   1      48.826  32.464  26.671  1.00  0.00     0.029 A 
ATOM     61  C   UNL A   1      47.628  32.887  27.226  1.00  0.00     0.049 A 
ATOM     62  H   UNL A   1      46.921  34.854  27.522  1.00  0.00     0.167 HD
ATOM     63  C   UNL A   1      45.395  32.578  28.261  1.00  0.00     0.074 A 
ATOM     64  C   UNL A   1      44.322  31.760  28.786  1.00  0.00     0.031 C 
ATOM     65  C   UNL A   1      46.549  32.085  27.745  1.00  0.00     0.031 A 
BRANCH  52  66
ATOM     66  C   UNL A   1      50.507  36.427  25.803  1.00  0.00    -0.014 A 
ATOM     67  C   UNL A   1      51.661  36.696  26.565  1.00  0.00     0.010 A 
ATOM     68  C   UNL A   1      50.604  36.426  24.399  1.00  0.00     0.010 A 
ATOM     69  C   UNL A   1      52.871  37.000  25.936  1.00  0.00     0.020 A 
ATOM     70  C   UNL A   1      51.821  36.698  23.767  1.00  0.00     0.020 A 
ATOM     71  C   UNL A   1      52.943  37.001  24.540  1.00  0.00     0.054 A 
BRANCH  71  72
ATOM     72  S   UNL A   1      54.534  37.376  23.753  1.00  0.00     0.124 S 
ATOM     73  O   UNL A   1      55.391  37.624  24.910  1.00  0.00    -0.237 OA
ATOM     74  O   UNL A   1      54.820  36.152  23.010  1.00  0.00    -0.237 OA
ATOM     75  O   UNL A   1      54.246  38.549  22.930  1.00  0.00    -0.744 OA
ENDBRANCH  71  72
ENDBRANCH  52  66
BRANCH  53  76
ATOM     76  C   UNL A   1      41.572  34.736  29.970  1.00  0.00    -0.014 A 
ATOM     77  C   UNL A   1      40.397  34.849  29.206  1.00  0.00     0.010 A 
ATOM     78  C   UNL A   1      41.473  34.364  31.323  1.00  0.00     0.010 A 
ATOM     79  C   UNL A   1      39.147  34.616  29.788  1.00  0.00     0.020 A 
ATOM     80  C   UNL A   1      40.228  34.100  31.900  1.00  0.00     0.020 A 
ATOM     81  C   UNL A   1      39.071  34.241  31.132  1.00  0.00     0.054 A 
BRANCH  81  82
ATOM     82  S   UNL A   1      37.442  33.895  31.852  1.00  0.00     0.124 S 
ATOM     83  O   UNL A   1      37.281  35.004  32.786  1.00  0.00    -0.237 OA
ATOM     84  O   UNL A   1      36.569  33.917  30.683  1.00  0.00    -0.237 OA
ATOM     85  O   UNL A   1      37.614  32.579  32.466  1.00  0.00    -0.744 OA
ENDBRANCH  81  82
ENDBRANCH  53  76
BRANCH  65  86
ATOM     86  C   UNL A   1      46.725  30.588  27.763  1.00  0.00    -0.014 A 
ATOM     87  C   UNL A   1      47.255  29.924  28.882  1.00  0.00     0.010 A 
ATOM     88  C   UNL A   1      46.330  29.834  26.642  1.00  0.00     0.010 A 
ATOM     89  C   UNL A   1      47.438  28.538  28.860  1.00  0.00     0.020 A 
ATOM     90  C   UNL A   1      46.480  28.446  26.629  1.00  0.00     0.020 A 
ATOM     91  C   UNL A   1      47.054  27.809  27.730  1.00  0.00     0.054 A 
BRANCH  91  92
ATOM     92  S   UNL A   1      47.293  26.012  27.727  1.00  0.00     0.124 S 
ATOM     93  O   UNL A   1      45.922  25.524  27.605  1.00  0.00    -0.237 OA
ATOM     94  O   UNL A   1      48.141  25.802  26.557  1.00  0.00    -0.237 OA
ATOM     95  O   UNL A   1      47.937  25.745  29.012  1.00  0.00    -0.744 OA
ENDBRANCH  91  92
ENDBRANCH  65  86
ENDBRANCH  39  40
ENDBRANCH  31  34
ENDBRANCH  29  30
ENDBRANCH  28  29
ENDBRANCH  27  28
ENDBRANCH   1  27
TORSDOF 21
ENDMDL
