MODEL 1
REMARK VINA RESULT:     -11.2      0.000      0.000
REMARK SMILES O=C(NCCCCNC(=O)[C@H](NC(=O)c1ccc(Br)nc1)c1ccccc1)c1ccc(-c2c3nc(c(-c4ccc(S(=O)(=O)[O-])cc4)c4ccc([nH]4)c(-c4ccc(S(=O)(=O)[O-])cc4)c4nc(c(-c5ccc(S(=O)(=O)[O-])cc5)c5ccc2[nH]5)C=C4)C=C3)cc1
REMARK SMILES IDX 5 1 4 2 3 3 1 4 2 5 28 7 29 8 87 9 30 10 86 11 31 12 32 13
REMARK SMILES IDX 33 14 80 15 34 16 85 17 79 18 81 19 35 20 84 21 78 22 77 23
REMARK SMILES IDX 36 25 66 26 47 27 65 28 48 29 51 30 64 31 82 32 49 33 50 34
REMARK SMILES IDX 63 36 83 37 52 38 37 39 38 40 46 41 39 42 45 43 40 44 41 45
REMARK SMILES IDX 42 46 43 47 44 48 67 49 68 50 76 51 69 52 75 53 70 54 71 55
REMARK SMILES IDX 72 56 73 57 74 58 53 59 54 60 62 61 55 62 61 63 56 64 57 65
REMARK SMILES IDX 58 66 59 67 60 68 6 69 7 70 8 71 9 72 10 74 11 75 22 76
REMARK SMILES IDX 23 77 27 78 24 79 26 80 25 81 12 82 13 83 14 85 15 86 16 87
REMARK SMILES IDX 21 88 17 89 20 90 18 91 19 92
REMARK H PARENT 3 6 81 24 51 35 8 73 12 84
REMARK Flexibility Score: inf
ROOT
ATOM      1  C   UNL A   1      32.049  27.585  27.028  1.00  0.00     0.023 C 
ENDROOT
BRANCH   1   2
ATOM      2  C   UNL A   1      33.377  28.310  27.173  1.00  0.00     0.116 C 
BRANCH   2   3
ATOM      3  N   UNL A   1      33.249  29.727  27.468  1.00  0.00    -0.352 N 
ATOM      4  O   UNL A   1      33.906  31.750  28.230  1.00  0.00    -0.269 OA
ATOM      5  C   UNL A   1      34.203  30.592  27.965  1.00  0.00     0.251 C 
ATOM      6  H   UNL A   1      32.365  30.123  27.290  1.00  0.00     0.163 HD
BRANCH   5   7
ATOM      7  C   UNL A   1      35.574  30.089  28.216  1.00  0.00     0.039 A 
ATOM      8  C   UNL A   1      35.956  29.686  29.495  1.00  0.00     0.014 A 
ATOM      9  C   UNL A   1      36.501  30.075  27.170  1.00  0.00     0.014 A 
ATOM     10  C   UNL A   1      37.297  29.449  29.768  1.00  0.00     0.010 A 
ATOM     11  C   UNL A   1      37.835  29.734  27.428  1.00  0.00     0.010 A 
ATOM     12  C   UNL A   1      38.253  29.460  28.738  1.00  0.00    -0.014 A 
BRANCH  12  13
ATOM     13  C   UNL A   1      39.662  29.122  29.073  1.00  0.00     0.031 A 
ATOM     14  C   UNL A   1      40.268  27.794  28.706  1.00  0.00     0.074 A 
ATOM     15  C   UNL A   1      40.422  30.076  29.647  1.00  0.00     0.049 A 
ATOM     16  N   UNL A   1      41.507  27.394  28.847  1.00  0.00    -0.248 NA
ATOM     17  C   UNL A   1      39.378  26.782  28.115  1.00  0.00     0.031 C 
ATOM     18  C   UNL A   1      39.941  31.396  30.068  1.00  0.00     0.029 A 
ATOM     19  N   UNL A   1      41.762  30.106  29.936  1.00  0.00    -0.354 N 
ATOM     20  C   UNL A   1      41.546  26.085  28.379  1.00  0.00     0.074 A 
ATOM     21  C   UNL A   1      40.198  25.748  27.969  1.00  0.00     0.031 C 
ATOM     22  C   UNL A   1      40.980  32.130  30.489  1.00  0.00     0.029 A 
ATOM     23  C   UNL A   1      42.188  31.316  30.428  1.00  0.00     0.049 A 
ATOM     24  H   UNL A   1      42.360  29.335  29.805  1.00  0.00     0.167 HD
ATOM     25  C   UNL A   1      42.606  25.244  28.294  1.00  0.00     0.031 A 
ATOM     26  C   UNL A   1      43.413  31.733  30.796  1.00  0.00     0.031 A 
ATOM     27  C   UNL A   1      43.946  25.582  28.701  1.00  0.00     0.049 A 
ATOM     28  C   UNL A   1      44.570  30.789  30.671  1.00  0.00     0.074 A 
ATOM     29  C   UNL A   1      45.085  24.797  28.657  1.00  0.00     0.029 A 
ATOM     30  N   UNL A   1      44.330  26.810  29.220  1.00  0.00    -0.354 N 
ATOM     31  N   UNL A   1      44.579  29.557  30.224  1.00  0.00    -0.248 NA
ATOM     32  C   UNL A   1      45.880  31.290  31.104  1.00  0.00     0.031 C 
ATOM     33  C   UNL A   1      46.152  25.537  29.179  1.00  0.00     0.029 A 
ATOM     34  C   UNL A   1      45.686  26.799  29.508  1.00  0.00     0.049 A 
ATOM     35  H   UNL A   1      43.728  27.575  29.363  1.00  0.00     0.167 HD
ATOM     36  C   UNL A   1      45.895  29.130  30.329  1.00  0.00     0.074 A 
ATOM     37  C   UNL A   1      46.660  30.249  30.843  1.00  0.00     0.031 C 
ATOM     38  C   UNL A   1      46.424  27.916  30.039  1.00  0.00     0.031 A 
BRANCH  25  39
ATOM     39  C   UNL A   1      42.361  23.861  27.750  1.00  0.00    -0.014 A 
ATOM     40  C   UNL A   1      42.582  23.566  26.394  1.00  0.00     0.010 A 
ATOM     41  C   UNL A   1      41.968  22.825  28.619  1.00  0.00     0.010 A 
ATOM     42  C   UNL A   1      42.391  22.268  25.909  1.00  0.00     0.020 A 
ATOM     43  C   UNL A   1      41.796  21.522  28.143  1.00  0.00     0.020 A 
ATOM     44  C   UNL A   1      41.995  21.254  26.786  1.00  0.00     0.054 A 
BRANCH  44  45
ATOM     45  S   UNL A   1      41.784  19.572  26.139  1.00  0.00     0.124 S 
ATOM     46  O   UNL A   1      42.231  18.758  27.266  1.00  0.00    -0.237 OA
ATOM     47  O   UNL A   1      40.353  19.515  25.852  1.00  0.00    -0.237 OA
ATOM     48  O   UNL A   1      42.652  19.541  24.965  1.00  0.00    -0.744 OA
ENDBRANCH  44  45
ENDBRANCH  25  39
BRANCH  26  49
ATOM     49  C   UNL A   1      43.590  33.107  31.336  1.00  0.00    -0.014 A 
ATOM     50  C   UNL A   1      43.821  34.196  30.479  1.00  0.00     0.010 A 
ATOM     51  C   UNL A   1      43.492  33.332  32.722  1.00  0.00     0.010 A 
ATOM     52  C   UNL A   1      43.965  35.485  31.000  1.00  0.00     0.020 A 
ATOM     53  C   UNL A   1      43.607  34.621  33.243  1.00  0.00     0.020 A 
ATOM     54  C   UNL A   1      43.857  35.689  32.379  1.00  0.00     0.054 A 
BRANCH  54  55
ATOM     55  S   UNL A   1      43.986  37.375  33.038  1.00  0.00     0.124 S 
ATOM     56  O   UNL A   1      42.800  37.459  33.884  1.00  0.00    -0.237 OA
ATOM     57  O   UNL A   1      45.267  37.349  33.740  1.00  0.00    -0.237 OA
ATOM     58  O   UNL A   1      43.962  38.207  31.837  1.00  0.00    -0.744 OA
ENDBRANCH  54  55
ENDBRANCH  26  49
BRANCH  38  59
ATOM     59  C   UNL A   1      47.897  27.748  30.282  1.00  0.00    -0.014 A 
ATOM     60  C   UNL A   1      48.830  28.016  29.263  1.00  0.00     0.010 A 
ATOM     61  C   UNL A   1      48.355  27.317  31.539  1.00  0.00     0.010 A 
ATOM     62  C   UNL A   1      50.193  27.809  29.483  1.00  0.00     0.020 A 
ATOM     63  C   UNL A   1      49.721  27.130  31.770  1.00  0.00     0.020 A 
ATOM     64  C   UNL A   1      50.629  27.357  30.733  1.00  0.00     0.054 A 
BRANCH  64  65
ATOM     65  S   UNL A   1      52.403  27.096  31.000  1.00  0.00     0.124 S 
ATOM     66  O   UNL A   1      52.777  26.322  29.820  1.00  0.00    -0.237 OA
ATOM     67  O   UNL A   1      52.928  28.459  31.049  1.00  0.00    -0.237 OA
ATOM     68  O   UNL A   1      52.457  26.369  32.266  1.00  0.00    -0.744 OA
ENDBRANCH  64  65
ENDBRANCH  38  59
ENDBRANCH  12  13
ENDBRANCH   5   7
ENDBRANCH   2   3
ENDBRANCH   1   2
BRANCH   1  69
ATOM     69  C   UNL A   1      32.131  26.124  26.601  1.00  0.00     0.023 C 
BRANCH  69  70
ATOM     70  C   UNL A   1      31.111  25.679  25.560  1.00  0.00     0.116 C 
BRANCH  70  71
ATOM     71  N   UNL A   1      31.199  24.274  25.204  1.00  0.00    -0.354 N 
ATOM     72  C   UNL A   1      32.251  23.604  24.631  1.00  0.00     0.247 C 
ATOM     73  H   UNL A   1      30.401  23.730  25.400  1.00  0.00     0.163 HD
ATOM     74  O   UNL A   1      32.273  22.375  24.719  1.00  0.00    -0.272 OA
BRANCH  72  75
ATOM     75  C   UNL A   1      33.364  24.418  23.908  1.00  0.00     0.202 C 
BRANCH  75  76
ATOM     76  C   UNL A   1      34.717  23.802  24.261  1.00  0.00    -0.016 A 
ATOM     77  C   UNL A   1      35.415  23.000  23.347  1.00  0.00     0.006 A 
ATOM     78  C   UNL A   1      35.314  24.087  25.503  1.00  0.00     0.006 A 
ATOM     79  C   UNL A   1      36.707  22.556  23.640  1.00  0.00     0.000 A 
ATOM     80  C   UNL A   1      36.597  23.628  25.798  1.00  0.00     0.000 A 
ATOM     81  C   UNL A   1      37.298  22.875  24.860  1.00  0.00     0.000 A 
ENDBRANCH  75  76
BRANCH  75  82
ATOM     82  N   UNL A   1      33.257  24.500  22.448  1.00  0.00    -0.336 N 
ATOM     83  C   UNL A   1      33.000  25.561  21.623  1.00  0.00     0.253 C 
ATOM     84  H   UNL A   1      33.393  23.645  21.980  1.00  0.00     0.165 HD
ATOM     85  O   UNL A   1      33.243  25.477  20.423  1.00  0.00    -0.269 OA
BRANCH  83  86
ATOM     86  C   UNL A   1      32.317  26.763  22.119  1.00  0.00     0.058 A 
ATOM     87  C   UNL A   1      32.964  27.821  22.754  1.00  0.00     0.018 A 
ATOM     88  C   UNL A   1      30.942  26.839  21.934  1.00  0.00     0.126 A 
ATOM     89  C   UNL A   1      32.192  28.882  23.233  1.00  0.00     0.037 A 
ATOM     90  N   UNL A   1      30.177  27.867  22.371  1.00  0.00    -0.249 NA
ATOM     91  C   UNL A   1      30.815  28.856  23.033  1.00  0.00     0.106 A 
ATOM     92  Br  UNL A   1      29.760  30.273  23.719  1.00  0.00    -0.029 Br
ENDBRANCH  83  86
ENDBRANCH  75  82
ENDBRANCH  72  75
ENDBRANCH  70  71
ENDBRANCH  69  70
ENDBRANCH   1  69
TORSDOF 17
ENDMDL
MODEL 2
REMARK VINA RESULT:     -11.0      2.977      9.119
REMARK SMILES O=C(NCCCCNC(=O)[C@H](NC(=O)c1ccc(Br)nc1)c1ccccc1)c1ccc(-c2c3nc(c(-c4ccc(S(=O)(=O)[O-])cc4)c4ccc([nH]4)c(-c4ccc(S(=O)(=O)[O-])cc4)c4nc(c(-c5ccc(S(=O)(=O)[O-])cc5)c5ccc2[nH]5)C=C4)C=C3)cc1
REMARK SMILES IDX 5 1 4 2 3 3 1 4 2 5 28 7 29 8 87 9 30 10 86 11 31 12 32 13
REMARK SMILES IDX 33 14 80 15 34 16 85 17 79 18 81 19 35 20 84 21 78 22 77 23
REMARK SMILES IDX 36 25 66 26 47 27 65 28 48 29 51 30 64 31 82 32 49 33 50 34
REMARK SMILES IDX 63 36 83 37 52 38 37 39 38 40 46 41 39 42 45 43 40 44 41 45
REMARK SMILES IDX 42 46 43 47 44 48 67 49 68 50 76 51 69 52 75 53 70 54 71 55
REMARK SMILES IDX 72 56 73 57 74 58 53 59 54 60 62 61 55 62 61 63 56 64 57 65
REMARK SMILES IDX 58 66 59 67 60 68 6 69 7 70 8 71 9 72 10 74 11 75 22 76
REMARK SMILES IDX 23 77 27 78 24 79 26 80 25 81 12 82 13 83 14 85 15 86 16 87
REMARK SMILES IDX 21 88 17 89 20 90 18 91 19 92
REMARK H PARENT 3 6 81 24 51 35 8 73 12 84
REMARK Flexibility Score: inf
ROOT
ATOM      1  C   UNL A   1      35.588  23.344  24.617  1.00  0.00     0.023 C 
ENDROOT
BRANCH   1   2
ATOM      2  C   UNL A   1      36.899  23.912  25.139  1.00  0.00     0.116 C 
BRANCH   2   3
ATOM      3  N   UNL A   1      37.914  22.907  25.408  1.00  0.00    -0.352 N 
ATOM      4  O   UNL A   1      39.862  22.100  26.219  1.00  0.00    -0.269 OA
ATOM      5  C   UNL A   1      39.069  23.030  26.153  1.00  0.00     0.251 C 
ATOM      6  H   UNL A   1      37.758  22.022  25.006  1.00  0.00     0.163 HD
BRANCH   5   7
ATOM      7  C   UNL A   1      39.358  24.315  26.833  1.00  0.00     0.039 A 
ATOM      8  C   UNL A   1      40.111  25.300  26.193  1.00  0.00     0.014 A 
ATOM      9  C   UNL A   1      38.916  24.512  28.144  1.00  0.00     0.014 A 
ATOM     10  C   UNL A   1      40.575  26.388  26.920  1.00  0.00     0.010 A 
ATOM     11  C   UNL A   1      39.301  25.663  28.843  1.00  0.00     0.010 A 
ATOM     12  C   UNL A   1      40.170  26.590  28.250  1.00  0.00    -0.014 A 
BRANCH  12  13
ATOM     13  C   UNL A   1      40.636  27.813  28.957  1.00  0.00     0.031 A 
ATOM     14  C   UNL A   1      39.734  29.001  29.165  1.00  0.00     0.074 A 
ATOM     15  C   UNL A   1      41.875  27.805  29.486  1.00  0.00     0.049 A 
ATOM     16  N   UNL A   1      39.968  30.096  29.844  1.00  0.00    -0.248 NA
ATOM     17  C   UNL A   1      38.407  28.964  28.531  1.00  0.00     0.031 C 
ATOM     18  C   UNL A   1      42.849  26.720  29.333  1.00  0.00     0.029 A 
ATOM     19  N   UNL A   1      42.514  28.710  30.295  1.00  0.00    -0.354 N 
ATOM     20  C   UNL A   1      38.831  30.885  29.708  1.00  0.00     0.074 A 
ATOM     21  C   UNL A   1      37.912  30.150  28.862  1.00  0.00     0.031 C 
ATOM     22  C   UNL A   1      43.928  26.986  30.083  1.00  0.00     0.029 A 
ATOM     23  C   UNL A   1      43.750  28.286  30.720  1.00  0.00     0.049 A 
ATOM     24  H   UNL A   1      42.125  29.579  30.546  1.00  0.00     0.167 HD
ATOM     25  C   UNL A   1      38.573  32.104  30.242  1.00  0.00     0.031 A 
ATOM     26  C   UNL A   1      44.651  28.873  31.529  1.00  0.00     0.031 A 
ATOM     27  C   UNL A   1      39.488  32.831  31.085  1.00  0.00     0.049 A 
ATOM     28  C   UNL A   1      44.331  30.212  32.122  1.00  0.00     0.074 A 
ATOM     29  C   UNL A   1      39.319  34.074  31.671  1.00  0.00     0.029 A 
ATOM     30  N   UNL A   1      40.742  32.379  31.469  1.00  0.00    -0.354 N 
ATOM     31  N   UNL A   1      43.246  30.935  31.978  1.00  0.00    -0.248 NA
ATOM     32  C   UNL A   1      45.355  30.814  32.983  1.00  0.00     0.031 C 
ATOM     33  C   UNL A   1      40.483  34.388  32.383  1.00  0.00     0.029 A 
ATOM     34  C   UNL A   1      41.359  33.321  32.275  1.00  0.00     0.049 A 
ATOM     35  H   UNL A   1      41.135  31.515  31.206  1.00  0.00     0.167 HD
ATOM     36  C   UNL A   1      43.462  32.085  32.725  1.00  0.00     0.074 A 
ATOM     37  C   UNL A   1      44.761  31.941  33.351  1.00  0.00     0.031 C 
ATOM     38  C   UNL A   1      42.662  33.170  32.871  1.00  0.00     0.031 A 
BRANCH  25  39
ATOM     39  C   UNL A   1      37.248  32.744  29.922  1.00  0.00    -0.014 A 
ATOM     40  C   UNL A   1      36.162  32.645  30.809  1.00  0.00     0.010 A 
ATOM     41  C   UNL A   1      37.105  33.510  28.750  1.00  0.00     0.010 A 
ATOM     42  C   UNL A   1      34.949  33.277  30.520  1.00  0.00     0.020 A 
ATOM     43  C   UNL A   1      35.900  34.162  28.467  1.00  0.00     0.020 A 
ATOM     44  C   UNL A   1      34.824  34.030  29.348  1.00  0.00     0.054 A 
BRANCH  44  45
ATOM     45  S   UNL A   1      33.250  34.867  29.011  1.00  0.00     0.124 S 
ATOM     46  O   UNL A   1      32.601  34.824  30.319  1.00  0.00    -0.237 OA
ATOM     47  O   UNL A   1      33.678  36.191  28.566  1.00  0.00    -0.237 OA
ATOM     48  O   UNL A   1      32.630  34.038  27.980  1.00  0.00    -0.744 OA
ENDBRANCH  44  45
ENDBRANCH  25  39
BRANCH  26  49
ATOM     49  C   UNL A   1      45.946  28.197  31.799  1.00  0.00    -0.014 A 
ATOM     50  C   UNL A   1      46.089  27.316  32.884  1.00  0.00     0.010 A 
ATOM     51  C   UNL A   1      47.041  28.411  30.940  1.00  0.00     0.010 A 
ATOM     52  C   UNL A   1      47.308  26.672  33.114  1.00  0.00     0.020 A 
ATOM     53  C   UNL A   1      48.250  27.748  31.150  1.00  0.00     0.020 A 
ATOM     54  C   UNL A   1      48.380  26.892  32.244  1.00  0.00     0.054 A 
BRANCH  54  55
ATOM     55  S   UNL A   1      49.939  26.003  32.518  1.00  0.00     0.124 S 
ATOM     56  O   UNL A   1      49.706  25.379  33.816  1.00  0.00    -0.237 OA
ATOM     57  O   UNL A   1      49.994  25.093  31.376  1.00  0.00    -0.237 OA
ATOM     58  O   UNL A   1      50.940  27.068  32.501  1.00  0.00    -0.744 OA
ENDBRANCH  54  55
ENDBRANCH  26  49
BRANCH  38  59
ATOM     59  C   UNL A   1      43.186  34.281  33.736  1.00  0.00    -0.014 A 
ATOM     60  C   UNL A   1      42.916  34.306  35.117  1.00  0.00     0.010 A 
ATOM     61  C   UNL A   1      43.954  35.310  33.165  1.00  0.00     0.010 A 
ATOM     62  C   UNL A   1      43.365  35.368  35.904  1.00  0.00     0.020 A 
ATOM     63  C   UNL A   1      44.423  36.364  33.954  1.00  0.00     0.020 A 
ATOM     64  C   UNL A   1      44.107  36.397  35.315  1.00  0.00     0.054 A 
BRANCH  64  65
ATOM     65  S   UNL A   1      44.683  37.767  36.354  1.00  0.00     0.124 S 
ATOM     66  O   UNL A   1      44.122  38.925  35.665  1.00  0.00    -0.237 OA
ATOM     67  O   UNL A   1      44.091  37.460  37.653  1.00  0.00    -0.237 OA
ATOM     68  O   UNL A   1      46.139  37.652  36.298  1.00  0.00    -0.744 OA
ENDBRANCH  64  65
ENDBRANCH  38  59
ENDBRANCH  12  13
ENDBRANCH   5   7
ENDBRANCH   2   3
ENDBRANCH   1   2
BRANCH   1  69
ATOM     69  C   UNL A   1      34.806  24.241  23.666  1.00  0.00     0.023 C 
BRANCH  69  70
ATOM     70  C   UNL A   1      33.483  23.678  23.160  1.00  0.00     0.116 C 
BRANCH  70  71
ATOM     71  N   UNL A   1      32.457  24.680  22.934  1.00  0.00    -0.354 N 
ATOM     72  C   UNL A   1      31.953  25.599  23.820  1.00  0.00     0.247 C 
ATOM     73  H   UNL A   1      32.074  24.705  22.027  1.00  0.00     0.163 HD
ATOM     74  O   UNL A   1      31.350  26.572  23.365  1.00  0.00    -0.272 OA
BRANCH  72  75
ATOM     75  C   UNL A   1      32.167  25.376  25.346  1.00  0.00     0.202 C 
BRANCH  75  76
ATOM     76  C   UNL A   1      32.498  26.723  25.987  1.00  0.00    -0.016 A 
ATOM     77  C   UNL A   1      31.550  27.424  26.744  1.00  0.00     0.006 A 
ATOM     78  C   UNL A   1      33.797  27.252  25.874  1.00  0.00     0.006 A 
ATOM     79  C   UNL A   1      31.912  28.587  27.428  1.00  0.00     0.000 A 
ATOM     80  C   UNL A   1      34.150  28.422  26.546  1.00  0.00     0.000 A 
ATOM     81  C   UNL A   1      33.211  29.080  27.334  1.00  0.00     0.000 A 
ENDBRANCH  75  76
BRANCH  75  82
ATOM     82  N   UNL A   1      31.043  24.778  26.074  1.00  0.00    -0.336 N 
ATOM     83  C   UNL A   1      30.912  23.560  26.683  1.00  0.00     0.253 C 
ATOM     84  H   UNL A   1      30.245  25.351  26.135  1.00  0.00     0.165 HD
ATOM     85  O   UNL A   1      30.001  23.371  27.485  1.00  0.00    -0.269 OA
BRANCH  83  86
ATOM     86  C   UNL A   1      31.762  22.424  26.305  1.00  0.00     0.058 A 
ATOM     87  C   UNL A   1      32.968  22.111  26.928  1.00  0.00     0.018 A 
ATOM     88  C   UNL A   1      31.324  21.617  25.261  1.00  0.00     0.126 A 
ATOM     89  C   UNL A   1      33.715  21.038  26.436  1.00  0.00     0.037 A 
ATOM     90  N   UNL A   1      32.021  20.560  24.780  1.00  0.00    -0.249 NA
ATOM     91  C   UNL A   1      33.212  20.307  25.362  1.00  0.00     0.106 A 
ATOM     92  Br  UNL A   1      34.243  18.878  24.663  1.00  0.00    -0.029 Br
ENDBRANCH  83  86
ENDBRANCH  75  82
ENDBRANCH  72  75
ENDBRANCH  70  71
ENDBRANCH  69  70
ENDBRANCH   1  69
TORSDOF 17
ENDMDL
MODEL 3
REMARK VINA RESULT:     -10.7      1.894      3.147
REMARK SMILES O=C(NCCCCNC(=O)[C@H](NC(=O)c1ccc(Br)nc1)c1ccccc1)c1ccc(-c2c3nc(c(-c4ccc(S(=O)(=O)[O-])cc4)c4ccc([nH]4)c(-c4ccc(S(=O)(=O)[O-])cc4)c4nc(c(-c5ccc(S(=O)(=O)[O-])cc5)c5ccc2[nH]5)C=C4)C=C3)cc1
REMARK SMILES IDX 5 1 4 2 3 3 1 4 2 5 28 7 29 8 87 9 30 10 86 11 31 12 32 13
REMARK SMILES IDX 33 14 80 15 34 16 85 17 79 18 81 19 35 20 84 21 78 22 77 23
REMARK SMILES IDX 36 25 66 26 47 27 65 28 48 29 51 30 64 31 82 32 49 33 50 34
REMARK SMILES IDX 63 36 83 37 52 38 37 39 38 40 46 41 39 42 45 43 40 44 41 45
REMARK SMILES IDX 42 46 43 47 44 48 67 49 68 50 76 51 69 52 75 53 70 54 71 55
REMARK SMILES IDX 72 56 73 57 74 58 53 59 54 60 62 61 55 62 61 63 56 64 57 65
REMARK SMILES IDX 58 66 59 67 60 68 6 69 7 70 8 71 9 72 10 74 11 75 22 76
REMARK SMILES IDX 23 77 27 78 24 79 26 80 25 81 12 82 13 83 14 85 15 86 16 87
REMARK SMILES IDX 21 88 17 89 20 90 18 91 19 92
REMARK H PARENT 3 6 81 24 51 35 8 73 12 84
REMARK Flexibility Score: inf
ROOT
ATOM      1  C   UNL A   1      33.047  26.802  26.464  1.00  0.00     0.023 C 
ENDROOT
BRANCH   1   2
ATOM      2  C   UNL A   1      34.109  27.886  26.567  1.00  0.00     0.116 C 
BRANCH   2   3
ATOM      3  N   UNL A   1      33.586  29.198  26.907  1.00  0.00    -0.352 N 
ATOM      4  O   UNL A   1      33.597  31.245  27.864  1.00  0.00    -0.269 OA
ATOM      5  C   UNL A   1      34.211  30.221  27.592  1.00  0.00     0.251 C 
ATOM      6  H   UNL A   1      32.666  29.381  26.612  1.00  0.00     0.163 HD
BRANCH   5   7
ATOM      7  C   UNL A   1      35.615  30.046  28.031  1.00  0.00     0.039 A 
ATOM      8  C   UNL A   1      36.669  30.319  27.159  1.00  0.00     0.014 A 
ATOM      9  C   UNL A   1      35.876  29.550  29.312  1.00  0.00     0.014 A 
ATOM     10  C   UNL A   1      37.957  29.925  27.495  1.00  0.00     0.010 A 
ATOM     11  C   UNL A   1      37.191  29.249  29.687  1.00  0.00     0.010 A 
ATOM     12  C   UNL A   1      38.238  29.394  28.765  1.00  0.00    -0.014 A 
BRANCH  12  13
ATOM     13  C   UNL A   1      39.649  29.061  29.099  1.00  0.00     0.031 A 
ATOM     14  C   UNL A   1      40.261  27.737  28.725  1.00  0.00     0.074 A 
ATOM     15  C   UNL A   1      40.404  30.014  29.680  1.00  0.00     0.049 A 
ATOM     16  N   UNL A   1      41.502  27.342  28.865  1.00  0.00    -0.248 NA
ATOM     17  C   UNL A   1      39.376  26.725  28.128  1.00  0.00     0.031 C 
ATOM     18  C   UNL A   1      39.917  31.329  30.107  1.00  0.00     0.029 A 
ATOM     19  N   UNL A   1      41.744  30.048  29.970  1.00  0.00    -0.354 N 
ATOM     20  C   UNL A   1      41.546  26.036  28.389  1.00  0.00     0.074 A 
ATOM     21  C   UNL A   1      40.200  25.696  27.977  1.00  0.00     0.031 C 
ATOM     22  C   UNL A   1      40.952  32.066  30.534  1.00  0.00     0.029 A 
ATOM     23  C   UNL A   1      42.164  31.258  30.468  1.00  0.00     0.049 A 
ATOM     24  H   UNL A   1      42.345  29.281  29.835  1.00  0.00     0.167 HD
ATOM     25  C   UNL A   1      42.610  25.200  28.300  1.00  0.00     0.031 A 
ATOM     26  C   UNL A   1      43.388  31.678  30.840  1.00  0.00     0.031 A 
ATOM     27  C   UNL A   1      43.948  25.541  28.710  1.00  0.00     0.049 A 
ATOM     28  C   UNL A   1      44.548  30.739  30.711  1.00  0.00     0.074 A 
ATOM     29  C   UNL A   1      45.091  24.761  28.661  1.00  0.00     0.029 A 
ATOM     30  N   UNL A   1      44.327  26.767  29.236  1.00  0.00    -0.354 N 
ATOM     31  N   UNL A   1      44.563  29.510  30.256  1.00  0.00    -0.248 NA
ATOM     32  C   UNL A   1      45.856  31.243  31.146  1.00  0.00     0.031 C 
ATOM     33  C   UNL A   1      46.154  25.503  29.188  1.00  0.00     0.029 A 
ATOM     34  C   UNL A   1      45.682  26.761  29.524  1.00  0.00     0.049 A 
ATOM     35  H   UNL A   1      43.722  27.530  29.383  1.00  0.00     0.167 HD
ATOM     36  C   UNL A   1      45.881  29.088  30.359  1.00  0.00     0.074 A 
ATOM     37  C   UNL A   1      46.640  30.208  30.880  1.00  0.00     0.031 C 
ATOM     38  C   UNL A   1      46.415  27.878  30.062  1.00  0.00     0.031 A 
BRANCH  25  39
ATOM     39  C   UNL A   1      42.371  23.818  27.748  1.00  0.00    -0.014 A 
ATOM     40  C   UNL A   1      42.589  23.534  26.389  1.00  0.00     0.010 A 
ATOM     41  C   UNL A   1      41.988  22.775  28.611  1.00  0.00     0.010 A 
ATOM     42  C   UNL A   1      42.403  22.239  25.896  1.00  0.00     0.020 A 
ATOM     43  C   UNL A   1      41.822  21.474  28.127  1.00  0.00     0.020 A 
ATOM     44  C   UNL A   1      42.017  21.216  26.768  1.00  0.00     0.054 A 
BRANCH  44  45
ATOM     45  S   UNL A   1      41.814  19.537  26.110  1.00  0.00     0.124 S 
ATOM     46  O   UNL A   1      40.375  19.484  25.865  1.00  0.00    -0.237 OA
ATOM     47  O   UNL A   1      42.653  19.556  24.916  1.00  0.00    -0.237 OA
ATOM     48  O   UNL A   1      42.294  18.681  27.192  1.00  0.00    -0.744 OA
ENDBRANCH  44  45
ENDBRANCH  25  39
BRANCH  26  49
ATOM     49  C   UNL A   1      43.558  33.049  31.388  1.00  0.00    -0.014 A 
ATOM     50  C   UNL A   1      43.436  33.295  32.766  1.00  0.00     0.010 A 
ATOM     51  C   UNL A   1      43.877  34.114  30.526  1.00  0.00     0.010 A 
ATOM     52  C   UNL A   1      43.618  34.587  33.270  1.00  0.00     0.020 A 
ATOM     53  C   UNL A   1      44.088  35.398  31.028  1.00  0.00     0.020 A 
ATOM     54  C   UNL A   1      43.943  35.629  32.397  1.00  0.00     0.054 A 
BRANCH  54  55
ATOM     55  S   UNL A   1      44.237  37.289  33.071  1.00  0.00     0.124 S 
ATOM     56  O   UNL A   1      43.887  38.140  31.938  1.00  0.00    -0.237 OA
ATOM     57  O   UNL A   1      43.322  37.340  34.209  1.00  0.00    -0.237 OA
ATOM     58  O   UNL A   1      45.655  37.262  33.424  1.00  0.00    -0.744 OA
ENDBRANCH  54  55
ENDBRANCH  26  49
BRANCH  38  59
ATOM     59  C   UNL A   1      47.889  27.715  30.305  1.00  0.00    -0.014 A 
ATOM     60  C   UNL A   1      48.823  28.030  29.302  1.00  0.00     0.010 A 
ATOM     61  C   UNL A   1      48.346  27.241  31.548  1.00  0.00     0.010 A 
ATOM     62  C   UNL A   1      50.188  27.828  29.520  1.00  0.00     0.020 A 
ATOM     63  C   UNL A   1      49.712  27.058  31.777  1.00  0.00     0.020 A 
ATOM     64  C   UNL A   1      50.623  27.333  30.753  1.00  0.00     0.054 A 
BRANCH  64  65
ATOM     65  S   UNL A   1      52.398  27.080  31.018  1.00  0.00     0.124 S 
ATOM     66  O   UNL A   1      52.773  28.291  31.741  1.00  0.00    -0.237 OA
ATOM     67  O   UNL A   1      52.437  25.845  31.797  1.00  0.00    -0.237 OA
ATOM     68  O   UNL A   1      52.936  26.970  29.663  1.00  0.00    -0.744 OA
ENDBRANCH  64  65
ENDBRANCH  38  59
ENDBRANCH  12  13
ENDBRANCH   5   7
ENDBRANCH   2   3
ENDBRANCH   1   2
BRANCH   1  69
ATOM     69  C   UNL A   1      31.788  27.177  25.693  1.00  0.00     0.023 C 
BRANCH  69  70
ATOM     70  C   UNL A   1      31.546  26.403  24.402  1.00  0.00     0.116 C 
BRANCH  70  71
ATOM     71  N   UNL A   1      32.598  26.552  23.413  1.00  0.00    -0.354 N 
ATOM     72  C   UNL A   1      33.297  25.570  22.758  1.00  0.00     0.247 C 
ATOM     73  H   UNL A   1      32.842  27.478  23.181  1.00  0.00     0.163 HD
ATOM     74  O   UNL A   1      33.896  25.875  21.725  1.00  0.00    -0.272 OA
BRANCH  72  75
ATOM     75  C   UNL A   1      33.298  24.125  23.338  1.00  0.00     0.202 C 
BRANCH  75  76
ATOM     76  C   UNL A   1      34.699  23.820  23.867  1.00  0.00    -0.016 A 
ATOM     77  C   UNL A   1      35.165  24.377  25.066  1.00  0.00     0.006 A 
ATOM     78  C   UNL A   1      35.527  22.916  23.176  1.00  0.00     0.006 A 
ATOM     79  C   UNL A   1      36.396  23.983  25.597  1.00  0.00     0.000 A 
ATOM     80  C   UNL A   1      36.762  22.538  23.701  1.00  0.00     0.000 A 
ATOM     81  C   UNL A   1      37.188  23.060  24.918  1.00  0.00     0.000 A 
ENDBRANCH  75  76
BRANCH  75  82
ATOM     82  N   UNL A   1      32.330  23.860  24.407  1.00  0.00    -0.336 N 
ATOM     83  C   UNL A   1      32.070  22.722  25.122  1.00  0.00     0.253 C 
ATOM     84  H   UNL A   1      31.772  24.631  24.653  1.00  0.00     0.165 HD
ATOM     85  O   UNL A   1      31.428  22.790  26.167  1.00  0.00    -0.269 OA
BRANCH  83  86
ATOM     86  C   UNL A   1      32.431  21.397  24.603  1.00  0.00     0.058 A 
ATOM     87  C   UNL A   1      32.051  20.920  23.352  1.00  0.00     0.018 A 
ATOM     88  C   UNL A   1      33.202  20.580  25.421  1.00  0.00     0.126 A 
ATOM     89  C   UNL A   1      32.408  19.616  22.998  1.00  0.00     0.037 A 
ATOM     90  N   UNL A   1      33.578  19.321  25.092  1.00  0.00    -0.249 NA
ATOM     91  C   UNL A   1      33.154  18.857  23.897  1.00  0.00     0.106 A 
ATOM     92  Br  UNL A   1      33.604  17.074  23.439  1.00  0.00    -0.029 Br
ENDBRANCH  83  86
ENDBRANCH  75  82
ENDBRANCH  72  75
ENDBRANCH  70  71
ENDBRANCH  69  70
ENDBRANCH   1  69
TORSDOF 17
ENDMDL
