MODEL 1
REMARK VINA RESULT:     -10.4      0.000      0.000
REMARK SMILES O=C(NCCCCNC(=O)[C@@H]1C[C@@H]2CC(=O)[C@H]1C2)c1ccc(-c2c3nc(c(-c4ccc(S(=O)(=O)[O-])cc4)c4ccc([nH]4)c(-c4ccc(S(=O)(=O)[O-])cc4)c4nc(c(-c5ccc(S(=O)(=O)[O-])cc5)c5ccc2[nH]5)C=C4)C=C3)cc1
REMARK SMILES IDX 4 1 3 2 1 3 2 4 19 6 20 7 78 8 21 9 77 10 22 11 23 12 24 13
REMARK SMILES IDX 71 14 25 15 76 16 70 17 72 18 26 19 75 20 69 21 68 22 27 24
REMARK SMILES IDX 57 25 38 26 56 27 39 28 42 29 55 30 73 31 40 32 41 33 54 35
REMARK SMILES IDX 74 36 43 37 28 38 29 39 37 40 30 41 36 42 31 43 32 44 33 45
REMARK SMILES IDX 34 46 35 47 58 48 59 49 67 50 60 51 66 52 61 53 62 54 63 55
REMARK SMILES IDX 64 56 65 57 44 58 45 59 53 60 46 61 52 62 47 63 48 64 49 65
REMARK SMILES IDX 50 66 51 67 5 68 6 69 7 70 8 71 9 72 10 74 11 75 12 76 17 77
REMARK SMILES IDX 13 78 15 79 18 80 14 81 16 82
REMARK H PARENT 3 5 72 23 42 34 8 73
REMARK Flexibility Score: inf
ROOT
ATOM      1  C   UNL A   1      33.713  28.650  27.226  1.00  0.00     0.116 C 
ENDROOT
BRANCH   1   2
ATOM      2  N   UNL A   1      33.654  30.005  27.757  1.00  0.00    -0.352 N 
ATOM      3  O   UNL A   1      34.505  31.838  28.796  1.00  0.00    -0.269 OA
ATOM      4  C   UNL A   1      34.684  30.716  28.342  1.00  0.00     0.251 C 
ATOM      5  H   UNL A   1      32.787  30.466  27.691  1.00  0.00     0.163 HD
BRANCH   4   6
ATOM      6  C   UNL A   1      36.000  30.051  28.447  1.00  0.00     0.039 A 
ATOM      7  C   UNL A   1      36.383  29.493  29.666  1.00  0.00     0.014 A 
ATOM      8  C   UNL A   1      36.903  30.136  27.385  1.00  0.00     0.014 A 
ATOM      9  C   UNL A   1      37.720  29.208  29.885  1.00  0.00     0.010 A 
ATOM     10  C   UNL A   1      38.229  29.738  27.577  1.00  0.00     0.010 A 
ATOM     11  C   UNL A   1      38.661  29.319  28.844  1.00  0.00    -0.014 A 
BRANCH  11  12
ATOM     12  C   UNL A   1      40.072  28.947  29.129  1.00  0.00     0.031 A 
ATOM     13  C   UNL A   1      40.649  27.625  28.695  1.00  0.00     0.074 A 
ATOM     14  C   UNL A   1      40.862  29.875  29.706  1.00  0.00     0.049 A 
ATOM     15  N   UNL A   1      41.881  27.196  28.809  1.00  0.00    -0.248 NA
ATOM     16  C   UNL A   1      39.738  26.658  28.063  1.00  0.00     0.031 C 
ATOM     17  C   UNL A   1      40.409  31.188  30.178  1.00  0.00     0.029 A 
ATOM     18  N   UNL A   1      42.211  29.889  29.939  1.00  0.00    -0.354 N 
ATOM     19  C   UNL A   1      41.887  25.902  28.299  1.00  0.00     0.074 A 
ATOM     20  C   UNL A   1      40.534  25.612  27.877  1.00  0.00     0.031 C 
ATOM     21  C   UNL A   1      41.471  31.913  30.551  1.00  0.00     0.029 A 
ATOM     22  C   UNL A   1      42.668  31.092  30.423  1.00  0.00     0.049 A 
ATOM     23  H   UNL A   1      42.796  29.113  29.778  1.00  0.00     0.167 HD
ATOM     24  C   UNL A   1      42.926  25.037  28.197  1.00  0.00     0.031 A 
ATOM     25  C   UNL A   1      43.912  31.497  30.737  1.00  0.00     0.031 A 
ATOM     26  C   UNL A   1      44.275  25.340  28.605  1.00  0.00     0.049 A 
ATOM     27  C   UNL A   1      45.047  30.535  30.572  1.00  0.00     0.074 A 
ATOM     28  C   UNL A   1      45.395  24.525  28.558  1.00  0.00     0.029 A 
ATOM     29  N   UNL A   1      44.693  26.558  29.120  1.00  0.00    -0.354 N 
ATOM     30  N   UNL A   1      45.019  29.305  30.121  1.00  0.00    -0.248 NA
ATOM     31  C   UNL A   1      46.377  31.010  30.972  1.00  0.00     0.031 C 
ATOM     32  C   UNL A   1      46.483  25.243  29.070  1.00  0.00     0.029 A 
ATOM     33  C   UNL A   1      46.050  26.517  29.398  1.00  0.00     0.049 A 
ATOM     34  H   UNL A   1      44.111  27.338  29.266  1.00  0.00     0.167 HD
ATOM     35  C   UNL A   1      46.327  28.846  30.205  1.00  0.00     0.074 A 
ATOM     36  C   UNL A   1      47.126  29.949  30.702  1.00  0.00     0.031 C 
ATOM     37  C   UNL A   1      46.818  27.616  29.918  1.00  0.00     0.031 A 
BRANCH  24  38
ATOM     38  C   UNL A   1      42.647  23.663  27.647  1.00  0.00    -0.014 A 
ATOM     39  C   UNL A   1      42.786  23.385  26.276  1.00  0.00     0.010 A 
ATOM     40  C   UNL A   1      42.311  22.616  28.526  1.00  0.00     0.010 A 
ATOM     41  C   UNL A   1      42.571  22.091  25.790  1.00  0.00     0.020 A 
ATOM     42  C   UNL A   1      42.115  21.317  28.048  1.00  0.00     0.020 A 
ATOM     43  C   UNL A   1      42.235  21.064  26.680  1.00  0.00     0.054 A 
BRANCH  43  44
ATOM     44  S   UNL A   1      42.003  19.384  26.033  1.00  0.00     0.124 S 
ATOM     45  O   UNL A   1      42.476  18.566  27.146  1.00  0.00    -0.237 OA
ATOM     46  O   UNL A   1      40.565  19.330  25.781  1.00  0.00    -0.237 OA
ATOM     47  O   UNL A   1      42.842  19.355  24.837  1.00  0.00    -0.744 OA
ENDBRANCH  43  44
ENDBRANCH  24  38
BRANCH  25  48
ATOM     48  C   UNL A   1      44.123  32.868  31.268  1.00  0.00    -0.014 A 
ATOM     49  C   UNL A   1      44.467  33.927  30.411  1.00  0.00     0.010 A 
ATOM     50  C   UNL A   1      43.922  33.127  32.637  1.00  0.00     0.010 A 
ATOM     51  C   UNL A   1      44.610  35.222  30.915  1.00  0.00     0.020 A 
ATOM     52  C   UNL A   1      44.036  34.425  33.138  1.00  0.00     0.020 A 
ATOM     53  C   UNL A   1      44.390  35.464  32.275  1.00  0.00     0.054 A 
BRANCH  53  54
ATOM     54  S   UNL A   1      44.496  37.162  32.906  1.00  0.00     0.124 S 
ATOM     55  O   UNL A   1      45.937  37.343  33.044  1.00  0.00    -0.237 OA
ATOM     56  O   UNL A   1      43.857  37.941  31.848  1.00  0.00    -0.237 OA
ATOM     57  O   UNL A   1      43.745  37.100  34.159  1.00  0.00    -0.744 OA
ENDBRANCH  53  54
ENDBRANCH  25  48
BRANCH  37  58
ATOM     58  C   UNL A   1      48.286  27.413  30.158  1.00  0.00    -0.014 A 
ATOM     59  C   UNL A   1      49.216  27.644  29.128  1.00  0.00     0.010 A 
ATOM     60  C   UNL A   1      48.739  26.974  31.414  1.00  0.00     0.010 A 
ATOM     61  C   UNL A   1      50.574  27.393  29.337  1.00  0.00     0.020 A 
ATOM     62  C   UNL A   1      50.099  26.742  31.631  1.00  0.00     0.020 A 
ATOM     63  C   UNL A   1      51.004  26.932  30.584  1.00  0.00     0.054 A 
BRANCH  63  64
ATOM     64  S   UNL A   1      52.770  26.606  30.836  1.00  0.00     0.124 S 
ATOM     65  O   UNL A   1      52.739  25.416  31.682  1.00  0.00    -0.237 OA
ATOM     66  O   UNL A   1      53.261  26.397  29.476  1.00  0.00    -0.237 OA
ATOM     67  O   UNL A   1      53.254  27.821  31.486  1.00  0.00    -0.744 OA
ENDBRANCH  63  64
ENDBRANCH  37  58
ENDBRANCH  11  12
ENDBRANCH   4   6
ENDBRANCH   1   2
BRANCH   1  68
ATOM     68  C   UNL A   1      32.374  28.074  26.797  1.00  0.00     0.023 C 
BRANCH  68  69
ATOM     69  C   UNL A   1      32.403  26.616  26.360  1.00  0.00     0.023 C 
BRANCH  69  70
ATOM     70  C   UNL A   1      33.540  26.238  25.418  1.00  0.00     0.116 C 
BRANCH  70  71
ATOM     71  N   UNL A   1      33.247  25.039  24.660  1.00  0.00    -0.356 N 
ATOM     72  C   UNL A   1      33.992  24.011  24.200  1.00  0.00     0.223 C 
ATOM     73  H   UNL A   1      32.293  24.955  24.429  1.00  0.00     0.163 HD
ATOM     74  O   UNL A   1      33.385  23.154  23.545  1.00  0.00    -0.275 OA
BRANCH  72  75
ATOM     75  C   UNL A   1      35.497  23.843  24.374  1.00  0.00     0.089 C 
ATOM     76  C   UNL A   1      36.383  23.011  23.430  1.00  0.00     0.018 C 
ATOM     77  C   UNL A   1      35.939  23.393  25.774  1.00  0.00     0.069 C 
ATOM     78  C   UNL A   1      37.252  22.181  24.406  1.00  0.00    -0.002 C 
ATOM     79  C   UNL A   1      35.575  21.942  25.980  1.00  0.00     0.137 C 
ATOM     80  C   UNL A   1      37.444  23.176  25.560  1.00  0.00     0.016 C 
ATOM     81  C   UNL A   1      36.423  21.073  25.081  1.00  0.00     0.079 C 
ATOM     82  O   UNL A   1      34.769  21.528  26.797  1.00  0.00    -0.299 OA
ENDBRANCH  72  75
ENDBRANCH  70  71
ENDBRANCH  69  70
ENDBRANCH  68  69
ENDBRANCH   1  68
TORSDOF 14
ENDMDL
MODEL 2
REMARK VINA RESULT:     -10.3      3.124      9.276
REMARK SMILES O=C(NCCCCNC(=O)[C@@H]1C[C@@H]2CC(=O)[C@H]1C2)c1ccc(-c2c3nc(c(-c4ccc(S(=O)(=O)[O-])cc4)c4ccc([nH]4)c(-c4ccc(S(=O)(=O)[O-])cc4)c4nc(c(-c5ccc(S(=O)(=O)[O-])cc5)c5ccc2[nH]5)C=C4)C=C3)cc1
REMARK SMILES IDX 4 1 3 2 1 3 2 4 19 6 20 7 78 8 21 9 77 10 22 11 23 12 24 13
REMARK SMILES IDX 71 14 25 15 76 16 70 17 72 18 26 19 75 20 69 21 68 22 27 24
REMARK SMILES IDX 57 25 38 26 56 27 39 28 42 29 55 30 73 31 40 32 41 33 54 35
REMARK SMILES IDX 74 36 43 37 28 38 29 39 37 40 30 41 36 42 31 43 32 44 33 45
REMARK SMILES IDX 34 46 35 47 58 48 59 49 67 50 60 51 66 52 61 53 62 54 63 55
REMARK SMILES IDX 64 56 65 57 44 58 45 59 53 60 46 61 52 62 47 63 48 64 49 65
REMARK SMILES IDX 50 66 51 67 5 68 6 69 7 70 8 71 9 72 10 74 11 75 12 76 17 77
REMARK SMILES IDX 13 78 15 79 18 80 14 81 16 82
REMARK H PARENT 3 5 72 23 42 34 8 73
REMARK Flexibility Score: inf
ROOT
ATOM      1  C   UNL A   1      40.603  21.828  26.078  1.00  0.00     0.116 C 
ENDROOT
BRANCH   1   2
ATOM      2  N   UNL A   1      39.220  22.170  25.769  1.00  0.00    -0.352 N 
ATOM      3  O   UNL A   1      37.378  23.499  25.816  1.00  0.00    -0.269 OA
ATOM      4  C   UNL A   1      38.560  23.340  26.089  1.00  0.00     0.251 C 
ATOM      5  H   UNL A   1      38.700  21.494  25.278  1.00  0.00     0.163 HD
BRANCH   4   6
ATOM      6  C   UNL A   1      39.320  24.377  26.821  1.00  0.00     0.039 A 
ATOM      7  C   UNL A   1      39.191  24.461  28.206  1.00  0.00     0.014 A 
ATOM      8  C   UNL A   1      40.019  25.352  26.107  1.00  0.00     0.014 A 
ATOM      9  C   UNL A   1      39.585  25.623  28.849  1.00  0.00     0.010 A 
ATOM     10  C   UNL A   1      40.516  26.472  26.781  1.00  0.00     0.010 A 
ATOM     11  C   UNL A   1      40.259  26.641  28.149  1.00  0.00    -0.014 A 
BRANCH  11  12
ATOM     12  C   UNL A   1      40.703  27.840  28.907  1.00  0.00     0.031 A 
ATOM     13  C   UNL A   1      42.128  28.008  29.366  1.00  0.00     0.074 A 
ATOM     14  C   UNL A   1      39.810  28.834  29.091  1.00  0.00     0.049 A 
ATOM     15  N   UNL A   1      42.675  29.032  29.971  1.00  0.00    -0.248 NA
ATOM     16  C   UNL A   1      43.056  26.891  29.129  1.00  0.00     0.031 C 
ATOM     17  C   UNL A   1      38.398  28.777  28.697  1.00  0.00     0.029 A 
ATOM     18  N   UNL A   1      39.962  30.098  29.594  1.00  0.00    -0.354 N 
ATOM     19  C   UNL A   1      43.995  28.675  30.218  1.00  0.00     0.074 A 
ATOM     20  C   UNL A   1      44.170  27.334  29.701  1.00  0.00     0.031 C 
ATOM     21  C   UNL A   1      37.841  29.981  28.881  1.00  0.00     0.029 A 
ATOM     22  C   UNL A   1      38.829  30.869  29.479  1.00  0.00     0.049 A 
ATOM     23  H   UNL A   1      40.799  30.423  29.998  1.00  0.00     0.167 HD
ATOM     24  C   UNL A   1      44.970  29.397  30.825  1.00  0.00     0.031 A 
ATOM     25  C   UNL A   1      38.600  32.150  29.823  1.00  0.00     0.031 A 
ATOM     26  C   UNL A   1      44.792  30.738  31.322  1.00  0.00     0.049 A 
ATOM     27  C   UNL A   1      39.708  32.938  30.450  1.00  0.00     0.074 A 
ATOM     28  C   UNL A   1      45.713  31.549  31.967  1.00  0.00     0.029 A 
ATOM     29  N   UNL A   1      43.622  31.474  31.217  1.00  0.00    -0.354 N 
ATOM     30  N   UNL A   1      40.937  32.562  30.705  1.00  0.00    -0.248 NA
ATOM     31  C   UNL A   1      39.393  34.315  30.848  1.00  0.00     0.031 C 
ATOM     32  C   UNL A   1      45.089  32.764  32.274  1.00  0.00     0.029 A 
ATOM     33  C   UNL A   1      43.794  32.725  31.787  1.00  0.00     0.049 A 
ATOM     34  H   UNL A   1      42.790  31.154  30.799  1.00  0.00     0.167 HD
ATOM     35  C   UNL A   1      41.541  33.652  31.318  1.00  0.00     0.074 A 
ATOM     36  C   UNL A   1      40.555  34.714  31.347  1.00  0.00     0.031 C 
ATOM     37  C   UNL A   1      42.791  33.756  31.831  1.00  0.00     0.031 A 
BRANCH  24  38
ATOM     38  C   UNL A   1      46.315  28.746  31.013  1.00  0.00    -0.014 A 
ATOM     39  C   UNL A   1      46.589  27.953  32.141  1.00  0.00     0.010 A 
ATOM     40  C   UNL A   1      47.295  28.871  30.010  1.00  0.00     0.010 A 
ATOM     41  C   UNL A   1      47.828  27.315  32.273  1.00  0.00     0.020 A 
ATOM     42  C   UNL A   1      48.526  28.219  30.129  1.00  0.00     0.020 A 
ATOM     43  C   UNL A   1      48.790  27.454  31.267  1.00  0.00     0.054 A 
BRANCH  43  44
ATOM     44  S   UNL A   1      50.372  26.583  31.441  1.00  0.00     0.124 S 
ATOM     45  O   UNL A   1      51.060  26.960  30.209  1.00  0.00    -0.237 OA
ATOM     46  O   UNL A   1      50.923  27.155  32.668  1.00  0.00    -0.237 OA
ATOM     47  O   UNL A   1      49.985  25.178  31.533  1.00  0.00    -0.744 OA
ENDBRANCH  43  44
ENDBRANCH  24  38
BRANCH  25  48
ATOM     48  C   UNL A   1      37.252  32.736  29.604  1.00  0.00    -0.014 A 
ATOM     49  C   UNL A   1      36.331  32.833  30.660  1.00  0.00     0.010 A 
ATOM     50  C   UNL A   1      36.910  33.252  28.341  1.00  0.00     0.010 A 
ATOM     51  C   UNL A   1      35.086  33.435  30.453  1.00  0.00     0.020 A 
ATOM     52  C   UNL A   1      35.679  33.879  28.140  1.00  0.00     0.020 A 
ATOM     53  C   UNL A   1      34.770  33.957  29.195  1.00  0.00     0.054 A 
BRANCH  53  54
ATOM     54  S   UNL A   1      33.187  34.811  28.958  1.00  0.00     0.124 S 
ATOM     55  O   UNL A   1      32.532  33.963  27.968  1.00  0.00    -0.237 OA
ATOM     56  O   UNL A   1      32.603  34.790  30.298  1.00  0.00    -0.237 OA
ATOM     57  O   UNL A   1      33.589  36.135  28.487  1.00  0.00    -0.744 OA
ENDBRANCH  53  54
ENDBRANCH  25  48
BRANCH  37  58
ATOM     58  C   UNL A   1      43.138  35.065  32.478  1.00  0.00    -0.014 A 
ATOM     59  C   UNL A   1      43.670  36.120  31.715  1.00  0.00     0.010 A 
ATOM     60  C   UNL A   1      42.946  35.239  33.860  1.00  0.00     0.010 A 
ATOM     61  C   UNL A   1      44.050  37.314  32.332  1.00  0.00     0.020 A 
ATOM     62  C   UNL A   1      43.307  36.438  34.476  1.00  0.00     0.020 A 
ATOM     63  C   UNL A   1      43.877  37.460  33.712  1.00  0.00     0.054 A 
BRANCH  63  64
ATOM     64  S   UNL A   1      44.381  39.014  34.498  1.00  0.00     0.124 S 
ATOM     65  O   UNL A   1      45.771  39.133  34.066  1.00  0.00    -0.237 OA
ATOM     66  O   UNL A   1      43.458  39.987  33.920  1.00  0.00    -0.237 OA
ATOM     67  O   UNL A   1      44.191  38.755  35.923  1.00  0.00    -0.744 OA
ENDBRANCH  63  64
ENDBRANCH  37  58
ENDBRANCH  11  12
ENDBRANCH   4   6
ENDBRANCH   1   2
BRANCH   1  68
ATOM     68  C   UNL A   1      40.777  20.862  27.237  1.00  0.00     0.023 C 
BRANCH  68  69
ATOM     69  C   UNL A   1      42.018  19.983  27.169  1.00  0.00     0.023 C 
BRANCH  69  70
ATOM     70  C   UNL A   1      42.625  19.814  25.782  1.00  0.00     0.116 C 
BRANCH  70  71
ATOM     71  N   UNL A   1      44.056  20.042  25.779  1.00  0.00    -0.356 N 
ATOM     72  C   UNL A   1      44.835  21.121  25.556  1.00  0.00     0.223 C 
ATOM     73  H   UNL A   1      44.574  19.230  25.985  1.00  0.00     0.163 HD
ATOM     74  O   UNL A   1      46.057  20.927  25.611  1.00  0.00    -0.275 OA
BRANCH  72  75
ATOM     75  C   UNL A   1      44.351  22.523  25.202  1.00  0.00     0.089 C 
ATOM     76  C   UNL A   1      45.204  23.564  24.456  1.00  0.00     0.018 C 
ATOM     77  C   UNL A   1      43.759  23.317  26.377  1.00  0.00     0.069 C 
ATOM     78  C   UNL A   1      44.990  24.853  25.285  1.00  0.00    -0.002 C 
ATOM     79  C   UNL A   1      44.866  23.743  27.311  1.00  0.00     0.137 C 
ATOM     80  C   UNL A   1      43.528  24.689  25.727  1.00  0.00     0.016 C 
ATOM     81  C   UNL A   1      45.735  24.776  26.631  1.00  0.00     0.079 C 
ATOM     82  O   UNL A   1      44.999  23.365  28.463  1.00  0.00    -0.299 OA
ENDBRANCH  72  75
ENDBRANCH  70  71
ENDBRANCH  69  70
ENDBRANCH  68  69
ENDBRANCH   1  68
TORSDOF 14
ENDMDL
MODEL 3
REMARK VINA RESULT:     -10.3      2.713      8.709
REMARK SMILES O=C(NCCCCNC(=O)[C@@H]1C[C@@H]2CC(=O)[C@H]1C2)c1ccc(-c2c3nc(c(-c4ccc(S(=O)(=O)[O-])cc4)c4ccc([nH]4)c(-c4ccc(S(=O)(=O)[O-])cc4)c4nc(c(-c5ccc(S(=O)(=O)[O-])cc5)c5ccc2[nH]5)C=C4)C=C3)cc1
REMARK SMILES IDX 4 1 3 2 1 3 2 4 19 6 20 7 78 8 21 9 77 10 22 11 23 12 24 13
REMARK SMILES IDX 71 14 25 15 76 16 70 17 72 18 26 19 75 20 69 21 68 22 27 24
REMARK SMILES IDX 57 25 38 26 56 27 39 28 42 29 55 30 73 31 40 32 41 33 54 35
REMARK SMILES IDX 74 36 43 37 28 38 29 39 37 40 30 41 36 42 31 43 32 44 33 45
REMARK SMILES IDX 34 46 35 47 58 48 59 49 67 50 60 51 66 52 61 53 62 54 63 55
REMARK SMILES IDX 64 56 65 57 44 58 45 59 53 60 46 61 52 62 47 63 48 64 49 65
REMARK SMILES IDX 50 66 51 67 5 68 6 69 7 70 8 71 9 72 10 74 11 75 12 76 17 77
REMARK SMILES IDX 13 78 15 79 18 80 14 81 16 82
REMARK H PARENT 3 5 72 23 42 34 8 73
REMARK Flexibility Score: inf
ROOT
ATOM      1  C   UNL A   1      37.025  23.690  25.054  1.00  0.00     0.116 C 
ENDROOT
BRANCH   1   2
ATOM      2  N   UNL A   1      38.082  22.737  25.369  1.00  0.00    -0.352 N 
ATOM      3  O   UNL A   1      40.030  22.084  26.338  1.00  0.00    -0.269 OA
ATOM      4  C   UNL A   1      39.178  22.948  26.181  1.00  0.00     0.251 C 
ATOM      5  H   UNL A   1      38.005  21.846  24.959  1.00  0.00     0.163 HD
BRANCH   4   6
ATOM      6  C   UNL A   1      39.314  24.277  26.816  1.00  0.00     0.039 A 
ATOM      7  C   UNL A   1      40.054  25.265  26.169  1.00  0.00     0.014 A 
ATOM      8  C   UNL A   1      38.846  24.470  28.118  1.00  0.00     0.014 A 
ATOM      9  C   UNL A   1      40.496  26.359  26.895  1.00  0.00     0.010 A 
ATOM     10  C   UNL A   1      39.202  25.632  28.809  1.00  0.00     0.010 A 
ATOM     11  C   UNL A   1      40.072  26.562  28.222  1.00  0.00    -0.014 A 
BRANCH  11  12
ATOM     12  C   UNL A   1      40.540  27.783  28.930  1.00  0.00     0.031 A 
ATOM     13  C   UNL A   1      41.974  27.955  29.356  1.00  0.00     0.074 A 
ATOM     14  C   UNL A   1      39.658  28.790  29.096  1.00  0.00     0.049 A 
ATOM     15  N   UNL A   1      42.540  28.995  29.915  1.00  0.00    -0.248 NA
ATOM     16  C   UNL A   1      42.889  26.823  29.141  1.00  0.00     0.031 C 
ATOM     17  C   UNL A   1      38.238  28.731  28.730  1.00  0.00     0.029 A 
ATOM     18  N   UNL A   1      39.828  30.069  29.552  1.00  0.00    -0.354 N 
ATOM     19  C   UNL A   1      43.862  28.635  30.150  1.00  0.00     0.074 A 
ATOM     20  C   UNL A   1      44.017  27.276  29.677  1.00  0.00     0.031 C 
ATOM     21  C   UNL A   1      37.694  29.945  28.883  1.00  0.00     0.029 A 
ATOM     22  C   UNL A   1      38.699  30.845  29.432  1.00  0.00     0.049 A 
ATOM     23  H   UNL A   1      40.675  30.401  29.929  1.00  0.00     0.167 HD
ATOM     24  C   UNL A   1      44.853  29.370  30.713  1.00  0.00     0.031 A 
ATOM     25  C   UNL A   1      38.487  32.138  29.736  1.00  0.00     0.031 A 
ATOM     26  C   UNL A   1      44.696  30.729  31.167  1.00  0.00     0.049 A 
ATOM     27  C   UNL A   1      39.612  32.938  30.314  1.00  0.00     0.074 A 
ATOM     28  C   UNL A   1      45.635  31.553  31.765  1.00  0.00     0.029 A 
ATOM     29  N   UNL A   1      43.529  31.470  31.058  1.00  0.00    -0.354 N 
ATOM     30  N   UNL A   1      40.844  32.562  30.559  1.00  0.00    -0.248 NA
ATOM     31  C   UNL A   1      39.316  34.331  30.670  1.00  0.00     0.031 C 
ATOM     32  C   UNL A   1      45.026  32.784  32.042  1.00  0.00     0.029 A 
ATOM     33  C   UNL A   1      43.721  32.739  31.581  1.00  0.00     0.049 A 
ATOM     34  H   UNL A   1      42.687  31.143  30.667  1.00  0.00     0.167 HD
ATOM     35  C   UNL A   1      41.467  33.667  31.122  1.00  0.00     0.074 A 
ATOM     36  C   UNL A   1      40.489  34.738  31.133  1.00  0.00     0.031 C 
ATOM     37  C   UNL A   1      42.727  33.779  31.608  1.00  0.00     0.031 A 
BRANCH  24  38
ATOM     38  C   UNL A   1      46.197  28.715  30.898  1.00  0.00    -0.014 A 
ATOM     39  C   UNL A   1      47.171  28.750  29.884  1.00  0.00     0.010 A 
ATOM     40  C   UNL A   1      46.516  28.120  32.133  1.00  0.00     0.010 A 
ATOM     41  C   UNL A   1      48.431  28.180  30.094  1.00  0.00     0.020 A 
ATOM     42  C   UNL A   1      47.782  27.567  32.354  1.00  0.00     0.020 A 
ATOM     43  C   UNL A   1      48.729  27.590  31.327  1.00  0.00     0.054 A 
BRANCH  43  44
ATOM     44  S   UNL A   1      50.385  26.895  31.590  1.00  0.00     0.124 S 
ATOM     45  O   UNL A   1      51.177  27.626  30.604  1.00  0.00    -0.237 OA
ATOM     46  O   UNL A   1      50.657  27.230  32.986  1.00  0.00    -0.237 OA
ATOM     47  O   UNL A   1      50.210  25.471  31.318  1.00  0.00    -0.744 OA
ENDBRANCH  43  44
ENDBRANCH  24  38
BRANCH  25  48
ATOM     48  C   UNL A   1      37.140  32.728  29.522  1.00  0.00    -0.014 A 
ATOM     49  C   UNL A   1      36.188  32.741  30.555  1.00  0.00     0.010 A 
ATOM     50  C   UNL A   1      36.827  33.330  28.289  1.00  0.00     0.010 A 
ATOM     51  C   UNL A   1      34.944  33.346  30.358  1.00  0.00     0.020 A 
ATOM     52  C   UNL A   1      35.596  33.960  28.100  1.00  0.00     0.020 A 
ATOM     53  C   UNL A   1      34.657  33.955  29.132  1.00  0.00     0.054 A 
BRANCH  53  54
ATOM     54  S   UNL A   1      33.072  34.811  28.913  1.00  0.00     0.124 S 
ATOM     55  O   UNL A   1      32.401  33.958  27.937  1.00  0.00    -0.237 OA
ATOM     56  O   UNL A   1      32.508  34.798  30.261  1.00  0.00    -0.237 OA
ATOM     57  O   UNL A   1      33.470  36.131  28.428  1.00  0.00    -0.744 OA
ENDBRANCH  53  54
ENDBRANCH  25  48
BRANCH  37  58
ATOM     58  C   UNL A   1      43.096  35.106  32.203  1.00  0.00    -0.014 A 
ATOM     59  C   UNL A   1      42.761  35.409  33.535  1.00  0.00     0.010 A 
ATOM     60  C   UNL A   1      43.771  36.063  31.425  1.00  0.00     0.010 A 
ATOM     61  C   UNL A   1      43.051  36.668  34.065  1.00  0.00     0.020 A 
ATOM     62  C   UNL A   1      44.080  37.315  31.959  1.00  0.00     0.020 A 
ATOM     63  C   UNL A   1      43.699  37.617  33.269  1.00  0.00     0.054 A 
BRANCH  63  64
ATOM     64  S   UNL A   1      44.064  39.249  33.971  1.00  0.00     0.124 S 
ATOM     65  O   UNL A   1      42.838  39.985  33.674  1.00  0.00    -0.237 OA
ATOM     66  O   UNL A   1      44.292  38.953  35.383  1.00  0.00    -0.237 OA
ATOM     67  O   UNL A   1      45.247  39.683  33.233  1.00  0.00    -0.744 OA
ENDBRANCH  63  64
ENDBRANCH  37  58
ENDBRANCH  11  12
ENDBRANCH   4   6
ENDBRANCH   1   2
BRANCH   1  68
ATOM     68  C   UNL A   1      35.617  23.199  25.340  1.00  0.00     0.023 C 
BRANCH  68  69
ATOM     69  C   UNL A   1      34.518  24.238  25.168  1.00  0.00     0.023 C 
BRANCH  69  70
ATOM     70  C   UNL A   1      33.404  24.192  26.207  1.00  0.00     0.116 C 
BRANCH  70  71
ATOM     71  N   UNL A   1      32.226  24.917  25.778  1.00  0.00    -0.356 N 
ATOM     72  C   UNL A   1      31.767  26.170  25.982  1.00  0.00     0.223 C 
ATOM     73  H   UNL A   1      31.627  24.376  25.213  1.00  0.00     0.163 HD
ATOM     74  O   UNL A   1      30.673  26.436  25.468  1.00  0.00    -0.275 OA
BRANCH  72  75
ATOM     75  C   UNL A   1      32.445  27.252  26.816  1.00  0.00     0.089 C 
ATOM     76  C   UNL A   1      31.689  28.389  27.527  1.00  0.00     0.018 C 
ATOM     77  C   UNL A   1      33.607  27.972  26.117  1.00  0.00     0.069 C 
ATOM     78  C   UNL A   1      32.520  29.643  27.163  1.00  0.00    -0.002 C 
ATOM     79  C   UNL A   1      33.066  28.889  25.046  1.00  0.00     0.137 C 
ATOM     80  C   UNL A   1      33.944  29.066  27.141  1.00  0.00     0.016 C 
ATOM     81  C   UNL A   1      32.318  30.034  25.688  1.00  0.00     0.079 C 
ATOM     82  O   UNL A   1      33.261  28.764  23.848  1.00  0.00    -0.299 OA
ENDBRANCH  72  75
ENDBRANCH  70  71
ENDBRANCH  69  70
ENDBRANCH  68  69
ENDBRANCH   1  68
TORSDOF 14
ENDMDL
