MODEL 1
REMARK VINA RESULT:     -11.4      0.000      0.000
REMARK SMILES Cc1ccc(N)cc1S(=O)(=O)Nc1cccc(C(=O)NCCCCNC(=O)c2ccc(-c3c4nc(c(-c5ccc(S(=O)(=O)[O-])cc5)c5ccc([nH]5)c(-c5ccc(S(=O)(=O)[O-])cc5)c5nc(c(-c6ccc(S(=O)(=O)[O-])cc6)c6ccc3[nH]6)C=C5)C=C4)cc2)c1
REMARK SMILES IDX 22 1 21 2 20 3 18 4 19 5 17 7 13 8 14 9 88 10 15 11 16 12
REMARK SMILES IDX 12 13 9 15 10 16 11 17 8 18 1 19 2 20 3 21 4 22 7 23 5 24
REMARK SMILES IDX 6 25 23 28 24 29 25 30 26 31 27 33 28 34 29 35 87 36 30 37
REMARK SMILES IDX 86 38 31 39 32 40 33 41 80 42 34 43 85 44 79 45 81 46 35 47
REMARK SMILES IDX 84 48 78 49 77 50 36 52 66 53 47 54 65 55 48 56 51 57 64 58
REMARK SMILES IDX 82 59 49 60 50 61 63 63 83 64 52 65 37 66 38 67 46 68 39 69
REMARK SMILES IDX 45 70 40 71 41 72 42 73 43 74 44 75 67 76 68 77 76 78 69 79
REMARK SMILES IDX 75 80 70 81 71 82 72 83 73 84 74 85 53 86 54 87 62 88 55 89
REMARK SMILES IDX 61 90 56 91 57 92 58 93 59 94 60 95
REMARK H PARENT 20 6 12 14 6 26 6 27 25 32 81 51 51 62
REMARK Flexibility Score: inf
ROOT
ATOM      1  C   UNL A   1      36.866  22.010  24.967  1.00  0.00     0.023 C 
ENDROOT
BRANCH   1   2
ATOM      2  C   UNL A   1      35.726  21.845  25.975  1.00  0.00     0.116 C 
BRANCH   2   3
ATOM      3  N   UNL A   1      35.017  20.602  25.736  1.00  0.00    -0.352 N 
ATOM      4  C   UNL A   1      33.815  20.312  25.142  1.00  0.00     0.251 C 
ATOM      5  O   UNL A   1      33.469  19.130  25.118  1.00  0.00    -0.269 OA
ATOM      6  H   UNL A   1      35.495  19.806  26.065  1.00  0.00     0.163 HD
BRANCH   4   7
ATOM      7  C   UNL A   1      32.953  21.322  24.456  1.00  0.00     0.041 A 
ATOM      8  C   UNL A   1      31.215  23.006  24.402  1.00  0.00     0.050 A 
ATOM      9  C   UNL A   1      31.637  23.415  23.133  1.00  0.00     0.027 A 
ATOM     10  C   UNL A   1      31.796  21.888  24.996  1.00  0.00     0.040 A 
ATOM     11  C   UNL A   1      32.720  22.790  22.524  1.00  0.00     0.003 A 
ATOM     12  C   UNL A   1      33.396  21.775  23.201  1.00  0.00     0.014 A 
BRANCH   8  13
ATOM     13  N   UNL A   1      30.303  23.863  25.073  1.00  0.00    -0.280 N 
ATOM     14  H   UNL A   1      29.349  23.739  24.863  1.00  0.00     0.180 HD
BRANCH  13  15
ATOM     15  S   UNL A   1      30.671  25.056  26.178  1.00  0.00     0.262 S 
ATOM     16  O   UNL A   1      31.422  24.437  27.251  1.00  0.00    -0.201 OA
ATOM     17  O   UNL A   1      29.406  25.711  26.446  1.00  0.00    -0.201 OA
BRANCH  15  18
ATOM     18  C   UNL A   1      31.734  26.315  25.473  1.00  0.00     0.092 A 
ATOM     19  C   UNL A   1      34.025  25.096  25.508  1.00  0.00     0.046 C 
ATOM     20  C   UNL A   1      33.127  26.275  25.305  1.00  0.00    -0.030 A 
ATOM     21  C   UNL A   1      33.775  27.465  24.913  1.00  0.00     0.007 A 
ATOM     22  C   UNL A   1      33.061  28.614  24.573  1.00  0.00     0.026 A 
ATOM     23  C   UNL A   1      31.027  27.482  25.096  1.00  0.00     0.048 A 
ATOM     24  C   UNL A   1      31.674  28.610  24.592  1.00  0.00     0.033 A 
BRANCH  24  25
ATOM     25  N   UNL A   1      30.963  29.746  24.255  1.00  0.00    -0.399 N 
ATOM     26  H   UNL A   1      29.986  29.769  24.373  1.00  0.00     0.156 HD
ATOM     27  H   UNL A   1      31.434  30.534  23.898  1.00  0.00     0.156 HD
ENDBRANCH  24  25
ENDBRANCH  15  18
ENDBRANCH  13  15
ENDBRANCH   8  13
ENDBRANCH   4   7
ENDBRANCH   2   3
ENDBRANCH   1   2
BRANCH   1  28
ATOM     28  C   UNL A   1      37.878  20.863  25.000  1.00  0.00     0.023 C 
BRANCH  28  29
ATOM     29  C   UNL A   1      39.067  21.096  25.928  1.00  0.00     0.116 C 
BRANCH  29  30
ATOM     30  N   UNL A   1      40.017  19.995  25.927  1.00  0.00    -0.352 N 
ATOM     31  C   UNL A   1      41.376  20.030  26.124  1.00  0.00     0.251 C 
ATOM     32  H   UNL A   1      39.635  19.103  25.762  1.00  0.00     0.163 HD
ATOM     33  O   UNL A   1      42.043  19.008  26.000  1.00  0.00    -0.269 OA
BRANCH  31  34
ATOM     34  C   UNL A   1      42.036  21.313  26.451  1.00  0.00     0.039 A 
ATOM     35  C   UNL A   1      42.302  22.209  25.414  1.00  0.00     0.014 A 
ATOM     36  C   UNL A   1      42.383  21.634  27.766  1.00  0.00     0.014 A 
ATOM     37  C   UNL A   1      42.866  23.452  25.704  1.00  0.00     0.010 A 
ATOM     38  C   UNL A   1      42.885  22.899  28.062  1.00  0.00     0.010 A 
ATOM     39  C   UNL A   1      43.133  23.820  27.034  1.00  0.00    -0.014 A 
BRANCH  39  40
ATOM     40  C   UNL A   1      43.660  25.171  27.350  1.00  0.00     0.031 A 
ATOM     41  C   UNL A   1      45.104  25.507  27.099  1.00  0.00     0.074 A 
ATOM     42  C   UNL A   1      42.837  26.089  27.893  1.00  0.00     0.049 A 
ATOM     43  N   UNL A   1      45.727  26.644  27.280  1.00  0.00    -0.248 NA
ATOM     44  C   UNL A   1      45.967  24.424  26.601  1.00  0.00     0.031 C 
ATOM     45  C   UNL A   1      41.431  25.865  28.241  1.00  0.00     0.029 A 
ATOM     46  N   UNL A   1      43.060  27.396  28.241  1.00  0.00    -0.354 N 
ATOM     47  C   UNL A   1      47.051  26.413  26.927  1.00  0.00     0.074 A 
ATOM     48  C   UNL A   1      47.153  25.015  26.568  1.00  0.00     0.031 C 
ATOM     49  C   UNL A   1      40.908  27.009  28.715  1.00  0.00     0.029 A 
ATOM     50  C   UNL A   1      41.943  28.036  28.727  1.00  0.00     0.049 A 
ATOM     51  H   UNL A   1      43.936  27.836  28.151  1.00  0.00     0.167 HD
ATOM     52  C   UNL A   1      48.083  27.289  26.881  1.00  0.00     0.031 A 
ATOM     53  C   UNL A   1      41.770  29.311  29.124  1.00  0.00     0.031 A 
ATOM     54  C   UNL A   1      47.978  28.682  27.227  1.00  0.00     0.049 A 
ATOM     55  C   UNL A   1      42.923  30.270  29.035  1.00  0.00     0.074 A 
ATOM     56  C   UNL A   1      48.955  29.662  27.165  1.00  0.00     0.029 A 
ATOM     57  N   UNL A   1      46.828  29.295  27.698  1.00  0.00    -0.354 N 
ATOM     58  N   UNL A   1      44.151  30.047  28.630  1.00  0.00    -0.248 NA
ATOM     59  C   UNL A   1      42.661  31.658  29.440  1.00  0.00     0.031 C 
ATOM     60  C   UNL A   1      48.402  30.860  27.631  1.00  0.00     0.029 A 
ATOM     61  C   UNL A   1      47.071  30.636  27.943  1.00  0.00     0.049 A 
ATOM     62  H   UNL A   1      45.964  28.843  27.838  1.00  0.00     0.167 HD
ATOM     63  C   UNL A   1      44.802  31.273  28.712  1.00  0.00     0.074 A 
ATOM     64  C   UNL A   1      43.827  32.235  29.184  1.00  0.00     0.031 C 
ATOM     65  C   UNL A   1      46.092  31.576  28.423  1.00  0.00     0.031 A 
BRANCH  52  66
ATOM     66  C   UNL A   1      49.420  26.760  26.433  1.00  0.00    -0.014 A 
ATOM     67  C   UNL A   1      50.286  26.124  27.341  1.00  0.00     0.010 A 
ATOM     68  C   UNL A   1      49.803  26.868  25.084  1.00  0.00     0.010 A 
ATOM     69  C   UNL A   1      51.527  25.642  26.919  1.00  0.00     0.020 A 
ATOM     70  C   UNL A   1      51.034  26.365  24.652  1.00  0.00     0.020 A 
ATOM     71  C   UNL A   1      51.895  25.771  25.577  1.00  0.00     0.054 A 
BRANCH  71  72
ATOM     72  S   UNL A   1      53.504  25.119  25.049  1.00  0.00     0.124 S 
ATOM     73  O   UNL A   1      53.375  23.701  25.375  1.00  0.00    -0.237 OA
ATOM     74  O   UNL A   1      53.528  25.435  23.623  1.00  0.00    -0.237 OA
ATOM     75  O   UNL A   1      54.463  25.861  25.864  1.00  0.00    -0.744 OA
ENDBRANCH  71  72
ENDBRANCH  52  66
BRANCH  53  76
ATOM     76  C   UNL A   1      40.437  29.765  29.604  1.00  0.00    -0.014 A 
ATOM     77  C   UNL A   1      40.152  29.797  30.981  1.00  0.00     0.010 A 
ATOM     78  C   UNL A   1      39.450  30.172  28.690  1.00  0.00     0.010 A 
ATOM     79  C   UNL A   1      38.895  30.206  31.433  1.00  0.00     0.020 A 
ATOM     80  C   UNL A   1      38.200  30.605  29.140  1.00  0.00     0.020 A 
ATOM     81  C   UNL A   1      37.925  30.606  30.508  1.00  0.00     0.054 A 
BRANCH  81  82
ATOM     82  S   UNL A   1      36.314  31.177  31.117  1.00  0.00     0.124 S 
ATOM     83  O   UNL A   1      36.642  32.496  31.649  1.00  0.00    -0.237 OA
ATOM     84  O   UNL A   1      35.494  31.168  29.909  1.00  0.00    -0.237 OA
ATOM     85  O   UNL A   1      35.952  30.171  32.114  1.00  0.00    -0.744 OA
ENDBRANCH  81  82
ENDBRANCH  53  76
BRANCH  65  86
ATOM     86  C   UNL A   1      46.509  33.010  28.594  1.00  0.00    -0.014 A 
ATOM     87  C   UNL A   1      46.374  33.935  27.543  1.00  0.00     0.010 A 
ATOM     88  C   UNL A   1      47.032  33.441  29.826  1.00  0.00     0.010 A 
ATOM     89  C   UNL A   1      46.802  35.255  27.707  1.00  0.00     0.020 A 
ATOM     90  C   UNL A   1      47.437  34.767  30.001  1.00  0.00     0.020 A 
ATOM     91  C   UNL A   1      47.339  35.660  28.932  1.00  0.00     0.054 A 
BRANCH  91  92
ATOM     92  S   UNL A   1      47.881  37.380  29.128  1.00  0.00     0.124 S 
ATOM     93  O   UNL A   1      49.262  37.316  28.657  1.00  0.00    -0.237 OA
ATOM     94  O   UNL A   1      46.957  38.112  28.264  1.00  0.00    -0.237 OA
ATOM     95  O   UNL A   1      47.720  37.632  30.557  1.00  0.00    -0.744 OA
ENDBRANCH  91  92
ENDBRANCH  65  86
ENDBRANCH  39  40
ENDBRANCH  31  34
ENDBRANCH  29  30
ENDBRANCH  28  29
ENDBRANCH   1  28
TORSDOF 18
ENDMDL
MODEL 2
REMARK VINA RESULT:     -11.2      3.987      5.106
REMARK SMILES Cc1ccc(N)cc1S(=O)(=O)Nc1cccc(C(=O)NCCCCNC(=O)c2ccc(-c3c4nc(c(-c5ccc(S(=O)(=O)[O-])cc5)c5ccc([nH]5)c(-c5ccc(S(=O)(=O)[O-])cc5)c5nc(c(-c6ccc(S(=O)(=O)[O-])cc6)c6ccc3[nH]6)C=C5)C=C4)cc2)c1
REMARK SMILES IDX 22 1 21 2 20 3 18 4 19 5 17 7 13 8 14 9 88 10 15 11 16 12
REMARK SMILES IDX 12 13 9 15 10 16 11 17 8 18 1 19 2 20 3 21 4 22 7 23 5 24
REMARK SMILES IDX 6 25 23 28 24 29 25 30 26 31 27 33 28 34 29 35 87 36 30 37
REMARK SMILES IDX 86 38 31 39 32 40 33 41 80 42 34 43 85 44 79 45 81 46 35 47
REMARK SMILES IDX 84 48 78 49 77 50 36 52 66 53 47 54 65 55 48 56 51 57 64 58
REMARK SMILES IDX 82 59 49 60 50 61 63 63 83 64 52 65 37 66 38 67 46 68 39 69
REMARK SMILES IDX 45 70 40 71 41 72 42 73 43 74 44 75 67 76 68 77 76 78 69 79
REMARK SMILES IDX 75 80 70 81 71 82 72 83 73 84 74 85 53 86 54 87 62 88 55 89
REMARK SMILES IDX 61 90 56 91 57 92 58 93 59 94 60 95
REMARK H PARENT 20 6 12 14 6 26 6 27 25 32 81 51 51 62
REMARK Flexibility Score: inf
ROOT
ATOM      1  C   UNL A   1      35.859  21.714  24.371  1.00  0.00     0.023 C 
ENDROOT
BRANCH   1   2
ATOM      2  C   UNL A   1      35.269  21.053  25.619  1.00  0.00     0.116 C 
BRANCH   2   3
ATOM      3  N   UNL A   1      34.156  20.196  25.257  1.00  0.00    -0.352 N 
ATOM      4  C   UNL A   1      32.830  20.443  25.005  1.00  0.00     0.251 C 
ATOM      5  O   UNL A   1      32.116  19.473  24.744  1.00  0.00    -0.269 OA
ATOM      6  H   UNL A   1      34.401  19.245  25.174  1.00  0.00     0.163 HD
BRANCH   4   7
ATOM      7  C   UNL A   1      32.228  21.810  24.946  1.00  0.00     0.041 A 
ATOM      8  C   UNL A   1      31.553  23.831  23.796  1.00  0.00     0.050 A 
ATOM      9  C   UNL A   1      30.781  24.210  24.898  1.00  0.00     0.027 A 
ATOM     10  C   UNL A   1      32.363  22.700  23.878  1.00  0.00     0.040 A 
ATOM     11  C   UNL A   1      30.719  23.393  26.022  1.00  0.00     0.003 A 
ATOM     12  C   UNL A   1      31.410  22.182  26.027  1.00  0.00     0.014 A 
BRANCH   8  13
ATOM     13  N   UNL A   1      31.345  24.558  22.595  1.00  0.00    -0.280 N 
ATOM     14  H   UNL A   1      30.655  24.209  21.986  1.00  0.00     0.180 HD
BRANCH  13  15
ATOM     15  S   UNL A   1      32.141  25.938  22.103  1.00  0.00     0.262 S 
ATOM     16  O   UNL A   1      31.519  26.383  20.873  1.00  0.00    -0.201 OA
ATOM     17  O   UNL A   1      33.546  25.580  22.131  1.00  0.00    -0.201 OA
BRANCH  15  18
ATOM     18  C   UNL A   1      31.953  27.274  23.282  1.00  0.00     0.092 A 
ATOM     19  C   UNL A   1      29.385  27.647  23.192  1.00  0.00     0.046 C 
ATOM     20  C   UNL A   1      30.783  27.975  23.613  1.00  0.00    -0.030 A 
ATOM     21  C   UNL A   1      30.913  29.125  24.421  1.00  0.00     0.007 A 
ATOM     22  C   UNL A   1      32.133  29.491  24.988  1.00  0.00     0.026 A 
ATOM     23  C   UNL A   1      33.176  27.647  23.890  1.00  0.00     0.048 A 
ATOM     24  C   UNL A   1      33.264  28.712  24.785  1.00  0.00     0.033 A 
BRANCH  24  25
ATOM     25  N   UNL A   1      34.475  29.072  25.346  1.00  0.00    -0.399 N 
ATOM     26  H   UNL A   1      34.737  28.713  26.224  1.00  0.00     0.156 HD
ATOM     27  H   UNL A   1      35.077  29.685  24.865  1.00  0.00     0.156 HD
ENDBRANCH  24  25
ENDBRANCH  15  18
ENDBRANCH  13  15
ENDBRANCH   8  13
ENDBRANCH   4   7
ENDBRANCH   2   3
ENDBRANCH   1   2
BRANCH   1  28
ATOM     28  C   UNL A   1      35.899  23.241  24.453  1.00  0.00     0.023 C 
BRANCH  28  29
ATOM     29  C   UNL A   1      37.068  23.800  25.259  1.00  0.00     0.116 C 
BRANCH  29  30
ATOM     30  N   UNL A   1      38.133  22.833  25.469  1.00  0.00    -0.352 N 
ATOM     31  C   UNL A   1      39.322  22.992  26.138  1.00  0.00     0.251 C 
ATOM     32  H   UNL A   1      37.982  21.942  25.078  1.00  0.00     0.163 HD
ATOM     33  O   UNL A   1      40.153  22.089  26.142  1.00  0.00    -0.269 OA
BRANCH  31  34
ATOM     34  C   UNL A   1      39.612  24.271  26.822  1.00  0.00     0.039 A 
ATOM     35  C   UNL A   1      39.137  24.455  28.122  1.00  0.00     0.014 A 
ATOM     36  C   UNL A   1      40.351  25.277  26.193  1.00  0.00     0.014 A 
ATOM     37  C   UNL A   1      39.451  25.627  28.811  1.00  0.00     0.010 A 
ATOM     38  C   UNL A   1      40.718  26.416  26.904  1.00  0.00     0.010 A 
ATOM     39  C   UNL A   1      40.270  26.604  28.220  1.00  0.00    -0.014 A 
BRANCH  39  40
ATOM     40  C   UNL A   1      40.668  27.814  28.981  1.00  0.00     0.031 A 
ATOM     41  C   UNL A   1      42.023  27.901  29.627  1.00  0.00     0.074 A 
ATOM     42  C   UNL A   1      39.790  28.828  29.112  1.00  0.00     0.049 A 
ATOM     43  N   UNL A   1      42.552  28.893  30.297  1.00  0.00    -0.248 NA
ATOM     44  C   UNL A   1      42.888  26.716  29.528  1.00  0.00     0.031 C 
ATOM     45  C   UNL A   1      38.423  28.839  28.584  1.00  0.00     0.029 A 
ATOM     46  N   UNL A   1      39.918  30.049  29.724  1.00  0.00    -0.354 N 
ATOM     47  C   UNL A   1      43.804  28.452  30.705  1.00  0.00     0.074 A 
ATOM     48  C   UNL A   1      43.937  27.084  30.250  1.00  0.00     0.031 C 
ATOM     49  C   UNL A   1      37.854  30.024  28.861  1.00  0.00     0.029 A 
ATOM     50  C   UNL A   1      38.803  30.845  29.603  1.00  0.00     0.049 A 
ATOM     51  H   UNL A   1      40.731  30.328  30.204  1.00  0.00     0.167 HD
ATOM     52  C   UNL A   1      44.768  29.128  31.375  1.00  0.00     0.031 A 
ATOM     53  C   UNL A   1      38.577  32.102  30.030  1.00  0.00     0.031 A 
ATOM     54  C   UNL A   1      44.639  30.493  31.816  1.00  0.00     0.049 A 
ATOM     55  C   UNL A   1      39.672  32.842  30.745  1.00  0.00     0.074 A 
ATOM     56  C   UNL A   1      45.578  31.283  32.458  1.00  0.00     0.029 A 
ATOM     57  N   UNL A   1      43.503  31.270  31.660  1.00  0.00    -0.354 N 
ATOM     58  N   UNL A   1      40.878  32.429  31.058  1.00  0.00    -0.248 NA
ATOM     59  C   UNL A   1      39.381  34.226  31.146  1.00  0.00     0.031 C 
ATOM     60  C   UNL A   1      44.995  32.528  32.720  1.00  0.00     0.029 A 
ATOM     61  C   UNL A   1      43.710  32.527  32.204  1.00  0.00     0.049 A 
ATOM     62  H   UNL A   1      42.670  30.973  31.227  1.00  0.00     0.167 HD
ATOM     63  C   UNL A   1      41.496  33.510  31.676  1.00  0.00     0.074 A 
ATOM     64  C   UNL A   1      40.540  34.599  31.672  1.00  0.00     0.031 C 
ATOM     65  C   UNL A   1      42.744  33.595  32.201  1.00  0.00     0.031 A 
BRANCH  52  66
ATOM     66  C   UNL A   1      46.052  28.399  31.665  1.00  0.00    -0.014 A 
ATOM     67  C   UNL A   1      47.154  28.505  30.797  1.00  0.00     0.010 A 
ATOM     68  C   UNL A   1      46.174  27.626  32.834  1.00  0.00     0.010 A 
ATOM     69  C   UNL A   1      48.341  27.821  31.070  1.00  0.00     0.020 A 
ATOM     70  C   UNL A   1      47.368  26.959  33.124  1.00  0.00     0.020 A 
ATOM     71  C   UNL A   1      48.437  27.047  32.230  1.00  0.00     0.054 A 
BRANCH  71  72
ATOM     72  S   UNL A   1      49.996  26.182  32.573  1.00  0.00     0.124 S 
ATOM     73  O   UNL A   1      49.531  24.828  32.862  1.00  0.00    -0.237 OA
ATOM     74  O   UNL A   1      50.733  26.338  31.322  1.00  0.00    -0.237 OA
ATOM     75  O   UNL A   1      50.550  26.908  33.714  1.00  0.00    -0.744 OA
ENDBRANCH  71  72
ENDBRANCH  52  66
BRANCH  53  76
ATOM     76  C   UNL A   1      37.269  32.756  29.756  1.00  0.00    -0.014 A 
ATOM     77  C   UNL A   1      36.193  32.592  30.646  1.00  0.00     0.010 A 
ATOM     78  C   UNL A   1      37.095  33.550  28.609  1.00  0.00     0.010 A 
ATOM     79  C   UNL A   1      34.958  33.191  30.381  1.00  0.00     0.020 A 
ATOM     80  C   UNL A   1      35.869  34.170  28.353  1.00  0.00     0.020 A 
ATOM     81  C   UNL A   1      34.804  33.975  29.234  1.00  0.00     0.054 A 
BRANCH  81  82
ATOM     82  S   UNL A   1      33.207  34.782  28.931  1.00  0.00     0.124 S 
ATOM     83  O   UNL A   1      33.619  36.096  28.447  1.00  0.00    -0.237 OA
ATOM     84  O   UNL A   1      32.590  33.907  27.938  1.00  0.00    -0.237 OA
ATOM     85  O   UNL A   1      32.566  34.769  30.244  1.00  0.00    -0.744 OA
ENDBRANCH  81  82
ENDBRANCH  53  76
BRANCH  65  86
ATOM     86  C   UNL A   1      43.145  34.917  32.794  1.00  0.00    -0.014 A 
ATOM     87  C   UNL A   1      43.640  35.955  31.986  1.00  0.00     0.010 A 
ATOM     88  C   UNL A   1      43.013  35.126  34.179  1.00  0.00     0.010 A 
ATOM     89  C   UNL A   1      44.043  37.164  32.559  1.00  0.00     0.020 A 
ATOM     90  C   UNL A   1      43.392  36.343  34.752  1.00  0.00     0.020 A 
ATOM     91  C   UNL A   1      43.926  37.347  33.939  1.00  0.00     0.054 A 
BRANCH  91  92
ATOM     92  S   UNL A   1      44.447  38.926  34.664  1.00  0.00     0.124 S 
ATOM     93  O   UNL A   1      44.198  38.702  36.085  1.00  0.00    -0.237 OA
ATOM     94  O   UNL A   1      45.854  39.010  34.278  1.00  0.00    -0.237 OA
ATOM     95  O   UNL A   1      43.572  39.904  34.023  1.00  0.00    -0.744 OA
ENDBRANCH  91  92
ENDBRANCH  65  86
ENDBRANCH  39  40
ENDBRANCH  31  34
ENDBRANCH  29  30
ENDBRANCH  28  29
ENDBRANCH   1  28
TORSDOF 18
ENDMDL
MODEL 3
REMARK VINA RESULT:     -11.2      0.727      8.135
REMARK SMILES Cc1ccc(N)cc1S(=O)(=O)Nc1cccc(C(=O)NCCCCNC(=O)c2ccc(-c3c4nc(c(-c5ccc(S(=O)(=O)[O-])cc5)c5ccc([nH]5)c(-c5ccc(S(=O)(=O)[O-])cc5)c5nc(c(-c6ccc(S(=O)(=O)[O-])cc6)c6ccc3[nH]6)C=C5)C=C4)cc2)c1
REMARK SMILES IDX 22 1 21 2 20 3 18 4 19 5 17 7 13 8 14 9 88 10 15 11 16 12
REMARK SMILES IDX 12 13 9 15 10 16 11 17 8 18 1 19 2 20 3 21 4 22 7 23 5 24
REMARK SMILES IDX 6 25 23 28 24 29 25 30 26 31 27 33 28 34 29 35 87 36 30 37
REMARK SMILES IDX 86 38 31 39 32 40 33 41 80 42 34 43 85 44 79 45 81 46 35 47
REMARK SMILES IDX 84 48 78 49 77 50 36 52 66 53 47 54 65 55 48 56 51 57 64 58
REMARK SMILES IDX 82 59 49 60 50 61 63 63 83 64 52 65 37 66 38 67 46 68 39 69
REMARK SMILES IDX 45 70 40 71 41 72 42 73 43 74 44 75 67 76 68 77 76 78 69 79
REMARK SMILES IDX 75 80 70 81 71 82 72 83 73 84 74 85 53 86 54 87 62 88 55 89
REMARK SMILES IDX 61 90 56 91 57 92 58 93 59 94 60 95
REMARK H PARENT 20 6 12 14 6 26 6 27 25 32 81 51 51 62
REMARK Flexibility Score: inf
ROOT
ATOM      1  C   UNL A   1      36.791  22.081  25.123  1.00  0.00     0.023 C 
ENDROOT
BRANCH   1   2
ATOM      2  C   UNL A   1      35.637  21.758  26.075  1.00  0.00     0.116 C 
BRANCH   2   3
ATOM      3  N   UNL A   1      34.980  20.529  25.671  1.00  0.00    -0.352 N 
ATOM      4  C   UNL A   1      33.818  20.273  24.988  1.00  0.00     0.251 C 
ATOM      5  O   UNL A   1      33.510  19.092  24.823  1.00  0.00    -0.269 OA
ATOM      6  H   UNL A   1      35.465  19.716  25.940  1.00  0.00     0.163 HD
BRANCH   4   7
ATOM      7  C   UNL A   1      32.960  21.328  24.366  1.00  0.00     0.041 A 
ATOM      8  C   UNL A   1      31.242  23.033  24.420  1.00  0.00     0.050 A 
ATOM      9  C   UNL A   1      31.655  23.502  23.170  1.00  0.00     0.027 A 
ATOM     10  C   UNL A   1      31.816  21.878  24.949  1.00  0.00     0.040 A 
ATOM     11  C   UNL A   1      32.723  22.896  22.515  1.00  0.00     0.003 A 
ATOM     12  C   UNL A   1      33.394  21.840  23.130  1.00  0.00     0.014 A 
BRANCH   8  13
ATOM     13  N   UNL A   1      30.349  23.865  25.146  1.00  0.00    -0.280 N 
ATOM     14  H   UNL A   1      29.390  23.742  24.963  1.00  0.00     0.180 HD
BRANCH  13  15
ATOM     15  S   UNL A   1      30.748  25.024  26.276  1.00  0.00     0.262 S 
ATOM     16  O   UNL A   1      31.510  24.370  27.319  1.00  0.00    -0.201 OA
ATOM     17  O   UNL A   1      29.495  25.685  26.581  1.00  0.00    -0.201 OA
BRANCH  15  18
ATOM     18  C   UNL A   1      31.812  26.290  25.585  1.00  0.00     0.092 A 
ATOM     19  C   UNL A   1      34.088  25.042  25.533  1.00  0.00     0.046 C 
ATOM     20  C   UNL A   1      33.201  26.237  25.386  1.00  0.00    -0.030 A 
ATOM     21  C   UNL A   1      33.857  27.430  25.016  1.00  0.00     0.007 A 
ATOM     22  C   UNL A   1      33.151  28.598  24.726  1.00  0.00     0.026 A 
ATOM     23  C   UNL A   1      31.114  27.477  25.259  1.00  0.00     0.048 A 
ATOM     24  C   UNL A   1      31.764  28.612  24.775  1.00  0.00     0.033 A 
BRANCH  24  25
ATOM     25  N   UNL A   1      31.062  29.767  24.488  1.00  0.00    -0.399 N 
ATOM     26  H   UNL A   1      30.092  29.726  24.328  1.00  0.00     0.156 HD
ATOM     27  H   UNL A   1      31.532  30.631  24.445  1.00  0.00     0.156 HD
ENDBRANCH  24  25
ENDBRANCH  15  18
ENDBRANCH  13  15
ENDBRANCH   8  13
ENDBRANCH   4   7
ENDBRANCH   2   3
ENDBRANCH   1   2
BRANCH   1  28
ATOM     28  C   UNL A   1      37.828  20.960  25.020  1.00  0.00     0.023 C 
BRANCH  28  29
ATOM     29  C   UNL A   1      39.004  21.097  25.982  1.00  0.00     0.116 C 
BRANCH  29  30
ATOM     30  N   UNL A   1      39.904  19.956  25.952  1.00  0.00    -0.352 N 
ATOM     31  C   UNL A   1      41.268  19.929  26.110  1.00  0.00     0.251 C 
ATOM     32  H   UNL A   1      39.478  19.082  25.795  1.00  0.00     0.163 HD
ATOM     33  O   UNL A   1      41.885  18.878  25.964  1.00  0.00    -0.269 OA
BRANCH  31  34
ATOM     34  C   UNL A   1      41.994  21.179  26.420  1.00  0.00     0.039 A 
ATOM     35  C   UNL A   1      42.336  22.031  25.368  1.00  0.00     0.014 A 
ATOM     36  C   UNL A   1      42.328  21.515  27.735  1.00  0.00     0.014 A 
ATOM     37  C   UNL A   1      42.964  23.247  25.641  1.00  0.00     0.010 A 
ATOM     38  C   UNL A   1      42.895  22.757  28.012  1.00  0.00     0.010 A 
ATOM     39  C   UNL A   1      43.221  23.634  26.967  1.00  0.00    -0.014 A 
BRANCH  39  40
ATOM     40  C   UNL A   1      43.819  24.961  27.262  1.00  0.00     0.031 A 
ATOM     41  C   UNL A   1      42.980  26.066  27.841  1.00  0.00     0.074 A 
ATOM     42  C   UNL A   1      45.118  25.175  26.979  1.00  0.00     0.049 A 
ATOM     43  N   UNL A   1      43.341  27.273  28.195  1.00  0.00    -0.248 NA
ATOM     44  C   UNL A   1      41.546  25.791  28.028  1.00  0.00     0.031 C 
ATOM     45  C   UNL A   1      46.022  24.202  26.359  1.00  0.00     0.029 A 
ATOM     46  N   UNL A   1      45.908  26.278  27.181  1.00  0.00    -0.354 N 
ATOM     47  C   UNL A   1      42.185  27.902  28.638  1.00  0.00     0.074 A 
ATOM     48  C   UNL A   1      41.099  26.960  28.462  1.00  0.00     0.031 C 
ATOM     49  C   UNL A   1      47.251  24.739  26.269  1.00  0.00     0.029 A 
ATOM     50  C   UNL A   1      47.217  26.096  26.802  1.00  0.00     0.049 A 
ATOM     51  H   UNL A   1      45.569  27.120  27.563  1.00  0.00     0.167 HD
ATOM     52  C   UNL A   1      42.040  29.141  29.166  1.00  0.00     0.031 A 
ATOM     53  C   UNL A   1      48.275  26.925  26.886  1.00  0.00     0.031 A 
ATOM     54  C   UNL A   1      43.121  30.072  29.352  1.00  0.00     0.049 A 
ATOM     55  C   UNL A   1      48.094  28.284  27.504  1.00  0.00     0.074 A 
ATOM     56  C   UNL A   1      43.085  31.332  29.926  1.00  0.00     0.029 A 
ATOM     57  N   UNL A   1      44.434  29.845  28.971  1.00  0.00    -0.354 N 
ATOM     58  N   UNL A   1      47.003  28.833  27.983  1.00  0.00    -0.248 NA
ATOM     59  C   UNL A   1      49.294  29.126  27.609  1.00  0.00     0.031 C 
ATOM     60  C   UNL A   1      44.372  31.880  29.859  1.00  0.00     0.029 A 
ATOM     61  C   UNL A   1      45.216  30.944  29.284  1.00  0.00     0.049 A 
ATOM     62  H   UNL A   1      44.763  29.023  28.540  1.00  0.00     0.167 HD
ATOM     63  C   UNL A   1      47.390  30.078  28.465  1.00  0.00     0.074 A 
ATOM     64  C   UNL A   1      48.817  30.190  28.239  1.00  0.00     0.031 C 
ATOM     65  C   UNL A   1      46.632  31.044  29.042  1.00  0.00     0.031 A 
BRANCH  52  66
ATOM     66  C   UNL A   1      40.655  29.557  29.587  1.00  0.00    -0.014 A 
ATOM     67  C   UNL A   1      40.304  29.619  30.948  1.00  0.00     0.010 A 
ATOM     68  C   UNL A   1      39.704  29.922  28.618  1.00  0.00     0.010 A 
ATOM     69  C   UNL A   1      39.016  30.000  31.331  1.00  0.00     0.020 A 
ATOM     70  C   UNL A   1      38.421  30.328  28.998  1.00  0.00     0.020 A 
ATOM     71  C   UNL A   1      38.081  30.347  30.352  1.00  0.00     0.054 A 
BRANCH  71  72
ATOM     72  S   UNL A   1      36.420  30.857  30.876  1.00  0.00     0.124 S 
ATOM     73  O   UNL A   1      35.686  30.834  29.613  1.00  0.00    -0.237 OA
ATOM     74  O   UNL A   1      36.051  29.820  31.835  1.00  0.00    -0.237 OA
ATOM     75  O   UNL A   1      36.631  32.184  31.450  1.00  0.00    -0.744 OA
ENDBRANCH  71  72
ENDBRANCH  52  66
BRANCH  53  76
ATOM     76  C   UNL A   1      49.610  26.477  26.408  1.00  0.00    -0.014 A 
ATOM     77  C   UNL A   1      50.050  26.810  25.115  1.00  0.00     0.010 A 
ATOM     78  C   UNL A   1      50.450  25.722  27.245  1.00  0.00     0.010 A 
ATOM     79  C   UNL A   1      51.297  26.375  24.658  1.00  0.00     0.020 A 
ATOM     80  C   UNL A   1      51.708  25.305  26.800  1.00  0.00     0.020 A 
ATOM     81  C   UNL A   1      52.118  25.623  25.504  1.00  0.00     0.054 A 
BRANCH  81  82
ATOM     82  S   UNL A   1      53.752  25.106  24.910  1.00  0.00     0.124 S 
ATOM     83  O   UNL A   1      54.631  25.626  25.952  1.00  0.00    -0.237 OA
ATOM     84  O   UNL A   1      53.627  23.652  24.854  1.00  0.00    -0.237 OA
ATOM     85  O   UNL A   1      53.864  25.764  23.609  1.00  0.00    -0.744 OA
ENDBRANCH  81  82
ENDBRANCH  53  76
BRANCH  65  86
ATOM     86  C   UNL A   1      47.342  32.293  29.485  1.00  0.00    -0.014 A 
ATOM     87  C   UNL A   1      47.899  32.394  30.772  1.00  0.00     0.010 A 
ATOM     88  C   UNL A   1      47.464  33.376  28.595  1.00  0.00     0.010 A 
ATOM     89  C   UNL A   1      48.522  33.576  31.180  1.00  0.00     0.020 A 
ATOM     90  C   UNL A   1      48.109  34.550  28.992  1.00  0.00     0.020 A 
ATOM     91  C   UNL A   1      48.615  34.650  30.290  1.00  0.00     0.054 A 
BRANCH  91  92
ATOM     92  S   UNL A   1      49.435  36.173  30.835  1.00  0.00     0.124 S 
ATOM     93  O   UNL A   1      50.815  35.727  31.009  1.00  0.00    -0.237 OA
ATOM     94  O   UNL A   1      49.205  37.083  29.715  1.00  0.00    -0.237 OA
ATOM     95  O   UNL A   1      48.732  36.522  32.067  1.00  0.00    -0.744 OA
ENDBRANCH  91  92
ENDBRANCH  65  86
ENDBRANCH  39  40
ENDBRANCH  31  34
ENDBRANCH  29  30
ENDBRANCH  28  29
ENDBRANCH   1  28
TORSDOF 18
ENDMDL
