MODEL 1
REMARK VINA RESULT:     -12.0      0.000      0.000
REMARK SMILES O=C(NCCCCNC(=O)c1cc(NC(=O)c2cc([N+](=O)[O-])ccc2N2CCCC2)ccc1Cl)c1ccc(-c2c3nc(c(-c4ccc(S(=O)(=O)[O-])cc4)c4ccc([nH]4)c(-c4ccc(S(=O)(=O)[O-])cc4)c4nc(c(-c5ccc(S(=O)(=O)[O-])cc5)c5ccc2[nH]5)C=C4)C=C3)cc1
REMARK SMILES IDX 5 1 4 2 3 3 1 4 2 5 35 7 36 8 94 9 37 10 93 11 38 12 39 13
REMARK SMILES IDX 40 14 87 15 41 16 92 17 86 18 88 19 42 20 91 21 85 22 84 23
REMARK SMILES IDX 43 25 73 26 54 27 72 28 55 29 58 30 71 31 89 32 56 33 57 34
REMARK SMILES IDX 70 36 90 37 59 38 44 39 45 40 53 41 46 42 52 43 47 44 48 45
REMARK SMILES IDX 49 46 50 47 51 48 74 49 75 50 83 51 76 52 82 53 77 54 78 55
REMARK SMILES IDX 79 56 80 57 81 58 60 59 61 60 69 61 62 62 68 63 63 64 64 65
REMARK SMILES IDX 65 66 66 67 67 68 6 69 7 70 8 71 9 72 10 74 11 75 12 76
REMARK SMILES IDX 33 77 13 78 32 79 34 80 31 81 14 82 15 83 16 85 17 86 18 87
REMARK SMILES IDX 25 88 19 89 24 90 23 91 26 92 27 93 30 94 28 95 29 96 20 97
REMARK SMILES IDX 21 98 22 99
REMARK H PARENT 3 6 88 24 58 35 8 73 14 84
REMARK Flexibility Score: inf
ROOT
ATOM      1  C   UNL A   1      35.085  29.379  27.598  1.00  0.00     0.023 C 
ENDROOT
BRANCH   1   2
ATOM      2  C   UNL A   1      35.639  30.649  28.218  1.00  0.00     0.116 C 
BRANCH   2   3
ATOM      3  N   UNL A   1      35.491  30.688  29.665  1.00  0.00    -0.352 N 
ATOM      4  O   UNL A   1      36.070  30.367  31.818  1.00  0.00    -0.269 OA
ATOM      5  C   UNL A   1      36.415  30.404  30.646  1.00  0.00     0.251 C 
ATOM      6  H   UNL A   1      34.600  30.956  29.991  1.00  0.00     0.163 HD
BRANCH   5   7
ATOM      7  C   UNL A   1      37.818  30.110  30.267  1.00  0.00     0.039 A 
ATOM      8  C   UNL A   1      38.352  30.602  29.075  1.00  0.00     0.014 A 
ATOM      9  C   UNL A   1      38.601  29.316  31.110  1.00  0.00     0.014 A 
ATOM     10  C   UNL A   1      39.594  30.160  28.643  1.00  0.00     0.010 A 
ATOM     11  C   UNL A   1      39.896  28.958  30.720  1.00  0.00     0.010 A 
ATOM     12  C   UNL A   1      40.390  29.347  29.466  1.00  0.00    -0.014 A 
BRANCH  12  13
ATOM     13  C   UNL A   1      41.757  28.982  29.013  1.00  0.00     0.031 A 
ATOM     14  C   UNL A   1      42.897  29.959  29.088  1.00  0.00     0.074 A 
ATOM     15  C   UNL A   1      41.967  27.727  28.567  1.00  0.00     0.049 A 
ATOM     16  N   UNL A   1      44.153  29.779  28.763  1.00  0.00    -0.248 NA
ATOM     17  C   UNL A   1      42.596  31.311  29.586  1.00  0.00     0.031 C 
ATOM     18  C   UNL A   1      40.936  26.691  28.446  1.00  0.00     0.029 A 
ATOM     19  N   UNL A   1      43.115  27.099  28.159  1.00  0.00    -0.354 N 
ATOM     20  C   UNL A   1      44.787  30.995  28.993  1.00  0.00     0.074 A 
ATOM     21  C   UNL A   1      43.773  31.912  29.469  1.00  0.00     0.031 C 
ATOM     22  C   UNL A   1      41.508  25.543  28.054  1.00  0.00     0.029 A 
ATOM     23  C   UNL A   1      42.928  25.778  27.826  1.00  0.00     0.049 A 
ATOM     24  H   UNL A   1      43.989  27.549  28.108  1.00  0.00     0.167 HD
ATOM     25  C   UNL A   1      46.093  31.314  28.825  1.00  0.00     0.031 A 
ATOM     26  C   UNL A   1      43.795  24.855  27.371  1.00  0.00     0.031 A 
ATOM     27  C   UNL A   1      47.097  30.394  28.354  1.00  0.00     0.049 A 
ATOM     28  C   UNL A   1      45.230  25.243  27.170  1.00  0.00     0.074 A 
ATOM     29  C   UNL A   1      48.452  30.617  28.173  1.00  0.00     0.029 A 
ATOM     30  N   UNL A   1      46.859  29.078  27.988  1.00  0.00    -0.354 N 
ATOM     31  N   UNL A   1      45.810  26.394  27.411  1.00  0.00    -0.248 NA
ATOM     32  C   UNL A   1      46.125  24.210  26.635  1.00  0.00     0.031 C 
ATOM     33  C   UNL A   1      49.023  29.451  27.653  1.00  0.00     0.029 A 
ATOM     34  C   UNL A   1      48.035  28.484  27.559  1.00  0.00     0.049 A 
ATOM     35  H   UNL A   1      45.982  28.632  28.025  1.00  0.00     0.167 HD
ATOM     36  C   UNL A   1      47.144  26.222  27.065  1.00  0.00     0.074 A 
ATOM     37  C   UNL A   1      47.286  24.850  26.620  1.00  0.00     0.031 C 
ATOM     38  C   UNL A   1      48.157  27.121  27.109  1.00  0.00     0.031 A 
BRANCH  25  39
ATOM     39  C   UNL A   1      46.512  32.730  29.125  1.00  0.00    -0.014 A 
ATOM     40  C   UNL A   1      46.885  33.122  30.423  1.00  0.00     0.010 A 
ATOM     41  C   UNL A   1      46.584  33.671  28.081  1.00  0.00     0.010 A 
ATOM     42  C   UNL A   1      47.286  34.437  30.678  1.00  0.00     0.020 A 
ATOM     43  C   UNL A   1      47.006  34.980  28.326  1.00  0.00     0.020 A 
ATOM     44  C   UNL A   1      47.339  35.360  29.629  1.00  0.00     0.054 A 
BRANCH  44  45
ATOM     45  S   UNL A   1      47.877  37.056  29.984  1.00  0.00     0.124 S 
ATOM     46  O   UNL A   1      46.638  37.808  29.801  1.00  0.00    -0.237 OA
ATOM     47  O   UNL A   1      48.355  36.960  31.361  1.00  0.00    -0.237 OA
ATOM     48  O   UNL A   1      48.912  37.308  28.984  1.00  0.00    -0.744 OA
ENDBRANCH  44  45
ENDBRANCH  25  39
BRANCH  26  49
ATOM     49  C   UNL A   1      43.312  23.484  27.060  1.00  0.00    -0.014 A 
ATOM     50  C   UNL A   1      43.139  23.070  25.729  1.00  0.00     0.010 A 
ATOM     51  C   UNL A   1      43.065  22.570  28.102  1.00  0.00     0.010 A 
ATOM     52  C   UNL A   1      42.718  21.767  25.445  1.00  0.00     0.020 A 
ATOM     53  C   UNL A   1      42.673  21.260  27.821  1.00  0.00     0.020 A 
ATOM     54  C   UNL A   1      42.491  20.870  26.493  1.00  0.00     0.054 A 
BRANCH  54  55
ATOM     55  S   UNL A   1      42.011  19.165  26.102  1.00  0.00     0.124 S 
ATOM     56  O   UNL A   1      42.377  18.461  27.326  1.00  0.00    -0.237 OA
ATOM     57  O   UNL A   1      40.578  19.289  25.848  1.00  0.00    -0.237 OA
ATOM     58  O   UNL A   1      42.819  18.845  24.927  1.00  0.00    -0.744 OA
ENDBRANCH  54  55
ENDBRANCH  26  49
BRANCH  38  59
ATOM     59  C   UNL A   1      49.515  26.639  26.680  1.00  0.00    -0.014 A 
ATOM     60  C   UNL A   1      50.405  26.061  27.603  1.00  0.00     0.010 A 
ATOM     61  C   UNL A   1      49.891  26.734  25.328  1.00  0.00     0.010 A 
ATOM     62  C   UNL A   1      51.662  25.618  27.187  1.00  0.00     0.020 A 
ATOM     63  C   UNL A   1      51.139  26.269  24.905  1.00  0.00     0.020 A 
ATOM     64  C   UNL A   1      52.022  25.728  25.840  1.00  0.00     0.054 A 
BRANCH  64  65
ATOM     65  S   UNL A   1      53.646  25.111  25.317  1.00  0.00     0.124 S 
ATOM     66  O   UNL A   1      53.840  25.809  24.048  1.00  0.00    -0.237 OA
ATOM     67  O   UNL A   1      54.519  25.536  26.407  1.00  0.00    -0.237 OA
ATOM     68  O   UNL A   1      53.449  23.668  25.210  1.00  0.00    -0.744 OA
ENDBRANCH  64  65
ENDBRANCH  38  59
ENDBRANCH  12  13
ENDBRANCH   5   7
ENDBRANCH   2   3
ENDBRANCH   1   2
BRANCH   1  69
ATOM     69  C   UNL A   1      33.665  29.485  27.062  1.00  0.00     0.023 C 
BRANCH  69  70
ATOM     70  C   UNL A   1      33.305  28.559  25.900  1.00  0.00     0.116 C 
BRANCH  70  71
ATOM     71  N   UNL A   1      34.031  28.845  24.672  1.00  0.00    -0.352 N 
ATOM     72  C   UNL A   1      33.748  28.480  23.375  1.00  0.00     0.252 C 
ATOM     73  H   UNL A   1      34.849  29.381  24.786  1.00  0.00     0.163 HD
ATOM     74  O   UNL A   1      34.484  28.836  22.459  1.00  0.00    -0.269 OA
BRANCH  72  75
ATOM     75  C   UNL A   1      32.637  27.557  23.075  1.00  0.00     0.060 A 
ATOM     76  C   UNL A   1      33.006  26.239  22.748  1.00  0.00     0.041 A 
ATOM     77  C   UNL A   1      31.292  27.917  23.110  1.00  0.00     0.053 A 
ATOM     78  C   UNL A   1      32.049  25.236  22.615  1.00  0.00     0.042 A 
ATOM     79  C   UNL A   1      30.322  26.930  22.926  1.00  0.00     0.023 A 
ATOM     80  Cl  UNL A   1      30.759  29.542  23.335  1.00  0.00    -0.083 Cl
ATOM     81  C   UNL A   1      30.699  25.601  22.695  1.00  0.00     0.028 A 
BRANCH  78  82
ATOM     82  N   UNL A   1      32.324  23.870  22.413  1.00  0.00    -0.322 N 
ATOM     83  C   UNL A   1      32.583  22.816  23.266  1.00  0.00     0.258 C 
ATOM     84  H   UNL A   1      32.334  23.612  21.463  1.00  0.00     0.170 HD
ATOM     85  O   UNL A   1      32.908  21.725  22.791  1.00  0.00    -0.269 OA
BRANCH  83  86
ATOM     86  C   UNL A   1      32.482  22.926  24.733  1.00  0.00     0.070 A 
ATOM     87  C   UNL A   1      31.178  23.104  25.229  1.00  0.00     0.101 A 
ATOM     88  C   UNL A   1      33.597  22.774  25.589  1.00  0.00     0.050 A 
ATOM     89  C   UNL A   1      30.954  23.035  26.604  1.00  0.00     0.270 A 
ATOM     90  C   UNL A   1      33.317  22.662  26.965  1.00  0.00     0.034 A 
ATOM     91  C   UNL A   1      32.016  22.783  27.475  1.00  0.00     0.088 A 
BRANCH  88  92
ATOM     92  N   UNL A   1      34.885  22.662  25.134  1.00  0.00    -0.371 N 
ATOM     93  C   UNL A   1      35.651  23.719  24.499  1.00  0.00     0.116 C 
ATOM     94  C   UNL A   1      35.737  21.523  25.410  1.00  0.00     0.116 C 
ATOM     95  C   UNL A   1      36.626  22.934  23.630  1.00  0.00     0.023 C 
ATOM     96  C   UNL A   1      36.859  21.622  24.378  1.00  0.00     0.023 C 
ENDBRANCH  88  92
BRANCH  89  97
ATOM     97  N   UNL A   1      29.595  23.203  27.128  1.00  0.00     0.062 N 
ATOM     98  O   UNL A   1      29.129  24.352  27.160  1.00  0.00    -0.258 OA
ATOM     99  O   UNL A   1      28.997  22.192  27.520  1.00  0.00    -0.258 OA
ENDBRANCH  89  97
ENDBRANCH  83  86
ENDBRANCH  78  82
ENDBRANCH  72  75
ENDBRANCH  70  71
ENDBRANCH  69  70
ENDBRANCH   1  69
TORSDOF 18
ENDMDL
MODEL 2
REMARK VINA RESULT:     -11.9      6.111     11.591
REMARK SMILES O=C(NCCCCNC(=O)c1cc(NC(=O)c2cc([N+](=O)[O-])ccc2N2CCCC2)ccc1Cl)c1ccc(-c2c3nc(c(-c4ccc(S(=O)(=O)[O-])cc4)c4ccc([nH]4)c(-c4ccc(S(=O)(=O)[O-])cc4)c4nc(c(-c5ccc(S(=O)(=O)[O-])cc5)c5ccc2[nH]5)C=C4)C=C3)cc1
REMARK SMILES IDX 5 1 4 2 3 3 1 4 2 5 35 7 36 8 94 9 37 10 93 11 38 12 39 13
REMARK SMILES IDX 40 14 87 15 41 16 92 17 86 18 88 19 42 20 91 21 85 22 84 23
REMARK SMILES IDX 43 25 73 26 54 27 72 28 55 29 58 30 71 31 89 32 56 33 57 34
REMARK SMILES IDX 70 36 90 37 59 38 44 39 45 40 53 41 46 42 52 43 47 44 48 45
REMARK SMILES IDX 49 46 50 47 51 48 74 49 75 50 83 51 76 52 82 53 77 54 78 55
REMARK SMILES IDX 79 56 80 57 81 58 60 59 61 60 69 61 62 62 68 63 63 64 64 65
REMARK SMILES IDX 65 66 66 67 67 68 6 69 7 70 8 71 9 72 10 74 11 75 12 76
REMARK SMILES IDX 33 77 13 78 32 79 34 80 31 81 14 82 15 83 16 85 17 86 18 87
REMARK SMILES IDX 25 88 19 89 24 90 23 91 26 92 27 93 30 94 28 95 29 96 20 97
REMARK SMILES IDX 21 98 22 99
REMARK H PARENT 3 6 88 24 58 35 8 73 14 84
REMARK Flexibility Score: inf
ROOT
ATOM      1  C   UNL A   1      38.377  22.897  26.282  1.00  0.00     0.023 C 
ENDROOT
BRANCH   1   2
ATOM      2  C   UNL A   1      38.904  24.288  26.588  1.00  0.00     0.116 C 
BRANCH   2   3
ATOM      3  N   UNL A   1      40.036  24.664  25.756  1.00  0.00    -0.352 N 
ATOM      4  O   UNL A   1      41.763  25.928  25.052  1.00  0.00    -0.269 OA
ATOM      5  C   UNL A   1      40.949  25.681  25.930  1.00  0.00     0.251 C 
ATOM      6  H   UNL A   1      40.169  24.112  24.950  1.00  0.00     0.163 HD
BRANCH   5   7
ATOM      7  C   UNL A   1      40.913  26.492  27.171  1.00  0.00     0.039 A 
ATOM      8  C   UNL A   1      40.180  26.066  28.279  1.00  0.00     0.014 A 
ATOM      9  C   UNL A   1      41.608  27.703  27.216  1.00  0.00     0.014 A 
ATOM     10  C   UNL A   1      39.998  26.923  29.356  1.00  0.00     0.010 A 
ATOM     11  C   UNL A   1      41.509  28.520  28.347  1.00  0.00     0.010 A 
ATOM     12  C   UNL A   1      40.673  28.153  29.413  1.00  0.00    -0.014 A 
BRANCH  12  13
ATOM     13  C   UNL A   1      40.536  28.995  30.628  1.00  0.00     0.031 A 
ATOM     14  C   UNL A   1      41.457  28.832  31.806  1.00  0.00     0.074 A 
ATOM     15  C   UNL A   1      39.584  29.950  30.640  1.00  0.00     0.049 A 
ATOM     16  N   UNL A   1      41.486  29.512  32.925  1.00  0.00    -0.248 NA
ATOM     17  C   UNL A   1      42.473  27.770  31.726  1.00  0.00     0.031 C 
ATOM     18  C   UNL A   1      38.629  30.201  29.555  1.00  0.00     0.029 A 
ATOM     19  N   UNL A   1      39.277  30.902  31.576  1.00  0.00    -0.354 N 
ATOM     20  C   UNL A   1      42.501  28.951  33.690  1.00  0.00     0.074 A 
ATOM     21  C   UNL A   1      43.055  27.860  32.915  1.00  0.00     0.031 C 
ATOM     22  C   UNL A   1      37.886  31.274  29.862  1.00  0.00     0.029 A 
ATOM     23  C   UNL A   1      38.260  31.742  31.190  1.00  0.00     0.049 A 
ATOM     24  H   UNL A   1      39.740  30.978  32.442  1.00  0.00     0.167 HD
ATOM     25  C   UNL A   1      42.933  29.313  34.922  1.00  0.00     0.031 A 
ATOM     26  C   UNL A   1      37.675  32.768  31.834  1.00  0.00     0.031 A 
ATOM     27  C   UNL A   1      42.379  30.402  35.686  1.00  0.00     0.049 A 
ATOM     28  C   UNL A   1      38.156  33.132  33.208  1.00  0.00     0.074 A 
ATOM     29  C   UNL A   1      42.763  30.862  36.934  1.00  0.00     0.029 A 
ATOM     30  N   UNL A   1      41.322  31.201  35.277  1.00  0.00    -0.354 N 
ATOM     31  N   UNL A   1      39.130  32.598  33.904  1.00  0.00    -0.248 NA
ATOM     32  C   UNL A   1      37.458  34.233  33.883  1.00  0.00     0.031 C 
ATOM     33  C   UNL A   1      41.909  31.908  37.299  1.00  0.00     0.029 A 
ATOM     34  C   UNL A   1      41.025  32.134  36.257  1.00  0.00     0.049 A 
ATOM     35  H   UNL A   1      40.850  31.117  34.417  1.00  0.00     0.167 HD
ATOM     36  C   UNL A   1      39.169  33.305  35.099  1.00  0.00     0.074 A 
ATOM     37  C   UNL A   1      38.136  34.319  35.018  1.00  0.00     0.031 C 
ATOM     38  C   UNL A   1      39.986  33.128  36.166  1.00  0.00     0.031 A 
BRANCH  25  39
ATOM     39  C   UNL A   1      44.044  28.506  35.540  1.00  0.00    -0.014 A 
ATOM     40  C   UNL A   1      45.394  28.792  35.267  1.00  0.00     0.010 A 
ATOM     41  C   UNL A   1      43.736  27.478  36.450  1.00  0.00     0.010 A 
ATOM     42  C   UNL A   1      46.412  28.041  35.863  1.00  0.00     0.020 A 
ATOM     43  C   UNL A   1      44.750  26.740  37.067  1.00  0.00     0.020 A 
ATOM     44  C   UNL A   1      46.084  27.016  36.756  1.00  0.00     0.054 A 
BRANCH  44  45
ATOM     45  S   UNL A   1      47.424  26.066  37.527  1.00  0.00     0.124 S 
ATOM     46  O   UNL A   1      48.375  27.119  37.875  1.00  0.00    -0.237 OA
ATOM     47  O   UNL A   1      46.756  25.426  38.657  1.00  0.00    -0.237 OA
ATOM     48  O   UNL A   1      47.859  25.158  36.468  1.00  0.00    -0.744 OA
ENDBRANCH  44  45
ENDBRANCH  25  39
BRANCH  26  49
ATOM     49  C   UNL A   1      36.559  33.503  31.184  1.00  0.00    -0.014 A 
ATOM     50  C   UNL A   1      36.688  33.988  29.872  1.00  0.00     0.010 A 
ATOM     51  C   UNL A   1      35.341  33.683  31.867  1.00  0.00     0.010 A 
ATOM     52  C   UNL A   1      35.621  34.647  29.256  1.00  0.00     0.020 A 
ATOM     53  C   UNL A   1      34.263  34.317  31.243  1.00  0.00     0.020 A 
ATOM     54  C   UNL A   1      34.414  34.805  29.945  1.00  0.00     0.054 A 
BRANCH  54  55
ATOM     55  S   UNL A   1      33.019  35.604  29.104  1.00  0.00     0.124 S 
ATOM     56  O   UNL A   1      33.675  36.717  28.425  1.00  0.00    -0.237 OA
ATOM     57  O   UNL A   1      32.519  34.539  28.238  1.00  0.00    -0.237 OA
ATOM     58  O   UNL A   1      32.128  35.974  30.201  1.00  0.00    -0.744 OA
ENDBRANCH  54  55
ENDBRANCH  26  49
BRANCH  38  59
ATOM     59  C   UNL A   1      39.803  34.067  37.326  1.00  0.00    -0.014 A 
ATOM     60  C   UNL A   1      40.364  35.356  37.313  1.00  0.00     0.010 A 
ATOM     61  C   UNL A   1      39.032  33.663  38.431  1.00  0.00     0.010 A 
ATOM     62  C   UNL A   1      40.184  36.215  38.399  1.00  0.00     0.020 A 
ATOM     63  C   UNL A   1      38.829  34.529  39.509  1.00  0.00     0.020 A 
ATOM     64  C   UNL A   1      39.419  35.794  39.492  1.00  0.00     0.054 A 
BRANCH  64  65
ATOM     65  S   UNL A   1      39.168  36.940  40.876  1.00  0.00     0.124 S 
ATOM     66  O   UNL A   1      38.201  36.216  41.697  1.00  0.00    -0.237 OA
ATOM     67  O   UNL A   1      40.509  37.061  41.442  1.00  0.00    -0.237 OA
ATOM     68  O   UNL A   1      38.658  38.149  40.234  1.00  0.00    -0.744 OA
ENDBRANCH  64  65
ENDBRANCH  38  59
ENDBRANCH  12  13
ENDBRANCH   5   7
ENDBRANCH   2   3
ENDBRANCH   1   2
BRANCH   1  69
ATOM     69  C   UNL A   1      37.531  22.788  25.023  1.00  0.00     0.023 C 
BRANCH  69  70
ATOM     70  C   UNL A   1      36.186  22.075  25.166  1.00  0.00     0.116 C 
BRANCH  70  71
ATOM     71  N   UNL A   1      35.453  22.436  26.370  1.00  0.00    -0.352 N 
ATOM     72  C   UNL A   1      34.208  23.006  26.507  1.00  0.00     0.252 C 
ATOM     73  H   UNL A   1      35.919  22.243  27.215  1.00  0.00     0.163 HD
ATOM     74  O   UNL A   1      33.748  23.224  27.625  1.00  0.00    -0.269 OA
BRANCH  72  75
ATOM     75  C   UNL A   1      33.460  23.482  25.326  1.00  0.00     0.060 A 
ATOM     76  C   UNL A   1      33.800  24.765  24.861  1.00  0.00     0.041 A 
ATOM     77  C   UNL A   1      32.479  22.739  24.673  1.00  0.00     0.053 A 
ATOM     78  C   UNL A   1      33.291  25.253  23.660  1.00  0.00     0.042 A 
ATOM     79  C   UNL A   1      31.923  23.240  23.495  1.00  0.00     0.023 A 
ATOM     80  Cl  UNL A   1      31.885  21.234  25.271  1.00  0.00    -0.083 Cl
ATOM     81  C   UNL A   1      32.337  24.479  22.988  1.00  0.00     0.028 A 
BRANCH  78  82
ATOM     82  N   UNL A   1      33.664  26.467  23.051  1.00  0.00    -0.322 N 
ATOM     83  C   UNL A   1      33.591  27.789  23.443  1.00  0.00     0.258 C 
ATOM     84  H   UNL A   1      34.060  26.348  22.158  1.00  0.00     0.170 HD
ATOM     85  O   UNL A   1      33.898  28.671  22.638  1.00  0.00    -0.269 OA
BRANCH  83  86
ATOM     86  C   UNL A   1      33.169  28.204  24.793  1.00  0.00     0.070 A 
ATOM     87  C   UNL A   1      34.206  28.649  25.632  1.00  0.00     0.101 A 
ATOM     88  C   UNL A   1      31.813  28.243  25.192  1.00  0.00     0.050 A 
ATOM     89  C   UNL A   1      33.891  29.235  26.858  1.00  0.00     0.270 A 
ATOM     90  C   UNL A   1      31.539  28.886  26.415  1.00  0.00     0.034 A 
ATOM     91  C   UNL A   1      32.557  29.384  27.241  1.00  0.00     0.088 A 
BRANCH  88  92
ATOM     92  N   UNL A   1      30.788  27.759  24.420  1.00  0.00    -0.371 N 
ATOM     93  C   UNL A   1      30.363  28.302  23.143  1.00  0.00     0.116 C 
ATOM     94  C   UNL A   1      30.115  26.503  24.679  1.00  0.00     0.116 C 
ATOM     95  C   UNL A   1      28.894  27.896  23.093  1.00  0.00     0.023 C 
ATOM     96  C   UNL A   1      28.814  26.591  23.882  1.00  0.00     0.023 C 
ENDBRANCH  88  92
BRANCH  89  97
ATOM     97  N   UNL A   1      34.967  29.715  27.733  1.00  0.00     0.062 N 
ATOM     98  O   UNL A   1      36.000  29.034  27.801  1.00  0.00    -0.258 OA
ATOM     99  O   UNL A   1      34.775  30.766  28.360  1.00  0.00    -0.258 OA
ENDBRANCH  89  97
ENDBRANCH  83  86
ENDBRANCH  78  82
ENDBRANCH  72  75
ENDBRANCH  70  71
ENDBRANCH  69  70
ENDBRANCH   1  69
TORSDOF 18
ENDMDL
MODEL 3
REMARK VINA RESULT:     -11.9      1.409      2.676
REMARK SMILES O=C(NCCCCNC(=O)c1cc(NC(=O)c2cc([N+](=O)[O-])ccc2N2CCCC2)ccc1Cl)c1ccc(-c2c3nc(c(-c4ccc(S(=O)(=O)[O-])cc4)c4ccc([nH]4)c(-c4ccc(S(=O)(=O)[O-])cc4)c4nc(c(-c5ccc(S(=O)(=O)[O-])cc5)c5ccc2[nH]5)C=C4)C=C3)cc1
REMARK SMILES IDX 5 1 4 2 3 3 1 4 2 5 35 7 36 8 94 9 37 10 93 11 38 12 39 13
REMARK SMILES IDX 40 14 87 15 41 16 92 17 86 18 88 19 42 20 91 21 85 22 84 23
REMARK SMILES IDX 43 25 73 26 54 27 72 28 55 29 58 30 71 31 89 32 56 33 57 34
REMARK SMILES IDX 70 36 90 37 59 38 44 39 45 40 53 41 46 42 52 43 47 44 48 45
REMARK SMILES IDX 49 46 50 47 51 48 74 49 75 50 83 51 76 52 82 53 77 54 78 55
REMARK SMILES IDX 79 56 80 57 81 58 60 59 61 60 69 61 62 62 68 63 63 64 64 65
REMARK SMILES IDX 65 66 66 67 67 68 6 69 7 70 8 71 9 72 10 74 11 75 12 76
REMARK SMILES IDX 33 77 13 78 32 79 34 80 31 81 14 82 15 83 16 85 17 86 18 87
REMARK SMILES IDX 25 88 19 89 24 90 23 91 26 92 27 93 30 94 28 95 29 96 20 97
REMARK SMILES IDX 21 98 22 99
REMARK H PARENT 3 6 88 24 58 35 8 73 14 84
REMARK Flexibility Score: inf
ROOT
ATOM      1  C   UNL A   1      34.332  30.632  27.671  1.00  0.00     0.023 C 
ENDROOT
BRANCH   1   2
ATOM      2  C   UNL A   1      35.548  31.144  28.421  1.00  0.00     0.116 C 
BRANCH   2   3
ATOM      3  N   UNL A   1      35.432  30.995  29.864  1.00  0.00    -0.352 N 
ATOM      4  O   UNL A   1      36.050  30.378  31.940  1.00  0.00    -0.269 OA
ATOM      5  C   UNL A   1      36.371  30.562  30.775  1.00  0.00     0.251 C 
ATOM      6  H   UNL A   1      34.557  31.238  30.244  1.00  0.00     0.163 HD
BRANCH   5   7
ATOM      7  C   UNL A   1      37.756  30.289  30.325  1.00  0.00     0.039 A 
ATOM      8  C   UNL A   1      38.094  30.363  28.973  1.00  0.00     0.014 A 
ATOM      9  C   UNL A   1      38.725  29.938  31.270  1.00  0.00     0.014 A 
ATOM     10  C   UNL A   1      39.338  29.918  28.548  1.00  0.00     0.010 A 
ATOM     11  C   UNL A   1      40.013  29.591  30.848  1.00  0.00     0.010 A 
ATOM     12  C   UNL A   1      40.320  29.543  29.480  1.00  0.00    -0.014 A 
BRANCH  12  13
ATOM     13  C   UNL A   1      41.673  29.174  28.992  1.00  0.00     0.031 A 
ATOM     14  C   UNL A   1      42.812  30.155  29.015  1.00  0.00     0.074 A 
ATOM     15  C   UNL A   1      41.875  27.911  28.562  1.00  0.00     0.049 A 
ATOM     16  N   UNL A   1      44.058  29.974  28.655  1.00  0.00    -0.248 NA
ATOM     17  C   UNL A   1      42.521  31.515  29.496  1.00  0.00     0.031 C 
ATOM     18  C   UNL A   1      40.844  26.870  28.492  1.00  0.00     0.029 A 
ATOM     19  N   UNL A   1      43.012  27.280  28.131  1.00  0.00    -0.354 N 
ATOM     20  C   UNL A   1      44.694  31.195  28.843  1.00  0.00     0.074 A 
ATOM     21  C   UNL A   1      43.692  32.118  29.332  1.00  0.00     0.031 C 
ATOM     22  C   UNL A   1      41.408  25.718  28.104  1.00  0.00     0.029 A 
ATOM     23  C   UNL A   1      42.819  25.952  27.828  1.00  0.00     0.049 A 
ATOM     24  H   UNL A   1      43.882  27.732  28.046  1.00  0.00     0.167 HD
ATOM     25  C   UNL A   1      45.993  31.516  28.628  1.00  0.00     0.031 A 
ATOM     26  C   UNL A   1      43.675  25.024  27.364  1.00  0.00     0.031 A 
ATOM     27  C   UNL A   1      46.986  30.591  28.144  1.00  0.00     0.049 A 
ATOM     28  C   UNL A   1      45.102  25.413  27.112  1.00  0.00     0.074 A 
ATOM     29  C   UNL A   1      48.333  30.814  27.917  1.00  0.00     0.029 A 
ATOM     30  N   UNL A   1      46.741  29.268  27.809  1.00  0.00    -0.354 N 
ATOM     31  N   UNL A   1      45.685  26.570  27.314  1.00  0.00    -0.248 NA
ATOM     32  C   UNL A   1      45.984  24.373  26.568  1.00  0.00     0.031 C 
ATOM     33  C   UNL A   1      48.892  29.640  27.401  1.00  0.00     0.029 A 
ATOM     34  C   UNL A   1      47.905  28.669  27.355  1.00  0.00     0.049 A 
ATOM     35  H   UNL A   1      45.868  28.819  27.882  1.00  0.00     0.167 HD
ATOM     36  C   UNL A   1      47.008  26.396  26.930  1.00  0.00     0.074 A 
ATOM     37  C   UNL A   1      47.142  25.016  26.507  1.00  0.00     0.031 C 
ATOM     38  C   UNL A   1      48.019  27.298  26.927  1.00  0.00     0.031 A 
BRANCH  25  39
ATOM     39  C   UNL A   1      46.416  32.938  28.889  1.00  0.00    -0.014 A 
ATOM     40  C   UNL A   1      46.268  33.936  27.909  1.00  0.00     0.010 A 
ATOM     41  C   UNL A   1      46.922  33.294  30.153  1.00  0.00     0.010 A 
ATOM     42  C   UNL A   1      46.652  35.254  28.176  1.00  0.00     0.020 A 
ATOM     43  C   UNL A   1      47.286  34.614  30.433  1.00  0.00     0.020 A 
ATOM     44  C   UNL A   1      47.164  35.584  29.435  1.00  0.00     0.054 A 
BRANCH  44  45
ATOM     45  S   UNL A   1      47.641  37.303  29.760  1.00  0.00     0.124 S 
ATOM     46  O   UNL A   1      46.393  37.871  30.262  1.00  0.00    -0.237 OA
ATOM     47  O   UNL A   1      48.707  37.161  30.748  1.00  0.00    -0.237 OA
ATOM     48  O   UNL A   1      48.069  37.798  28.453  1.00  0.00    -0.744 OA
ENDBRANCH  44  45
ENDBRANCH  25  39
BRANCH  26  49
ATOM     49  C   UNL A   1      43.188  23.646  27.093  1.00  0.00    -0.014 A 
ATOM     50  C   UNL A   1      42.901  23.232  25.781  1.00  0.00     0.010 A 
ATOM     51  C   UNL A   1      43.052  22.726  28.150  1.00  0.00     0.010 A 
ATOM     52  C   UNL A   1      42.477  21.924  25.533  1.00  0.00     0.020 A 
ATOM     53  C   UNL A   1      42.657  21.410  27.900  1.00  0.00     0.020 A 
ATOM     54  C   UNL A   1      42.361  21.020  26.594  1.00  0.00     0.054 A 
BRANCH  54  55
ATOM     55  S   UNL A   1      41.875  19.309  26.241  1.00  0.00     0.124 S 
ATOM     56  O   UNL A   1      42.338  18.612  27.437  1.00  0.00    -0.237 OA
ATOM     57  O   UNL A   1      40.425  19.414  26.091  1.00  0.00    -0.237 OA
ATOM     58  O   UNL A   1      42.599  18.995  25.011  1.00  0.00    -0.744 OA
ENDBRANCH  54  55
ENDBRANCH  26  49
BRANCH  38  59
ATOM     59  C   UNL A   1      49.365  26.813  26.465  1.00  0.00    -0.014 A 
ATOM     60  C   UNL A   1      50.224  26.120  27.336  1.00  0.00     0.010 A 
ATOM     61  C   UNL A   1      49.760  27.023  25.131  1.00  0.00     0.010 A 
ATOM     62  C   UNL A   1      51.471  25.675  26.890  1.00  0.00     0.020 A 
ATOM     63  C   UNL A   1      50.996  26.558  24.676  1.00  0.00     0.020 A 
ATOM     64  C   UNL A   1      51.850  25.900  25.563  1.00  0.00     0.054 A 
BRANCH  64  65
ATOM     65  S   UNL A   1      53.458  25.280  24.997  1.00  0.00     0.124 S 
ATOM     66  O   UNL A   1      53.341  23.849  25.262  1.00  0.00    -0.237 OA
ATOM     67  O   UNL A   1      53.471  25.660  23.586  1.00  0.00    -0.237 OA
ATOM     68  O   UNL A   1      54.417  25.993  25.836  1.00  0.00    -0.744 OA
ENDBRANCH  64  65
ENDBRANCH  38  59
ENDBRANCH  12  13
ENDBRANCH   5   7
ENDBRANCH   2   3
ENDBRANCH   1   2
BRANCH   1  69
ATOM     69  C   UNL A   1      34.530  29.313  26.939  1.00  0.00     0.023 C 
BRANCH  69  70
ATOM     70  C   UNL A   1      33.427  28.904  25.963  1.00  0.00     0.116 C 
BRANCH  70  71
ATOM     71  N   UNL A   1      33.921  28.275  24.747  1.00  0.00    -0.352 N 
ATOM     72  C   UNL A   1      33.508  27.120  24.122  1.00  0.00     0.252 C 
ATOM     73  H   UNL A   1      34.663  28.746  24.306  1.00  0.00     0.163 HD
ATOM     74  O   UNL A   1      34.047  26.755  23.080  1.00  0.00    -0.269 OA
BRANCH  72  75
ATOM     75  C   UNL A   1      32.505  26.237  24.749  1.00  0.00     0.060 A 
ATOM     76  C   UNL A   1      33.014  25.110  25.420  1.00  0.00     0.041 A 
ATOM     77  C   UNL A   1      31.132  26.469  24.716  1.00  0.00     0.053 A 
ATOM     78  C   UNL A   1      32.188  24.299  26.194  1.00  0.00     0.042 A 
ATOM     79  C   UNL A   1      30.287  25.632  25.447  1.00  0.00     0.023 A 
ATOM     80  Cl  UNL A   1      30.413  27.727  23.781  1.00  0.00    -0.083 Cl
ATOM     81  C   UNL A   1      30.813  24.567  26.189  1.00  0.00     0.028 A 
BRANCH  78  82
ATOM     82  N   UNL A   1      32.621  23.227  26.998  1.00  0.00    -0.322 N 
ATOM     83  C   UNL A   1      33.714  22.384  26.951  1.00  0.00     0.258 C 
ATOM     84  H   UNL A   1      32.018  23.038  27.752  1.00  0.00     0.170 HD
ATOM     85  O   UNL A   1      33.777  21.440  27.741  1.00  0.00    -0.269 OA
BRANCH  83  86
ATOM     86  C   UNL A   1      34.825  22.563  25.999  1.00  0.00     0.070 A 
ATOM     87  C   UNL A   1      35.991  23.130  26.543  1.00  0.00     0.101 A 
ATOM     88  C   UNL A   1      34.764  22.114  24.659  1.00  0.00     0.050 A 
ATOM     89  C   UNL A   1      37.155  23.170  25.775  1.00  0.00     0.270 A 
ATOM     90  C   UNL A   1      35.974  22.130  23.939  1.00  0.00     0.034 A 
ATOM     91  C   UNL A   1      37.160  22.643  24.483  1.00  0.00     0.088 A 
BRANCH  88  92
ATOM     92  N   UNL A   1      33.623  21.615  24.085  1.00  0.00    -0.371 N 
ATOM     93  C   UNL A   1      32.949  20.390  24.472  1.00  0.00     0.116 C 
ATOM     94  C   UNL A   1      32.813  22.354  23.139  1.00  0.00     0.116 C 
ATOM     95  C   UNL A   1      32.253  19.981  23.179  1.00  0.00     0.023 C 
ATOM     96  C   UNL A   1      31.950  21.293  22.458  1.00  0.00     0.023 C 
ENDBRANCH  88  92
BRANCH  89  97
ATOM     97  N   UNL A   1      38.380  23.747  26.341  1.00  0.00     0.062 N 
ATOM     98  O   UNL A   1      38.383  24.962  26.586  1.00  0.00    -0.258 OA
ATOM     99  O   UNL A   1      39.342  22.990  26.530  1.00  0.00    -0.258 OA
ENDBRANCH  89  97
ENDBRANCH  83  86
ENDBRANCH  78  82
ENDBRANCH  72  75
ENDBRANCH  70  71
ENDBRANCH  69  70
ENDBRANCH   1  69
TORSDOF 18
ENDMDL
