MODEL 1
REMARK VINA RESULT:     -11.9      0.000      0.000
REMARK SMILES CC[C@@H](C)c1nc2cc(C(=O)NCCCCNC(=O)c3ccc(-c4c5nc(c(-c6ccc(S(=O)(=O)[O-])cc6)c6ccc([nH]6)c(-c6ccc(S(=O)(=O)[O-])cc6)c6nc(c(-c7ccc(S(=O)(=O)[O-])cc7)c7ccc4[nH]7)C=C6)C=C5)cc3)ccc2n1[C@@H](C)CC
REMARK SMILES IDX 15 1 14 2 13 3 12 4 10 5 11 6 9 8 5 9 6 10 83 11 7 12 82 13
REMARK SMILES IDX 8 14 81 15 80 16 3 17 4 18 2 19 1 20 84 21 85 22 86 23 87 24
REMARK SMILES IDX 16 25 17 26 18 27 19 29 20 30 21 31 79 32 22 33 78 34 23 35
REMARK SMILES IDX 24 36 25 37 72 38 26 39 77 40 71 41 73 42 27 43 76 44 70 45
REMARK SMILES IDX 69 46 28 48 58 49 39 50 57 51 40 52 43 53 56 54 74 55 41 56
REMARK SMILES IDX 42 57 55 59 75 60 44 61 29 62 30 63 38 64 31 65 37 66 32 67
REMARK SMILES IDX 33 68 34 69 35 70 36 71 59 72 60 73 68 74 61 75 67 76 62 77
REMARK SMILES IDX 63 78 64 79 65 80 66 81 45 82 46 83 54 84 47 85 53 86 48 87
REMARK SMILES IDX 49 88 50 89 51 90 52 91
REMARK H PARENT 12 7 17 28 73 47 43 58
REMARK Flexibility Score: inf
ROOT
ATOM      1  C   UNL A   1      39.285  22.353  26.277  1.00  0.00     0.023 C 
ENDROOT
BRANCH   1   2
ATOM      2  C   UNL A   1      38.359  21.379  25.531  1.00  0.00     0.023 C 
BRANCH   2   3
ATOM      3  C   UNL A   1      37.294  22.059  24.666  1.00  0.00     0.116 C 
BRANCH   3   4
ATOM      4  N   UNL A   1      36.023  21.357  24.737  1.00  0.00    -0.352 N 
ATOM      5  C   UNL A   1      34.722  21.764  24.562  1.00  0.00     0.251 C 
ATOM      6  O   UNL A   1      33.850  20.889  24.560  1.00  0.00    -0.269 OA
ATOM      7  H   UNL A   1      36.111  20.401  24.954  1.00  0.00     0.163 HD
BRANCH   5   8
ATOM      8  C   UNL A   1      34.322  23.182  24.337  1.00  0.00     0.042 A 
ATOM      9  C   UNL A   1      33.392  27.478  25.536  1.00  0.00     0.112 A 
ATOM     10  N   UNL A   1      33.663  26.368  26.211  1.00  0.00    -0.233 NA
ATOM     11  N   UNL A   1      33.189  27.162  24.196  1.00  0.00    -0.325 N 
ATOM     12  C   UNL A   1      33.804  25.359  25.296  1.00  0.00     0.090 A 
ATOM     13  C   UNL A   1      33.543  25.832  24.021  1.00  0.00     0.068 A 
ATOM     14  C   UNL A   1      34.179  24.015  25.468  1.00  0.00     0.044 A 
ATOM     15  C   UNL A   1      33.692  25.035  22.882  1.00  0.00     0.029 A 
ATOM     16  C   UNL A   1      34.141  23.727  23.066  1.00  0.00     0.016 A 
BRANCH   9  17
ATOM     17  C   UNL A   1      33.484  28.867  26.174  1.00  0.00     0.052 C 
ATOM     18  C   UNL A   1      34.637  28.902  27.198  1.00  0.00     0.016 C 
BRANCH  17  19
ATOM     19  C   UNL A   1      32.184  29.355  26.832  1.00  0.00     0.008 C 
ATOM     20  C   UNL A   1      31.881  30.839  26.667  1.00  0.00     0.004 C 
ENDBRANCH  17  19
ENDBRANCH   9  17
BRANCH  11  21
ATOM     21  C   UNL A   1      32.763  27.984  23.066  1.00  0.00     0.085 C 
ATOM     22  C   UNL A   1      33.913  28.314  22.109  1.00  0.00     0.031 C 
BRANCH  21  23
ATOM     23  C   UNL A   1      31.429  27.557  22.433  1.00  0.00     0.022 C 
ATOM     24  C   UNL A   1      30.379  28.662  22.556  1.00  0.00     0.006 C 
ENDBRANCH  21  23
ENDBRANCH  11  21
ENDBRANCH   5   8
ENDBRANCH   3   4
ENDBRANCH   2   3
ENDBRANCH   1   2
BRANCH   1  25
ATOM     25  C   UNL A   1      40.605  21.734  26.749  1.00  0.00     0.116 C 
BRANCH  25  26
ATOM     26  N   UNL A   1      41.718  22.033  25.871  1.00  0.00    -0.352 N 
ATOM     27  C   UNL A   1      42.550  23.105  25.695  1.00  0.00     0.251 C 
ATOM     28  H   UNL A   1      41.924  21.292  25.256  1.00  0.00     0.163 HD
ATOM     29  O   UNL A   1      43.496  22.922  24.922  1.00  0.00    -0.269 OA
BRANCH  27  30
ATOM     30  C   UNL A   1      42.377  24.447  26.316  1.00  0.00     0.039 A 
ATOM     31  C   UNL A   1      42.839  24.824  27.576  1.00  0.00     0.014 A 
ATOM     32  C   UNL A   1      41.616  25.378  25.578  1.00  0.00     0.014 A 
ATOM     33  C   UNL A   1      42.498  26.063  28.108  1.00  0.00     0.010 A 
ATOM     34  C   UNL A   1      41.272  26.620  26.107  1.00  0.00     0.010 A 
ATOM     35  C   UNL A   1      41.682  26.947  27.393  1.00  0.00    -0.014 A 
BRANCH  35  36
ATOM     36  C   UNL A   1      41.354  28.221  28.028  1.00  0.00     0.031 A 
ATOM     37  C   UNL A   1      42.361  29.304  27.843  1.00  0.00     0.074 A 
ATOM     38  C   UNL A   1      40.231  28.462  28.733  1.00  0.00     0.049 A 
ATOM     39  N   UNL A   1      43.110  29.843  28.748  1.00  0.00    -0.248 NA
ATOM     40  C   UNL A   1      42.648  29.758  26.475  1.00  0.00     0.031 C 
ATOM     41  C   UNL A   1      39.027  27.639  28.861  1.00  0.00     0.029 A 
ATOM     42  N   UNL A   1      39.914  29.581  29.445  1.00  0.00    -0.354 N 
ATOM     43  C   UNL A   1      43.868  30.815  28.102  1.00  0.00     0.074 A 
ATOM     44  C   UNL A   1      43.618  30.648  26.691  1.00  0.00     0.031 C 
ATOM     45  C   UNL A   1      38.037  28.379  29.413  1.00  0.00     0.029 A 
ATOM     46  C   UNL A   1      38.582  29.663  29.821  1.00  0.00     0.049 A 
ATOM     47  H   UNL A   1      40.577  30.272  29.675  1.00  0.00     0.167 HD
ATOM     48  C   UNL A   1      44.551  31.778  28.783  1.00  0.00     0.031 A 
ATOM     49  C   UNL A   1      37.968  30.729  30.392  1.00  0.00     0.031 A 
ATOM     50  C   UNL A   1      44.690  31.457  30.177  1.00  0.00     0.049 A 
ATOM     51  C   UNL A   1      39.018  31.536  31.059  1.00  0.00     0.074 A 
ATOM     52  C   UNL A   1      45.332  30.455  30.878  1.00  0.00     0.029 A 
ATOM     53  N   UNL A   1      43.808  32.030  31.060  1.00  0.00    -0.354 N 
ATOM     54  N   UNL A   1      39.672  31.133  32.109  1.00  0.00    -0.248 NA
ATOM     55  C   UNL A   1      39.630  32.629  30.321  1.00  0.00     0.031 C 
ATOM     56  C   UNL A   1      44.470  30.162  31.973  1.00  0.00     0.029 A 
ATOM     57  C   UNL A   1      43.384  31.038  31.910  1.00  0.00     0.049 A 
ATOM     58  H   UNL A   1      43.531  32.974  31.079  1.00  0.00     0.167 HD
ATOM     59  C   UNL A   1      40.964  31.598  31.918  1.00  0.00     0.074 A 
ATOM     60  C   UNL A   1      40.851  32.601  30.862  1.00  0.00     0.031 C 
ATOM     61  C   UNL A   1      42.040  30.939  32.443  1.00  0.00     0.031 A 
BRANCH  48  62
ATOM     62  C   UNL A   1      44.867  33.147  28.239  1.00  0.00    -0.014 A 
ATOM     63  C   UNL A   1      43.878  34.007  27.721  1.00  0.00     0.010 A 
ATOM     64  C   UNL A   1      46.144  33.702  28.461  1.00  0.00     0.010 A 
ATOM     65  C   UNL A   1      44.144  35.345  27.423  1.00  0.00     0.020 A 
ATOM     66  C   UNL A   1      46.411  35.056  28.206  1.00  0.00     0.020 A 
ATOM     67  C   UNL A   1      45.406  35.866  27.682  1.00  0.00     0.054 A 
BRANCH  67  68
ATOM     68  S   UNL A   1      45.675  37.634  27.395  1.00  0.00     0.124 S 
ATOM     69  O   UNL A   1      46.296  38.050  28.649  1.00  0.00    -0.237 OA
ATOM     70  O   UNL A   1      46.552  37.630  26.228  1.00  0.00    -0.237 OA
ATOM     71  O   UNL A   1      44.329  38.152  27.162  1.00  0.00    -0.744 OA
ENDBRANCH  67  68
ENDBRANCH  48  62
BRANCH  49  72
ATOM     72  C   UNL A   1      36.656  31.316  30.019  1.00  0.00    -0.014 A 
ATOM     73  C   UNL A   1      36.418  31.712  28.688  1.00  0.00     0.010 A 
ATOM     74  C   UNL A   1      35.791  31.804  31.019  1.00  0.00     0.010 A 
ATOM     75  C   UNL A   1      35.426  32.647  28.379  1.00  0.00     0.020 A 
ATOM     76  C   UNL A   1      34.796  32.746  30.716  1.00  0.00     0.020 A 
ATOM     77  C   UNL A   1      34.652  33.194  29.402  1.00  0.00     0.054 A 
BRANCH  77  78
ATOM     78  S   UNL A   1      33.549  34.578  28.995  1.00  0.00     0.124 S 
ATOM     79  O   UNL A   1      34.482  35.553  28.436  1.00  0.00    -0.237 OA
ATOM     80  O   UNL A   1      32.624  33.975  28.040  1.00  0.00    -0.237 OA
ATOM     81  O   UNL A   1      32.962  34.943  30.282  1.00  0.00    -0.744 OA
ENDBRANCH  77  78
ENDBRANCH  49  72
BRANCH  61  82
ATOM     82  C   UNL A   1      41.798  29.830  33.450  1.00  0.00    -0.014 A 
ATOM     83  C   UNL A   1      41.839  30.163  34.816  1.00  0.00     0.010 A 
ATOM     84  C   UNL A   1      41.713  28.467  33.100  1.00  0.00     0.010 A 
ATOM     85  C   UNL A   1      41.825  29.173  35.801  1.00  0.00     0.020 A 
ATOM     86  C   UNL A   1      41.667  27.468  34.086  1.00  0.00     0.020 A 
ATOM     87  C   UNL A   1      41.748  27.830  35.431  1.00  0.00     0.054 A 
BRANCH  87  88
ATOM     88  S   UNL A   1      41.776  26.575  36.742  1.00  0.00     0.124 S 
ATOM     89  O   UNL A   1      43.031  26.875  37.430  1.00  0.00    -0.237 OA
ATOM     90  O   UNL A   1      40.563  26.874  37.501  1.00  0.00    -0.237 OA
ATOM     91  O   UNL A   1      41.753  25.305  36.019  1.00  0.00    -0.744 OA
ENDBRANCH  87  88
ENDBRANCH  61  82
ENDBRANCH  35  36
ENDBRANCH  27  30
ENDBRANCH  25  26
ENDBRANCH   1  25
TORSDOF 18
ENDMDL
MODEL 2
REMARK VINA RESULT:     -11.6      0.745      1.807
REMARK SMILES CC[C@@H](C)c1nc2cc(C(=O)NCCCCNC(=O)c3ccc(-c4c5nc(c(-c6ccc(S(=O)(=O)[O-])cc6)c6ccc([nH]6)c(-c6ccc(S(=O)(=O)[O-])cc6)c6nc(c(-c7ccc(S(=O)(=O)[O-])cc7)c7ccc4[nH]7)C=C6)C=C5)cc3)ccc2n1[C@@H](C)CC
REMARK SMILES IDX 15 1 14 2 13 3 12 4 10 5 11 6 9 8 5 9 6 10 83 11 7 12 82 13
REMARK SMILES IDX 8 14 81 15 80 16 3 17 4 18 2 19 1 20 84 21 85 22 86 23 87 24
REMARK SMILES IDX 16 25 17 26 18 27 19 29 20 30 21 31 79 32 22 33 78 34 23 35
REMARK SMILES IDX 24 36 25 37 72 38 26 39 77 40 71 41 73 42 27 43 76 44 70 45
REMARK SMILES IDX 69 46 28 48 58 49 39 50 57 51 40 52 43 53 56 54 74 55 41 56
REMARK SMILES IDX 42 57 55 59 75 60 44 61 29 62 30 63 38 64 31 65 37 66 32 67
REMARK SMILES IDX 33 68 34 69 35 70 36 71 59 72 60 73 68 74 61 75 67 76 62 77
REMARK SMILES IDX 63 78 64 79 65 80 66 81 45 82 46 83 54 84 47 85 53 86 48 87
REMARK SMILES IDX 49 88 50 89 51 90 52 91
REMARK H PARENT 12 7 17 28 73 47 43 58
REMARK Flexibility Score: inf
ROOT
ATOM      1  C   UNL A   1      39.088  22.271  26.234  1.00  0.00     0.023 C 
ENDROOT
BRANCH   1   2
ATOM      2  C   UNL A   1      38.239  21.319  25.377  1.00  0.00     0.023 C 
BRANCH   2   3
ATOM      3  C   UNL A   1      37.094  22.002  24.622  1.00  0.00     0.116 C 
BRANCH   3   4
ATOM      4  N   UNL A   1      35.881  21.203  24.658  1.00  0.00    -0.352 N 
ATOM      5  C   UNL A   1      34.547  21.533  24.705  1.00  0.00     0.251 C 
ATOM      6  O   UNL A   1      33.732  20.612  24.594  1.00  0.00    -0.269 OA
ATOM      7  H   UNL A   1      36.047  20.232  24.647  1.00  0.00     0.163 HD
BRANCH   5   8
ATOM      8  C   UNL A   1      34.046  22.930  24.841  1.00  0.00     0.042 A 
ATOM      9  C   UNL A   1      31.194  26.409  24.120  1.00  0.00     0.112 A 
ATOM     10  N   UNL A   1      31.291  25.177  23.635  1.00  0.00    -0.233 NA
ATOM     11  N   UNL A   1      32.332  26.698  24.867  1.00  0.00    -0.325 N 
ATOM     12  C   UNL A   1      32.401  24.605  24.196  1.00  0.00     0.090 A 
ATOM     13  C   UNL A   1      33.058  25.523  24.997  1.00  0.00     0.068 A 
ATOM     14  C   UNL A   1      32.905  23.296  24.094  1.00  0.00     0.044 A 
ATOM     15  C   UNL A   1      34.180  25.185  25.758  1.00  0.00     0.029 A 
ATOM     16  C   UNL A   1      34.619  23.861  25.706  1.00  0.00     0.016 A 
BRANCH   9  17
ATOM     17  C   UNL A   1      29.919  27.245  23.982  1.00  0.00     0.052 C 
ATOM     18  C   UNL A   1      28.690  26.319  23.877  1.00  0.00     0.016 C 
BRANCH  17  19
ATOM     19  C   UNL A   1      29.930  28.237  22.808  1.00  0.00     0.008 C 
ATOM     20  C   UNL A   1      29.713  29.698  23.181  1.00  0.00     0.004 C 
ENDBRANCH  17  19
ENDBRANCH   9  17
BRANCH  11  21
ATOM     21  C   UNL A   1      32.772  27.932  25.513  1.00  0.00     0.085 C 
ATOM     22  C   UNL A   1      33.246  28.988  24.508  1.00  0.00     0.031 C 
BRANCH  21  23
ATOM     23  C   UNL A   1      31.864  28.414  26.655  1.00  0.00     0.022 C 
ATOM     24  C   UNL A   1      32.225  29.836  27.088  1.00  0.00     0.006 C 
ENDBRANCH  21  23
ENDBRANCH  11  21
ENDBRANCH   5   8
ENDBRANCH   3   4
ENDBRANCH   2   3
ENDBRANCH   1   2
BRANCH   1  25
ATOM     25  C   UNL A   1      40.371  21.645  26.791  1.00  0.00     0.116 C 
BRANCH  25  26
ATOM     26  N   UNL A   1      41.536  21.914  25.971  1.00  0.00    -0.352 N 
ATOM     27  C   UNL A   1      42.414  22.956  25.852  1.00  0.00     0.251 C 
ATOM     28  H   UNL A   1      41.744  21.174  25.357  1.00  0.00     0.163 HD
ATOM     29  O   UNL A   1      43.389  22.748  25.123  1.00  0.00    -0.269 OA
BRANCH  27  30
ATOM     30  C   UNL A   1      42.260  24.296  26.483  1.00  0.00     0.039 A 
ATOM     31  C   UNL A   1      42.649  24.632  27.778  1.00  0.00     0.014 A 
ATOM     32  C   UNL A   1      41.596  25.273  25.710  1.00  0.00     0.014 A 
ATOM     33  C   UNL A   1      42.329  25.878  28.307  1.00  0.00     0.010 A 
ATOM     34  C   UNL A   1      41.274  26.521  26.236  1.00  0.00     0.010 A 
ATOM     35  C   UNL A   1      41.607  26.810  27.553  1.00  0.00    -0.014 A 
BRANCH  35  36
ATOM     36  C   UNL A   1      41.295  28.088  28.187  1.00  0.00     0.031 A 
ATOM     37  C   UNL A   1      42.312  29.160  27.996  1.00  0.00     0.074 A 
ATOM     38  C   UNL A   1      40.176  28.343  28.894  1.00  0.00     0.049 A 
ATOM     39  N   UNL A   1      43.069  29.694  28.899  1.00  0.00    -0.248 NA
ATOM     40  C   UNL A   1      42.601  29.608  26.628  1.00  0.00     0.031 C 
ATOM     41  C   UNL A   1      38.964  27.533  29.027  1.00  0.00     0.029 A 
ATOM     42  N   UNL A   1      39.873  29.467  29.605  1.00  0.00    -0.354 N 
ATOM     43  C   UNL A   1      43.837  30.655  28.249  1.00  0.00     0.074 A 
ATOM     44  C   UNL A   1      43.581  30.489  26.839  1.00  0.00     0.031 C 
ATOM     45  C   UNL A   1      37.982  28.285  29.579  1.00  0.00     0.029 A 
ATOM     46  C   UNL A   1      38.542  29.564  29.983  1.00  0.00     0.049 A 
ATOM     47  H   UNL A   1      40.544  30.151  29.831  1.00  0.00     0.167 HD
ATOM     48  C   UNL A   1      44.531  31.613  28.926  1.00  0.00     0.031 A 
ATOM     49  C   UNL A   1      37.942  30.638  30.554  1.00  0.00     0.031 A 
ATOM     50  C   UNL A   1      44.671  31.293  30.321  1.00  0.00     0.049 A 
ATOM     51  C   UNL A   1      39.001  31.435  31.217  1.00  0.00     0.074 A 
ATOM     52  C   UNL A   1      45.304  30.285  31.022  1.00  0.00     0.029 A 
ATOM     53  N   UNL A   1      43.797  31.877  31.204  1.00  0.00    -0.354 N 
ATOM     54  N   UNL A   1      39.654  31.026  32.266  1.00  0.00    -0.248 NA
ATOM     55  C   UNL A   1      39.623  32.520  30.475  1.00  0.00     0.031 C 
ATOM     56  C   UNL A   1      44.441  30.004  32.120  1.00  0.00     0.029 A 
ATOM     57  C   UNL A   1      43.365  30.892  32.057  1.00  0.00     0.049 A 
ATOM     58  H   UNL A   1      43.530  32.824  31.223  1.00  0.00     0.167 HD
ATOM     59  C   UNL A   1      40.951  31.477  32.071  1.00  0.00     0.074 A 
ATOM     60  C   UNL A   1      40.846  32.479  31.013  1.00  0.00     0.031 C 
ATOM     61  C   UNL A   1      42.020  30.808  32.595  1.00  0.00     0.031 A 
BRANCH  48  62
ATOM     62  C   UNL A   1      44.860  32.977  28.379  1.00  0.00    -0.014 A 
ATOM     63  C   UNL A   1      43.886  33.978  28.192  1.00  0.00     0.010 A 
ATOM     64  C   UNL A   1      46.210  33.370  28.266  1.00  0.00     0.010 A 
ATOM     65  C   UNL A   1      44.230  35.297  27.893  1.00  0.00     0.020 A 
ATOM     66  C   UNL A   1      46.568  34.702  28.008  1.00  0.00     0.020 A 
ATOM     67  C   UNL A   1      45.571  35.656  27.818  1.00  0.00     0.054 A 
BRANCH  67  68
ATOM     68  S   UNL A   1      45.974  37.400  27.549  1.00  0.00     0.124 S 
ATOM     69  O   UNL A   1      44.919  37.814  26.628  1.00  0.00    -0.237 OA
ATOM     70  O   UNL A   1      45.885  37.953  28.898  1.00  0.00    -0.237 OA
ATOM     71  O   UNL A   1      47.318  37.358  26.982  1.00  0.00    -0.744 OA
ENDBRANCH  67  68
ENDBRANCH  48  62
BRANCH  49  72
ATOM     72  C   UNL A   1      36.635  31.238  30.183  1.00  0.00    -0.014 A 
ATOM     73  C   UNL A   1      36.391  31.617  28.848  1.00  0.00     0.010 A 
ATOM     74  C   UNL A   1      35.786  31.754  31.182  1.00  0.00     0.010 A 
ATOM     75  C   UNL A   1      35.410  32.561  28.533  1.00  0.00     0.020 A 
ATOM     76  C   UNL A   1      34.802  32.705  30.873  1.00  0.00     0.020 A 
ATOM     77  C   UNL A   1      34.653  33.136  29.554  1.00  0.00     0.054 A 
BRANCH  77  78
ATOM     78  S   UNL A   1      33.567  34.529  29.135  1.00  0.00     0.124 S 
ATOM     79  O   UNL A   1      33.091  34.946  30.451  1.00  0.00    -0.237 OA
ATOM     80  O   UNL A   1      34.483  35.457  28.476  1.00  0.00    -0.237 OA
ATOM     81  O   UNL A   1      32.557  33.933  28.265  1.00  0.00    -0.744 OA
ENDBRANCH  77  78
ENDBRANCH  49  72
BRANCH  61  82
ATOM     82  C   UNL A   1      41.769  29.703  33.604  1.00  0.00    -0.014 A 
ATOM     83  C   UNL A   1      42.080  29.963  34.952  1.00  0.00     0.010 A 
ATOM     84  C   UNL A   1      41.414  28.387  33.244  1.00  0.00     0.010 A 
ATOM     85  C   UNL A   1      42.066  28.942  35.905  1.00  0.00     0.020 A 
ATOM     86  C   UNL A   1      41.369  27.363  34.204  1.00  0.00     0.020 A 
ATOM     87  C   UNL A   1      41.719  27.645  35.524  1.00  0.00     0.054 A 
BRANCH  87  88
ATOM     88  S   UNL A   1      41.756  26.342  36.786  1.00  0.00     0.124 S 
ATOM     89  O   UNL A   1      40.422  26.444  37.375  1.00  0.00    -0.237 OA
ATOM     90  O   UNL A   1      41.998  25.135  35.998  1.00  0.00    -0.237 OA
ATOM     91  O   UNL A   1      42.853  26.732  37.669  1.00  0.00    -0.744 OA
ENDBRANCH  87  88
ENDBRANCH  61  82
ENDBRANCH  35  36
ENDBRANCH  27  30
ENDBRANCH  25  26
ENDBRANCH   1  25
TORSDOF 18
ENDMDL
MODEL 3
REMARK VINA RESULT:     -11.4      2.875      9.727
REMARK SMILES CC[C@@H](C)c1nc2cc(C(=O)NCCCCNC(=O)c3ccc(-c4c5nc(c(-c6ccc(S(=O)(=O)[O-])cc6)c6ccc([nH]6)c(-c6ccc(S(=O)(=O)[O-])cc6)c6nc(c(-c7ccc(S(=O)(=O)[O-])cc7)c7ccc4[nH]7)C=C6)C=C5)cc3)ccc2n1[C@@H](C)CC
REMARK SMILES IDX 15 1 14 2 13 3 12 4 10 5 11 6 9 8 5 9 6 10 83 11 7 12 82 13
REMARK SMILES IDX 8 14 81 15 80 16 3 17 4 18 2 19 1 20 84 21 85 22 86 23 87 24
REMARK SMILES IDX 16 25 17 26 18 27 19 29 20 30 21 31 79 32 22 33 78 34 23 35
REMARK SMILES IDX 24 36 25 37 72 38 26 39 77 40 71 41 73 42 27 43 76 44 70 45
REMARK SMILES IDX 69 46 28 48 58 49 39 50 57 51 40 52 43 53 56 54 74 55 41 56
REMARK SMILES IDX 42 57 55 59 75 60 44 61 29 62 30 63 38 64 31 65 37 66 32 67
REMARK SMILES IDX 33 68 34 69 35 70 36 71 59 72 60 73 68 74 61 75 67 76 62 77
REMARK SMILES IDX 63 78 64 79 65 80 66 81 45 82 46 83 54 84 47 85 53 86 48 87
REMARK SMILES IDX 49 88 50 89 51 90 52 91
REMARK H PARENT 12 7 17 28 73 47 43 58
REMARK Flexibility Score: inf
ROOT
ATOM      1  C   UNL A   1      35.264  32.569  28.072  1.00  0.00     0.023 C 
ENDROOT
BRANCH   1   2
ATOM      2  C   UNL A   1      33.951  31.771  28.105  1.00  0.00     0.023 C 
BRANCH   2   3
ATOM      3  C   UNL A   1      33.925  30.560  27.168  1.00  0.00     0.116 C 
BRANCH   3   4
ATOM      4  N   UNL A   1      32.806  30.626  26.243  1.00  0.00    -0.352 N 
ATOM      5  C   UNL A   1      32.021  29.661  25.658  1.00  0.00     0.251 C 
ATOM      6  O   UNL A   1      31.046  30.044  25.003  1.00  0.00    -0.269 OA
ATOM      7  H   UNL A   1      32.562  31.544  25.982  1.00  0.00     0.163 HD
BRANCH   5   8
ATOM      8  C   UNL A   1      32.261  28.197  25.806  1.00  0.00     0.042 A 
ATOM      9  C   UNL A   1      34.639  24.324  25.491  1.00  0.00     0.112 A 
ATOM     10  N   UNL A   1      34.841  25.569  25.078  1.00  0.00    -0.233 NA
ATOM     11  N   UNL A   1      33.332  24.201  25.955  1.00  0.00    -0.325 N 
ATOM     12  C   UNL A   1      33.734  26.297  25.423  1.00  0.00     0.090 A 
ATOM     13  C   UNL A   1      32.783  25.474  26.002  1.00  0.00     0.068 A 
ATOM     14  C   UNL A   1      33.471  27.673  25.301  1.00  0.00     0.044 A 
ATOM     15  C   UNL A   1      31.585  25.968  26.525  1.00  0.00     0.029 A 
ATOM     16  C   UNL A   1      31.376  27.346  26.466  1.00  0.00     0.016 A 
BRANCH   9  17
ATOM     17  C   UNL A   1      35.770  23.296  25.576  1.00  0.00     0.052 C 
ATOM     18  C   UNL A   1      37.062  23.973  26.075  1.00  0.00     0.016 C 
BRANCH  17  19
ATOM     19  C   UNL A   1      36.046  22.541  24.266  1.00  0.00     0.008 C 
ATOM     20  C   UNL A   1      37.053  21.401  24.366  1.00  0.00     0.004 C 
ENDBRANCH  17  19
ENDBRANCH   9  17
BRANCH  11  21
ATOM     21  C   UNL A   1      32.577  23.037  26.410  1.00  0.00     0.085 C 
ATOM     22  C   UNL A   1      32.139  22.129  25.255  1.00  0.00     0.031 C 
BRANCH  21  23
ATOM     23  C   UNL A   1      33.153  22.349  27.657  1.00  0.00     0.022 C 
ATOM     24  C   UNL A   1      33.809  21.014  27.301  1.00  0.00     0.006 C 
ENDBRANCH  21  23
ENDBRANCH  11  21
ENDBRANCH   5   8
ENDBRANCH   3   4
ENDBRANCH   2   3
ENDBRANCH   1   2
BRANCH   1  25
ATOM     25  C   UNL A   1      35.359  33.674  29.129  1.00  0.00     0.116 C 
BRANCH  25  26
ATOM     26  N   UNL A   1      34.905  33.248  30.437  1.00  0.00    -0.352 N 
ATOM     27  C   UNL A   1      35.418  32.457  31.429  1.00  0.00     0.251 C 
ATOM     28  H   UNL A   1      34.020  33.612  30.666  1.00  0.00     0.163 HD
ATOM     29  O   UNL A   1      34.778  32.448  32.486  1.00  0.00    -0.269 OA
BRANCH  27  30
ATOM     30  C   UNL A   1      36.629  31.599  31.314  1.00  0.00     0.039 A 
ATOM     31  C   UNL A   1      37.947  32.054  31.296  1.00  0.00     0.014 A 
ATOM     32  C   UNL A   1      36.397  30.219  31.136  1.00  0.00     0.014 A 
ATOM     33  C   UNL A   1      38.992  31.171  31.045  1.00  0.00     0.010 A 
ATOM     34  C   UNL A   1      37.441  29.331  30.884  1.00  0.00     0.010 A 
ATOM     35  C   UNL A   1      38.740  29.817  30.800  1.00  0.00    -0.014 A 
BRANCH  35  36
ATOM     36  C   UNL A   1      39.889  28.959  30.526  1.00  0.00     0.031 A 
ATOM     37  C   UNL A   1      40.786  28.705  31.688  1.00  0.00     0.074 A 
ATOM     38  C   UNL A   1      40.164  28.398  29.332  1.00  0.00     0.049 A 
ATOM     39  N   UNL A   1      42.006  29.106  31.841  1.00  0.00    -0.248 NA
ATOM     40  C   UNL A   1      40.225  28.026  32.864  1.00  0.00     0.031 C 
ATOM     41  C   UNL A   1      39.328  28.329  28.131  1.00  0.00     0.029 A 
ATOM     42  N   UNL A   1      41.271  27.686  28.976  1.00  0.00    -0.354 N 
ATOM     43  C   UNL A   1      42.431  28.610  33.070  1.00  0.00     0.074 A 
ATOM     44  C   UNL A   1      41.265  28.042  33.700  1.00  0.00     0.031 C 
ATOM     45  C   UNL A   1      39.860  27.430  27.269  1.00  0.00     0.029 A 
ATOM     46  C   UNL A   1      41.146  26.990  27.783  1.00  0.00     0.049 A 
ATOM     47  H   UNL A   1      42.091  27.670  29.520  1.00  0.00     0.167 HD
ATOM     48  C   UNL A   1      43.745  28.583  33.430  1.00  0.00     0.031 A 
ATOM     49  C   UNL A   1      42.024  26.088  27.279  1.00  0.00     0.031 A 
ATOM     50  C   UNL A   1      44.552  29.428  32.591  1.00  0.00     0.049 A 
ATOM     51  C   UNL A   1      43.349  26.383  27.875  1.00  0.00     0.074 A 
ATOM     52  C   UNL A   1      44.605  30.788  32.357  1.00  0.00     0.029 A 
ATOM     53  N   UNL A   1      45.241  28.840  31.560  1.00  0.00    -0.354 N 
ATOM     54  N   UNL A   1      44.033  27.457  27.605  1.00  0.00    -0.248 NA
ATOM     55  C   UNL A   1      43.740  25.679  29.085  1.00  0.00     0.031 C 
ATOM     56  C   UNL A   1      44.892  30.911  30.968  1.00  0.00     0.029 A 
ATOM     57  C   UNL A   1      45.054  29.624  30.448  1.00  0.00     0.049 A 
ATOM     58  H   UNL A   1      45.770  28.011  31.607  1.00  0.00     0.167 HD
ATOM     59  C   UNL A   1      44.624  27.809  28.808  1.00  0.00     0.074 A 
ATOM     60  C   UNL A   1      44.498  26.622  29.651  1.00  0.00     0.031 C 
ATOM     61  C   UNL A   1      44.918  29.111  29.099  1.00  0.00     0.031 A 
BRANCH  48  62
ATOM     62  C   UNL A   1      44.351  27.583  34.380  1.00  0.00    -0.014 A 
ATOM     63  C   UNL A   1      44.348  27.763  35.777  1.00  0.00     0.010 A 
ATOM     64  C   UNL A   1      44.724  26.310  33.900  1.00  0.00     0.010 A 
ATOM     65  C   UNL A   1      44.712  26.741  36.655  1.00  0.00     0.020 A 
ATOM     66  C   UNL A   1      45.050  25.263  34.775  1.00  0.00     0.020 A 
ATOM     67  C   UNL A   1      45.047  25.490  36.149  1.00  0.00     0.054 A 
BRANCH  67  68
ATOM     68  S   UNL A   1      45.395  24.159  37.326  1.00  0.00     0.124 S 
ATOM     69  O   UNL A   1      44.920  22.985  36.600  1.00  0.00    -0.237 OA
ATOM     70  O   UNL A   1      46.843  24.257  37.488  1.00  0.00    -0.237 OA
ATOM     71  O   UNL A   1      44.611  24.526  38.502  1.00  0.00    -0.744 OA
ENDBRANCH  67  68
ENDBRANCH  48  62
BRANCH  49  72
ATOM     72  C   UNL A   1      41.712  24.757  26.700  1.00  0.00    -0.014 A 
ATOM     73  C   UNL A   1      40.670  23.982  27.248  1.00  0.00     0.010 A 
ATOM     74  C   UNL A   1      42.644  24.114  25.863  1.00  0.00     0.010 A 
ATOM     75  C   UNL A   1      40.625  22.597  27.060  1.00  0.00     0.020 A 
ATOM     76  C   UNL A   1      42.607  22.724  25.673  1.00  0.00     0.020 A 
ATOM     77  C   UNL A   1      41.622  21.970  26.313  1.00  0.00     0.054 A 
BRANCH  77  78
ATOM     78  S   UNL A   1      41.668  20.155  26.297  1.00  0.00     0.124 S 
ATOM     79  O   UNL A   1      40.295  19.822  25.925  1.00  0.00    -0.237 OA
ATOM     80  O   UNL A   1      42.679  19.873  25.282  1.00  0.00    -0.237 OA
ATOM     81  O   UNL A   1      42.047  19.805  27.663  1.00  0.00    -0.744 OA
ENDBRANCH  77  78
ENDBRANCH  49  72
BRANCH  61  82
ATOM     82  C   UNL A   1      44.824  30.146  27.994  1.00  0.00    -0.014 A 
ATOM     83  C   UNL A   1      46.026  30.680  27.490  1.00  0.00     0.010 A 
ATOM     84  C   UNL A   1      43.611  30.728  27.573  1.00  0.00     0.010 A 
ATOM     85  C   UNL A   1      46.021  31.772  26.620  1.00  0.00     0.020 A 
ATOM     86  C   UNL A   1      43.599  31.807  26.675  1.00  0.00     0.020 A 
ATOM     87  C   UNL A   1      44.808  32.336  26.223  1.00  0.00     0.054 A 
BRANCH  87  88
ATOM     88  S   UNL A   1      44.851  33.780  25.126  1.00  0.00     0.124 S 
ATOM     89  O   UNL A   1      43.922  34.697  25.786  1.00  0.00    -0.237 OA
ATOM     90  O   UNL A   1      46.256  34.179  25.171  1.00  0.00    -0.237 OA
ATOM     91  O   UNL A   1      44.398  33.261  23.837  1.00  0.00    -0.744 OA
ENDBRANCH  87  88
ENDBRANCH  61  82
ENDBRANCH  35  36
ENDBRANCH  27  30
ENDBRANCH  25  26
ENDBRANCH   1  25
TORSDOF 18
ENDMDL
