MODEL 1
REMARK VINA RESULT:      -9.4      0.000      0.000
REMARK SMILES O=C(NCCCCNC(=O)[C@@H]1[C@H]2C=C[C@H]3C=C[C@@H]1[C@H]32)c1ccc(-c2c3nc(c(-c4ccc(S(=O)(=O)[O-])cc4)c4ccc([nH]4)c(-c4ccc(S(=O)(=O)[O-])cc4)c4nc(c(-c5ccc(S(=O)(=O)[O-])cc5)c5ccc2[nH]5)C=C4)C=C3)cc1
REMARK SMILES IDX 4 1 3 2 1 3 2 4 20 6 21 7 79 8 22 9 78 10 23 11 24 12 25 13
REMARK SMILES IDX 72 14 26 15 77 16 71 17 73 18 27 19 76 20 70 21 69 22 28 24
REMARK SMILES IDX 58 25 39 26 57 27 40 28 43 29 56 30 74 31 41 32 42 33 55 35
REMARK SMILES IDX 75 36 44 37 29 38 30 39 38 40 31 41 37 42 32 43 33 44 34 45
REMARK SMILES IDX 35 46 36 47 59 48 60 49 68 50 61 51 67 52 62 53 63 54 64 55
REMARK SMILES IDX 65 56 66 57 45 58 46 59 54 60 47 61 53 62 48 63 49 64 50 65
REMARK SMILES IDX 51 66 52 67 5 68 6 69 7 70 8 71 9 72 10 74 11 75 18 76 12 77
REMARK SMILES IDX 17 78 19 79 13 80 16 81 15 82 14 83
REMARK H PARENT 3 5 73 23 43 34 8 73
REMARK Flexibility Score: inf
ROOT
ATOM      1  C   UNL A   1      40.797  21.753  26.093  1.00  0.00     0.116 C 
ENDROOT
BRANCH   1   2
ATOM      2  N   UNL A   1      39.412  22.032  25.745  1.00  0.00    -0.352 N 
ATOM      3  O   UNL A   1      37.418  23.072  25.792  1.00  0.00    -0.269 OA
ATOM      4  C   UNL A   1      38.614  23.104  26.071  1.00  0.00     0.251 C 
ATOM      5  H   UNL A   1      38.978  21.345  25.190  1.00  0.00     0.163 HD
BRANCH   4   6
ATOM      6  C   UNL A   1      39.175  24.279  26.780  1.00  0.00     0.039 A 
ATOM      7  C   UNL A   1      38.945  24.481  28.142  1.00  0.00     0.014 A 
ATOM      8  C   UNL A   1      39.968  25.185  26.069  1.00  0.00     0.014 A 
ATOM      9  C   UNL A   1      39.367  25.661  28.751  1.00  0.00     0.010 A 
ATOM     10  C   UNL A   1      40.462  26.330  26.704  1.00  0.00     0.010 A 
ATOM     11  C   UNL A   1      40.132  26.599  28.041  1.00  0.00    -0.014 A 
BRANCH  11  12
ATOM     12  C   UNL A   1      40.609  27.832  28.721  1.00  0.00     0.031 A 
ATOM     13  C   UNL A   1      42.023  27.941  29.230  1.00  0.00     0.074 A 
ATOM     14  C   UNL A   1      39.764  28.872  28.866  1.00  0.00     0.049 A 
ATOM     15  N   UNL A   1      42.601  28.943  29.843  1.00  0.00    -0.248 NA
ATOM     16  C   UNL A   1      42.897  26.775  29.031  1.00  0.00     0.031 C 
ATOM     17  C   UNL A   1      38.369  28.892  28.416  1.00  0.00     0.029 A 
ATOM     18  N   UNL A   1      39.952  30.113  29.419  1.00  0.00    -0.354 N 
ATOM     19  C   UNL A   1      43.897  28.524  30.122  1.00  0.00     0.074 A 
ATOM     20  C   UNL A   1      44.014  27.167  29.633  1.00  0.00     0.031 C 
ATOM     21  C   UNL A   1      37.841  30.096  28.678  1.00  0.00     0.029 A 
ATOM     22  C   UNL A   1      38.835  30.912  29.367  1.00  0.00     0.049 A 
ATOM     23  H   UNL A   1      40.805  30.403  29.816  1.00  0.00     0.167 HD
ATOM     24  C   UNL A   1      44.901  29.208  30.727  1.00  0.00     0.031 A 
ATOM     25  C   UNL A   1      38.621  32.157  29.835  1.00  0.00     0.031 A 
ATOM     26  C   UNL A   1      44.783  30.557  31.216  1.00  0.00     0.049 A 
ATOM     27  C   UNL A   1      39.737  32.881  30.530  1.00  0.00     0.074 A 
ATOM     28  C   UNL A   1      45.752  31.342  31.817  1.00  0.00     0.029 A 
ATOM     29  N   UNL A   1      43.626  31.320  31.167  1.00  0.00    -0.354 N 
ATOM     30  N   UNL A   1      40.964  32.477  30.757  1.00  0.00    -0.248 NA
ATOM     31  C   UNL A   1      39.442  34.231  31.030  1.00  0.00     0.031 C 
ATOM     32  C   UNL A   1      45.167  32.562  32.178  1.00  0.00     0.029 A 
ATOM     33  C   UNL A   1      43.849  32.558  31.750  1.00  0.00     0.049 A 
ATOM     34  H   UNL A   1      42.771  31.026  30.778  1.00  0.00     0.167 HD
ATOM     35  C   UNL A   1      41.593  33.530  31.410  1.00  0.00     0.074 A 
ATOM     36  C   UNL A   1      40.617  34.594  31.526  1.00  0.00     0.031 C 
ATOM     37  C   UNL A   1      42.867  33.608  31.866  1.00  0.00     0.031 A 
BRANCH  24  38
ATOM     38  C   UNL A   1      46.213  28.491  30.924  1.00  0.00    -0.014 A 
ATOM     39  C   UNL A   1      46.402  27.594  31.992  1.00  0.00     0.010 A 
ATOM     40  C   UNL A   1      47.260  28.690  30.006  1.00  0.00     0.010 A 
ATOM     41  C   UNL A   1      47.629  26.948  32.165  1.00  0.00     0.020 A 
ATOM     42  C   UNL A   1      48.481  28.026  30.161  1.00  0.00     0.020 A 
ATOM     43  C   UNL A   1      48.665  27.175  31.252  1.00  0.00     0.054 A 
BRANCH  43  44
ATOM     44  S   UNL A   1      50.249  26.325  31.499  1.00  0.00     0.124 S 
ATOM     45  O   UNL A   1      49.928  24.965  31.072  1.00  0.00    -0.237 OA
ATOM     46  O   UNL A   1      51.152  27.062  30.619  1.00  0.00    -0.237 OA
ATOM     47  O   UNL A   1      50.510  26.483  32.928  1.00  0.00    -0.744 OA
ENDBRANCH  43  44
ENDBRANCH  24  38
BRANCH  25  48
ATOM     48  C   UNL A   1      37.283  32.782  29.662  1.00  0.00    -0.014 A 
ATOM     49  C   UNL A   1      36.358  32.798  30.720  1.00  0.00     0.010 A 
ATOM     50  C   UNL A   1      36.947  33.409  28.448  1.00  0.00     0.010 A 
ATOM     51  C   UNL A   1      35.121  33.428  30.565  1.00  0.00     0.020 A 
ATOM     52  C   UNL A   1      35.723  34.063  28.299  1.00  0.00     0.020 A 
ATOM     53  C   UNL A   1      34.813  34.062  29.358  1.00  0.00     0.054 A 
BRANCH  53  54
ATOM     54  S   UNL A   1      33.232  34.940  29.205  1.00  0.00     0.124 S 
ATOM     55  O   UNL A   1      32.530  34.129  28.217  1.00  0.00    -0.237 OA
ATOM     56  O   UNL A   1      32.705  34.879  30.566  1.00  0.00    -0.237 OA
ATOM     57  O   UNL A   1      33.625  36.275  28.758  1.00  0.00    -0.744 OA
ENDBRANCH  53  54
ENDBRANCH  25  48
BRANCH  37  58
ATOM     58  C   UNL A   1      43.292  34.900  32.511  1.00  0.00    -0.014 A 
ATOM     59  C   UNL A   1      43.959  35.897  31.777  1.00  0.00     0.010 A 
ATOM     60  C   UNL A   1      42.972  35.138  33.860  1.00  0.00     0.010 A 
ATOM     61  C   UNL A   1      44.324  37.099  32.390  1.00  0.00     0.020 A 
ATOM     62  C   UNL A   1      43.313  36.349  34.468  1.00  0.00     0.020 A 
ATOM     63  C   UNL A   1      43.999  37.317  33.733  1.00  0.00     0.054 A 
BRANCH  63  64
ATOM     64  S   UNL A   1      44.442  38.903  34.494  1.00  0.00     0.124 S 
ATOM     65  O   UNL A   1      45.737  39.182  33.882  1.00  0.00    -0.237 OA
ATOM     66  O   UNL A   1      43.348  39.776  34.076  1.00  0.00    -0.237 OA
ATOM     67  O   UNL A   1      44.479  38.602  35.923  1.00  0.00    -0.744 OA
ENDBRANCH  63  64
ENDBRANCH  37  58
ENDBRANCH  11  12
ENDBRANCH   4   6
ENDBRANCH   1   2
BRANCH   1  68
ATOM     68  C   UNL A   1      40.968  21.281  27.533  1.00  0.00     0.023 C 
BRANCH  68  69
ATOM     69  C   UNL A   1      41.816  22.182  28.433  1.00  0.00     0.023 C 
BRANCH  69  70
ATOM     70  C   UNL A   1      42.762  23.140  27.714  1.00  0.00     0.116 C 
BRANCH  70  71
ATOM     71  N   UNL A   1      43.961  22.508  27.207  1.00  0.00    -0.356 N 
ATOM     72  C   UNL A   1      45.107  23.118  26.745  1.00  0.00     0.224 C 
ATOM     73  H   UNL A   1      43.958  21.524  27.190  1.00  0.00     0.163 HD
ATOM     74  O   UNL A   1      46.041  22.376  26.424  1.00  0.00    -0.275 OA
BRANCH  72  75
ATOM     75  C   UNL A   1      45.152  24.668  26.632  1.00  0.00     0.093 C 
ATOM     76  C   UNL A   1      46.530  25.354  26.364  1.00  0.00     0.029 C 
ATOM     77  C   UNL A   1      44.625  25.261  25.280  1.00  0.00     0.029 C 
ATOM     78  C   UNL A   1      46.852  26.531  27.212  1.00  0.00    -0.026 C 
ATOM     79  C   UNL A   1      45.992  25.929  25.045  1.00  0.00     0.015 C 
ATOM     80  C   UNL A   1      43.652  26.382  25.366  1.00  0.00    -0.026 C 
ATOM     81  C   UNL A   1      46.441  27.662  26.619  1.00  0.00    -0.023 C 
ATOM     82  C   UNL A   1      45.783  27.435  25.287  1.00  0.00     0.038 C 
ATOM     83  C   UNL A   1      44.289  27.561  25.361  1.00  0.00    -0.023 C 
ENDBRANCH  72  75
ENDBRANCH  70  71
ENDBRANCH  69  70
ENDBRANCH  68  69
ENDBRANCH   1  68
TORSDOF 14
ENDMDL
MODEL 2
REMARK VINA RESULT:      -9.4      3.633     10.608
REMARK SMILES O=C(NCCCCNC(=O)[C@@H]1[C@H]2C=C[C@H]3C=C[C@@H]1[C@H]32)c1ccc(-c2c3nc(c(-c4ccc(S(=O)(=O)[O-])cc4)c4ccc([nH]4)c(-c4ccc(S(=O)(=O)[O-])cc4)c4nc(c(-c5ccc(S(=O)(=O)[O-])cc5)c5ccc2[nH]5)C=C4)C=C3)cc1
REMARK SMILES IDX 4 1 3 2 1 3 2 4 20 6 21 7 79 8 22 9 78 10 23 11 24 12 25 13
REMARK SMILES IDX 72 14 26 15 77 16 71 17 73 18 27 19 76 20 70 21 69 22 28 24
REMARK SMILES IDX 58 25 39 26 57 27 40 28 43 29 56 30 74 31 41 32 42 33 55 35
REMARK SMILES IDX 75 36 44 37 29 38 30 39 38 40 31 41 37 42 32 43 33 44 34 45
REMARK SMILES IDX 35 46 36 47 59 48 60 49 68 50 61 51 67 52 62 53 63 54 64 55
REMARK SMILES IDX 65 56 66 57 45 58 46 59 54 60 47 61 53 62 48 63 49 64 50 65
REMARK SMILES IDX 51 66 52 67 5 68 6 69 7 70 8 71 9 72 10 74 11 75 18 76 12 77
REMARK SMILES IDX 17 78 19 79 13 80 16 81 15 82 14 83
REMARK H PARENT 3 5 73 23 43 34 8 73
REMARK Flexibility Score: inf
ROOT
ATOM      1  C   UNL A   1      33.558  28.329  27.173  1.00  0.00     0.116 C 
ENDROOT
BRANCH   1   2
ATOM      2  N   UNL A   1      33.476  29.749  27.479  1.00  0.00    -0.352 N 
ATOM      3  O   UNL A   1      34.076  31.733  28.355  1.00  0.00    -0.269 OA
ATOM      4  C   UNL A   1      34.405  30.588  28.050  1.00  0.00     0.251 C 
ATOM      5  H   UNL A   1      32.622  30.176  27.241  1.00  0.00     0.163 HD
BRANCH   4   6
ATOM      6  C   UNL A   1      35.783  30.117  28.327  1.00  0.00     0.039 A 
ATOM      7  C   UNL A   1      36.147  29.644  29.589  1.00  0.00     0.014 A 
ATOM      8  C   UNL A   1      36.724  30.129  27.293  1.00  0.00     0.014 A 
ATOM      9  C   UNL A   1      37.479  29.339  29.860  1.00  0.00     0.010 A 
ATOM     10  C   UNL A   1      38.045  29.742  27.546  1.00  0.00     0.010 A 
ATOM     11  C   UNL A   1      38.444  29.381  28.842  1.00  0.00    -0.014 A 
BRANCH  11  12
ATOM     12  C   UNL A   1      39.852  29.010  29.141  1.00  0.00     0.031 A 
ATOM     13  C   UNL A   1      40.781  29.977  29.831  1.00  0.00     0.074 A 
ATOM     14  C   UNL A   1      40.295  27.783  28.804  1.00  0.00     0.049 A 
ATOM     15  N   UNL A   1      42.035  29.813  30.167  1.00  0.00    -0.248 NA
ATOM     16  C   UNL A   1      40.232  31.296  30.181  1.00  0.00     0.031 C 
ATOM     17  C   UNL A   1      39.495  26.755  28.132  1.00  0.00     0.029 A 
ATOM     18  N   UNL A   1      41.516  27.186  28.987  1.00  0.00    -0.354 N 
ATOM     19  C   UNL A   1      42.434  31.012  30.749  1.00  0.00     0.074 A 
ATOM     20  C   UNL A   1      41.293  31.902  30.698  1.00  0.00     0.031 C 
ATOM     21  C   UNL A   1      40.234  25.645  27.994  1.00  0.00     0.029 A 
ATOM     22  C   UNL A   1      41.575  25.899  28.509  1.00  0.00     0.049 A 
ATOM     23  H   UNL A   1      42.277  27.636  29.418  1.00  0.00     0.167 HD
ATOM     24  C   UNL A   1      43.638  31.340  31.281  1.00  0.00     0.031 A 
ATOM     25  C   UNL A   1      42.596  25.021  28.469  1.00  0.00     0.031 A 
ATOM     26  C   UNL A   1      44.772  30.454  31.329  1.00  0.00     0.049 A 
ATOM     27  C   UNL A   1      43.929  25.419  29.034  1.00  0.00     0.074 A 
ATOM     28  C   UNL A   1      46.023  30.687  31.873  1.00  0.00     0.029 A 
ATOM     29  N   UNL A   1      44.797  29.169  30.809  1.00  0.00    -0.354 N 
ATOM     30  N   UNL A   1      44.275  26.547  29.606  1.00  0.00    -0.248 NA
ATOM     31  C   UNL A   1      45.007  24.425  28.952  1.00  0.00     0.031 C 
ATOM     32  C   UNL A   1      46.821  29.562  31.636  1.00  0.00     0.029 A 
ATOM     33  C   UNL A   1      46.049  28.606  30.996  1.00  0.00     0.049 A 
ATOM     34  H   UNL A   1      44.038  28.723  30.369  1.00  0.00     0.167 HD
ATOM     35  C   UNL A   1      45.607  26.392  29.970  1.00  0.00     0.074 A 
ATOM     36  C   UNL A   1      45.998  25.056  29.567  1.00  0.00     0.031 C 
ATOM     37  C   UNL A   1      46.430  27.277  30.585  1.00  0.00     0.031 A 
BRANCH  24  38
ATOM     38  C   UNL A   1      43.800  32.736  31.828  1.00  0.00    -0.014 A 
ATOM     39  C   UNL A   1      44.177  33.807  30.998  1.00  0.00     0.010 A 
ATOM     40  C   UNL A   1      43.538  32.986  33.188  1.00  0.00     0.010 A 
ATOM     41  C   UNL A   1      44.334  35.092  31.526  1.00  0.00     0.020 A 
ATOM     42  C   UNL A   1      43.669  34.274  33.715  1.00  0.00     0.020 A 
ATOM     43  C   UNL A   1      44.088  35.316  32.885  1.00  0.00     0.054 A 
BRANCH  43  44
ATOM     44  S   UNL A   1      44.299  36.992  33.546  1.00  0.00     0.124 S 
ATOM     45  O   UNL A   1      45.161  37.604  32.538  1.00  0.00    -0.237 OA
ATOM     46  O   UNL A   1      42.929  37.497  33.591  1.00  0.00    -0.237 OA
ATOM     47  O   UNL A   1      44.923  36.776  34.849  1.00  0.00    -0.744 OA
ENDBRANCH  43  44
ENDBRANCH  24  38
BRANCH  25  48
ATOM     48  C   UNL A   1      42.384  23.682  27.857  1.00  0.00    -0.014 A 
ATOM     49  C   UNL A   1      42.635  23.471  26.491  1.00  0.00     0.010 A 
ATOM     50  C   UNL A   1      41.976  22.597  28.655  1.00  0.00     0.010 A 
ATOM     51  C   UNL A   1      42.479  22.199  25.934  1.00  0.00     0.020 A 
ATOM     52  C   UNL A   1      41.845  21.320  28.107  1.00  0.00     0.020 A 
ATOM     53  C   UNL A   1      42.090  21.130  26.746  1.00  0.00     0.054 A 
BRANCH  53  54
ATOM     54  S   UNL A   1      41.968  19.473  26.018  1.00  0.00     0.124 S 
ATOM     55  O   UNL A   1      42.487  18.631  27.090  1.00  0.00    -0.237 OA
ATOM     56  O   UNL A   1      40.536  19.350  25.752  1.00  0.00    -0.237 OA
ATOM     57  O   UNL A   1      42.808  19.562  24.825  1.00  0.00    -0.744 OA
ENDBRANCH  53  54
ENDBRANCH  25  48
BRANCH  37  58
ATOM     58  C   UNL A   1      47.831  26.820  30.890  1.00  0.00    -0.014 A 
ATOM     59  C   UNL A   1      48.914  27.195  30.076  1.00  0.00     0.010 A 
ATOM     60  C   UNL A   1      48.071  26.045  32.039  1.00  0.00     0.010 A 
ATOM     61  C   UNL A   1      50.211  26.778  30.391  1.00  0.00     0.020 A 
ATOM     62  C   UNL A   1      49.370  25.648  32.371  1.00  0.00     0.020 A 
ATOM     63  C   UNL A   1      50.430  26.006  31.537  1.00  0.00     0.054 A 
BRANCH  63  64
ATOM     64  S   UNL A   1      52.127  25.517  31.950  1.00  0.00     0.124 S 
ATOM     65  O   UNL A   1      52.842  25.829  30.716  1.00  0.00    -0.237 OA
ATOM     66  O   UNL A   1      52.439  26.373  33.092  1.00  0.00    -0.237 OA
ATOM     67  O   UNL A   1      52.011  24.094  32.260  1.00  0.00    -0.744 OA
ENDBRANCH  63  64
ENDBRANCH  37  58
ENDBRANCH  11  12
ENDBRANCH   4   6
ENDBRANCH   1   2
BRANCH   1  68
ATOM     68  C   UNL A   1      32.202  27.631  27.212  1.00  0.00     0.023 C 
BRANCH  68  69
ATOM     69  C   UNL A   1      31.329  27.804  25.967  1.00  0.00     0.023 C 
BRANCH  69  70
ATOM     70  C   UNL A   1      30.913  26.517  25.261  1.00  0.00     0.116 C 
BRANCH  70  71
ATOM     71  N   UNL A   1      30.460  25.476  26.159  1.00  0.00    -0.356 N 
ATOM     72  C   UNL A   1      31.081  24.281  26.450  1.00  0.00     0.224 C 
ATOM     73  H   UNL A   1      29.605  25.642  26.617  1.00  0.00     0.163 HD
ATOM     74  O   UNL A   1      30.545  23.570  27.307  1.00  0.00    -0.275 OA
BRANCH  72  75
ATOM     75  C   UNL A   1      32.377  23.891  25.685  1.00  0.00     0.093 C 
ATOM     76  C   UNL A   1      33.737  24.482  26.178  1.00  0.00     0.029 C 
ATOM     77  C   UNL A   1      32.927  22.453  25.980  1.00  0.00     0.029 C 
ATOM     78  C   UNL A   1      34.629  25.036  25.127  1.00  0.00    -0.026 C 
ATOM     79  C   UNL A   1      34.258  23.064  26.456  1.00  0.00     0.015 C 
ATOM     80  C   UNL A   1      33.280  21.609  24.809  1.00  0.00    -0.026 C 
ATOM     81  C   UNL A   1      35.472  24.093  24.682  1.00  0.00    -0.023 C 
ATOM     82  C   UNL A   1      35.288  22.762  25.353  1.00  0.00     0.038 C 
ATOM     83  C   UNL A   1      34.569  21.776  24.479  1.00  0.00    -0.023 C 
ENDBRANCH  72  75
ENDBRANCH  70  71
ENDBRANCH  69  70
ENDBRANCH  68  69
ENDBRANCH   1  68
TORSDOF 14
ENDMDL
MODEL 3
REMARK VINA RESULT:      -9.2      2.821     11.196
REMARK SMILES O=C(NCCCCNC(=O)[C@@H]1[C@H]2C=C[C@H]3C=C[C@@H]1[C@H]32)c1ccc(-c2c3nc(c(-c4ccc(S(=O)(=O)[O-])cc4)c4ccc([nH]4)c(-c4ccc(S(=O)(=O)[O-])cc4)c4nc(c(-c5ccc(S(=O)(=O)[O-])cc5)c5ccc2[nH]5)C=C4)C=C3)cc1
REMARK SMILES IDX 4 1 3 2 1 3 2 4 20 6 21 7 79 8 22 9 78 10 23 11 24 12 25 13
REMARK SMILES IDX 72 14 26 15 77 16 71 17 73 18 27 19 76 20 70 21 69 22 28 24
REMARK SMILES IDX 58 25 39 26 57 27 40 28 43 29 56 30 74 31 41 32 42 33 55 35
REMARK SMILES IDX 75 36 44 37 29 38 30 39 38 40 31 41 37 42 32 43 33 44 34 45
REMARK SMILES IDX 35 46 36 47 59 48 60 49 68 50 61 51 67 52 62 53 63 54 64 55
REMARK SMILES IDX 65 56 66 57 45 58 46 59 54 60 47 61 53 62 48 63 49 64 50 65
REMARK SMILES IDX 51 66 52 67 5 68 6 69 7 70 8 71 9 72 10 74 11 75 18 76 12 77
REMARK SMILES IDX 17 78 19 79 13 80 16 81 15 82 14 83
REMARK H PARENT 3 5 73 23 43 34 8 73
REMARK Flexibility Score: inf
ROOT
ATOM      1  C   UNL A   1      34.773  33.025  28.220  1.00  0.00     0.116 C 
ENDROOT
BRANCH   1   2
ATOM      2  N   UNL A   1      33.968  31.867  27.862  1.00  0.00    -0.352 N 
ATOM      3  O   UNL A   1      33.512  29.741  27.288  1.00  0.00    -0.269 OA
ATOM      4  C   UNL A   1      34.322  30.543  27.746  1.00  0.00     0.251 C 
ATOM      5  H   UNL A   1      33.022  32.062  27.674  1.00  0.00     0.163 HD
BRANCH   4   6
ATOM      6  C   UNL A   1      35.675  30.083  28.138  1.00  0.00     0.039 A 
ATOM      7  C   UNL A   1      35.941  29.630  29.432  1.00  0.00     0.014 A 
ATOM      8  C   UNL A   1      36.695  30.083  27.181  1.00  0.00     0.014 A 
ATOM      9  C   UNL A   1      37.248  29.335  29.811  1.00  0.00     0.010 A 
ATOM     10  C   UNL A   1      37.994  29.705  27.542  1.00  0.00     0.010 A 
ATOM     11  C   UNL A   1      38.290  29.366  28.871  1.00  0.00    -0.014 A 
BRANCH  11  12
ATOM     12  C   UNL A   1      39.672  29.005  29.286  1.00  0.00     0.031 A 
ATOM     13  C   UNL A   1      40.507  29.951  30.110  1.00  0.00     0.074 A 
ATOM     14  C   UNL A   1      40.173  27.806  28.931  1.00  0.00     0.049 A 
ATOM     15  N   UNL A   1      41.727  29.794  30.557  1.00  0.00    -0.248 NA
ATOM     16  C   UNL A   1      39.898  31.240  30.472  1.00  0.00     0.031 C 
ATOM     17  C   UNL A   1      39.466  26.800  28.134  1.00  0.00     0.029 A 
ATOM     18  N   UNL A   1      41.385  27.223  29.200  1.00  0.00    -0.354 N 
ATOM     19  C   UNL A   1      42.041  30.967  31.234  1.00  0.00     0.074 A 
ATOM     20  C   UNL A   1      40.890  31.838  31.119  1.00  0.00     0.031 C 
ATOM     21  C   UNL A   1      40.240  25.713  28.011  1.00  0.00     0.029 A 
ATOM     22  C   UNL A   1      41.520  25.964  28.666  1.00  0.00     0.049 A 
ATOM     23  H   UNL A   1      42.091  27.664  29.726  1.00  0.00     0.167 HD
ATOM     24  C   UNL A   1      43.181  31.289  31.897  1.00  0.00     0.031 A 
ATOM     25  C   UNL A   1      42.560  25.109  28.680  1.00  0.00     0.031 A 
ATOM     26  C   UNL A   1      44.325  30.422  32.008  1.00  0.00     0.049 A 
ATOM     27  C   UNL A   1      43.823  25.500  29.391  1.00  0.00     0.074 A 
ATOM     28  C   UNL A   1      45.513  30.650  32.681  1.00  0.00     0.029 A 
ATOM     29  N   UNL A   1      44.430  29.167  31.428  1.00  0.00    -0.354 N 
ATOM     30  N   UNL A   1      44.087  26.603  30.050  1.00  0.00    -0.248 NA
ATOM     31  C   UNL A   1      44.927  24.532  29.363  1.00  0.00     0.031 C 
ATOM     32  C   UNL A   1      46.356  29.553  32.466  1.00  0.00     0.029 A 
ATOM     33  C   UNL A   1      45.672  28.618  31.707  1.00  0.00     0.049 A 
ATOM     34  H   UNL A   1      43.727  28.731  30.895  1.00  0.00     0.167 HD
ATOM     35  C   UNL A   1      45.381  26.454  30.532  1.00  0.00     0.074 A 
ATOM     36  C   UNL A   1      45.840  25.148  30.102  1.00  0.00     0.031 C 
ATOM     37  C   UNL A   1      46.120  27.319  31.268  1.00  0.00     0.031 A 
BRANCH  24  38
ATOM     38  C   UNL A   1      43.257  32.657  32.526  1.00  0.00    -0.014 A 
ATOM     39  C   UNL A   1      43.768  33.760  31.819  1.00  0.00     0.010 A 
ATOM     40  C   UNL A   1      42.779  32.848  33.836  1.00  0.00     0.010 A 
ATOM     41  C   UNL A   1      43.843  35.017  32.425  1.00  0.00     0.020 A 
ATOM     42  C   UNL A   1      42.827  34.110  34.436  1.00  0.00     0.020 A 
ATOM     43  C   UNL A   1      43.379  35.183  33.734  1.00  0.00     0.054 A 
BRANCH  43  44
ATOM     44  S   UNL A   1      43.488  36.824  34.498  1.00  0.00     0.124 S 
ATOM     45  O   UNL A   1      42.487  36.727  35.558  1.00  0.00    -0.237 OA
ATOM     46  O   UNL A   1      44.876  36.879  34.949  1.00  0.00    -0.237 OA
ATOM     47  O   UNL A   1      43.153  37.738  33.409  1.00  0.00    -0.744 OA
ENDBRANCH  43  44
ENDBRANCH  24  38
BRANCH  25  48
ATOM     48  C   UNL A   1      42.439  23.800  27.984  1.00  0.00    -0.014 A 
ATOM     49  C   UNL A   1      42.905  23.643  26.668  1.00  0.00     0.010 A 
ATOM     50  C   UNL A   1      41.898  22.689  28.657  1.00  0.00     0.010 A 
ATOM     51  C   UNL A   1      42.830  22.398  26.037  1.00  0.00     0.020 A 
ATOM     52  C   UNL A   1      41.847  21.437  28.039  1.00  0.00     0.020 A 
ATOM     53  C   UNL A   1      42.307  21.302  26.728  1.00  0.00     0.054 A 
BRANCH  53  54
ATOM     54  S   UNL A   1      42.290  19.679  25.917  1.00  0.00     0.124 S 
ATOM     55  O   UNL A   1      40.914  19.593  25.441  1.00  0.00    -0.237 OA
ATOM     56  O   UNL A   1      43.311  19.833  24.883  1.00  0.00    -0.237 OA
ATOM     57  O   UNL A   1      42.641  18.756  26.994  1.00  0.00    -0.744 OA
ENDBRANCH  53  54
ENDBRANCH  25  48
BRANCH  37  58
ATOM     58  C   UNL A   1      47.496  26.873  31.683  1.00  0.00    -0.014 A 
ATOM     59  C   UNL A   1      47.697  26.124  32.856  1.00  0.00     0.010 A 
ATOM     60  C   UNL A   1      48.597  27.167  30.859  1.00  0.00     0.010 A 
ATOM     61  C   UNL A   1      48.981  25.700  33.211  1.00  0.00     0.020 A 
ATOM     62  C   UNL A   1      49.878  26.723  31.197  1.00  0.00     0.020 A 
ATOM     63  C   UNL A   1      50.064  26.003  32.379  1.00  0.00     0.054 A 
BRANCH  63  64
ATOM     64  S   UNL A   1      51.714  25.402  32.836  1.00  0.00     0.124 S 
ATOM     65  O   UNL A   1      51.401  24.154  33.526  1.00  0.00    -0.237 OA
ATOM     66  O   UNL A   1      52.374  25.258  31.541  1.00  0.00    -0.237 OA
ATOM     67  O   UNL A   1      52.246  26.466  33.684  1.00  0.00    -0.744 OA
ENDBRANCH  63  64
ENDBRANCH  37  58
ENDBRANCH  11  12
ENDBRANCH   4   6
ENDBRANCH   1   2
BRANCH   1  68
ATOM     68  C   UNL A   1      34.075  34.350  27.929  1.00  0.00     0.023 C 
BRANCH  68  69
ATOM     69  C   UNL A   1      33.845  35.260  29.138  1.00  0.00     0.023 C 
BRANCH  69  70
ATOM     70  C   UNL A   1      33.894  34.579  30.503  1.00  0.00     0.116 C 
BRANCH  70  71
ATOM     71  N   UNL A   1      33.913  35.502  31.617  1.00  0.00    -0.356 N 
ATOM     72  C   UNL A   1      34.823  35.562  32.650  1.00  0.00     0.224 C 
ATOM     73  H   UNL A   1      33.189  36.168  31.640  1.00  0.00     0.163 HD
ATOM     74  O   UNL A   1      34.685  36.484  33.461  1.00  0.00    -0.275 OA
BRANCH  72  75
ATOM     75  C   UNL A   1      35.932  34.477  32.751  1.00  0.00     0.093 C 
ATOM     76  C   UNL A   1      36.916  34.530  33.964  1.00  0.00     0.029 C 
ATOM     77  C   UNL A   1      35.453  33.066  33.238  1.00  0.00     0.029 C 
ATOM     78  C   UNL A   1      38.358  34.368  33.645  1.00  0.00    -0.026 C 
ATOM     79  C   UNL A   1      36.435  33.145  34.421  1.00  0.00     0.015 C 
ATOM     80  C   UNL A   1      35.893  31.890  32.443  1.00  0.00    -0.026 C 
ATOM     81  C   UNL A   1      38.712  33.077  33.720  1.00  0.00    -0.023 C 
ATOM     82  C   UNL A   1      37.578  32.166  34.098  1.00  0.00     0.038 C 
ATOM     83  C   UNL A   1      37.045  31.400  32.921  1.00  0.00    -0.023 C 
ENDBRANCH  72  75
ENDBRANCH  70  71
ENDBRANCH  69  70
ENDBRANCH  68  69
ENDBRANCH   1  68
TORSDOF 14
ENDMDL
