MODEL 1
REMARK VINA RESULT:     -12.6      0.000      0.000
REMARK SMILES C[C@@H]1C[C@@H](C)CN(C(=O)Cn2cccc2C(=O)NCCCCNC(=O)c2ccc(-c3c4nc(c(-c5ccc(S(=O)(=O)[O-])cc5)c5ccc([nH]5)c(-c5ccc(S(=O)(=O)[O-])cc5)c5nc(c(-c6ccc(S(=O)(=O)[O-])cc6)c6ccc3[nH]6)C=C5)C=C4)cc2)C1
REMARK SMILES IDX 21 1 20 2 19 3 18 4 16 5 17 6 15 8 11 9 12 10 13 11 14 12
REMARK SMILES IDX 10 13 8 14 1 15 2 16 3 17 86 18 4 19 7 20 6 21 5 22 9 23
REMARK SMILES IDX 22 24 23 25 24 26 25 28 26 29 27 30 85 31 28 32 84 33 29 34
REMARK SMILES IDX 30 35 31 36 78 37 32 38 83 39 77 40 79 41 33 42 82 43 76 44
REMARK SMILES IDX 75 45 34 47 64 48 45 49 63 50 46 51 49 52 62 53 80 54 47 55
REMARK SMILES IDX 48 56 61 58 81 59 50 60 35 61 36 62 44 63 37 64 43 65 38 66
REMARK SMILES IDX 39 67 40 68 41 69 42 70 65 71 66 72 74 73 67 74 73 75 68 76
REMARK SMILES IDX 69 77 70 78 71 79 72 80 51 81 52 82 60 83 53 84 59 85 54 86
REMARK SMILES IDX 55 87 56 88 57 89 58 90
REMARK H PARENT 18 7 23 27 79 46 49 57
REMARK Flexibility Score: inf
ROOT
ATOM      1  C   UNL A   1      32.742  28.813  27.316  1.00  0.00     0.023 C 
ENDROOT
BRANCH   1   2
ATOM      2  C   UNL A   1      31.828  27.627  26.903  1.00  0.00     0.023 C 
BRANCH   2   3
ATOM      3  C   UNL A   1      32.405  26.324  26.330  1.00  0.00     0.116 C 
BRANCH   3   4
ATOM      4  N   UNL A   1      31.802  25.170  26.931  1.00  0.00    -0.351 N 
ATOM      5  C   UNL A   1      31.647  23.927  26.374  1.00  0.00     0.267 C 
ATOM      6  O   UNL A   1      30.596  23.566  25.850  1.00  0.00    -0.268 OA
ATOM      7  H   UNL A   1      31.460  25.283  27.847  1.00  0.00     0.163 HD
BRANCH   5   8
ATOM      8  C   UNL A   1      32.822  23.104  26.487  1.00  0.00     0.107 A 
ATOM      9  N   UNL A   1      33.517  22.479  25.468  1.00  0.00    -0.334 N 
ATOM     10  C   UNL A   1      34.065  21.328  26.029  1.00  0.00     0.087 A 
ATOM     11  C   UNL A   1      34.089  21.478  27.396  1.00  0.00     0.020 A 
ATOM     12  C   UNL A   1      33.401  22.677  27.678  1.00  0.00     0.033 A 
BRANCH   9  13
ATOM     13  C   UNL A   1      33.378  22.626  24.007  1.00  0.00     0.222 C 
BRANCH  13  14
ATOM     14  C   UNL A   1      33.465  23.937  23.191  1.00  0.00     0.242 C 
ATOM     15  C   UNL A   1      33.677  27.594  23.368  1.00  0.00     0.009 C 
ATOM     16  C   UNL A   1      32.744  27.247  22.208  1.00  0.00     0.006 C 
ATOM     17  C   UNL A   1      31.274  27.488  22.605  1.00  0.00     0.010 C 
ATOM     18  C   UNL A   1      33.010  25.810  21.715  1.00  0.00     0.122 C 
ATOM     19  C   UNL A   1      30.738  26.366  23.498  1.00  0.00     0.006 C 
ATOM     20  N   UNL A   1      32.484  24.790  22.653  1.00  0.00    -0.341 N 
ATOM     21  C   UNL A   1      31.025  25.049  22.784  1.00  0.00     0.122 C 
ATOM     22  C   UNL A   1      29.239  26.533  23.774  1.00  0.00     0.009 C 
ATOM     23  O   UNL A   1      34.632  24.118  22.783  1.00  0.00    -0.273 OA
ENDBRANCH  13  14
ENDBRANCH   9  13
ENDBRANCH   5   8
ENDBRANCH   3   4
ENDBRANCH   2   3
ENDBRANCH   1   2
BRANCH   1  24
ATOM     24  C   UNL A   1      34.228  28.863  26.894  1.00  0.00     0.116 C 
BRANCH  24  25
ATOM     25  N   UNL A   1      34.779  30.195  27.060  1.00  0.00    -0.352 N 
ATOM     26  C   UNL A   1      35.859  30.699  27.745  1.00  0.00     0.251 C 
ATOM     27  H   UNL A   1      34.269  30.886  26.580  1.00  0.00     0.163 HD
ATOM     28  O   UNL A   1      35.866  31.925  27.895  1.00  0.00    -0.269 OA
BRANCH  26  29
ATOM     29  C   UNL A   1      37.004  29.912  28.303  1.00  0.00     0.039 A 
ATOM     30  C   UNL A   1      38.175  29.866  27.517  1.00  0.00     0.014 A 
ATOM     31  C   UNL A   1      36.959  29.129  29.460  1.00  0.00     0.014 A 
ATOM     32  C   UNL A   1      39.279  29.083  27.881  1.00  0.00     0.010 A 
ATOM     33  C   UNL A   1      38.068  28.332  29.825  1.00  0.00     0.010 A 
ATOM     34  C   UNL A   1      39.242  28.316  29.049  1.00  0.00    -0.014 A 
BRANCH  34  35
ATOM     35  C   UNL A   1      40.513  27.691  29.543  1.00  0.00     0.031 A 
ATOM     36  C   UNL A   1      40.881  26.399  28.776  1.00  0.00     0.074 A 
ATOM     37  C   UNL A   1      41.180  28.259  30.597  1.00  0.00     0.049 A 
ATOM     38  N   UNL A   1      41.714  25.449  29.085  1.00  0.00    -0.248 NA
ATOM     39  C   UNL A   1      40.180  26.096  27.497  1.00  0.00     0.031 C 
ATOM     40  C   UNL A   1      40.755  29.493  31.292  1.00  0.00     0.029 A 
ATOM     41  N   UNL A   1      42.333  27.935  31.300  1.00  0.00    -0.354 N 
ATOM     42  C   UNL A   1      41.765  24.551  27.992  1.00  0.00     0.074 A 
ATOM     43  C   UNL A   1      40.748  24.964  27.077  1.00  0.00     0.031 C 
ATOM     44  C   UNL A   1      41.583  29.778  32.325  1.00  0.00     0.029 A 
ATOM     45  C   UNL A   1      42.642  28.787  32.396  1.00  0.00     0.049 A 
ATOM     46  H   UNL A   1      42.900  27.168  31.055  1.00  0.00     0.167 HD
ATOM     47  C   UNL A   1      42.706  23.572  27.846  1.00  0.00     0.031 A 
ATOM     48  C   UNL A   1      43.658  28.707  33.312  1.00  0.00     0.031 A 
ATOM     49  C   UNL A   1      43.530  23.484  28.998  1.00  0.00     0.049 A 
ATOM     50  C   UNL A   1      44.551  27.628  32.864  1.00  0.00     0.074 A 
ATOM     51  C   UNL A   1      43.347  22.988  30.260  1.00  0.00     0.029 A 
ATOM     52  N   UNL A   1      44.702  24.195  28.963  1.00  0.00    -0.354 N 
ATOM     53  N   UNL A   1      45.383  27.717  31.874  1.00  0.00    -0.248 NA
ATOM     54  C   UNL A   1      44.554  26.355  33.598  1.00  0.00     0.031 C 
ATOM     55  C   UNL A   1      44.197  23.779  31.064  1.00  0.00     0.029 A 
ATOM     56  C   UNL A   1      44.921  24.646  30.239  1.00  0.00     0.049 A 
ATOM     57  H   UNL A   1      45.275  24.352  28.177  1.00  0.00     0.167 HD
ATOM     58  C   UNL A   1      45.706  26.405  31.641  1.00  0.00     0.074 A 
ATOM     59  C   UNL A   1      45.454  25.694  32.874  1.00  0.00     0.031 C 
ATOM     60  C   UNL A   1      45.593  25.915  30.382  1.00  0.00     0.031 A 
BRANCH  47  61
ATOM     61  C   UNL A   1      43.141  22.778  26.637  1.00  0.00    -0.014 A 
ATOM     62  C   UNL A   1      42.505  21.524  26.425  1.00  0.00     0.010 A 
ATOM     63  C   UNL A   1      44.341  23.016  25.952  1.00  0.00     0.010 A 
ATOM     64  C   UNL A   1      43.114  20.503  25.692  1.00  0.00     0.020 A 
ATOM     65  C   UNL A   1      44.938  22.005  25.178  1.00  0.00     0.020 A 
ATOM     66  C   UNL A   1      44.351  20.739  25.105  1.00  0.00     0.054 A 
BRANCH  66  67
ATOM     67  S   UNL A   1      45.215  19.345  24.327  1.00  0.00     0.124 S 
ATOM     68  O   UNL A   1      44.625  19.325  22.992  1.00  0.00    -0.237 OA
ATOM     69  O   UNL A   1      46.614  19.763  24.387  1.00  0.00    -0.237 OA
ATOM     70  O   UNL A   1      44.876  18.213  25.186  1.00  0.00    -0.744 OA
ENDBRANCH  66  67
ENDBRANCH  47  61
BRANCH  48  71
ATOM     71  C   UNL A   1      44.080  29.350  34.624  1.00  0.00    -0.014 A 
ATOM     72  C   UNL A   1      43.234  29.732  35.671  1.00  0.00     0.010 A 
ATOM     73  C   UNL A   1      45.479  29.446  34.904  1.00  0.00     0.010 A 
ATOM     74  C   UNL A   1      43.753  30.041  36.956  1.00  0.00     0.020 A 
ATOM     75  C   UNL A   1      46.000  29.693  36.177  1.00  0.00     0.020 A 
ATOM     76  C   UNL A   1      45.126  29.964  37.213  1.00  0.00     0.054 A 
BRANCH  76  77
ATOM     77  S   UNL A   1      45.779  30.057  38.907  1.00  0.00     0.124 S 
ATOM     78  O   UNL A   1      45.089  28.957  39.572  1.00  0.00    -0.237 OA
ATOM     79  O   UNL A   1      47.216  29.876  38.715  1.00  0.00    -0.237 OA
ATOM     80  O   UNL A   1      45.389  31.397  39.345  1.00  0.00    -0.744 OA
ENDBRANCH  76  77
ENDBRANCH  48  71
BRANCH  60  81
ATOM     81  C   UNL A   1      45.736  26.953  29.279  1.00  0.00    -0.014 A 
ATOM     82  C   UNL A   1      46.974  27.114  28.633  1.00  0.00     0.010 A 
ATOM     83  C   UNL A   1      44.696  27.837  28.926  1.00  0.00     0.010 A 
ATOM     84  C   UNL A   1      47.168  28.116  27.671  1.00  0.00     0.020 A 
ATOM     85  C   UNL A   1      44.877  28.840  27.959  1.00  0.00     0.020 A 
ATOM     86  C   UNL A   1      46.117  28.974  27.336  1.00  0.00     0.054 A 
BRANCH  86  87
ATOM     87  S   UNL A   1      46.407  30.266  26.091  1.00  0.00     0.124 S 
ATOM     88  O   UNL A   1      45.172  31.045  26.142  1.00  0.00    -0.237 OA
ATOM     89  O   UNL A   1      47.593  30.943  26.610  1.00  0.00    -0.237 OA
ATOM     90  O   UNL A   1      46.613  29.519  24.852  1.00  0.00    -0.744 OA
ENDBRANCH  86  87
ENDBRANCH  60  81
ENDBRANCH  34  35
ENDBRANCH  26  29
ENDBRANCH  24  25
ENDBRANCH   1  24
TORSDOF 16
ENDMDL
MODEL 2
REMARK VINA RESULT:     -12.2      3.245      9.245
REMARK SMILES C[C@@H]1C[C@@H](C)CN(C(=O)Cn2cccc2C(=O)NCCCCNC(=O)c2ccc(-c3c4nc(c(-c5ccc(S(=O)(=O)[O-])cc5)c5ccc([nH]5)c(-c5ccc(S(=O)(=O)[O-])cc5)c5nc(c(-c6ccc(S(=O)(=O)[O-])cc6)c6ccc3[nH]6)C=C5)C=C4)cc2)C1
REMARK SMILES IDX 21 1 20 2 19 3 18 4 16 5 17 6 15 8 11 9 12 10 13 11 14 12
REMARK SMILES IDX 10 13 8 14 1 15 2 16 3 17 86 18 4 19 7 20 6 21 5 22 9 23
REMARK SMILES IDX 22 24 23 25 24 26 25 28 26 29 27 30 85 31 28 32 84 33 29 34
REMARK SMILES IDX 30 35 31 36 78 37 32 38 83 39 77 40 79 41 33 42 82 43 76 44
REMARK SMILES IDX 75 45 34 47 64 48 45 49 63 50 46 51 49 52 62 53 80 54 47 55
REMARK SMILES IDX 48 56 61 58 81 59 50 60 35 61 36 62 44 63 37 64 43 65 38 66
REMARK SMILES IDX 39 67 40 68 41 69 42 70 65 71 66 72 74 73 67 74 73 75 68 76
REMARK SMILES IDX 69 77 70 78 71 79 72 80 51 81 52 82 60 83 53 84 59 85 54 86
REMARK SMILES IDX 55 87 56 88 57 89 58 90
REMARK H PARENT 18 7 23 27 79 46 49 57
REMARK Flexibility Score: inf
ROOT
ATOM      1  C   UNL A   1      33.644  31.433  27.629  1.00  0.00     0.023 C 
ENDROOT
BRANCH   1   2
ATOM      2  C   UNL A   1      34.506  30.141  27.579  1.00  0.00     0.023 C 
BRANCH   2   3
ATOM      3  C   UNL A   1      34.104  28.937  26.714  1.00  0.00     0.116 C 
BRANCH   3   4
ATOM      4  N   UNL A   1      33.586  29.351  25.442  1.00  0.00    -0.351 N 
ATOM      5  C   UNL A   1      33.196  28.548  24.401  1.00  0.00     0.267 C 
ATOM      6  O   UNL A   1      33.930  28.307  23.445  1.00  0.00    -0.268 OA
ATOM      7  H   UNL A   1      33.501  30.321  25.299  1.00  0.00     0.163 HD
BRANCH   5   8
ATOM      8  C   UNL A   1      31.855  28.047  24.542  1.00  0.00     0.107 A 
ATOM      9  N   UNL A   1      31.435  26.950  25.270  1.00  0.00    -0.334 N 
ATOM     10  C   UNL A   1      30.317  26.454  24.603  1.00  0.00     0.087 A 
ATOM     11  C   UNL A   1      29.818  27.445  23.791  1.00  0.00     0.020 A 
ATOM     12  C   UNL A   1      30.740  28.511  23.850  1.00  0.00     0.033 A 
BRANCH   9  13
ATOM     13  C   UNL A   1      32.180  26.120  26.235  1.00  0.00     0.222 C 
BRANCH  13  14
ATOM     14  C   UNL A   1      32.220  24.575  26.296  1.00  0.00     0.242 C 
ATOM     15  C   UNL A   1      34.082  21.646  27.481  1.00  0.00     0.009 C 
ATOM     16  C   UNL A   1      33.543  21.312  26.090  1.00  0.00     0.006 C 
ATOM     17  C   UNL A   1      34.671  21.386  25.040  1.00  0.00     0.010 C 
ATOM     18  C   UNL A   1      32.339  22.212  25.749  1.00  0.00     0.122 C 
ATOM     19  C   UNL A   1      35.004  22.833  24.669  1.00  0.00     0.006 C 
ATOM     20  N   UNL A   1      32.750  23.601  25.430  1.00  0.00    -0.341 N 
ATOM     21  C   UNL A   1      33.692  23.510  24.283  1.00  0.00     0.122 C 
ATOM     22  C   UNL A   1      36.021  22.902  23.525  1.00  0.00     0.009 C 
ATOM     23  O   UNL A   1      31.446  24.157  27.184  1.00  0.00    -0.273 OA
ENDBRANCH  13  14
ENDBRANCH   9  13
ENDBRANCH   5   8
ENDBRANCH   3   4
ENDBRANCH   2   3
ENDBRANCH   1   2
BRANCH   1  24
ATOM     24  C   UNL A   1      34.256  32.786  28.058  1.00  0.00     0.116 C 
BRANCH  24  25
ATOM     25  N   UNL A   1      34.159  32.976  29.493  1.00  0.00    -0.352 N 
ATOM     26  C   UNL A   1      34.809  32.425  30.572  1.00  0.00     0.251 C 
ATOM     27  H   UNL A   1      33.483  33.643  29.750  1.00  0.00     0.163 HD
ATOM     28  O   UNL A   1      34.275  32.617  31.668  1.00  0.00    -0.269 OA
BRANCH  26  29
ATOM     29  C   UNL A   1      36.083  31.639  30.535  1.00  0.00     0.039 A 
ATOM     30  C   UNL A   1      36.972  31.933  29.479  1.00  0.00     0.014 A 
ATOM     31  C   UNL A   1      36.396  30.566  31.376  1.00  0.00     0.014 A 
ATOM     32  C   UNL A   1      38.148  31.200  29.277  1.00  0.00     0.010 A 
ATOM     33  C   UNL A   1      37.578  29.820  31.170  1.00  0.00     0.010 A 
ATOM     34  C   UNL A   1      38.472  30.141  30.131  1.00  0.00    -0.014 A 
BRANCH  34  35
ATOM     35  C   UNL A   1      39.844  29.540  30.049  1.00  0.00     0.031 A 
ATOM     36  C   UNL A   1      40.949  30.506  30.537  1.00  0.00     0.074 A 
ATOM     37  C   UNL A   1      39.999  28.278  29.538  1.00  0.00     0.049 A 
ATOM     38  N   UNL A   1      42.237  30.467  30.357  1.00  0.00    -0.248 NA
ATOM     39  C   UNL A   1      40.556  31.724  31.299  1.00  0.00     0.031 C 
ATOM     40  C   UNL A   1      38.890  27.418  29.074  1.00  0.00     0.029 A 
ATOM     41  N   UNL A   1      41.095  27.458  29.302  1.00  0.00    -0.354 N 
ATOM     42  C   UNL A   1      42.807  31.524  31.106  1.00  0.00     0.074 A 
ATOM     43  C   UNL A   1      41.718  32.303  31.606  1.00  0.00     0.031 C 
ATOM     44  C   UNL A   1      39.357  26.249  28.574  1.00  0.00     0.029 A 
ATOM     45  C   UNL A   1      40.805  26.211  28.683  1.00  0.00     0.049 A 
ATOM     46  H   UNL A   1      42.011  27.722  29.548  1.00  0.00     0.167 HD
ATOM     47  C   UNL A   1      44.142  31.651  31.361  1.00  0.00     0.031 A 
ATOM     48  C   UNL A   1      41.653  25.217  28.268  1.00  0.00     0.031 A 
ATOM     49  C   UNL A   1      44.889  30.669  30.659  1.00  0.00     0.049 A 
ATOM     50  C   UNL A   1      42.996  25.579  28.743  1.00  0.00     0.074 A 
ATOM     51  C   UNL A   1      45.251  30.509  29.349  1.00  0.00     0.029 A 
ATOM     52  N   UNL A   1      45.175  29.517  31.345  1.00  0.00    -0.354 N 
ATOM     53  N   UNL A   1      43.401  25.480  29.970  1.00  0.00    -0.248 NA
ATOM     54  C   UNL A   1      43.992  26.052  27.772  1.00  0.00     0.031 C 
ATOM     55  C   UNL A   1      45.345  29.110  29.189  1.00  0.00     0.029 A 
ATOM     56  C   UNL A   1      45.131  28.498  30.428  1.00  0.00     0.049 A 
ATOM     57  H   UNL A   1      45.373  29.436  32.307  1.00  0.00     0.167 HD
ATOM     58  C   UNL A   1      44.544  26.236  29.967  1.00  0.00     0.074 A 
ATOM     59  C   UNL A   1      45.011  26.270  28.599  1.00  0.00     0.031 C 
ATOM     60  C   UNL A   1      44.691  27.207  30.901  1.00  0.00     0.031 A 
BRANCH  47  61
ATOM     61  C   UNL A   1      44.889  32.462  32.393  1.00  0.00    -0.014 A 
ATOM     62  C   UNL A   1      44.639  32.157  33.758  1.00  0.00     0.010 A 
ATOM     63  C   UNL A   1      45.502  33.691  32.110  1.00  0.00     0.010 A 
ATOM     64  C   UNL A   1      44.846  33.093  34.774  1.00  0.00     0.020 A 
ATOM     65  C   UNL A   1      45.752  34.622  33.134  1.00  0.00     0.020 A 
ATOM     66  C   UNL A   1      45.365  34.339  34.447  1.00  0.00     0.054 A 
BRANCH  66  67
ATOM     67  S   UNL A   1      45.441  35.607  35.743  1.00  0.00     0.124 S 
ATOM     68  O   UNL A   1      45.543  34.802  36.955  1.00  0.00    -0.237 OA
ATOM     69  O   UNL A   1      46.645  36.356  35.387  1.00  0.00    -0.237 OA
ATOM     70  O   UNL A   1      44.189  36.342  35.574  1.00  0.00    -0.744 OA
ENDBRANCH  66  67
ENDBRANCH  47  61
BRANCH  48  71
ATOM     71  C   UNL A   1      41.613  23.935  27.451  1.00  0.00    -0.014 A 
ATOM     72  C   UNL A   1      42.455  23.604  26.384  1.00  0.00     0.010 A 
ATOM     73  C   UNL A   1      40.743  22.888  27.889  1.00  0.00     0.010 A 
ATOM     74  C   UNL A   1      42.527  22.274  25.894  1.00  0.00     0.020 A 
ATOM     75  C   UNL A   1      40.844  21.563  27.456  1.00  0.00     0.020 A 
ATOM     76  C   UNL A   1      41.763  21.253  26.471  1.00  0.00     0.054 A 
BRANCH  76  77
ATOM     77  S   UNL A   1      42.059  19.506  26.069  1.00  0.00     0.124 S 
ATOM     78  O   UNL A   1      40.736  19.046  25.666  1.00  0.00    -0.237 OA
ATOM     79  O   UNL A   1      43.055  19.580  25.002  1.00  0.00    -0.237 OA
ATOM     80  O   UNL A   1      42.559  18.951  27.328  1.00  0.00    -0.744 OA
ENDBRANCH  76  77
ENDBRANCH  48  71
BRANCH  60  81
ATOM     81  C   UNL A   1      43.927  26.969  32.194  1.00  0.00    -0.014 A 
ATOM     82  C   UNL A   1      42.780  27.732  32.476  1.00  0.00     0.010 A 
ATOM     83  C   UNL A   1      44.369  26.067  33.184  1.00  0.00     0.010 A 
ATOM     84  C   UNL A   1      42.099  27.600  33.695  1.00  0.00     0.020 A 
ATOM     85  C   UNL A   1      43.690  25.921  34.406  1.00  0.00     0.020 A 
ATOM     86  C   UNL A   1      42.556  26.693  34.654  1.00  0.00     0.054 A 
BRANCH  86  87
ATOM     87  S   UNL A   1      41.653  26.554  36.225  1.00  0.00     0.124 S 
ATOM     88  O   UNL A   1      41.284  27.939  36.508  1.00  0.00    -0.237 OA
ATOM     89  O   UNL A   1      40.543  25.672  35.875  1.00  0.00    -0.237 OA
ATOM     90  O   UNL A   1      42.634  25.980  37.144  1.00  0.00    -0.744 OA
ENDBRANCH  86  87
ENDBRANCH  60  81
ENDBRANCH  34  35
ENDBRANCH  26  29
ENDBRANCH  24  25
ENDBRANCH   1  24
TORSDOF 16
ENDMDL
MODEL 3
REMARK VINA RESULT:     -12.1      1.051      2.745
REMARK SMILES C[C@@H]1C[C@@H](C)CN(C(=O)Cn2cccc2C(=O)NCCCCNC(=O)c2ccc(-c3c4nc(c(-c5ccc(S(=O)(=O)[O-])cc5)c5ccc([nH]5)c(-c5ccc(S(=O)(=O)[O-])cc5)c5nc(c(-c6ccc(S(=O)(=O)[O-])cc6)c6ccc3[nH]6)C=C5)C=C4)cc2)C1
REMARK SMILES IDX 21 1 20 2 19 3 18 4 16 5 17 6 15 8 11 9 12 10 13 11 14 12
REMARK SMILES IDX 10 13 8 14 1 15 2 16 3 17 86 18 4 19 7 20 6 21 5 22 9 23
REMARK SMILES IDX 22 24 23 25 24 26 25 28 26 29 27 30 85 31 28 32 84 33 29 34
REMARK SMILES IDX 30 35 31 36 78 37 32 38 83 39 77 40 79 41 33 42 82 43 76 44
REMARK SMILES IDX 75 45 34 47 64 48 45 49 63 50 46 51 49 52 62 53 80 54 47 55
REMARK SMILES IDX 48 56 61 58 81 59 50 60 35 61 36 62 44 63 37 64 43 65 38 66
REMARK SMILES IDX 39 67 40 68 41 69 42 70 65 71 66 72 74 73 67 74 73 75 68 76
REMARK SMILES IDX 69 77 70 78 71 79 72 80 51 81 52 82 60 83 53 84 59 85 54 86
REMARK SMILES IDX 55 87 56 88 57 89 58 90
REMARK H PARENT 18 7 23 27 79 46 49 57
REMARK Flexibility Score: inf
ROOT
ATOM      1  C   UNL A   1      33.102  28.766  26.825  1.00  0.00     0.023 C 
ENDROOT
BRANCH   1   2
ATOM      2  C   UNL A   1      32.438  27.368  26.689  1.00  0.00     0.023 C 
BRANCH   2   3
ATOM      3  C   UNL A   1      30.926  27.211  26.471  1.00  0.00     0.116 C 
BRANCH   3   4
ATOM      4  N   UNL A   1      30.637  26.508  25.255  1.00  0.00    -0.351 N 
ATOM      5  C   UNL A   1      30.285  27.048  24.045  1.00  0.00     0.267 C 
ATOM      6  O   UNL A   1      29.117  27.125  23.673  1.00  0.00    -0.268 OA
ATOM      7  H   UNL A   1      30.698  25.526  25.293  1.00  0.00     0.163 HD
BRANCH   5   8
ATOM      8  C   UNL A   1      31.415  27.488  23.269  1.00  0.00     0.107 A 
ATOM      9  N   UNL A   1      32.349  26.704  22.620  1.00  0.00    -0.334 N 
ATOM     10  C   UNL A   1      33.534  27.437  22.627  1.00  0.00     0.087 A 
ATOM     11  C   UNL A   1      33.228  28.758  22.855  1.00  0.00     0.020 A 
ATOM     12  C   UNL A   1      31.848  28.804  23.144  1.00  0.00     0.033 A 
BRANCH   9  13
ATOM     13  C   UNL A   1      32.352  25.249  22.377  1.00  0.00     0.222 C 
BRANCH  13  14
ATOM     14  C   UNL A   1      32.287  24.129  23.442  1.00  0.00     0.242 C 
ATOM     15  C   UNL A   1      32.270  23.369  27.029  1.00  0.00     0.009 C 
ATOM     16  C   UNL A   1      33.118  22.300  26.341  1.00  0.00     0.006 C 
ATOM     17  C   UNL A   1      34.618  22.561  26.582  1.00  0.00     0.010 C 
ATOM     18  C   UNL A   1      32.752  22.204  24.846  1.00  0.00     0.122 C 
ATOM     19  C   UNL A   1      35.146  23.689  25.692  1.00  0.00     0.006 C 
ATOM     20  N   UNL A   1      33.278  23.349  24.066  1.00  0.00    -0.341 N 
ATOM     21  C   UNL A   1      34.753  23.349  24.257  1.00  0.00     0.122 C 
ATOM     22  C   UNL A   1      36.664  23.851  25.828  1.00  0.00     0.009 C 
ATOM     23  O   UNL A   1      31.109  23.736  23.586  1.00  0.00    -0.273 OA
ENDBRANCH  13  14
ENDBRANCH   9  13
ENDBRANCH   5   8
ENDBRANCH   3   4
ENDBRANCH   2   3
ENDBRANCH   1   2
BRANCH   1  24
ATOM     24  C   UNL A   1      34.612  28.964  26.562  1.00  0.00     0.116 C 
BRANCH  24  25
ATOM     25  N   UNL A   1      35.048  30.287  26.965  1.00  0.00    -0.352 N 
ATOM     26  C   UNL A   1      36.028  30.749  27.811  1.00  0.00     0.251 C 
ATOM     27  H   UNL A   1      34.531  31.010  26.542  1.00  0.00     0.163 HD
ATOM     28  O   UNL A   1      35.934  31.937  28.134  1.00  0.00    -0.269 OA
BRANCH  26  29
ATOM     29  C   UNL A   1      37.177  29.959  28.356  1.00  0.00     0.039 A 
ATOM     30  C   UNL A   1      38.357  29.951  27.581  1.00  0.00     0.014 A 
ATOM     31  C   UNL A   1      37.131  29.140  29.487  1.00  0.00     0.014 A 
ATOM     32  C   UNL A   1      39.466  29.170  27.931  1.00  0.00     0.010 A 
ATOM     33  C   UNL A   1      38.246  28.345  29.839  1.00  0.00     0.010 A 
ATOM     34  C   UNL A   1      39.428  28.367  29.074  1.00  0.00    -0.014 A 
BRANCH  34  35
ATOM     35  C   UNL A   1      40.701  27.742  29.561  1.00  0.00     0.031 A 
ATOM     36  C   UNL A   1      41.054  26.439  28.807  1.00  0.00     0.074 A 
ATOM     37  C   UNL A   1      41.384  28.321  30.600  1.00  0.00     0.049 A 
ATOM     38  N   UNL A   1      41.886  25.489  29.118  1.00  0.00    -0.248 NA
ATOM     39  C   UNL A   1      40.336  26.122  27.541  1.00  0.00     0.031 C 
ATOM     40  C   UNL A   1      40.973  29.566  31.284  1.00  0.00     0.029 A 
ATOM     41  N   UNL A   1      42.544  28.000  31.293  1.00  0.00    -0.354 N 
ATOM     42  C   UNL A   1      41.920  24.577  28.037  1.00  0.00     0.074 A 
ATOM     43  C   UNL A   1      40.893  24.983  27.128  1.00  0.00     0.031 C 
ATOM     44  C   UNL A   1      41.814  29.860  32.303  1.00  0.00     0.029 A 
ATOM     45  C   UNL A   1      42.869  28.865  32.374  1.00  0.00     0.049 A 
ATOM     46  H   UNL A   1      43.103  27.227  31.052  1.00  0.00     0.167 HD
ATOM     47  C   UNL A   1      42.853  23.591  27.892  1.00  0.00     0.031 A 
ATOM     48  C   UNL A   1      43.896  28.792  33.279  1.00  0.00     0.031 A 
ATOM     49  C   UNL A   1      43.691  23.514  29.035  1.00  0.00     0.049 A 
ATOM     50  C   UNL A   1      44.778  27.702  32.835  1.00  0.00     0.074 A 
ATOM     51  C   UNL A   1      43.521  23.036  30.306  1.00  0.00     0.029 A 
ATOM     52  N   UNL A   1      44.867  24.219  28.977  1.00  0.00    -0.354 N 
ATOM     53  N   UNL A   1      45.598  27.774  31.834  1.00  0.00    -0.248 NA
ATOM     54  C   UNL A   1      44.784  26.439  33.585  1.00  0.00     0.031 C 
ATOM     55  C   UNL A   1      44.384  23.832  31.089  1.00  0.00     0.029 A 
ATOM     56  C   UNL A   1      45.102  24.685  30.245  1.00  0.00     0.049 A 
ATOM     57  H   UNL A   1      45.430  24.363  28.182  1.00  0.00     0.167 HD
ATOM     58  C   UNL A   1      45.912  26.458  31.614  1.00  0.00     0.074 A 
ATOM     59  C   UNL A   1      45.672  25.764  32.860  1.00  0.00     0.031 C 
ATOM     60  C   UNL A   1      45.782  25.953  30.364  1.00  0.00     0.031 A 
BRANCH  47  61
ATOM     61  C   UNL A   1      43.271  22.779  26.689  1.00  0.00    -0.014 A 
ATOM     62  C   UNL A   1      42.607  21.539  26.485  1.00  0.00     0.010 A 
ATOM     63  C   UNL A   1      44.475  22.985  26.002  1.00  0.00     0.010 A 
ATOM     64  C   UNL A   1      43.193  20.499  25.759  1.00  0.00     0.020 A 
ATOM     65  C   UNL A   1      45.050  21.956  25.234  1.00  0.00     0.020 A 
ATOM     66  C   UNL A   1      44.434  20.703  25.170  1.00  0.00     0.054 A 
BRANCH  66  67
ATOM     67  S   UNL A   1      45.267  19.285  24.402  1.00  0.00     0.124 S 
ATOM     68  O   UNL A   1      46.669  19.682  24.466  1.00  0.00    -0.237 OA
ATOM     69  O   UNL A   1      44.888  18.179  25.279  1.00  0.00    -0.237 OA
ATOM     70  O   UNL A   1      44.684  19.233  23.063  1.00  0.00    -0.744 OA
ENDBRANCH  66  67
ENDBRANCH  47  61
BRANCH  48  71
ATOM     71  C   UNL A   1      44.336  29.450  34.578  1.00  0.00    -0.014 A 
ATOM     72  C   UNL A   1      44.216  30.805  34.905  1.00  0.00     0.010 A 
ATOM     73  C   UNL A   1      44.780  28.603  35.641  1.00  0.00     0.010 A 
ATOM     74  C   UNL A   1      44.380  31.253  36.241  1.00  0.00     0.020 A 
ATOM     75  C   UNL A   1      44.890  29.019  36.970  1.00  0.00     0.020 A 
ATOM     76  C   UNL A   1      44.660  30.348  37.273  1.00  0.00     0.054 A 
BRANCH  76  77
ATOM     77  S   UNL A   1      44.575  30.847  39.018  1.00  0.00     0.124 S 
ATOM     78  O   UNL A   1      44.738  29.578  39.717  1.00  0.00    -0.237 OA
ATOM     79  O   UNL A   1      45.687  31.786  39.145  1.00  0.00    -0.237 OA
ATOM     80  O   UNL A   1      43.250  31.458  39.129  1.00  0.00    -0.744 OA
ENDBRANCH  76  77
ENDBRANCH  48  71
BRANCH  60  81
ATOM     81  C   UNL A   1      45.917  26.975  29.245  1.00  0.00    -0.014 A 
ATOM     82  C   UNL A   1      47.107  27.713  29.118  1.00  0.00     0.010 A 
ATOM     83  C   UNL A   1      44.858  27.289  28.369  1.00  0.00     0.010 A 
ATOM     84  C   UNL A   1      47.238  28.723  28.153  1.00  0.00     0.020 A 
ATOM     85  C   UNL A   1      44.981  28.294  27.394  1.00  0.00     0.020 A 
ATOM     86  C   UNL A   1      46.174  29.007  27.293  1.00  0.00     0.054 A 
BRANCH  86  87
ATOM     87  S   UNL A   1      46.375  30.327  26.061  1.00  0.00     0.124 S 
ATOM     88  O   UNL A   1      46.418  29.590  24.801  1.00  0.00    -0.237 OA
ATOM     89  O   UNL A   1      45.178  31.138  26.269  1.00  0.00    -0.237 OA
ATOM     90  O   UNL A   1      47.632  30.971  26.439  1.00  0.00    -0.744 OA
ENDBRANCH  86  87
ENDBRANCH  60  81
ENDBRANCH  34  35
ENDBRANCH  26  29
ENDBRANCH  24  25
ENDBRANCH   1  24
TORSDOF 16
ENDMDL
