MODEL 1
REMARK VINA RESULT:      -9.2      0.000      0.000
REMARK SMILES O=C(CCCN1C(=O)C(=O)/C(=C(/[O-])c2ccccc2)[C@@H]1/C=C/c1ccccc1)NCCCCNC(=O)c1ccc(-c2c3nc(c(-c4ccc(S(=O)(=O)[O-])cc4)c4ccc([nH]4)c(-c4ccc(S(=O)(=O)[O-])cc4)c4nc(c(-c5ccc(S(=O)(=O)[O-])cc5)c5ccc2[nH]5)C=C4)C=C3)cc1
REMARK SMILES IDX 30 1 29 2 1 3 2 4 3 6 4 7 5 8 6 9 7 10 20 11 8 12 9 13 11 14
REMARK SMILES IDX 10 15 12 16 13 17 21 18 22 19 23 20 24 21 28 22 25 23 27 24
REMARK SMILES IDX 26 25 14 26 15 27 19 28 16 29 18 30 17 31 31 32 32 33 33 34
REMARK SMILES IDX 34 35 35 36 36 38 37 39 38 40 96 41 39 42 95 43 40 44 41 45
REMARK SMILES IDX 42 46 89 47 43 48 94 49 88 50 90 51 44 52 93 53 87 54 86 55
REMARK SMILES IDX 45 57 75 58 56 59 74 60 57 61 60 62 73 63 91 64 58 65 59 66
REMARK SMILES IDX 72 68 92 69 61 70 46 71 47 72 55 73 48 74 54 75 49 76 50 77
REMARK SMILES IDX 51 78 52 79 53 80 76 81 77 82 85 83 78 84 84 85 79 86 80 87
REMARK SMILES IDX 81 88 82 89 83 90 62 91 63 92 71 93 64 94 70 95 65 96 66 97
REMARK SMILES IDX 67 98 68 99 69 100
REMARK H PARENT 29 5 34 37 90 56 60 67
REMARK Flexibility Score: inf
ROOT
ATOM      1  C   UNL A   1      52.661  20.813  33.555  1.00  0.00     0.116 C 
ENDROOT
BRANCH   1   2
ATOM      2  N   UNL A   1      51.306  20.306  33.543  1.00  0.00    -0.356 N 
ATOM      3  O   UNL A   1      50.786  21.056  35.652  1.00  0.00    -0.275 OA
ATOM      4  C   UNL A   1      50.456  20.503  34.606  1.00  0.00     0.220 C 
ATOM      5  H   UNL A   1      50.985  19.807  32.755  1.00  0.00     0.163 HD
BRANCH   4   6
ATOM      6  C   UNL A   1      49.032  20.035  34.377  1.00  0.00     0.102 C 
BRANCH   6   7
ATOM      7  C   UNL A   1      48.038  21.190  34.483  1.00  0.00     0.031 C 
BRANCH   7   8
ATOM      8  C   UNL A   1      46.629  20.770  34.897  1.00  0.00     0.121 C 
BRANCH   8   9
ATOM      9  N   UNL A   1      46.547  20.082  36.182  1.00  0.00    -0.325 N 
ATOM     10  C   UNL A   1      45.767  18.965  36.320  1.00  0.00     0.295 C 
ATOM     11  C   UNL A   1      47.300  20.395  37.395  1.00  0.00     0.143 C 
ATOM     12  O   UNL A   1      45.250  18.317  35.435  1.00  0.00    -0.265 OA
ATOM     13  C   UNL A   1      45.701  18.637  37.792  1.00  0.00     0.248 C 
ATOM     14  C   UNL A   1      46.772  19.430  38.455  1.00  0.00     0.024 C 
ATOM     15  O   UNL A   1      44.870  17.889  38.254  1.00  0.00    -0.283 OA
ATOM     16  C   UNL A   1      47.160  19.254  39.735  1.00  0.00    -0.092 C 
ATOM     17  O   UNL A   1      48.188  19.975  40.318  1.00  0.00    -0.872 OA
BRANCH  11  18
ATOM     18  C   UNL A   1      47.170  21.851  37.773  1.00  0.00     0.003 C 
ATOM     19  C   UNL A   1      45.988  22.472  37.928  1.00  0.00     0.006 C 
BRANCH  19  20
ATOM     20  C   UNL A   1      45.807  23.891  38.225  1.00  0.00    -0.026 A 
ATOM     21  C   UNL A   1      44.674  24.584  37.786  1.00  0.00     0.008 A 
ATOM     22  C   UNL A   1      46.846  24.586  38.852  1.00  0.00     0.008 A 
ATOM     23  C   UNL A   1      44.596  25.968  37.953  1.00  0.00     0.001 A 
ATOM     24  C   UNL A   1      46.765  25.968  39.016  1.00  0.00     0.001 A 
ATOM     25  C   UNL A   1      45.644  26.660  38.560  1.00  0.00     0.000 A 
ENDBRANCH  19  20
ENDBRANCH  11  18
BRANCH  16  26
ATOM     26  C   UNL A   1      46.521  18.324  40.697  1.00  0.00    -0.033 A 
ATOM     27  C   UNL A   1      47.058  17.039  40.865  1.00  0.00     0.007 A 
ATOM     28  C   UNL A   1      45.399  18.679  41.462  1.00  0.00     0.007 A 
ATOM     29  C   UNL A   1      46.523  16.152  41.807  1.00  0.00     0.001 A 
ATOM     30  C   UNL A   1      44.875  17.800  42.416  1.00  0.00     0.001 A 
ATOM     31  C   UNL A   1      45.440  16.539  42.591  1.00  0.00     0.000 A 
ENDBRANCH  16  26
ENDBRANCH   8   9
ENDBRANCH   7   8
ENDBRANCH   6   7
ENDBRANCH   4   6
ENDBRANCH   1   2
BRANCH   1  32
ATOM     32  C   UNL A   1      52.866  22.056  32.688  1.00  0.00     0.023 C 
BRANCH  32  33
ATOM     33  C   UNL A   1      52.921  23.408  33.408  1.00  0.00     0.023 C 
BRANCH  33  34
ATOM     34  C   UNL A   1      51.574  24.012  33.802  1.00  0.00     0.116 C 
BRANCH  34  35
ATOM     35  N   UNL A   1      51.464  24.152  35.246  1.00  0.00    -0.352 N 
ATOM     36  C   UNL A   1      50.580  24.905  35.982  1.00  0.00     0.251 C 
ATOM     37  H   UNL A   1      52.115  23.632  35.772  1.00  0.00     0.163 HD
ATOM     38  O   UNL A   1      50.818  25.128  37.168  1.00  0.00    -0.269 OA
BRANCH  36  39
ATOM     39  C   UNL A   1      49.347  25.450  35.365  1.00  0.00     0.039 A 
ATOM     40  C   UNL A   1      48.141  24.766  35.541  1.00  0.00     0.014 A 
ATOM     41  C   UNL A   1      49.384  26.595  34.563  1.00  0.00     0.014 A 
ATOM     42  C   UNL A   1      46.967  25.252  34.953  1.00  0.00     0.010 A 
ATOM     43  C   UNL A   1      48.204  27.109  34.022  1.00  0.00     0.010 A 
ATOM     44  C   UNL A   1      46.982  26.442  34.206  1.00  0.00    -0.014 A 
BRANCH  44  45
ATOM     45  C   UNL A   1      45.732  27.000  33.620  1.00  0.00     0.031 A 
ATOM     46  C   UNL A   1      45.173  26.446  32.336  1.00  0.00     0.074 A 
ATOM     47  C   UNL A   1      45.122  28.045  34.217  1.00  0.00     0.049 A 
ATOM     48  N   UNL A   1      44.128  26.840  31.651  1.00  0.00    -0.248 NA
ATOM     49  C   UNL A   1      45.891  25.313  31.732  1.00  0.00     0.031 C 
ATOM     50  C   UNL A   1      45.577  28.703  35.443  1.00  0.00     0.029 A 
ATOM     51  N   UNL A   1      43.994  28.744  33.865  1.00  0.00    -0.354 N 
ATOM     52  C   UNL A   1      44.073  26.017  30.532  1.00  0.00     0.074 A 
ATOM     53  C   UNL A   1      45.213  25.129  30.607  1.00  0.00     0.031 C 
ATOM     54  C   UNL A   1      44.727  29.695  35.752  1.00  0.00     0.029 A 
ATOM     55  C   UNL A   1      43.690  29.774  34.726  1.00  0.00     0.049 A 
ATOM     56  H   UNL A   1      43.452  28.529  33.071  1.00  0.00     0.167 HD
ATOM     57  C   UNL A   1      43.150  25.991  29.539  1.00  0.00     0.031 A 
ATOM     58  C   UNL A   1      42.700  30.687  34.693  1.00  0.00     0.031 A 
ATOM     59  C   UNL A   1      42.011  26.869  29.466  1.00  0.00     0.049 A 
ATOM     60  C   UNL A   1      41.695  30.645  33.575  1.00  0.00     0.074 A 
ATOM     61  C   UNL A   1      40.995  26.884  28.525  1.00  0.00     0.029 A 
ATOM     62  N   UNL A   1      41.734  27.888  30.366  1.00  0.00    -0.354 N 
ATOM     63  N   UNL A   1      41.626  29.820  32.557  1.00  0.00    -0.248 NA
ATOM     64  C   UNL A   1      40.624  31.652  33.606  1.00  0.00     0.031 C 
ATOM     65  C   UNL A   1      40.132  27.943  28.826  1.00  0.00     0.029 A 
ATOM     66  C   UNL A   1      40.577  28.550  29.990  1.00  0.00     0.049 A 
ATOM     67  H   UNL A   1      42.279  28.107  31.156  1.00  0.00     0.167 HD
ATOM     68  C   UNL A   1      40.492  30.192  31.843  1.00  0.00     0.074 A 
ATOM     69  C   UNL A   1      39.896  31.305  32.553  1.00  0.00     0.031 C 
ATOM     70  C   UNL A   1      39.990  29.657  30.702  1.00  0.00     0.031 A 
BRANCH  57  71
ATOM     71  C   UNL A   1      43.337  24.978  28.439  1.00  0.00    -0.014 A 
ATOM     72  C   UNL A   1      44.038  25.302  27.264  1.00  0.00     0.010 A 
ATOM     73  C   UNL A   1      42.847  23.669  28.603  1.00  0.00     0.010 A 
ATOM     74  C   UNL A   1      44.210  24.349  26.256  1.00  0.00     0.020 A 
ATOM     75  C   UNL A   1      43.041  22.705  27.609  1.00  0.00     0.020 A 
ATOM     76  C   UNL A   1      43.706  23.057  26.433  1.00  0.00     0.054 A 
BRANCH  76  77
ATOM     77  S   UNL A   1      43.961  21.836  25.117  1.00  0.00     0.124 S 
ATOM     78  O   UNL A   1      42.887  20.881  25.381  1.00  0.00    -0.237 OA
ATOM     79  O   UNL A   1      43.808  22.633  23.902  1.00  0.00    -0.237 OA
ATOM     80  O   UNL A   1      45.311  21.336  25.363  1.00  0.00    -0.744 OA
ENDBRANCH  76  77
ENDBRANCH  57  71
BRANCH  58  81
ATOM     81  C   UNL A   1      42.607  31.719  35.762  1.00  0.00    -0.014 A 
ATOM     82  C   UNL A   1      41.720  31.552  36.841  1.00  0.00     0.010 A 
ATOM     83  C   UNL A   1      43.410  32.873  35.710  1.00  0.00     0.010 A 
ATOM     84  C   UNL A   1      41.623  32.529  37.836  1.00  0.00     0.020 A 
ATOM     85  C   UNL A   1      43.337  33.838  36.718  1.00  0.00     0.020 A 
ATOM     86  C   UNL A   1      42.433  33.666  37.768  1.00  0.00     0.054 A 
BRANCH  86  87
ATOM     87  S   UNL A   1      42.323  34.901  39.093  1.00  0.00     0.124 S 
ATOM     88  O   UNL A   1      40.887  35.158  39.149  1.00  0.00    -0.237 OA
ATOM     89  O   UNL A   1      42.884  34.189  40.239  1.00  0.00    -0.237 OA
ATOM     90  O   UNL A   1      43.138  36.008  38.596  1.00  0.00    -0.744 OA
ENDBRANCH  86  87
ENDBRANCH  58  81
BRANCH  70  91
ATOM     91  C   UNL A   1      38.712  30.243  30.163  1.00  0.00    -0.014 A 
ATOM     92  C   UNL A   1      37.470  29.628  30.399  1.00  0.00     0.010 A 
ATOM     93  C   UNL A   1      38.750  31.459  29.456  1.00  0.00     0.010 A 
ATOM     94  C   UNL A   1      36.292  30.203  29.911  1.00  0.00     0.020 A 
ATOM     95  C   UNL A   1      37.573  32.050  28.990  1.00  0.00     0.020 A 
ATOM     96  C   UNL A   1      36.352  31.411  29.208  1.00  0.00     0.054 A 
BRANCH  96  97
ATOM     97  S   UNL A   1      34.806  32.159  28.625  1.00  0.00     0.124 S 
ATOM     98  O   UNL A   1      35.289  33.138  27.654  1.00  0.00    -0.237 OA
ATOM     99  O   UNL A   1      34.089  31.018  28.063  1.00  0.00    -0.237 OA
ATOM    100  O   UNL A   1      34.215  32.723  29.837  1.00  0.00    -0.744 OA
ENDBRANCH  96  97
ENDBRANCH  70  91
ENDBRANCH  44  45
ENDBRANCH  36  39
ENDBRANCH  34  35
ENDBRANCH  33  34
ENDBRANCH  32  33
ENDBRANCH   1  32
TORSDOF 20
ENDMDL
MODEL 2
REMARK VINA RESULT:      -9.2      7.604     14.907
REMARK SMILES O=C(CCCN1C(=O)C(=O)/C(=C(/[O-])c2ccccc2)[C@@H]1/C=C/c1ccccc1)NCCCCNC(=O)c1ccc(-c2c3nc(c(-c4ccc(S(=O)(=O)[O-])cc4)c4ccc([nH]4)c(-c4ccc(S(=O)(=O)[O-])cc4)c4nc(c(-c5ccc(S(=O)(=O)[O-])cc5)c5ccc2[nH]5)C=C4)C=C3)cc1
REMARK SMILES IDX 30 1 29 2 1 3 2 4 3 6 4 7 5 8 6 9 7 10 20 11 8 12 9 13 11 14
REMARK SMILES IDX 10 15 12 16 13 17 21 18 22 19 23 20 24 21 28 22 25 23 27 24
REMARK SMILES IDX 26 25 14 26 15 27 19 28 16 29 18 30 17 31 31 32 32 33 33 34
REMARK SMILES IDX 34 35 35 36 36 38 37 39 38 40 96 41 39 42 95 43 40 44 41 45
REMARK SMILES IDX 42 46 89 47 43 48 94 49 88 50 90 51 44 52 93 53 87 54 86 55
REMARK SMILES IDX 45 57 75 58 56 59 74 60 57 61 60 62 73 63 91 64 58 65 59 66
REMARK SMILES IDX 72 68 92 69 61 70 46 71 47 72 55 73 48 74 54 75 49 76 50 77
REMARK SMILES IDX 51 78 52 79 53 80 76 81 77 82 85 83 78 84 84 85 79 86 80 87
REMARK SMILES IDX 81 88 82 89 83 90 62 91 63 92 71 93 64 94 70 95 65 96 66 97
REMARK SMILES IDX 67 98 68 99 69 100
REMARK H PARENT 29 5 34 37 90 56 60 67
REMARK Flexibility Score: inf
ROOT
ATOM      1  C   UNL A   1      38.483  28.040  30.681  1.00  0.00     0.116 C 
ENDROOT
BRANCH   1   2
ATOM      2  N   UNL A   1      37.664  29.016  29.994  1.00  0.00    -0.356 N 
ATOM      3  O   UNL A   1      38.710  28.772  27.963  1.00  0.00    -0.275 OA
ATOM      4  C   UNL A   1      37.833  29.281  28.655  1.00  0.00     0.220 C 
ATOM      5  H   UNL A   1      36.970  29.502  30.498  1.00  0.00     0.163 HD
BRANCH   4   6
ATOM      6  C   UNL A   1      36.805  30.222  28.058  1.00  0.00     0.102 C 
BRANCH   6   7
ATOM      7  C   UNL A   1      36.060  29.573  26.893  1.00  0.00     0.031 C 
BRANCH   7   8
ATOM      8  C   UNL A   1      34.707  28.974  27.269  1.00  0.00     0.121 C 
BRANCH   8   9
ATOM      9  N   UNL A   1      33.670  29.113  26.253  1.00  0.00    -0.325 N 
ATOM     10  C   UNL A   1      32.797  30.167  26.294  1.00  0.00     0.295 C 
ATOM     11  C   UNL A   1      33.479  28.272  25.071  1.00  0.00     0.143 C 
ATOM     12  O   UNL A   1      32.879  31.161  26.984  1.00  0.00    -0.265 OA
ATOM     13  C   UNL A   1      31.718  29.903  25.272  1.00  0.00     0.248 C 
ATOM     14  C   UNL A   1      32.213  28.801  24.402  1.00  0.00     0.024 C 
ATOM     15  O   UNL A   1      30.665  30.500  25.270  1.00  0.00    -0.283 OA
ATOM     16  C   UNL A   1      31.619  28.422  23.252  1.00  0.00    -0.092 C 
ATOM     17  O   UNL A   1      32.122  27.423  22.437  1.00  0.00    -0.872 OA
BRANCH  11  18
ATOM     18  C   UNL A   1      33.415  26.807  25.434  1.00  0.00     0.003 C 
ATOM     19  C   UNL A   1      34.075  25.850  24.759  1.00  0.00     0.006 C 
BRANCH  19  20
ATOM     20  C   UNL A   1      33.994  24.416  25.025  1.00  0.00    -0.026 A 
ATOM     21  C   UNL A   1      34.003  23.484  23.982  1.00  0.00     0.008 A 
ATOM     22  C   UNL A   1      33.782  23.985  26.338  1.00  0.00     0.008 A 
ATOM     23  C   UNL A   1      33.775  22.133  24.252  1.00  0.00     0.001 A 
ATOM     24  C   UNL A   1      33.552  22.635  26.604  1.00  0.00     0.001 A 
ATOM     25  C   UNL A   1      33.541  21.711  25.561  1.00  0.00     0.000 A 
ENDBRANCH  19  20
ENDBRANCH  11  18
BRANCH  16  26
ATOM     26  C   UNL A   1      30.343  28.970  22.733  1.00  0.00    -0.033 A 
ATOM     27  C   UNL A   1      29.133  28.383  23.134  1.00  0.00     0.007 A 
ATOM     28  C   UNL A   1      30.290  30.067  21.858  1.00  0.00     0.007 A 
ATOM     29  C   UNL A   1      27.904  28.908  22.716  1.00  0.00     0.001 A 
ATOM     30  C   UNL A   1      29.062  30.603  21.455  1.00  0.00     0.001 A 
ATOM     31  C   UNL A   1      27.870  30.025  21.887  1.00  0.00     0.000 A 
ENDBRANCH  16  26
ENDBRANCH   8   9
ENDBRANCH   7   8
ENDBRANCH   6   7
ENDBRANCH   4   6
ENDBRANCH   1   2
BRANCH   1  32
ATOM     32  C   UNL A   1      38.365  28.094  32.204  1.00  0.00     0.023 C 
BRANCH  32  33
ATOM     33  C   UNL A   1      37.266  28.988  32.788  1.00  0.00     0.023 C 
BRANCH  33  34
ATOM     34  C   UNL A   1      37.743  30.176  33.623  1.00  0.00     0.116 C 
BRANCH  34  35
ATOM     35  N   UNL A   1      37.436  31.437  32.962  1.00  0.00    -0.352 N 
ATOM     36  C   UNL A   1      38.238  32.217  32.163  1.00  0.00     0.251 C 
ATOM     37  H   UNL A   1      36.525  31.779  33.108  1.00  0.00     0.163 HD
ATOM     38  O   UNL A   1      37.912  33.380  31.932  1.00  0.00    -0.269 OA
BRANCH  36  39
ATOM     39  C   UNL A   1      39.487  31.674  31.576  1.00  0.00     0.039 A 
ATOM     40  C   UNL A   1      40.420  31.060  32.417  1.00  0.00     0.014 A 
ATOM     41  C   UNL A   1      39.773  31.823  30.216  1.00  0.00     0.014 A 
ATOM     42  C   UNL A   1      41.614  30.555  31.889  1.00  0.00     0.010 A 
ATOM     43  C   UNL A   1      40.939  31.271  29.681  1.00  0.00     0.010 A 
ATOM     44  C   UNL A   1      41.876  30.635  30.512  1.00  0.00    -0.014 A 
BRANCH  44  45
ATOM     45  C   UNL A   1      43.117  30.056  29.927  1.00  0.00     0.031 A 
ATOM     46  C   UNL A   1      43.114  28.668  29.341  1.00  0.00     0.074 A 
ATOM     47  C   UNL A   1      44.267  30.759  29.968  1.00  0.00     0.049 A 
ATOM     48  N   UNL A   1      44.108  27.981  28.838  1.00  0.00    -0.248 NA
ATOM     49  C   UNL A   1      41.829  27.951  29.336  1.00  0.00     0.031 C 
ATOM     50  C   UNL A   1      44.420  32.098  30.540  1.00  0.00     0.029 A 
ATOM     51  N   UNL A   1      45.529  30.441  29.529  1.00  0.00    -0.354 N 
ATOM     52  C   UNL A   1      43.576  26.750  28.473  1.00  0.00     0.074 A 
ATOM     53  C   UNL A   1      42.179  26.768  28.850  1.00  0.00     0.031 C 
ATOM     54  C   UNL A   1      45.695  32.494  30.399  1.00  0.00     0.029 A 
ATOM     55  C   UNL A   1      46.462  31.424  29.767  1.00  0.00     0.049 A 
ATOM     56  H   UNL A   1      45.746  29.589  29.085  1.00  0.00     0.167 HD
ATOM     57  C   UNL A   1      44.188  25.704  27.865  1.00  0.00     0.031 A 
ATOM     58  C   UNL A   1      47.785  31.460  29.518  1.00  0.00     0.031 A 
ATOM     59  C   UNL A   1      45.576  25.686  27.482  1.00  0.00     0.049 A 
ATOM     60  C   UNL A   1      48.444  30.283  28.852  1.00  0.00     0.074 A 
ATOM     61  C   UNL A   1      46.272  24.691  26.816  1.00  0.00     0.029 A 
ATOM     62  N   UNL A   1      46.482  26.708  27.729  1.00  0.00    -0.354 N 
ATOM     63  N   UNL A   1      47.910  29.151  28.461  1.00  0.00    -0.248 NA
ATOM     64  C   UNL A   1      49.886  30.392  28.584  1.00  0.00     0.031 C 
ATOM     65  C   UNL A   1      47.609  25.089  26.705  1.00  0.00     0.029 A 
ATOM     66  C   UNL A   1      47.733  26.357  27.249  1.00  0.00     0.049 A 
ATOM     67  H   UNL A   1      46.266  27.556  28.178  1.00  0.00     0.167 HD
ATOM     68  C   UNL A   1      48.943  28.426  27.877  1.00  0.00     0.074 A 
ATOM     69  C   UNL A   1      50.130  29.252  27.952  1.00  0.00     0.031 C 
ATOM     70  C   UNL A   1      48.909  27.186  27.328  1.00  0.00     0.031 A 
BRANCH  57  71
ATOM     71  C   UNL A   1      43.357  24.480  27.578  1.00  0.00    -0.014 A 
ATOM     72  C   UNL A   1      42.684  24.330  26.352  1.00  0.00     0.010 A 
ATOM     73  C   UNL A   1      43.285  23.444  28.527  1.00  0.00     0.010 A 
ATOM     74  C   UNL A   1      41.923  23.185  26.096  1.00  0.00     0.020 A 
ATOM     75  C   UNL A   1      42.548  22.285  28.264  1.00  0.00     0.020 A 
ATOM     76  C   UNL A   1      41.856  22.172  27.057  1.00  0.00     0.054 A 
BRANCH  76  77
ATOM     77  S   UNL A   1      40.877  20.689  26.690  1.00  0.00     0.124 S 
ATOM     78  O   UNL A   1      40.742  20.084  28.013  1.00  0.00    -0.237 OA
ATOM     79  O   UNL A   1      39.649  21.245  26.126  1.00  0.00    -0.237 OA
ATOM     80  O   UNL A   1      41.711  19.946  25.749  1.00  0.00    -0.744 OA
ENDBRANCH  76  77
ENDBRANCH  57  71
BRANCH  58  81
ATOM     81  C   UNL A   1      48.578  32.664  29.895  1.00  0.00    -0.014 A 
ATOM     82  C   UNL A   1      48.673  33.760  29.019  1.00  0.00     0.010 A 
ATOM     83  C   UNL A   1      49.237  32.722  31.136  1.00  0.00     0.010 A 
ATOM     84  C   UNL A   1      49.430  34.883  29.368  1.00  0.00     0.020 A 
ATOM     85  C   UNL A   1      49.970  33.854  31.501  1.00  0.00     0.020 A 
ATOM     86  C   UNL A   1      50.073  34.922  30.608  1.00  0.00     0.054 A 
BRANCH  86  87
ATOM     87  S   UNL A   1      51.014  36.406  31.060  1.00  0.00     0.124 S 
ATOM     88  O   UNL A   1      50.595  37.355  30.033  1.00  0.00    -0.237 OA
ATOM     89  O   UNL A   1      50.537  36.685  32.412  1.00  0.00    -0.237 OA
ATOM     90  O   UNL A   1      52.406  35.968  30.975  1.00  0.00    -0.744 OA
ENDBRANCH  86  87
ENDBRANCH  58  81
BRANCH  70  91
ATOM     91  C   UNL A   1      50.185  26.656  26.730  1.00  0.00    -0.014 A 
ATOM     92  C   UNL A   1      50.496  26.857  25.373  1.00  0.00     0.010 A 
ATOM     93  C   UNL A   1      51.115  25.993  27.554  1.00  0.00     0.010 A 
ATOM     94  C   UNL A   1      51.698  26.378  24.845  1.00  0.00     0.020 A 
ATOM     95  C   UNL A   1      52.329  25.536  27.035  1.00  0.00     0.020 A 
ATOM     96  C   UNL A   1      52.607  25.720  25.680  1.00  0.00     0.054 A 
BRANCH  96  97
ATOM     97  S   UNL A   1      54.180  25.148  24.980  1.00  0.00     0.124 S 
ATOM     98  O   UNL A   1      54.269  25.930  23.750  1.00  0.00    -0.237 OA
ATOM     99  O   UNL A   1      55.142  25.501  26.020  1.00  0.00    -0.237 OA
ATOM    100  O   UNL A   1      53.974  23.713  24.792  1.00  0.00    -0.744 OA
ENDBRANCH  96  97
ENDBRANCH  70  91
ENDBRANCH  44  45
ENDBRANCH  36  39
ENDBRANCH  34  35
ENDBRANCH  33  34
ENDBRANCH  32  33
ENDBRANCH   1  32
TORSDOF 20
ENDMDL
MODEL 3
REMARK VINA RESULT:      -9.0      0.523      7.766
REMARK SMILES O=C(CCCN1C(=O)C(=O)/C(=C(/[O-])c2ccccc2)[C@@H]1/C=C/c1ccccc1)NCCCCNC(=O)c1ccc(-c2c3nc(c(-c4ccc(S(=O)(=O)[O-])cc4)c4ccc([nH]4)c(-c4ccc(S(=O)(=O)[O-])cc4)c4nc(c(-c5ccc(S(=O)(=O)[O-])cc5)c5ccc2[nH]5)C=C4)C=C3)cc1
REMARK SMILES IDX 30 1 29 2 1 3 2 4 3 6 4 7 5 8 6 9 7 10 20 11 8 12 9 13 11 14
REMARK SMILES IDX 10 15 12 16 13 17 21 18 22 19 23 20 24 21 28 22 25 23 27 24
REMARK SMILES IDX 26 25 14 26 15 27 19 28 16 29 18 30 17 31 31 32 32 33 33 34
REMARK SMILES IDX 34 35 35 36 36 38 37 39 38 40 96 41 39 42 95 43 40 44 41 45
REMARK SMILES IDX 42 46 89 47 43 48 94 49 88 50 90 51 44 52 93 53 87 54 86 55
REMARK SMILES IDX 45 57 75 58 56 59 74 60 57 61 60 62 73 63 91 64 58 65 59 66
REMARK SMILES IDX 72 68 92 69 61 70 46 71 47 72 55 73 48 74 54 75 49 76 50 77
REMARK SMILES IDX 51 78 52 79 53 80 76 81 77 82 85 83 78 84 84 85 79 86 80 87
REMARK SMILES IDX 81 88 82 89 83 90 62 91 63 92 71 93 64 94 70 95 65 96 66 97
REMARK SMILES IDX 67 98 68 99 69 100
REMARK H PARENT 29 5 34 37 90 56 60 67
REMARK Flexibility Score: inf
ROOT
ATOM      1  C   UNL A   1      52.414  20.573  33.775  1.00  0.00     0.116 C 
ENDROOT
BRANCH   1   2
ATOM      2  N   UNL A   1      51.025  20.191  33.642  1.00  0.00    -0.356 N 
ATOM      3  O   UNL A   1      50.344  21.206  35.588  1.00  0.00    -0.275 OA
ATOM      4  C   UNL A   1      50.082  20.577  34.567  1.00  0.00     0.220 C 
ATOM      5  H   UNL A   1      50.748  19.642  32.872  1.00  0.00     0.163 HD
BRANCH   4   6
ATOM      6  C   UNL A   1      48.654  20.217  34.207  1.00  0.00     0.102 C 
BRANCH   6   7
ATOM      7  C   UNL A   1      47.708  21.398  34.417  1.00  0.00     0.031 C 
BRANCH   7   8
ATOM      8  C   UNL A   1      46.338  21.012  34.971  1.00  0.00     0.121 C 
BRANCH   8   9
ATOM      9  N   UNL A   1      46.368  20.301  36.244  1.00  0.00    -0.325 N 
ATOM     10  C   UNL A   1      45.721  19.103  36.384  1.00  0.00     0.295 C 
ATOM     11  C   UNL A   1      47.117  20.677  37.443  1.00  0.00     0.143 C 
ATOM     12  O   UNL A   1      45.253  18.414  35.502  1.00  0.00    -0.265 OA
ATOM     13  C   UNL A   1      45.733  18.748  37.851  1.00  0.00     0.248 C 
ATOM     14  C   UNL A   1      46.729  19.645  38.499  1.00  0.00     0.024 C 
ATOM     15  O   UNL A   1      45.003  17.906  38.322  1.00  0.00    -0.283 OA
ATOM     16  C   UNL A   1      47.170  19.494  39.765  1.00  0.00    -0.092 C 
ATOM     17  O   UNL A   1      48.128  20.316  40.333  1.00  0.00    -0.872 OA
BRANCH  11  18
ATOM     18  C   UNL A   1      46.838  22.105  37.850  1.00  0.00     0.003 C 
ATOM     19  C   UNL A   1      45.665  22.722  37.625  1.00  0.00     0.006 C 
BRANCH  19  20
ATOM     20  C   UNL A   1      45.366  24.117  37.937  1.00  0.00    -0.026 A 
ATOM     21  C   UNL A   1      44.260  24.763  37.376  1.00  0.00     0.008 A 
ATOM     22  C   UNL A   1      46.276  24.845  38.710  1.00  0.00     0.008 A 
ATOM     23  C   UNL A   1      44.081  26.135  37.571  1.00  0.00     0.001 A 
ATOM     24  C   UNL A   1      46.096  26.214  38.900  1.00  0.00     0.001 A 
ATOM     25  C   UNL A   1      45.003  26.861  38.325  1.00  0.00     0.000 A 
ENDBRANCH  19  20
ENDBRANCH  11  18
BRANCH  16  26
ATOM     26  C   UNL A   1      46.665  18.485  40.727  1.00  0.00    -0.033 A 
ATOM     27  C   UNL A   1      47.232  17.201  40.731  1.00  0.00     0.007 A 
ATOM     28  C   UNL A   1      45.644  18.762  41.649  1.00  0.00     0.007 A 
ATOM     29  C   UNL A   1      46.828  16.239  41.664  1.00  0.00     0.001 A 
ATOM     30  C   UNL A   1      45.252  17.806  42.593  1.00  0.00     0.001 A 
ATOM     31  C   UNL A   1      45.846  16.547  42.602  1.00  0.00     0.000 A 
ENDBRANCH  16  26
ENDBRANCH   8   9
ENDBRANCH   7   8
ENDBRANCH   6   7
ENDBRANCH   4   6
ENDBRANCH   1   2
BRANCH   1  32
ATOM     32  C   UNL A   1      52.863  21.638  32.773  1.00  0.00     0.023 C 
BRANCH  32  33
ATOM     33  C   UNL A   1      53.009  23.071  33.297  1.00  0.00     0.023 C 
BRANCH  33  34
ATOM     34  C   UNL A   1      51.719  23.752  33.751  1.00  0.00     0.116 C 
BRANCH  34  35
ATOM     35  N   UNL A   1      51.764  24.064  35.172  1.00  0.00    -0.352 N 
ATOM     36  C   UNL A   1      51.008  24.960  35.890  1.00  0.00     0.251 C 
ATOM     37  H   UNL A   1      52.431  23.561  35.694  1.00  0.00     0.163 HD
ATOM     38  O   UNL A   1      51.377  25.300  37.013  1.00  0.00    -0.269 OA
BRANCH  36  39
ATOM     39  C   UNL A   1      49.755  25.520  35.328  1.00  0.00     0.039 A 
ATOM     40  C   UNL A   1      49.824  26.659  34.520  1.00  0.00     0.014 A 
ATOM     41  C   UNL A   1      48.509  24.969  35.644  1.00  0.00     0.014 A 
ATOM     42  C   UNL A   1      48.653  27.216  33.992  1.00  0.00     0.010 A 
ATOM     43  C   UNL A   1      47.347  25.493  35.074  1.00  0.00     0.010 A 
ATOM     44  C   UNL A   1      47.404  26.625  34.245  1.00  0.00    -0.014 A 
BRANCH  44  45
ATOM     45  C   UNL A   1      46.156  27.174  33.647  1.00  0.00     0.031 A 
ATOM     46  C   UNL A   1      45.423  28.312  34.310  1.00  0.00     0.074 A 
ATOM     47  C   UNL A   1      45.647  26.616  32.529  1.00  0.00     0.049 A 
ATOM     48  N   UNL A   1      44.297  28.882  33.965  1.00  0.00    -0.248 NA
ATOM     49  C   UNL A   1      46.026  28.869  35.531  1.00  0.00     0.031 C 
ATOM     50  C   UNL A   1      46.234  25.486  31.806  1.00  0.00     0.029 A 
ATOM     51  N   UNL A   1      44.516  26.917  31.812  1.00  0.00    -0.354 N 
ATOM     52  C   UNL A   1      44.047  29.851  34.930  1.00  0.00     0.074 A 
ATOM     53  C   UNL A   1      45.119  29.763  35.899  1.00  0.00     0.031 C 
ATOM     54  C   UNL A   1      45.470  25.202  30.739  1.00  0.00     0.029 A 
ATOM     55  C   UNL A   1      44.318  26.100  30.723  1.00  0.00     0.049 A 
ATOM     56  H   UNL A   1      43.903  27.649  32.054  1.00  0.00     0.167 HD
ATOM     57  C   UNL A   1      43.029  30.743  34.999  1.00  0.00     0.031 A 
ATOM     58  C   UNL A   1      43.319  26.063  29.819  1.00  0.00     0.031 A 
ATOM     59  C   UNL A   1      41.966  30.837  34.032  1.00  0.00     0.049 A 
ATOM     60  C   UNL A   1      42.194  27.056  29.921  1.00  0.00     0.074 A 
ATOM     61  C   UNL A   1      40.918  31.742  33.990  1.00  0.00     0.029 A 
ATOM     62  N   UNL A   1      41.811  29.999  32.937  1.00  0.00    -0.354 N 
ATOM     63  N   UNL A   1      42.008  28.004  30.810  1.00  0.00    -0.248 NA
ATOM     64  C   UNL A   1      41.147  26.983  28.892  1.00  0.00     0.031 C 
ATOM     65  C   UNL A   1      40.102  31.420  32.900  1.00  0.00     0.029 A 
ATOM     66  C   UNL A   1      40.674  30.352  32.228  1.00  0.00     0.049 A 
ATOM     67  H   UNL A   1      42.420  29.263  32.699  1.00  0.00     0.167 HD
ATOM     68  C   UNL A   1      40.840  28.655  30.430  1.00  0.00     0.074 A 
ATOM     69  C   UNL A   1      40.369  28.005  29.225  1.00  0.00     0.031 C 
ATOM     70  C   UNL A   1      40.214  29.700  31.028  1.00  0.00     0.031 A 
BRANCH  57  71
ATOM     71  C   UNL A   1      43.011  31.694  36.168  1.00  0.00    -0.014 A 
ATOM     72  C   UNL A   1      42.305  31.385  37.344  1.00  0.00     0.010 A 
ATOM     73  C   UNL A   1      43.750  32.890  36.109  1.00  0.00     0.010 A 
ATOM     74  C   UNL A   1      42.304  32.274  38.424  1.00  0.00     0.020 A 
ATOM     75  C   UNL A   1      43.775  33.768  37.197  1.00  0.00     0.020 A 
ATOM     76  C   UNL A   1      43.035  33.462  38.341  1.00  0.00     0.054 A 
BRANCH  76  77
ATOM     77  S   UNL A   1      43.032  34.586  39.765  1.00  0.00     0.124 S 
ATOM     78  O   UNL A   1      44.371  34.380  40.312  1.00  0.00    -0.237 OA
ATOM     79  O   UNL A   1      42.801  35.889  39.146  1.00  0.00    -0.237 OA
ATOM     80  O   UNL A   1      41.938  34.092  40.596  1.00  0.00    -0.744 OA
ENDBRANCH  76  77
ENDBRANCH  57  71
BRANCH  58  81
ATOM     81  C   UNL A   1      43.343  25.050  28.727  1.00  0.00    -0.014 A 
ATOM     82  C   UNL A   1      42.708  23.807  28.894  1.00  0.00     0.010 A 
ATOM     83  C   UNL A   1      43.996  25.328  27.512  1.00  0.00     0.010 A 
ATOM     84  C   UNL A   1      42.744  22.851  27.873  1.00  0.00     0.020 A 
ATOM     85  C   UNL A   1      44.009  24.387  26.480  1.00  0.00     0.020 A 
ATOM     86  C   UNL A   1      43.395  23.148  26.673  1.00  0.00     0.054 A 
BRANCH  86  87
ATOM     87  S   UNL A   1      43.391  21.910  25.345  1.00  0.00     0.124 S 
ATOM     88  O   UNL A   1      44.658  21.221  25.570  1.00  0.00    -0.237 OA
ATOM     89  O   UNL A   1      42.188  21.135  25.637  1.00  0.00    -0.237 OA
ATOM     90  O   UNL A   1      43.325  22.716  24.128  1.00  0.00    -0.744 OA
ENDBRANCH  86  87
ENDBRANCH  58  81
BRANCH  70  91
ATOM     91  C   UNL A   1      38.968  30.232  30.371  1.00  0.00    -0.014 A 
ATOM     92  C   UNL A   1      37.734  29.571  30.501  1.00  0.00     0.010 A 
ATOM     93  C   UNL A   1      39.024  31.445  29.658  1.00  0.00     0.010 A 
ATOM     94  C   UNL A   1      36.584  30.096  29.903  1.00  0.00     0.020 A 
ATOM     95  C   UNL A   1      37.871  31.986  29.083  1.00  0.00     0.020 A 
ATOM     96  C   UNL A   1      36.661  31.301  29.197  1.00  0.00     0.054 A 
BRANCH  96  97
ATOM     97  S   UNL A   1      35.146  31.985  28.470  1.00  0.00     0.124 S 
ATOM     98  O   UNL A   1      34.421  32.443  29.651  1.00  0.00    -0.237 OA
ATOM     99  O   UNL A   1      35.656  33.040  27.597  1.00  0.00    -0.237 OA
ATOM    100  O   UNL A   1      34.550  30.846  27.775  1.00  0.00    -0.744 OA
ENDBRANCH  96  97
ENDBRANCH  70  91
ENDBRANCH  44  45
ENDBRANCH  36  39
ENDBRANCH  34  35
ENDBRANCH  33  34
ENDBRANCH  32  33
ENDBRANCH   1  32
TORSDOF 20
ENDMDL
