MODEL 1
REMARK VINA RESULT:     -12.4      0.000      0.000
REMARK SMILES C[NH+]1CCN(C(=O)c2ccc3c(c2)N(CC(=O)NCCCCNC(=O)c2ccc(-c4c5nc(c(-c6ccc(S(=O)(=O)[O-])cc6)c6ccc([nH]6)c(-c6ccc(S(=O)(=O)[O-])cc6)c6nc(c(-c7ccc(S(=O)(=O)[O-])cc7)c7ccc4[nH]7)C=C6)C=C5)cc2)C(=O)CO3)CC1
REMARK SMILES IDX 21 1 20 2 19 3 18 4 16 5 17 6 15 8 14 9 8 10 9 11 13 12
REMARK SMILES IDX 10 13 12 14 11 15 89 16 86 17 88 18 87 19 6 20 1 21 2 22
REMARK SMILES IDX 3 23 91 24 4 26 90 27 5 28 7 29 22 30 23 31 24 32 25 34
REMARK SMILES IDX 26 35 27 36 85 37 28 38 84 39 29 40 30 41 31 42 78 43 32 44
REMARK SMILES IDX 83 45 77 46 79 47 33 48 82 49 76 50 75 51 34 53 64 54 45 55
REMARK SMILES IDX 63 56 46 57 49 58 62 59 80 60 47 61 48 62 61 64 81 65 50 66
REMARK SMILES IDX 35 67 36 68 44 69 37 70 43 71 38 72 39 73 40 74 41 75 42 76
REMARK SMILES IDX 65 77 66 78 74 79 67 80 73 81 68 82 69 83 70 84 71 85 72 86
REMARK SMILES IDX 51 87 52 88 60 89 53 90 59 91 54 92 55 93 56 94 57 95 58 96
REMARK H PARENT 18 7 2 25 23 33 79 52 49 63
REMARK Flexibility Score: inf
ROOT
ATOM      1  C   UNL A   1      33.574  28.354  25.430  1.00  0.00     0.023 C 
ENDROOT
BRANCH   1   2
ATOM      2  C   UNL A   1      33.586  26.911  24.918  1.00  0.00     0.023 C 
BRANCH   2   3
ATOM      3  C   UNL A   1      33.184  26.745  23.454  1.00  0.00     0.116 C 
BRANCH   3   4
ATOM      4  N   UNL A   1      33.811  25.594  22.840  1.00  0.00    -0.355 N 
ATOM      5  C   UNL A   1      33.274  24.376  22.545  1.00  0.00     0.240 C 
ATOM      6  O   UNL A   1      33.968  23.582  21.903  1.00  0.00    -0.273 OA
ATOM      7  H   UNL A   1      34.760  25.705  22.602  1.00  0.00     0.163 HD
BRANCH   5   8
ATOM      8  C   UNL A   1      31.828  24.021  22.920  1.00  0.00     0.225 C 
BRANCH   8   9
ATOM      9  N   UNL A   1      31.559  23.966  24.357  1.00  0.00    -0.296 N 
ATOM     10  C   UNL A   1      33.797  21.215  25.578  1.00  0.00     0.042 A 
ATOM     11  C   UNL A   1      33.709  21.393  26.959  1.00  0.00     0.018 A 
ATOM     12  C   UNL A   1      33.056  22.022  24.704  1.00  0.00     0.044 A 
ATOM     13  C   UNL A   1      32.901  22.405  27.468  1.00  0.00     0.049 A 
ATOM     14  C   UNL A   1      32.255  23.057  25.207  1.00  0.00     0.087 A 
ATOM     15  C   UNL A   1      32.172  23.221  26.599  1.00  0.00     0.143 A 
ATOM     16  O   UNL A   1      31.450  24.214  27.202  1.00  0.00    -0.482 OA
ATOM     17  C   UNL A   1      30.621  24.834  24.898  1.00  0.00     0.265 C 
ATOM     18  C   UNL A   1      30.396  24.702  26.398  1.00  0.00     0.330 C 
ATOM     19  O   UNL A   1      29.956  25.625  24.228  1.00  0.00    -0.270 OA
BRANCH  10  20
ATOM     20  C   UNL A   1      34.634  20.111  25.063  1.00  0.00     0.254 C 
ATOM     21  C   UNL A   1      32.830  14.834  25.448  1.00  0.00     0.332 C 
ATOM     22  N   UNL A   1      33.111  16.117  24.809  1.00  0.00    -0.334 N 
ATOM     23  C   UNL A   1      34.553  16.431  24.874  1.00  0.00     0.283 C 
ATOM     24  C   UNL A   1      32.342  17.196  25.463  1.00  0.00     0.283 C 
ATOM     25  H   UNL A   1      32.831  16.049  23.830  1.00  0.00     0.347 HD
ATOM     26  C   UNL A   1      34.887  17.804  24.257  1.00  0.00     0.181 C 
ATOM     27  C   UNL A   1      32.617  18.568  24.816  1.00  0.00     0.181 C 
ATOM     28  N   UNL A   1      34.054  18.875  24.810  1.00  0.00    -0.327 N 
ATOM     29  O   UNL A   1      35.823  20.360  24.877  1.00  0.00    -0.269 OA
ENDBRANCH  10  20
ENDBRANCH   8   9
ENDBRANCH   5   8
ENDBRANCH   3   4
ENDBRANCH   2   3
ENDBRANCH   1   2
BRANCH   1  30
ATOM     30  C   UNL A   1      33.529  28.514  26.948  1.00  0.00     0.116 C 
BRANCH  30  31
ATOM     31  N   UNL A   1      33.412  29.898  27.377  1.00  0.00    -0.352 N 
ATOM     32  C   UNL A   1      34.333  30.676  28.038  1.00  0.00     0.251 C 
ATOM     33  H   UNL A   1      32.558  30.338  27.164  1.00  0.00     0.163 HD
ATOM     34  O   UNL A   1      34.022  31.800  28.423  1.00  0.00    -0.269 OA
BRANCH  32  35
ATOM     35  C   UNL A   1      35.683  30.140  28.318  1.00  0.00     0.039 A 
ATOM     36  C   UNL A   1      36.654  30.202  27.314  1.00  0.00     0.014 A 
ATOM     37  C   UNL A   1      35.998  29.601  29.568  1.00  0.00     0.014 A 
ATOM     38  C   UNL A   1      37.960  29.788  27.589  1.00  0.00     0.010 A 
ATOM     39  C   UNL A   1      37.314  29.253  29.860  1.00  0.00     0.010 A 
ATOM     40  C   UNL A   1      38.310  29.348  28.876  1.00  0.00    -0.014 A 
BRANCH  40  41
ATOM     41  C   UNL A   1      39.711  28.994  29.216  1.00  0.00     0.031 A 
ATOM     42  C   UNL A   1      40.603  29.998  29.894  1.00  0.00     0.074 A 
ATOM     43  C   UNL A   1      40.202  27.791  28.857  1.00  0.00     0.049 A 
ATOM     44  N   UNL A   1      41.869  29.894  30.211  1.00  0.00    -0.248 NA
ATOM     45  C   UNL A   1      40.001  31.295  30.238  1.00  0.00     0.031 C 
ATOM     46  C   UNL A   1      39.450  26.739  28.167  1.00  0.00     0.029 A 
ATOM     47  N   UNL A   1      41.453  27.251  29.018  1.00  0.00    -0.354 N 
ATOM     48  C   UNL A   1      42.217  31.114  30.779  1.00  0.00     0.074 A 
ATOM     49  C   UNL A   1      41.044  31.959  30.715  1.00  0.00     0.031 C 
ATOM     50  C   UNL A   1      40.246  25.671  27.994  1.00  0.00     0.029 A 
ATOM     51  C   UNL A   1      41.573  25.974  28.521  1.00  0.00     0.049 A 
ATOM     52  H   UNL A   1      42.195  27.731  29.451  1.00  0.00     0.167 HD
ATOM     53  C   UNL A   1      43.400  31.492  31.323  1.00  0.00     0.031 A 
ATOM     54  C   UNL A   1      42.630  25.141  28.487  1.00  0.00     0.031 A 
ATOM     55  C   UNL A   1      44.564  30.651  31.390  1.00  0.00     0.049 A 
ATOM     56  C   UNL A   1      43.940  25.590  29.075  1.00  0.00     0.074 A 
ATOM     57  C   UNL A   1      45.796  30.928  31.957  1.00  0.00     0.029 A 
ATOM     58  N   UNL A   1      44.644  29.368  30.869  1.00  0.00    -0.354 N 
ATOM     59  N   UNL A   1      44.234  26.731  29.651  1.00  0.00    -0.248 NA
ATOM     60  C   UNL A   1      45.055  24.637  29.014  1.00  0.00     0.031 C 
ATOM     61  C   UNL A   1      46.635  29.829  31.741  1.00  0.00     0.029 A 
ATOM     62  C   UNL A   1      45.909  28.847  31.086  1.00  0.00     0.049 A 
ATOM     63  H   UNL A   1      43.910  28.896  30.414  1.00  0.00     0.167 HD
ATOM     64  C   UNL A   1      45.562  26.621  30.049  1.00  0.00     0.074 A 
ATOM     65  C   UNL A   1      46.009  25.300  29.655  1.00  0.00     0.031 C 
ATOM     66  C   UNL A   1      46.341  27.531  30.686  1.00  0.00     0.031 A 
BRANCH  53  67
ATOM     67  C   UNL A   1      43.483  32.889  31.883  1.00  0.00    -0.014 A 
ATOM     68  C   UNL A   1      44.025  33.943  31.124  1.00  0.00     0.010 A 
ATOM     69  C   UNL A   1      43.006  33.154  33.179  1.00  0.00     0.010 A 
ATOM     70  C   UNL A   1      44.139  35.224  31.671  1.00  0.00     0.020 A 
ATOM     71  C   UNL A   1      43.092  34.441  33.719  1.00  0.00     0.020 A 
ATOM     72  C   UNL A   1      43.680  35.462  32.969  1.00  0.00     0.054 A 
BRANCH  72  73
ATOM     73  S   UNL A   1      43.847  37.132  33.658  1.00  0.00     0.124 S 
ATOM     74  O   UNL A   1      43.739  37.962  32.461  1.00  0.00    -0.237 OA
ATOM     75  O   UNL A   1      42.717  37.213  34.581  1.00  0.00    -0.237 OA
ATOM     76  O   UNL A   1      45.164  37.115  34.290  1.00  0.00    -0.744 OA
ENDBRANCH  72  73
ENDBRANCH  53  67
BRANCH  54  77
ATOM     77  C   UNL A   1      42.485  23.782  27.900  1.00  0.00    -0.014 A 
ATOM     78  C   UNL A   1      42.858  23.542  26.566  1.00  0.00     0.010 A 
ATOM     79  C   UNL A   1      41.993  22.716  28.675  1.00  0.00     0.010 A 
ATOM     80  C   UNL A   1      42.733  22.266  26.013  1.00  0.00     0.020 A 
ATOM     81  C   UNL A   1      41.890  21.431  28.133  1.00  0.00     0.020 A 
ATOM     82  C   UNL A   1      42.253  21.216  26.801  1.00  0.00     0.054 A 
BRANCH  82  83
ATOM     83  S   UNL A   1      42.158  19.554  26.080  1.00  0.00     0.124 S 
ATOM     84  O   UNL A   1      42.631  18.719  27.179  1.00  0.00    -0.237 OA
ATOM     85  O   UNL A   1      40.738  19.430  25.757  1.00  0.00    -0.237 OA
ATOM     86  O   UNL A   1      43.046  19.633  24.923  1.00  0.00    -0.744 OA
ENDBRANCH  82  83
ENDBRANCH  54  77
BRANCH  66  87
ATOM     87  C   UNL A   1      47.747  27.119  31.029  1.00  0.00    -0.014 A 
ATOM     88  C   UNL A   1      48.809  27.336  30.134  1.00  0.00     0.010 A 
ATOM     89  C   UNL A   1      48.016  26.557  32.290  1.00  0.00     0.010 A 
ATOM     90  C   UNL A   1      50.112  26.970  30.484  1.00  0.00     0.020 A 
ATOM     91  C   UNL A   1      49.321  26.214  32.654  1.00  0.00     0.020 A 
ATOM     92  C   UNL A   1      50.359  26.411  31.742  1.00  0.00     0.054 A 
BRANCH  92  93
ATOM     93  S   UNL A   1      52.065  25.989  32.191  1.00  0.00     0.124 S 
ATOM     94  O   UNL A   1      52.125  24.568  31.855  1.00  0.00    -0.237 OA
ATOM     95  O   UNL A   1      52.852  26.871  31.332  1.00  0.00    -0.237 OA
ATOM     96  O   UNL A   1      52.133  26.296  33.618  1.00  0.00    -0.744 OA
ENDBRANCH  92  93
ENDBRANCH  66  87
ENDBRANCH  40  41
ENDBRANCH  32  35
ENDBRANCH  30  31
ENDBRANCH   1  30
TORSDOF 16
ENDMDL
MODEL 2
REMARK VINA RESULT:     -12.2      3.300      5.805
REMARK SMILES C[NH+]1CCN(C(=O)c2ccc3c(c2)N(CC(=O)NCCCCNC(=O)c2ccc(-c4c5nc(c(-c6ccc(S(=O)(=O)[O-])cc6)c6ccc([nH]6)c(-c6ccc(S(=O)(=O)[O-])cc6)c6nc(c(-c7ccc(S(=O)(=O)[O-])cc7)c7ccc4[nH]7)C=C6)C=C5)cc2)C(=O)CO3)CC1
REMARK SMILES IDX 21 1 20 2 19 3 18 4 16 5 17 6 15 8 14 9 8 10 9 11 13 12
REMARK SMILES IDX 10 13 12 14 11 15 89 16 86 17 88 18 87 19 6 20 1 21 2 22
REMARK SMILES IDX 3 23 91 24 4 26 90 27 5 28 7 29 22 30 23 31 24 32 25 34
REMARK SMILES IDX 26 35 27 36 85 37 28 38 84 39 29 40 30 41 31 42 78 43 32 44
REMARK SMILES IDX 83 45 77 46 79 47 33 48 82 49 76 50 75 51 34 53 64 54 45 55
REMARK SMILES IDX 63 56 46 57 49 58 62 59 80 60 47 61 48 62 61 64 81 65 50 66
REMARK SMILES IDX 35 67 36 68 44 69 37 70 43 71 38 72 39 73 40 74 41 75 42 76
REMARK SMILES IDX 65 77 66 78 74 79 67 80 73 81 68 82 69 83 70 84 71 85 72 86
REMARK SMILES IDX 51 87 52 88 60 89 53 90 59 91 54 92 55 93 56 94 57 95 58 96
REMARK H PARENT 18 7 2 25 23 33 79 52 49 63
REMARK Flexibility Score: inf
ROOT
ATOM      1  C   UNL A   1      33.603  27.413  26.524  1.00  0.00     0.023 C 
ENDROOT
BRANCH   1   2
ATOM      2  C   UNL A   1      32.250  27.725  27.170  1.00  0.00     0.023 C 
BRANCH   2   3
ATOM      3  C   UNL A   1      31.108  26.803  26.745  1.00  0.00     0.116 C 
BRANCH   3   4
ATOM      4  N   UNL A   1      31.440  25.404  26.918  1.00  0.00    -0.355 N 
ATOM      5  C   UNL A   1      31.311  24.373  26.035  1.00  0.00     0.240 C 
ATOM      6  O   UNL A   1      31.779  23.278  26.359  1.00  0.00    -0.273 OA
ATOM      7  H   UNL A   1      31.811  25.163  27.797  1.00  0.00     0.163 HD
BRANCH   5   8
ATOM      8  C   UNL A   1      30.680  24.573  24.650  1.00  0.00     0.225 C 
BRANCH   8   9
ATOM      9  N   UNL A   1      31.625  24.910  23.584  1.00  0.00    -0.296 N 
ATOM     10  C   UNL A   1      31.604  28.660  23.531  1.00  0.00     0.042 A 
ATOM     11  C   UNL A   1      32.702  28.921  22.711  1.00  0.00     0.018 A 
ATOM     12  C   UNL A   1      31.202  27.342  23.790  1.00  0.00     0.044 A 
ATOM     13  C   UNL A   1      33.423  27.858  22.174  1.00  0.00     0.049 A 
ATOM     14  C   UNL A   1      31.934  26.266  23.270  1.00  0.00     0.087 A 
ATOM     15  C   UNL A   1      33.034  26.543  22.443  1.00  0.00     0.143 A 
ATOM     16  O   UNL A   1      33.840  25.577  21.908  1.00  0.00    -0.482 OA
ATOM     17  C   UNL A   1      32.242  23.882  22.885  1.00  0.00     0.265 C 
ATOM     18  C   UNL A   1      33.201  24.323  21.788  1.00  0.00     0.330 C 
ATOM     19  O   UNL A   1      32.006  22.689  23.074  1.00  0.00    -0.270 OA
BRANCH  10  20
ATOM     20  C   UNL A   1      30.833  29.805  24.059  1.00  0.00     0.254 C 
ATOM     21  C   UNL A   1      27.649  32.848  20.616  1.00  0.00     0.332 C 
ATOM     22  N   UNL A   1      27.954  31.841  21.629  1.00  0.00    -0.334 N 
ATOM     23  C   UNL A   1      28.605  32.458  22.803  1.00  0.00     0.283 C 
ATOM     24  C   UNL A   1      28.839  30.798  21.068  1.00  0.00     0.283 C 
ATOM     25  H   UNL A   1      27.075  31.415  21.924  1.00  0.00     0.347 HD
ATOM     26  C   UNL A   1      28.992  31.421  23.877  1.00  0.00     0.181 C 
ATOM     27  C   UNL A   1      29.186  29.719  22.112  1.00  0.00     0.181 C 
ATOM     28  N   UNL A   1      29.776  30.316  23.319  1.00  0.00    -0.327 N 
ATOM     29  O   UNL A   1      31.177  30.244  25.154  1.00  0.00    -0.269 OA
ENDBRANCH  10  20
ENDBRANCH   8   9
ENDBRANCH   5   8
ENDBRANCH   3   4
ENDBRANCH   2   3
ENDBRANCH   1   2
BRANCH   1  30
ATOM     30  C   UNL A   1      34.398  28.624  26.044  1.00  0.00     0.116 C 
BRANCH  30  31
ATOM     31  N   UNL A   1      33.786  29.893  26.401  1.00  0.00    -0.352 N 
ATOM     32  C   UNL A   1      34.163  30.787  27.374  1.00  0.00     0.251 C 
ATOM     33  H   UNL A   1      32.995  30.147  25.873  1.00  0.00     0.163 HD
ATOM     34  O   UNL A   1      33.460  31.766  27.613  1.00  0.00    -0.269 OA
BRANCH  32  35
ATOM     35  C   UNL A   1      35.395  30.547  28.157  1.00  0.00     0.039 A 
ATOM     36  C   UNL A   1      35.350  29.646  29.225  1.00  0.00     0.014 A 
ATOM     37  C   UNL A   1      36.593  31.187  27.828  1.00  0.00     0.014 A 
ATOM     38  C   UNL A   1      36.523  29.335  29.917  1.00  0.00     0.010 A 
ATOM     39  C   UNL A   1      37.772  30.824  28.473  1.00  0.00     0.010 A 
ATOM     40  C   UNL A   1      37.750  29.891  29.521  1.00  0.00    -0.014 A 
BRANCH  40  41
ATOM     41  C   UNL A   1      39.023  29.501  30.181  1.00  0.00     0.031 A 
ATOM     42  C   UNL A   1      39.499  30.237  31.404  1.00  0.00     0.074 A 
ATOM     43  C   UNL A   1      39.784  28.528  29.641  1.00  0.00     0.049 A 
ATOM     44  N   UNL A   1      40.611  30.083  32.078  1.00  0.00    -0.248 NA
ATOM     45  C   UNL A   1      38.622  31.298  31.923  1.00  0.00     0.031 C 
ATOM     46  C   UNL A   1      39.451  27.759  28.439  1.00  0.00     0.029 A 
ATOM     47  N   UNL A   1      40.998  28.022  30.031  1.00  0.00    -0.354 N 
ATOM     48  C   UNL A   1      40.573  31.035  33.090  1.00  0.00     0.074 A 
ATOM     49  C   UNL A   1      39.355  31.794  32.910  1.00  0.00     0.031 C 
ATOM     50  C   UNL A   1      40.421  26.860  28.210  1.00  0.00     0.029 A 
ATOM     51  C   UNL A   1      41.463  27.013  29.220  1.00  0.00     0.049 A 
ATOM     52  H   UNL A   1      41.490  28.349  30.819  1.00  0.00     0.167 HD
ATOM     53  C   UNL A   1      41.462  31.246  34.091  1.00  0.00     0.031 A 
ATOM     54  C   UNL A   1      42.601  26.295  29.278  1.00  0.00     0.031 A 
ATOM     55  C   UNL A   1      42.671  30.488  34.272  1.00  0.00     0.049 A 
ATOM     56  C   UNL A   1      43.584  26.563  30.385  1.00  0.00     0.074 A 
ATOM     57  C   UNL A   1      43.615  30.600  35.278  1.00  0.00     0.029 A 
ATOM     58  N   UNL A   1      43.107  29.481  33.425  1.00  0.00    -0.354 N 
ATOM     59  N   UNL A   1      43.507  27.435  31.361  1.00  0.00    -0.248 NA
ATOM     60  C   UNL A   1      44.804  25.744  30.400  1.00  0.00     0.031 C 
ATOM     61  C   UNL A   1      44.644  29.688  35.016  1.00  0.00     0.029 A 
ATOM     62  C   UNL A   1      44.314  28.973  33.875  1.00  0.00     0.049 A 
ATOM     63  H   UNL A   1      42.627  29.170  32.624  1.00  0.00     0.167 HD
ATOM     64  C   UNL A   1      44.654  27.250  32.125  1.00  0.00     0.074 A 
ATOM     65  C   UNL A   1      45.403  26.177  31.501  1.00  0.00     0.031 C 
ATOM     66  C   UNL A   1      45.050  27.907  33.243  1.00  0.00     0.031 A 
BRANCH  53  67
ATOM     67  C   UNL A   1      41.150  32.354  35.065  1.00  0.00    -0.014 A 
ATOM     68  C   UNL A   1      41.623  33.661  34.850  1.00  0.00     0.010 A 
ATOM     69  C   UNL A   1      40.366  32.088  36.201  1.00  0.00     0.010 A 
ATOM     70  C   UNL A   1      41.366  34.670  35.783  1.00  0.00     0.020 A 
ATOM     71  C   UNL A   1      40.082  33.101  37.122  1.00  0.00     0.020 A 
ATOM     72  C   UNL A   1      40.605  34.380  36.918  1.00  0.00     0.054 A 
BRANCH  72  73
ATOM     73  S   UNL A   1      40.292  35.705  38.117  1.00  0.00     0.124 S 
ATOM     74  O   UNL A   1      39.344  35.067  39.028  1.00  0.00    -0.237 OA
ATOM     75  O   UNL A   1      41.620  35.956  38.672  1.00  0.00    -0.237 OA
ATOM     76  O   UNL A   1      39.744  36.786  37.303  1.00  0.00    -0.744 OA
ENDBRANCH  72  73
ENDBRANCH  53  67
BRANCH  54  77
ATOM     77  C   UNL A   1      42.856  25.229  28.273  1.00  0.00    -0.014 A 
ATOM     78  C   UNL A   1      43.583  25.517  27.105  1.00  0.00     0.010 A 
ATOM     79  C   UNL A   1      42.394  23.917  28.486  1.00  0.00     0.010 A 
ATOM     80  C   UNL A   1      43.835  24.517  26.161  1.00  0.00     0.020 A 
ATOM     81  C   UNL A   1      42.665  22.909  27.557  1.00  0.00     0.020 A 
ATOM     82  C   UNL A   1      43.377  23.218  26.395  1.00  0.00     0.054 A 
BRANCH  82  83
ATOM     83  S   UNL A   1      43.769  21.922  25.186  1.00  0.00     0.124 S 
ATOM     84  O   UNL A   1      43.635  22.636  23.922  1.00  0.00    -0.237 OA
ATOM     85  O   UNL A   1      45.131  21.544  25.559  1.00  0.00    -0.237 OA
ATOM     86  O   UNL A   1      42.757  20.900  25.443  1.00  0.00    -0.744 OA
ENDBRANCH  82  83
ENDBRANCH  54  77
BRANCH  66  87
ATOM     87  C   UNL A   1      46.335  27.462  33.888  1.00  0.00    -0.014 A 
ATOM     88  C   UNL A   1      47.563  28.060  33.554  1.00  0.00     0.010 A 
ATOM     89  C   UNL A   1      46.303  26.469  34.884  1.00  0.00     0.010 A 
ATOM     90  C   UNL A   1      48.742  27.650  34.184  1.00  0.00     0.020 A 
ATOM     91  C   UNL A   1      47.475  26.075  35.535  1.00  0.00     0.020 A 
ATOM     92  C   UNL A   1      48.689  26.660  35.171  1.00  0.00     0.054 A 
BRANCH  92  93
ATOM     93  S   UNL A   1      50.225  26.179  36.009  1.00  0.00     0.124 S 
ATOM     94  O   UNL A   1      50.268  24.740  35.763  1.00  0.00    -0.237 OA
ATOM     95  O   UNL A   1      51.236  26.967  35.305  1.00  0.00    -0.237 OA
ATOM     96  O   UNL A   1      49.997  26.569  37.399  1.00  0.00    -0.744 OA
ENDBRANCH  92  93
ENDBRANCH  66  87
ENDBRANCH  40  41
ENDBRANCH  32  35
ENDBRANCH  30  31
ENDBRANCH   1  30
TORSDOF 16
ENDMDL
MODEL 3
REMARK VINA RESULT:     -12.2      2.405      5.153
REMARK SMILES C[NH+]1CCN(C(=O)c2ccc3c(c2)N(CC(=O)NCCCCNC(=O)c2ccc(-c4c5nc(c(-c6ccc(S(=O)(=O)[O-])cc6)c6ccc([nH]6)c(-c6ccc(S(=O)(=O)[O-])cc6)c6nc(c(-c7ccc(S(=O)(=O)[O-])cc7)c7ccc4[nH]7)C=C6)C=C5)cc2)C(=O)CO3)CC1
REMARK SMILES IDX 21 1 20 2 19 3 18 4 16 5 17 6 15 8 14 9 8 10 9 11 13 12
REMARK SMILES IDX 10 13 12 14 11 15 89 16 86 17 88 18 87 19 6 20 1 21 2 22
REMARK SMILES IDX 3 23 91 24 4 26 90 27 5 28 7 29 22 30 23 31 24 32 25 34
REMARK SMILES IDX 26 35 27 36 85 37 28 38 84 39 29 40 30 41 31 42 78 43 32 44
REMARK SMILES IDX 83 45 77 46 79 47 33 48 82 49 76 50 75 51 34 53 64 54 45 55
REMARK SMILES IDX 63 56 46 57 49 58 62 59 80 60 47 61 48 62 61 64 81 65 50 66
REMARK SMILES IDX 35 67 36 68 44 69 37 70 43 71 38 72 39 73 40 74 41 75 42 76
REMARK SMILES IDX 65 77 66 78 74 79 67 80 73 81 68 82 69 83 70 84 71 85 72 86
REMARK SMILES IDX 51 87 52 88 60 89 53 90 59 91 54 92 55 93 56 94 57 95 58 96
REMARK H PARENT 18 7 2 25 23 33 79 52 49 63
REMARK Flexibility Score: inf
ROOT
ATOM      1  C   UNL A   1      32.037  27.823  27.800  1.00  0.00     0.023 C 
ENDROOT
BRANCH   1   2
ATOM      2  C   UNL A   1      31.463  26.766  26.851  1.00  0.00     0.023 C 
BRANCH   2   3
ATOM      3  C   UNL A   1      32.453  25.687  26.417  1.00  0.00     0.116 C 
BRANCH   3   4
ATOM      4  N   UNL A   1      31.875  24.361  26.468  1.00  0.00    -0.355 N 
ATOM      5  C   UNL A   1      31.046  23.749  25.575  1.00  0.00     0.240 C 
ATOM      6  O   UNL A   1      30.776  22.559  25.764  1.00  0.00    -0.273 OA
ATOM      7  H   UNL A   1      32.113  23.825  27.259  1.00  0.00     0.163 HD
BRANCH   5   8
ATOM      8  C   UNL A   1      30.524  24.477  24.329  1.00  0.00     0.225 C 
BRANCH   8   9
ATOM      9  N   UNL A   1      31.550  24.849  23.355  1.00  0.00    -0.296 N 
ATOM     10  C   UNL A   1      31.615  28.596  23.520  1.00  0.00     0.042 A 
ATOM     11  C   UNL A   1      32.776  28.874  22.797  1.00  0.00     0.018 A 
ATOM     12  C   UNL A   1      31.167  27.276  23.672  1.00  0.00     0.044 A 
ATOM     13  C   UNL A   1      33.511  27.825  22.253  1.00  0.00     0.049 A 
ATOM     14  C   UNL A   1      31.911  26.212  23.145  1.00  0.00     0.087 A 
ATOM     15  C   UNL A   1      33.075  26.508  22.416  1.00  0.00     0.143 A 
ATOM     16  O   UNL A   1      33.897  25.553  21.884  1.00  0.00    -0.482 OA
ATOM     17  C   UNL A   1      32.195  23.847  22.644  1.00  0.00     0.265 C 
ATOM     18  C   UNL A   1      33.241  24.325  21.646  1.00  0.00     0.330 C 
ATOM     19  O   UNL A   1      31.919  22.652  22.745  1.00  0.00    -0.270 OA
BRANCH  10  20
ATOM     20  C   UNL A   1      30.833  29.729  24.057  1.00  0.00     0.254 C 
ATOM     21  C   UNL A   1      27.674  32.811  20.626  1.00  0.00     0.332 C 
ATOM     22  N   UNL A   1      27.972  31.789  21.627  1.00  0.00    -0.334 N 
ATOM     23  C   UNL A   1      28.606  32.391  22.818  1.00  0.00     0.283 C 
ATOM     24  C   UNL A   1      28.868  30.760  21.060  1.00  0.00     0.283 C 
ATOM     25  H   UNL A   1      27.092  31.355  21.905  1.00  0.00     0.347 HD
ATOM     26  C   UNL A   1      28.986  31.339  23.879  1.00  0.00     0.181 C 
ATOM     27  C   UNL A   1      29.208  29.666  22.091  1.00  0.00     0.181 C 
ATOM     28  N   UNL A   1      29.782  30.247  23.313  1.00  0.00    -0.327 N 
ATOM     29  O   UNL A   1      31.163  30.152  25.163  1.00  0.00    -0.269 OA
ENDBRANCH  10  20
ENDBRANCH   8   9
ENDBRANCH   5   8
ENDBRANCH   3   4
ENDBRANCH   2   3
ENDBRANCH   1   2
BRANCH   1  30
ATOM     30  C   UNL A   1      33.300  28.529  27.312  1.00  0.00     0.116 C 
BRANCH  30  31
ATOM     31  N   UNL A   1      33.271  29.968  27.521  1.00  0.00    -0.352 N 
ATOM     32  C   UNL A   1      34.270  30.791  27.982  1.00  0.00     0.251 C 
ATOM     33  H   UNL A   1      32.421  30.412  27.300  1.00  0.00     0.163 HD
ATOM     34  O   UNL A   1      34.035  31.976  28.203  1.00  0.00    -0.269 OA
BRANCH  32  35
ATOM     35  C   UNL A   1      35.615  30.237  28.249  1.00  0.00     0.039 A 
ATOM     36  C   UNL A   1      36.562  30.241  27.221  1.00  0.00     0.014 A 
ATOM     37  C   UNL A   1      35.950  29.739  29.511  1.00  0.00     0.014 A 
ATOM     38  C   UNL A   1      37.865  29.810  27.480  1.00  0.00     0.010 A 
ATOM     39  C   UNL A   1      37.266  29.374  29.785  1.00  0.00     0.010 A 
ATOM     40  C   UNL A   1      38.239  29.410  28.773  1.00  0.00    -0.014 A 
BRANCH  40  41
ATOM     41  C   UNL A   1      39.641  29.039  29.093  1.00  0.00     0.031 A 
ATOM     42  C   UNL A   1      40.563  30.041  29.732  1.00  0.00     0.074 A 
ATOM     43  C   UNL A   1      40.104  27.821  28.748  1.00  0.00     0.049 A 
ATOM     44  N   UNL A   1      41.833  29.923  30.026  1.00  0.00    -0.248 NA
ATOM     45  C   UNL A   1      39.989  31.355  30.062  1.00  0.00     0.031 C 
ATOM     46  C   UNL A   1      39.321  26.769  28.094  1.00  0.00     0.029 A 
ATOM     47  N   UNL A   1      41.349  27.263  28.895  1.00  0.00    -0.354 N 
ATOM     48  C   UNL A   1      42.213  31.147  30.562  1.00  0.00     0.074 A 
ATOM     49  C   UNL A   1      41.053  32.010  30.504  1.00  0.00     0.031 C 
ATOM     50  C   UNL A   1      40.095  25.685  27.927  1.00  0.00     0.029 A 
ATOM     51  C   UNL A   1      41.437  25.975  28.421  1.00  0.00     0.049 A 
ATOM     52  H   UNL A   1      42.108  27.739  29.303  1.00  0.00     0.167 HD
ATOM     53  C   UNL A   1      43.412  31.516  31.075  1.00  0.00     0.031 A 
ATOM     54  C   UNL A   1      42.480  25.124  28.382  1.00  0.00     0.031 A 
ATOM     55  C   UNL A   1      44.564  30.656  31.135  1.00  0.00     0.049 A 
ATOM     56  C   UNL A   1      43.808  25.562  28.935  1.00  0.00     0.074 A 
ATOM     57  C   UNL A   1      45.811  30.923  31.672  1.00  0.00     0.029 A 
ATOM     58  N   UNL A   1      44.612  29.362  30.639  1.00  0.00    -0.354 N 
ATOM     59  N   UNL A   1      44.133  26.709  29.483  1.00  0.00    -0.248 NA
ATOM     60  C   UNL A   1      44.906  24.589  28.871  1.00  0.00     0.031 C 
ATOM     61  C   UNL A   1      46.627  29.806  31.462  1.00  0.00     0.029 A 
ATOM     62  C   UNL A   1      45.872  28.824  30.841  1.00  0.00     0.049 A 
ATOM     63  H   UNL A   1      43.860  28.894  30.209  1.00  0.00     0.167 HD
ATOM     64  C   UNL A   1      45.467  26.584  29.856  1.00  0.00     0.074 A 
ATOM     65  C   UNL A   1      45.884  25.248  29.480  1.00  0.00     0.031 C 
ATOM     66  C   UNL A   1      46.273  27.493  30.459  1.00  0.00     0.031 A 
BRANCH  53  67
ATOM     67  C   UNL A   1      43.530  32.922  31.605  1.00  0.00    -0.014 A 
ATOM     68  C   UNL A   1      43.960  33.975  30.776  1.00  0.00     0.010 A 
ATOM     69  C   UNL A   1      43.198  33.196  32.944  1.00  0.00     0.010 A 
ATOM     70  C   UNL A   1      44.109  35.265  31.291  1.00  0.00     0.020 A 
ATOM     71  C   UNL A   1      43.319  34.492  33.455  1.00  0.00     0.020 A 
ATOM     72  C   UNL A   1      43.796  35.513  32.631  1.00  0.00     0.054 A 
BRANCH  72  73
ATOM     73  S   UNL A   1      44.006  37.195  33.276  1.00  0.00     0.124 S 
ATOM     74  O   UNL A   1      42.877  37.306  34.197  1.00  0.00    -0.237 OA
ATOM     75  O   UNL A   1      45.324  37.136  33.906  1.00  0.00    -0.237 OA
ATOM     76  O   UNL A   1      43.925  38.036  32.085  1.00  0.00    -0.744 OA
ENDBRANCH  72  73
ENDBRANCH  53  67
BRANCH  54  77
ATOM     77  C   UNL A   1      42.300  23.756  27.826  1.00  0.00    -0.014 A 
ATOM     78  C   UNL A   1      42.512  23.514  26.457  1.00  0.00     0.010 A 
ATOM     79  C   UNL A   1      41.937  22.684  28.663  1.00  0.00     0.010 A 
ATOM     80  C   UNL A   1      42.354  22.230  25.931  1.00  0.00     0.020 A 
ATOM     81  C   UNL A   1      41.803  21.393  28.145  1.00  0.00     0.020 A 
ATOM     82  C   UNL A   1      42.003  21.175  26.779  1.00  0.00     0.054 A 
BRANCH  82  83
ATOM     83  S   UNL A   1      41.865  19.504  26.086  1.00  0.00     0.124 S 
ATOM     84  O   UNL A   1      42.760  19.578  24.936  1.00  0.00    -0.237 OA
ATOM     85  O   UNL A   1      42.321  18.665  27.191  1.00  0.00    -0.237 OA
ATOM     86  O   UNL A   1      40.443  19.384  25.769  1.00  0.00    -0.744 OA
ENDBRANCH  82  83
ENDBRANCH  54  77
BRANCH  66  87
ATOM     87  C   UNL A   1      47.680  27.064  30.782  1.00  0.00    -0.014 A 
ATOM     88  C   UNL A   1      48.757  27.408  29.947  1.00  0.00     0.010 A 
ATOM     89  C   UNL A   1      47.931  26.353  31.970  1.00  0.00     0.010 A 
ATOM     90  C   UNL A   1      50.058  27.022  30.280  1.00  0.00     0.020 A 
ATOM     91  C   UNL A   1      49.234  25.989  32.319  1.00  0.00     0.020 A 
ATOM     92  C   UNL A   1      50.288  26.315  31.464  1.00  0.00     0.054 A 
BRANCH  92  93
ATOM     93  S   UNL A   1      51.992  25.867  31.898  1.00  0.00     0.124 S 
ATOM     94  O   UNL A   1      52.250  26.733  33.046  1.00  0.00    -0.237 OA
ATOM     95  O   UNL A   1      51.883  24.441  32.199  1.00  0.00    -0.237 OA
ATOM     96  O   UNL A   1      52.752  26.186  30.692  1.00  0.00    -0.744 OA
ENDBRANCH  92  93
ENDBRANCH  66  87
ENDBRANCH  40  41
ENDBRANCH  32  35
ENDBRANCH  30  31
ENDBRANCH   1  30
TORSDOF 16
ENDMDL
