MODEL 1
REMARK VINA RESULT:     -11.1      0.000      0.000
REMARK SMILES Cn1ccnc(N[C@H]2C=C[C@H](C(=O)NCCCCNC(=O)c3ccc(-c4c5nc(c(-c6ccc(S(=O)(=O)[O-])cc6)c6ccc([nH]6)c(-c6ccc(S(=O)(=O)[O-])cc6)c6nc(c(-c7ccc(S(=O)(=O)[O-])cc7)c7ccc4[nH]7)C=C6)C=C5)cc3)C2)c1=O
REMARK SMILES IDX 17 1 16 2 15 3 14 4 12 5 13 6 11 8 8 9 9 10 82 11 10 12 7 13
REMARK SMILES IDX 6 15 1 16 2 17 3 18 83 19 4 20 84 21 5 22 18 23 19 24 20 25
REMARK SMILES IDX 21 27 22 28 23 29 81 30 24 31 80 32 25 33 26 34 27 35 74 36
REMARK SMILES IDX 28 37 79 38 73 39 75 40 29 41 78 42 72 43 71 44 30 46 60 47
REMARK SMILES IDX 41 48 59 49 42 50 45 51 58 52 76 53 43 54 44 55 57 57 77 58
REMARK SMILES IDX 46 59 31 60 32 61 40 62 33 63 39 64 34 65 35 66 36 67 37 68
REMARK SMILES IDX 38 69 61 70 62 71 70 72 63 73 69 74 64 75 65 76 66 77 67 78
REMARK SMILES IDX 68 79 47 80 48 81 56 82 49 83 55 84 50 85 51 86 52 87 53 88
REMARK SMILES IDX 54 89
REMARK H PARENT 14 7 7 14 19 26 75 45 45 56
REMARK Flexibility Score: inf
ROOT
ATOM      1  C   UNL A   1      33.846  28.425  25.902  1.00  0.00     0.023 C 
ENDROOT
BRANCH   1   2
ATOM      2  C   UNL A   1      33.187  29.279  24.821  1.00  0.00     0.023 C 
BRANCH   2   3
ATOM      3  C   UNL A   1      31.694  29.516  25.005  1.00  0.00     0.116 C 
BRANCH   3   4
ATOM      4  N   UNL A   1      30.950  29.455  23.758  1.00  0.00    -0.356 N 
ATOM      5  C   UNL A   1      30.849  28.403  22.883  1.00  0.00     0.227 C 
ATOM      6  O   UNL A   1      30.069  28.490  21.935  1.00  0.00    -0.274 OA
ATOM      7  H   UNL A   1      30.457  30.271  23.510  1.00  0.00     0.163 HD
BRANCH   5   8
ATOM      8  C   UNL A   1      31.719  27.177  23.143  1.00  0.00     0.103 C 
ATOM      9  C   UNL A   1      31.814  25.128  21.794  1.00  0.00     0.104 C 
ATOM     10  C   UNL A   1      30.963  24.942  22.994  1.00  0.00    -0.006 C 
ATOM     11  C   UNL A   1      32.344  26.559  21.877  1.00  0.00     0.046 C 
ATOM     12  C   UNL A   1      30.882  26.063  23.715  1.00  0.00    -0.016 C 
BRANCH   9  13
ATOM     13  N   UNL A   1      32.829  24.112  21.703  1.00  0.00    -0.359 N 
ATOM     14  H   UNL A   1      33.043  23.859  20.776  1.00  0.00     0.162 HD
BRANCH  13  15
ATOM     15  C   UNL A   1      33.563  23.419  22.641  1.00  0.00     0.193 A 
ATOM     16  C   UNL A   1      33.652  20.363  24.966  1.00  0.00     0.153 C 
ATOM     17  N   UNL A   1      34.003  21.589  24.280  1.00  0.00    -0.314 N 
ATOM     18  C   UNL A   1      35.160  22.264  24.573  1.00  0.00     0.109 A 
ATOM     19  C   UNL A   1      33.133  22.066  23.303  1.00  0.00     0.293 A 
ATOM     20  C   UNL A   1      35.469  23.393  23.929  1.00  0.00     0.131 A 
ATOM     21  O   UNL A   1      32.111  21.475  22.989  1.00  0.00    -0.265 OA
ATOM     22  N   UNL A   1      34.701  23.992  22.969  1.00  0.00    -0.233 NA
ENDBRANCH  13  15
ENDBRANCH   9  13
ENDBRANCH   5   8
ENDBRANCH   3   4
ENDBRANCH   2   3
ENDBRANCH   1   2
BRANCH   1  23
ATOM     23  C   UNL A   1      33.384  28.711  27.327  1.00  0.00     0.116 C 
BRANCH  23  24
ATOM     24  N   UNL A   1      33.469  30.121  27.679  1.00  0.00    -0.352 N 
ATOM     25  C   UNL A   1      34.510  30.821  28.241  1.00  0.00     0.251 C 
ATOM     26  H   UNL A   1      32.661  30.651  27.486  1.00  0.00     0.163 HD
ATOM     27  O   UNL A   1      34.344  31.981  28.607  1.00  0.00    -0.269 OA
BRANCH  25  28
ATOM     28  C   UNL A   1      35.819  30.161  28.439  1.00  0.00     0.039 A 
ATOM     29  C   UNL A   1      36.745  30.172  27.392  1.00  0.00     0.014 A 
ATOM     30  C   UNL A   1      36.148  29.571  29.662  1.00  0.00     0.014 A 
ATOM     31  C   UNL A   1      38.035  29.681  27.607  1.00  0.00     0.010 A 
ATOM     32  C   UNL A   1      37.456  29.154  29.897  1.00  0.00     0.010 A 
ATOM     33  C   UNL A   1      38.419  29.224  28.879  1.00  0.00    -0.014 A 
BRANCH  33  34
ATOM     34  C   UNL A   1      39.835  28.886  29.181  1.00  0.00     0.031 A 
ATOM     35  C   UNL A   1      40.756  29.907  29.788  1.00  0.00     0.074 A 
ATOM     36  C   UNL A   1      40.309  27.673  28.832  1.00  0.00     0.049 A 
ATOM     37  N   UNL A   1      42.031  29.803  30.062  1.00  0.00    -0.248 NA
ATOM     38  C   UNL A   1      40.175  31.219  30.109  1.00  0.00     0.031 C 
ATOM     39  C   UNL A   1      39.526  26.606  28.203  1.00  0.00     0.029 A 
ATOM     40  N   UNL A   1      41.567  27.133  28.947  1.00  0.00    -0.354 N 
ATOM     41  C   UNL A   1      42.409  31.037  30.579  1.00  0.00     0.074 A 
ATOM     42  C   UNL A   1      41.239  31.887  30.532  1.00  0.00     0.031 C 
ATOM     43  C   UNL A   1      40.310  25.533  28.019  1.00  0.00     0.029 A 
ATOM     44  C   UNL A   1      41.664  25.851  28.462  1.00  0.00     0.049 A 
ATOM     45  H   UNL A   1      42.328  27.621  29.339  1.00  0.00     0.167 HD
ATOM     46  C   UNL A   1      43.615  31.421  31.063  1.00  0.00     0.031 A 
ATOM     47  C   UNL A   1      42.723  25.022  28.368  1.00  0.00     0.031 A 
ATOM     48  C   UNL A   1      44.781  30.575  31.092  1.00  0.00     0.049 A 
ATOM     49  C   UNL A   1      44.065  25.491  28.858  1.00  0.00     0.074 A 
ATOM     50  C   UNL A   1      46.034  30.854  31.609  1.00  0.00     0.029 A 
ATOM     51  N   UNL A   1      44.843  29.292  30.567  1.00  0.00    -0.354 N 
ATOM     52  N   UNL A   1      44.383  26.633  29.419  1.00  0.00    -0.248 NA
ATOM     53  C   UNL A   1      45.189  24.559  28.701  1.00  0.00     0.031 C 
ATOM     54  C   UNL A   1      46.873  29.770  31.332  1.00  0.00     0.029 A 
ATOM     55  C   UNL A   1      46.126  28.785  30.704  1.00  0.00     0.049 A 
ATOM     56  H   UNL A   1      44.088  28.812  30.156  1.00  0.00     0.167 HD
ATOM     57  C   UNL A   1      45.743  26.553  29.695  1.00  0.00     0.074 A 
ATOM     58  C   UNL A   1      46.181  25.241  29.261  1.00  0.00     0.031 C 
ATOM     59  C   UNL A   1      46.556  27.484  30.253  1.00  0.00     0.031 A 
BRANCH  46  60
ATOM     60  C   UNL A   1      43.738  32.832  31.581  1.00  0.00    -0.014 A 
ATOM     61  C   UNL A   1      43.524  33.133  32.940  1.00  0.00     0.010 A 
ATOM     62  C   UNL A   1      44.094  33.873  30.703  1.00  0.00     0.010 A 
ATOM     63  C   UNL A   1      43.607  34.451  33.396  1.00  0.00     0.020 A 
ATOM     64  C   UNL A   1      44.211  35.188  31.162  1.00  0.00     0.020 A 
ATOM     65  C   UNL A   1      43.945  35.471  32.503  1.00  0.00     0.054 A 
BRANCH  65  66
ATOM     66  S   UNL A   1      44.040  37.172  33.125  1.00  0.00     0.124 S 
ATOM     67  O   UNL A   1      45.323  37.165  33.824  1.00  0.00    -0.237 OA
ATOM     68  O   UNL A   1      43.996  37.964  31.899  1.00  0.00    -0.237 OA
ATOM     69  O   UNL A   1      42.865  37.293  33.985  1.00  0.00    -0.744 OA
ENDBRANCH  65  66
ENDBRANCH  46  60
BRANCH  47  70
ATOM     70  C   UNL A   1      42.547  23.662  27.790  1.00  0.00    -0.014 A 
ATOM     71  C   UNL A   1      42.791  23.432  26.425  1.00  0.00     0.010 A 
ATOM     72  C   UNL A   1      42.172  22.579  28.608  1.00  0.00     0.010 A 
ATOM     73  C   UNL A   1      42.662  22.147  25.888  1.00  0.00     0.020 A 
ATOM     74  C   UNL A   1      42.071  21.289  28.082  1.00  0.00     0.020 A 
ATOM     75  C   UNL A   1      42.311  21.082  26.723  1.00  0.00     0.054 A 
BRANCH  75  76
ATOM     76  S   UNL A   1      42.227  19.413  26.016  1.00  0.00     0.124 S 
ATOM     77  O   UNL A   1      40.805  19.279  25.719  1.00  0.00    -0.237 OA
ATOM     78  O   UNL A   1      43.110  19.518  24.857  1.00  0.00    -0.237 OA
ATOM     79  O   UNL A   1      42.726  18.560  27.093  1.00  0.00    -0.744 OA
ENDBRANCH  75  76
ENDBRANCH  47  70
BRANCH  59  80
ATOM     80  C   UNL A   1      48.007  27.123  30.429  1.00  0.00    -0.014 A 
ATOM     81  C   UNL A   1      48.966  27.485  29.465  1.00  0.00     0.010 A 
ATOM     82  C   UNL A   1      48.430  26.471  31.602  1.00  0.00     0.010 A 
ATOM     83  C   UNL A   1      50.317  27.188  29.663  1.00  0.00     0.020 A 
ATOM     84  C   UNL A   1      49.783  26.198  31.818  1.00  0.00     0.020 A 
ATOM     85  C   UNL A   1      50.718  26.550  30.842  1.00  0.00     0.054 A 
BRANCH  85  86
ATOM     86  S   UNL A   1      52.485  26.236  31.101  1.00  0.00     0.124 S 
ATOM     87  O   UNL A   1      52.467  24.966  31.821  1.00  0.00    -0.237 OA
ATOM     88  O   UNL A   1      53.002  26.179  29.736  1.00  0.00    -0.237 OA
ATOM     89  O   UNL A   1      52.932  27.387  31.883  1.00  0.00    -0.744 OA
ENDBRANCH  85  86
ENDBRANCH  59  80
ENDBRANCH  33  34
ENDBRANCH  25  28
ENDBRANCH  23  24
ENDBRANCH   1  23
TORSDOF 16
ENDMDL
MODEL 2
REMARK VINA RESULT:     -10.7      2.961      3.863
REMARK SMILES Cn1ccnc(N[C@H]2C=C[C@H](C(=O)NCCCCNC(=O)c3ccc(-c4c5nc(c(-c6ccc(S(=O)(=O)[O-])cc6)c6ccc([nH]6)c(-c6ccc(S(=O)(=O)[O-])cc6)c6nc(c(-c7ccc(S(=O)(=O)[O-])cc7)c7ccc4[nH]7)C=C6)C=C5)cc3)C2)c1=O
REMARK SMILES IDX 17 1 16 2 15 3 14 4 12 5 13 6 11 8 8 9 9 10 82 11 10 12 7 13
REMARK SMILES IDX 6 15 1 16 2 17 3 18 83 19 4 20 84 21 5 22 18 23 19 24 20 25
REMARK SMILES IDX 21 27 22 28 23 29 81 30 24 31 80 32 25 33 26 34 27 35 74 36
REMARK SMILES IDX 28 37 79 38 73 39 75 40 29 41 78 42 72 43 71 44 30 46 60 47
REMARK SMILES IDX 41 48 59 49 42 50 45 51 58 52 76 53 43 54 44 55 57 57 77 58
REMARK SMILES IDX 46 59 31 60 32 61 40 62 33 63 39 64 34 65 35 66 36 67 37 68
REMARK SMILES IDX 38 69 61 70 62 71 70 72 63 73 69 74 64 75 65 76 66 77 67 78
REMARK SMILES IDX 68 79 47 80 48 81 56 82 49 83 55 84 50 85 51 86 52 87 53 88
REMARK SMILES IDX 54 89
REMARK H PARENT 14 7 7 14 19 26 75 45 45 56
REMARK Flexibility Score: inf
ROOT
ATOM      1  C   UNL A   1      33.199  28.091  27.148  1.00  0.00     0.023 C 
ENDROOT
BRANCH   1   2
ATOM      2  C   UNL A   1      31.784  27.651  26.780  1.00  0.00     0.023 C 
BRANCH   2   3
ATOM      3  C   UNL A   1      31.705  26.509  25.774  1.00  0.00     0.116 C 
BRANCH   3   4
ATOM      4  N   UNL A   1      30.990  25.351  26.283  1.00  0.00    -0.356 N 
ATOM      5  C   UNL A   1      31.515  24.178  26.764  1.00  0.00     0.227 C 
ATOM      6  O   UNL A   1      30.756  23.352  27.273  1.00  0.00    -0.274 OA
ATOM      7  H   UNL A   1      30.007  25.416  26.283  1.00  0.00     0.163 HD
BRANCH   5   8
ATOM      8  C   UNL A   1      33.020  23.968  26.638  1.00  0.00     0.103 C 
ATOM      9  C   UNL A   1      34.159  22.222  25.340  1.00  0.00     0.104 C 
ATOM     10  C   UNL A   1      34.096  21.867  26.778  1.00  0.00    -0.006 C 
ATOM     11  C   UNL A   1      33.495  23.595  25.220  1.00  0.00     0.046 C 
ATOM     12  C   UNL A   1      33.450  22.798  27.485  1.00  0.00    -0.016 C 
BRANCH   9  13
ATOM     13  N   UNL A   1      35.505  22.157  24.837  1.00  0.00    -0.359 N 
ATOM     14  H   UNL A   1      35.560  21.813  23.916  1.00  0.00     0.162 HD
BRANCH  13  15
ATOM     15  C   UNL A   1      36.733  22.473  25.374  1.00  0.00     0.193 A 
ATOM     16  C   UNL A   1      40.227  21.157  26.282  1.00  0.00     0.153 C 
ATOM     17  N   UNL A   1      39.072  22.016  26.120  1.00  0.00    -0.314 N 
ATOM     18  C   UNL A   1      39.071  23.305  26.585  1.00  0.00     0.109 A 
ATOM     19  C   UNL A   1      37.955  21.497  25.470  1.00  0.00     0.293 A 
ATOM     20  C   UNL A   1      37.997  24.084  26.425  1.00  0.00     0.131 A 
ATOM     21  O   UNL A   1      37.930  20.364  25.010  1.00  0.00    -0.265 OA
ATOM     22  N   UNL A   1      36.824  23.703  25.832  1.00  0.00    -0.233 NA
ENDBRANCH  13  15
ENDBRANCH   9  13
ENDBRANCH   5   8
ENDBRANCH   3   4
ENDBRANCH   2   3
ENDBRANCH   1   2
BRANCH   1  23
ATOM     23  C   UNL A   1      33.844  29.080  26.183  1.00  0.00     0.116 C 
BRANCH  23  24
ATOM     24  N   UNL A   1      33.782  30.456  26.653  1.00  0.00    -0.352 N 
ATOM     25  C   UNL A   1      34.587  31.110  27.556  1.00  0.00     0.251 C 
ATOM     26  H   UNL A   1      33.055  30.998  26.268  1.00  0.00     0.163 HD
ATOM     27  O   UNL A   1      34.287  32.235  27.944  1.00  0.00    -0.269 OA
BRANCH  25  28
ATOM     28  C   UNL A   1      35.794  30.438  28.086  1.00  0.00     0.039 A 
ATOM     29  C   UNL A   1      37.019  30.653  27.451  1.00  0.00     0.014 A 
ATOM     30  C   UNL A   1      35.725  29.635  29.228  1.00  0.00     0.014 A 
ATOM     31  C   UNL A   1      38.190  30.144  28.019  1.00  0.00     0.010 A 
ATOM     32  C   UNL A   1      36.899  29.196  29.834  1.00  0.00     0.010 A 
ATOM     33  C   UNL A   1      38.146  29.464  29.248  1.00  0.00    -0.014 A 
BRANCH  33  34
ATOM     34  C   UNL A   1      39.392  29.090  29.967  1.00  0.00     0.031 A 
ATOM     35  C   UNL A   1      39.825  29.842  31.194  1.00  0.00     0.074 A 
ATOM     36  C   UNL A   1      40.176  28.117  29.461  1.00  0.00     0.049 A 
ATOM     37  N   UNL A   1      40.910  29.691  31.910  1.00  0.00    -0.248 NA
ATOM     38  C   UNL A   1      38.937  30.915  31.665  1.00  0.00     0.031 C 
ATOM     39  C   UNL A   1      39.884  27.335  28.256  1.00  0.00     0.029 A 
ATOM     40  N   UNL A   1      41.382  27.621  29.890  1.00  0.00    -0.354 N 
ATOM     41  C   UNL A   1      40.840  30.654  32.911  1.00  0.00     0.074 A 
ATOM     42  C   UNL A   1      39.632  31.414  32.677  1.00  0.00     0.031 C 
ATOM     43  C   UNL A   1      40.865  26.440  28.063  1.00  0.00     0.029 A 
ATOM     44  C   UNL A   1      41.883  26.619  29.094  1.00  0.00     0.049 A 
ATOM     45  H   UNL A   1      41.846  27.953  30.694  1.00  0.00     0.167 HD
ATOM     46  C   UNL A   1      41.697  30.873  33.938  1.00  0.00     0.031 A 
ATOM     47  C   UNL A   1      43.037  25.927  29.169  1.00  0.00     0.031 A 
ATOM     48  C   UNL A   1      42.907  30.123  34.155  1.00  0.00     0.049 A 
ATOM     49  C   UNL A   1      43.999  26.228  30.284  1.00  0.00     0.074 A 
ATOM     50  C   UNL A   1      43.813  30.235  35.196  1.00  0.00     0.029 A 
ATOM     51  N   UNL A   1      43.391  29.135  33.310  1.00  0.00    -0.354 N 
ATOM     52  N   UNL A   1      43.876  27.086  31.267  1.00  0.00    -0.248 NA
ATOM     53  C   UNL A   1      45.256  25.467  30.299  1.00  0.00     0.031 C 
ATOM     54  C   UNL A   1      44.880  29.366  34.942  1.00  0.00     0.029 A 
ATOM     55  C   UNL A   1      44.606  28.662  33.779  1.00  0.00     0.049 A 
ATOM     56  H   UNL A   1      42.938  28.816  32.496  1.00  0.00     0.167 HD
ATOM     57  C   UNL A   1      45.034  26.960  32.027  1.00  0.00     0.074 A 
ATOM     58  C   UNL A   1      45.833  25.925  31.402  1.00  0.00     0.031 C 
ATOM     59  C   UNL A   1      45.403  27.643  33.139  1.00  0.00     0.031 A 
BRANCH  46  60
ATOM     60  C   UNL A   1      41.361  31.990  34.895  1.00  0.00    -0.014 A 
ATOM     61  C   UNL A   1      40.670  31.739  36.096  1.00  0.00     0.010 A 
ATOM     62  C   UNL A   1      41.760  33.307  34.602  1.00  0.00     0.010 A 
ATOM     63  C   UNL A   1      40.336  32.790  36.954  1.00  0.00     0.020 A 
ATOM     64  C   UNL A   1      41.457  34.357  35.475  1.00  0.00     0.020 A 
ATOM     65  C   UNL A   1      40.727  34.094  36.635  1.00  0.00     0.054 A 
BRANCH  65  66
ATOM     66  S   UNL A   1      40.274  35.436  37.767  1.00  0.00     0.124 S 
ATOM     67  O   UNL A   1      41.429  35.478  38.660  1.00  0.00    -0.237 OA
ATOM     68  O   UNL A   1      40.133  36.579  36.868  1.00  0.00    -0.237 OA
ATOM     69  O   UNL A   1      39.031  34.971  38.378  1.00  0.00    -0.744 OA
ENDBRANCH  65  66
ENDBRANCH  46  60
BRANCH  47  70
ATOM     70  C   UNL A   1      43.338  24.879  28.156  1.00  0.00    -0.014 A 
ATOM     71  C   UNL A   1      44.009  25.209  26.966  1.00  0.00     0.010 A 
ATOM     72  C   UNL A   1      42.987  23.535  28.391  1.00  0.00     0.010 A 
ATOM     73  C   UNL A   1      44.323  24.219  26.031  1.00  0.00     0.020 A 
ATOM     74  C   UNL A   1      43.327  22.538  27.473  1.00  0.00     0.020 A 
ATOM     75  C   UNL A   1      43.988  22.888  26.295  1.00  0.00     0.054 A 
BRANCH  75  76
ATOM     76  S   UNL A   1      44.478  21.613  25.101  1.00  0.00     0.124 S 
ATOM     77  O   UNL A   1      44.347  22.318  23.830  1.00  0.00    -0.237 OA
ATOM     78  O   UNL A   1      45.844  21.303  25.516  1.00  0.00    -0.237 OA
ATOM     79  O   UNL A   1      43.509  20.542  25.326  1.00  0.00    -0.744 OA
ENDBRANCH  75  76
ENDBRANCH  47  70
BRANCH  59  80
ATOM     80  C   UNL A   1      46.732  27.298  33.758  1.00  0.00    -0.014 A 
ATOM     81  C   UNL A   1      47.899  27.997  33.403  1.00  0.00     0.010 A 
ATOM     82  C   UNL A   1      46.805  26.307  34.754  1.00  0.00     0.010 A 
ATOM     83  C   UNL A   1      49.118  27.700  34.020  1.00  0.00     0.020 A 
ATOM     84  C   UNL A   1      48.014  26.027  35.394  1.00  0.00     0.020 A 
ATOM     85  C   UNL A   1      49.166  26.720  35.016  1.00  0.00     0.054 A 
BRANCH  85  86
ATOM     86  S   UNL A   1      50.748  26.402  35.845  1.00  0.00     0.124 S 
ATOM     87  O   UNL A   1      51.634  26.130  34.717  1.00  0.00    -0.237 OA
ATOM     88  O   UNL A   1      50.995  27.656  36.552  1.00  0.00    -0.237 OA
ATOM     89  O   UNL A   1      50.465  25.254  36.705  1.00  0.00    -0.744 OA
ENDBRANCH  85  86
ENDBRANCH  59  80
ENDBRANCH  33  34
ENDBRANCH  25  28
ENDBRANCH  23  24
ENDBRANCH   1  23
TORSDOF 16
ENDMDL
MODEL 3
REMARK VINA RESULT:     -10.7      2.696      9.486
REMARK SMILES Cn1ccnc(N[C@H]2C=C[C@H](C(=O)NCCCCNC(=O)c3ccc(-c4c5nc(c(-c6ccc(S(=O)(=O)[O-])cc6)c6ccc([nH]6)c(-c6ccc(S(=O)(=O)[O-])cc6)c6nc(c(-c7ccc(S(=O)(=O)[O-])cc7)c7ccc4[nH]7)C=C6)C=C5)cc3)C2)c1=O
REMARK SMILES IDX 17 1 16 2 15 3 14 4 12 5 13 6 11 8 8 9 9 10 82 11 10 12 7 13
REMARK SMILES IDX 6 15 1 16 2 17 3 18 83 19 4 20 84 21 5 22 18 23 19 24 20 25
REMARK SMILES IDX 21 27 22 28 23 29 81 30 24 31 80 32 25 33 26 34 27 35 74 36
REMARK SMILES IDX 28 37 79 38 73 39 75 40 29 41 78 42 72 43 71 44 30 46 60 47
REMARK SMILES IDX 41 48 59 49 42 50 45 51 58 52 76 53 43 54 44 55 57 57 77 58
REMARK SMILES IDX 46 59 31 60 32 61 40 62 33 63 39 64 34 65 35 66 36 67 37 68
REMARK SMILES IDX 38 69 61 70 62 71 70 72 63 73 69 74 64 75 65 76 66 77 67 78
REMARK SMILES IDX 68 79 47 80 48 81 56 82 49 83 55 84 50 85 51 86 52 87 53 88
REMARK SMILES IDX 54 89
REMARK H PARENT 14 7 7 14 19 26 75 45 45 56
REMARK Flexibility Score: inf
ROOT
ATOM      1  C   UNL A   1      36.086  23.303  25.977  1.00  0.00     0.023 C 
ENDROOT
BRANCH   1   2
ATOM      2  C   UNL A   1      35.650  21.853  26.173  1.00  0.00     0.023 C 
BRANCH   2   3
ATOM      3  C   UNL A   1      35.369  21.084  24.889  1.00  0.00     0.116 C 
BRANCH   3   4
ATOM      4  N   UNL A   1      34.135  20.317  24.942  1.00  0.00    -0.356 N 
ATOM      5  C   UNL A   1      32.846  20.786  24.910  1.00  0.00     0.227 C 
ATOM      6  O   UNL A   1      31.921  19.978  24.839  1.00  0.00    -0.274 OA
ATOM      7  H   UNL A   1      34.237  19.340  25.011  1.00  0.00     0.163 HD
BRANCH   5   8
ATOM      8  C   UNL A   1      32.638  22.296  24.964  1.00  0.00     0.103 C 
ATOM      9  C   UNL A   1      30.517  23.476  25.334  1.00  0.00     0.104 C 
ATOM     10  C   UNL A   1      30.869  23.443  23.894  1.00  0.00    -0.006 C 
ATOM     11  C   UNL A   1      31.660  22.766  26.059  1.00  0.00     0.046 C 
ATOM     12  C   UNL A   1      32.006  22.776  23.684  1.00  0.00    -0.016 C 
BRANCH   9  13
ATOM     13  N   UNL A   1      30.257  24.817  25.785  1.00  0.00    -0.359 N 
ATOM     14  H   UNL A   1      29.802  24.853  26.658  1.00  0.00     0.162 HD
BRANCH  13  15
ATOM     15  C   UNL A   1      30.510  26.062  25.252  1.00  0.00     0.193 A 
ATOM     16  C   UNL A   1      29.403  28.690  22.678  1.00  0.00     0.153 C 
ATOM     17  N   UNL A   1      30.133  27.995  23.718  1.00  0.00    -0.314 N 
ATOM     18  C   UNL A   1      31.273  28.524  24.264  1.00  0.00     0.109 A 
ATOM     19  C   UNL A   1      29.640  26.769  24.158  1.00  0.00     0.293 A 
ATOM     20  C   UNL A   1      31.933  27.870  25.223  1.00  0.00     0.131 A 
ATOM     21  O   UNL A   1      28.607  26.282  23.722  1.00  0.00    -0.265 OA
ATOM     22  N   UNL A   1      31.584  26.650  25.734  1.00  0.00    -0.233 NA
ENDBRANCH  13  15
ENDBRANCH   9  13
ENDBRANCH   5   8
ENDBRANCH   3   4
ENDBRANCH   2   3
ENDBRANCH   1   2
BRANCH   1  23
ATOM     23  C   UNL A   1      37.307  23.499  25.085  1.00  0.00     0.116 C 
BRANCH  23  24
ATOM     24  N   UNL A   1      38.426  22.646  25.458  1.00  0.00    -0.352 N 
ATOM     25  C   UNL A   1      39.565  22.955  26.164  1.00  0.00     0.251 C 
ATOM     26  H   UNL A   1      38.357  21.709  25.160  1.00  0.00     0.163 HD
ATOM     27  O   UNL A   1      40.474  22.135  26.252  1.00  0.00    -0.269 OA
BRANCH  25  28
ATOM     28  C   UNL A   1      39.707  24.292  26.782  1.00  0.00     0.039 A 
ATOM     29  C   UNL A   1      39.203  24.495  28.070  1.00  0.00     0.014 A 
ATOM     30  C   UNL A   1      40.369  25.325  26.115  1.00  0.00     0.014 A 
ATOM     31  C   UNL A   1      39.453  25.703  28.725  1.00  0.00     0.010 A 
ATOM     32  C   UNL A   1      40.683  26.497  26.798  1.00  0.00     0.010 A 
ATOM     33  C   UNL A   1      40.247  26.690  28.117  1.00  0.00    -0.014 A 
BRANCH  33  34
ATOM     34  C   UNL A   1      40.691  27.894  28.869  1.00  0.00     0.031 A 
ATOM     35  C   UNL A   1      42.038  27.931  29.533  1.00  0.00     0.074 A 
ATOM     36  C   UNL A   1      39.837  28.927  29.018  1.00  0.00     0.049 A 
ATOM     37  N   UNL A   1      42.563  28.873  30.277  1.00  0.00    -0.248 NA
ATOM     38  C   UNL A   1      42.900  26.753  29.356  1.00  0.00     0.031 C 
ATOM     39  C   UNL A   1      38.486  28.998  28.453  1.00  0.00     0.029 A 
ATOM     40  N   UNL A   1      39.972  30.113  29.696  1.00  0.00    -0.354 N 
ATOM     41  C   UNL A   1      43.810  28.398  30.664  1.00  0.00     0.074 A 
ATOM     42  C   UNL A   1      43.941  27.066  30.115  1.00  0.00     0.031 C 
ATOM     43  C   UNL A   1      37.933  30.176  28.779  1.00  0.00     0.029 A 
ATOM     44  C   UNL A   1      38.863  30.922  29.623  1.00  0.00     0.049 A 
ATOM     45  H   UNL A   1      40.788  30.362  30.189  1.00  0.00     0.167 HD
ATOM     46  C   UNL A   1      44.765  29.021  31.398  1.00  0.00     0.031 A 
ATOM     47  C   UNL A   1      38.608  32.122  30.180  1.00  0.00     0.031 A 
ATOM     48  C   UNL A   1      44.621  30.341  31.956  1.00  0.00     0.049 A 
ATOM     49  C   UNL A   1      39.660  32.768  31.038  1.00  0.00     0.074 A 
ATOM     50  C   UNL A   1      45.551  31.079  32.669  1.00  0.00     0.029 A 
ATOM     51  N   UNL A   1      43.472  31.114  31.880  1.00  0.00    -0.354 N 
ATOM     52  N   UNL A   1      40.865  32.338  31.325  1.00  0.00    -0.248 NA
ATOM     53  C   UNL A   1      39.317  34.060  31.647  1.00  0.00     0.031 C 
ATOM     54  C   UNL A   1      44.939  32.266  33.086  1.00  0.00     0.029 A 
ATOM     55  C   UNL A   1      43.651  32.300  32.575  1.00  0.00     0.049 A 
ATOM     56  H   UNL A   1      42.649  30.858  31.405  1.00  0.00     0.167 HD
ATOM     57  C   UNL A   1      41.431  33.314  32.139  1.00  0.00     0.074 A 
ATOM     58  C   UNL A   1      40.443  34.366  32.277  1.00  0.00     0.031 C 
ATOM     59  C   UNL A   1      42.655  33.334  32.721  1.00  0.00     0.031 A 
BRANCH  46  60
ATOM     60  C   UNL A   1      46.045  28.265  31.656  1.00  0.00    -0.014 A 
ATOM     61  C   UNL A   1      47.167  28.422  30.821  1.00  0.00     0.010 A 
ATOM     62  C   UNL A   1      46.137  27.402  32.763  1.00  0.00     0.010 A 
ATOM     63  C   UNL A   1      48.333  27.688  31.054  1.00  0.00     0.020 A 
ATOM     64  C   UNL A   1      47.313  26.691  33.019  1.00  0.00     0.020 A 
ATOM     65  C   UNL A   1      48.396  26.822  32.149  1.00  0.00     0.054 A 
BRANCH  65  66
ATOM     66  S   UNL A   1      49.922  25.880  32.422  1.00  0.00     0.124 S 
ATOM     67  O   UNL A   1      49.696  25.321  33.752  1.00  0.00    -0.237 OA
ATOM     68  O   UNL A   1      49.904  24.917  31.324  1.00  0.00    -0.237 OA
ATOM     69  O   UNL A   1      50.973  26.892  32.343  1.00  0.00    -0.744 OA
ENDBRANCH  65  66
ENDBRANCH  46  60
BRANCH  47  70
ATOM     70  C   UNL A   1      37.300  32.787  29.936  1.00  0.00    -0.014 A 
ATOM     71  C   UNL A   1      36.249  32.654  30.860  1.00  0.00     0.010 A 
ATOM     72  C   UNL A   1      37.107  33.590  28.794  1.00  0.00     0.010 A 
ATOM     73  C   UNL A   1      35.032  33.309  30.648  1.00  0.00     0.020 A 
ATOM     74  C   UNL A   1      35.903  34.270  28.596  1.00  0.00     0.020 A 
ATOM     75  C   UNL A   1      34.870  34.120  29.522  1.00  0.00     0.054 A 
BRANCH  75  76
ATOM     76  S   UNL A   1      33.309  35.020  29.313  1.00  0.00     0.124 S 
ATOM     77  O   UNL A   1      33.768  36.322  28.839  1.00  0.00    -0.237 OA
ATOM     78  O   UNL A   1      32.603  34.200  28.331  1.00  0.00    -0.237 OA
ATOM     79  O   UNL A   1      32.727  35.012  30.654  1.00  0.00    -0.744 OA
ENDBRANCH  75  76
ENDBRANCH  47  70
BRANCH  59  80
ATOM     80  C   UNL A   1      43.003  34.531  33.566  1.00  0.00    -0.014 A 
ATOM     81  C   UNL A   1      42.848  34.500  34.964  1.00  0.00     0.010 A 
ATOM     82  C   UNL A   1      43.553  35.678  32.964  1.00  0.00     0.010 A 
ATOM     83  C   UNL A   1      43.221  35.600  35.742  1.00  0.00     0.020 A 
ATOM     84  C   UNL A   1      43.955  36.767  33.740  1.00  0.00     0.020 A 
ATOM     85  C   UNL A   1      43.777  36.725  35.125  1.00  0.00     0.054 A 
BRANCH  85  86
ATOM     86  S   UNL A   1      44.312  38.111  36.166  1.00  0.00     0.124 S 
ATOM     87  O   UNL A   1      45.730  37.818  36.358  1.00  0.00    -0.237 OA
ATOM     88  O   UNL A   1      44.016  39.270  35.330  1.00  0.00    -0.237 OA
ATOM     89  O   UNL A   1      43.483  37.985  37.364  1.00  0.00    -0.744 OA
ENDBRANCH  85  86
ENDBRANCH  59  80
ENDBRANCH  33  34
ENDBRANCH  25  28
ENDBRANCH  23  24
ENDBRANCH   1  23
TORSDOF 16
ENDMDL
