MODEL 1
REMARK VINA RESULT:     -13.5      0.000      0.000
REMARK SMILES CC1(C)Oc2ccc(NC(=O)[C@H]3CC=CC[C@@H]3C(=O)NCCCCNC(=O)c3ccc(-c4c5nc(c(-c6ccc(S(=O)(=O)[O-])cc6)c6ccc([nH]6)c(-c6ccc(S(=O)(=O)[O-])cc6)c6nc(c(-c7ccc(S(=O)(=O)[O-])cc7)c7ccc4[nH]7)C=C6)C=C5)cc3)cc2NC1=O
REMARK SMILES IDX 23 1 22 2 21 3 20 4 18 5 19 6 17 8 12 9 13 10 14 11 16 12
REMARK SMILES IDX 15 13 10 14 9 15 11 17 8 18 1 19 2 20 3 21 4 22 91 23 5 24
REMARK SMILES IDX 90 25 92 26 6 27 89 28 7 30 88 31 24 32 25 33 26 34 27 36
REMARK SMILES IDX 28 37 29 38 87 39 30 40 86 41 31 42 32 43 33 44 80 45 34 46
REMARK SMILES IDX 85 47 79 48 81 49 35 50 84 51 78 52 77 53 36 55 66 56 47 57
REMARK SMILES IDX 65 58 48 59 51 60 64 61 82 62 49 63 50 64 63 66 83 67 52 68
REMARK SMILES IDX 37 69 38 70 46 71 39 72 45 73 40 74 41 75 42 76 43 77 44 78
REMARK SMILES IDX 67 79 68 80 76 81 69 82 75 83 70 84 71 85 72 86 73 87 74 88
REMARK SMILES IDX 53 89 54 90 62 91 55 92 61 93 56 94 57 95 58 96 59 97 60 98
REMARK H PARENT 20 7 9 16 90 29 25 35 81 54 51 65
REMARK Flexibility Score: inf
ROOT
ATOM      1  C   UNL A   1      37.475  24.063  26.203  1.00  0.00     0.023 C 
ENDROOT
BRANCH   1   2
ATOM      2  C   UNL A   1      37.379  22.897  25.224  1.00  0.00     0.023 C 
BRANCH   2   3
ATOM      3  C   UNL A   1      36.541  21.723  25.722  1.00  0.00     0.116 C 
BRANCH   3   4
ATOM      4  N   UNL A   1      35.555  22.115  26.715  1.00  0.00    -0.356 N 
ATOM      5  C   UNL A   1      34.285  22.609  26.572  1.00  0.00     0.224 C 
ATOM      6  O   UNL A   1      33.619  22.780  27.592  1.00  0.00    -0.275 OA
ATOM      7  H   UNL A   1      35.850  22.008  27.649  1.00  0.00     0.163 HD
BRANCH   5   8
ATOM      8  C   UNL A   1      33.731  22.864  25.169  1.00  0.00     0.095 C 
ATOM      9  C   UNL A   1      33.639  24.362  24.842  1.00  0.00     0.095 C 
ATOM     10  C   UNL A   1      32.475  24.975  25.680  1.00  0.00     0.041 C 
ATOM     11  C   UNL A   1      31.220  24.151  25.686  1.00  0.00    -0.030 C 
ATOM     12  C   UNL A   1      32.415  22.118  24.898  1.00  0.00     0.041 C 
ATOM     13  C   UNL A   1      31.189  22.866  25.313  1.00  0.00    -0.030 C 
BRANCH   9  14
ATOM     14  C   UNL A   1      33.555  24.865  23.378  1.00  0.00     0.228 C 
ATOM     15  N   UNL A   1      32.903  25.945  22.871  1.00  0.00    -0.326 N 
ATOM     16  H   UNL A   1      33.083  26.062  21.910  1.00  0.00     0.169 HD
ATOM     17  O   UNL A   1      34.140  24.206  22.500  1.00  0.00    -0.274 OA
BRANCH  15  18
ATOM     18  C   UNL A   1      32.044  26.936  23.358  1.00  0.00     0.043 A 
ATOM     19  C   UNL A   1      27.579  31.399  23.575  1.00  0.00     0.067 C 
ATOM     20  C   UNL A   1      28.391  30.225  23.028  1.00  0.00     0.182 C 
ATOM     21  C   UNL A   1      28.579  30.425  21.509  1.00  0.00     0.067 C 
ATOM     22  O   UNL A   1      29.653  30.286  23.707  1.00  0.00    -0.476 OA
ATOM     23  C   UNL A   1      27.639  28.886  23.209  1.00  0.00     0.268 C 
ATOM     24  C   UNL A   1      30.359  29.119  23.708  1.00  0.00     0.144 A 
ATOM     25  N   UNL A   1      28.453  27.779  23.123  1.00  0.00    -0.319 N 
ATOM     26  O   UNL A   1      26.419  28.773  23.291  1.00  0.00    -0.270 OA
ATOM     27  C   UNL A   1      31.653  29.165  24.199  1.00  0.00     0.051 A 
ATOM     28  C   UNL A   1      29.834  27.897  23.292  1.00  0.00     0.086 A 
ATOM     29  H   UNL A   1      28.058  26.895  22.938  1.00  0.00     0.170 HD
ATOM     30  C   UNL A   1      32.462  28.034  24.094  1.00  0.00     0.030 A 
ATOM     31  C   UNL A   1      30.677  26.802  23.098  1.00  0.00     0.056 A 
ENDBRANCH  15  18
ENDBRANCH   9  14
ENDBRANCH   5   8
ENDBRANCH   3   4
ENDBRANCH   2   3
ENDBRANCH   1   2
BRANCH   1  32
ATOM     32  C   UNL A   1      38.813  24.179  26.922  1.00  0.00     0.116 C 
BRANCH  32  33
ATOM     33  N   UNL A   1      39.856  24.777  26.100  1.00  0.00    -0.352 N 
ATOM     34  C   UNL A   1      40.466  26.009  26.236  1.00  0.00     0.251 C 
ATOM     35  H   UNL A   1      40.169  24.228  25.345  1.00  0.00     0.163 HD
ATOM     36  O   UNL A   1      41.237  26.415  25.382  1.00  0.00    -0.269 OA
BRANCH  34  37
ATOM     37  C   UNL A   1      40.130  26.846  27.411  1.00  0.00     0.039 A 
ATOM     38  C   UNL A   1      40.490  28.194  27.441  1.00  0.00     0.014 A 
ATOM     39  C   UNL A   1      39.528  26.252  28.523  1.00  0.00     0.014 A 
ATOM     40  C   UNL A   1      40.443  28.885  28.645  1.00  0.00     0.010 A 
ATOM     41  C   UNL A   1      39.389  26.985  29.705  1.00  0.00     0.010 A 
ATOM     42  C   UNL A   1      39.906  28.286  29.797  1.00  0.00    -0.014 A 
BRANCH  42  43
ATOM     43  C   UNL A   1      39.920  29.032  31.084  1.00  0.00     0.031 A 
ATOM     44  C   UNL A   1      41.068  28.891  32.049  1.00  0.00     0.074 A 
ATOM     45  C   UNL A   1      38.926  29.902  31.351  1.00  0.00     0.049 A 
ATOM     46  N   UNL A   1      41.261  29.502  33.191  1.00  0.00    -0.248 NA
ATOM     47  C   UNL A   1      42.140  27.947  31.691  1.00  0.00     0.031 C 
ATOM     48  C   UNL A   1      37.776  30.153  30.478  1.00  0.00     0.029 A 
ATOM     49  N   UNL A   1      38.739  30.761  32.404  1.00  0.00    -0.354 N 
ATOM     50  C   UNL A   1      42.463  29.012  33.690  1.00  0.00     0.074 A 
ATOM     51  C   UNL A   1      42.937  28.023  32.748  1.00  0.00     0.031 C 
ATOM     52  C   UNL A   1      37.045  31.150  30.994  1.00  0.00     0.029 A 
ATOM     53  C   UNL A   1      37.627  31.559  32.270  1.00  0.00     0.049 A 
ATOM     54  H   UNL A   1      39.343  30.804  33.180  1.00  0.00     0.167 HD
ATOM     55  C   UNL A   1      43.119  29.365  34.822  1.00  0.00     0.031 A 
ATOM     56  C   UNL A   1      37.117  32.510  33.079  1.00  0.00     0.031 A 
ATOM     57  C   UNL A   1      42.643  30.352  35.756  1.00  0.00     0.049 A 
ATOM     58  C   UNL A   1      37.824  32.839  34.360  1.00  0.00     0.074 A 
ATOM     59  C   UNL A   1      43.238  30.775  36.932  1.00  0.00     0.029 A 
ATOM     60  N   UNL A   1      41.464  31.072  35.625  1.00  0.00    -0.354 N 
ATOM     61  N   UNL A   1      38.951  32.354  34.819  1.00  0.00    -0.248 NA
ATOM     62  C   UNL A   1      37.194  33.839  35.233  1.00  0.00     0.031 C 
ATOM     63  C   UNL A   1      42.391  31.703  37.543  1.00  0.00     0.029 A 
ATOM     64  C   UNL A   1      41.301  31.915  36.712  1.00  0.00     0.049 A 
ATOM     65  H   UNL A   1      40.837  30.995  34.871  1.00  0.00     0.167 HD
ATOM     66  C   UNL A   1      39.170  32.990  36.035  1.00  0.00     0.074 A 
ATOM     67  C   UNL A   1      38.069  33.911  36.229  1.00  0.00     0.031 C 
ATOM     68  C   UNL A   1      40.193  32.819  36.909  1.00  0.00     0.031 A 
BRANCH  55  69
ATOM     69  C   UNL A   1      44.427  28.676  35.126  1.00  0.00    -0.014 A 
ATOM     70  C   UNL A   1      45.624  29.165  34.570  1.00  0.00     0.010 A 
ATOM     71  C   UNL A   1      44.466  27.499  35.896  1.00  0.00     0.010 A 
ATOM     72  C   UNL A   1      46.831  28.487  34.766  1.00  0.00     0.020 A 
ATOM     73  C   UNL A   1      45.676  26.834  36.120  1.00  0.00     0.020 A 
ATOM     74  C   UNL A   1      46.848  27.323  35.539  1.00  0.00     0.054 A 
BRANCH  74  75
ATOM     75  S   UNL A   1      48.426  26.467  35.805  1.00  0.00     0.124 S 
ATOM     76  O   UNL A   1      48.819  26.948  37.125  1.00  0.00    -0.237 OA
ATOM     77  O   UNL A   1      48.042  25.058  35.734  1.00  0.00    -0.237 OA
ATOM     78  O   UNL A   1      49.255  26.930  34.694  1.00  0.00    -0.744 OA
ENDBRANCH  74  75
ENDBRANCH  55  69
BRANCH  56  79
ATOM     79  C   UNL A   1      35.881  33.219  32.648  1.00  0.00    -0.014 A 
ATOM     80  C   UNL A   1      35.944  34.208  31.647  1.00  0.00     0.010 A 
ATOM     81  C   UNL A   1      34.675  33.020  33.340  1.00  0.00     0.010 A 
ATOM     82  C   UNL A   1      34.850  35.043  31.408  1.00  0.00     0.020 A 
ATOM     83  C   UNL A   1      33.567  33.834  33.081  1.00  0.00     0.020 A 
ATOM     84  C   UNL A   1      33.677  34.866  32.146  1.00  0.00     0.054 A 
BRANCH  84  85
ATOM     85  S   UNL A   1      32.313  36.037  31.903  1.00  0.00     0.124 S 
ATOM     86  O   UNL A   1      32.235  36.103  30.446  1.00  0.00    -0.237 OA
ATOM     87  O   UNL A   1      31.195  35.369  32.564  1.00  0.00    -0.237 OA
ATOM     88  O   UNL A   1      32.785  37.254  32.559  1.00  0.00    -0.744 OA
ENDBRANCH  84  85
ENDBRANCH  56  79
BRANCH  68  89
ATOM     89  C   UNL A   1      40.185  33.627  38.180  1.00  0.00    -0.014 A 
ATOM     90  C   UNL A   1      39.601  33.092  39.344  1.00  0.00     0.010 A 
ATOM     91  C   UNL A   1      40.626  34.962  38.185  1.00  0.00     0.010 A 
ATOM     92  C   UNL A   1      39.419  33.890  40.476  1.00  0.00     0.020 A 
ATOM     93  C   UNL A   1      40.471  35.755  39.326  1.00  0.00     0.020 A 
ATOM     94  C   UNL A   1      39.843  35.221  40.455  1.00  0.00     0.054 A 
BRANCH  94  95
ATOM     95  S   UNL A   1      39.551  36.256  41.916  1.00  0.00     0.124 S 
ATOM     96  O   UNL A   1      39.488  37.595  41.337  1.00  0.00    -0.237 OA
ATOM     97  O   UNL A   1      38.289  35.732  42.434  1.00  0.00    -0.237 OA
ATOM     98  O   UNL A   1      40.716  35.996  42.759  1.00  0.00    -0.744 OA
ENDBRANCH  94  95
ENDBRANCH  68  89
ENDBRANCH  42  43
ENDBRANCH  34  37
ENDBRANCH  32  33
ENDBRANCH   1  32
TORSDOF 16
ENDMDL
MODEL 2
REMARK VINA RESULT:     -13.2      1.145      7.839
REMARK SMILES CC1(C)Oc2ccc(NC(=O)[C@H]3CC=CC[C@@H]3C(=O)NCCCCNC(=O)c3ccc(-c4c5nc(c(-c6ccc(S(=O)(=O)[O-])cc6)c6ccc([nH]6)c(-c6ccc(S(=O)(=O)[O-])cc6)c6nc(c(-c7ccc(S(=O)(=O)[O-])cc7)c7ccc4[nH]7)C=C6)C=C5)cc3)cc2NC1=O
REMARK SMILES IDX 23 1 22 2 21 3 20 4 18 5 19 6 17 8 12 9 13 10 14 11 16 12
REMARK SMILES IDX 15 13 10 14 9 15 11 17 8 18 1 19 2 20 3 21 4 22 91 23 5 24
REMARK SMILES IDX 90 25 92 26 6 27 89 28 7 30 88 31 24 32 25 33 26 34 27 36
REMARK SMILES IDX 28 37 29 38 87 39 30 40 86 41 31 42 32 43 33 44 80 45 34 46
REMARK SMILES IDX 85 47 79 48 81 49 35 50 84 51 78 52 77 53 36 55 66 56 47 57
REMARK SMILES IDX 65 58 48 59 51 60 64 61 82 62 49 63 50 64 63 66 83 67 52 68
REMARK SMILES IDX 37 69 38 70 46 71 39 72 45 73 40 74 41 75 42 76 43 77 44 78
REMARK SMILES IDX 67 79 68 80 76 81 69 82 75 83 70 84 71 85 72 86 73 87 74 88
REMARK SMILES IDX 53 89 54 90 62 91 55 92 61 93 56 94 57 95 58 96 59 97 60 98
REMARK H PARENT 20 7 9 16 90 29 25 35 81 54 51 65
REMARK Flexibility Score: inf
ROOT
ATOM      1  C   UNL A   1      37.735  24.064  26.104  1.00  0.00     0.023 C 
ENDROOT
BRANCH   1   2
ATOM      2  C   UNL A   1      37.383  23.036  25.034  1.00  0.00     0.023 C 
BRANCH   2   3
ATOM      3  C   UNL A   1      36.677  21.791  25.562  1.00  0.00     0.116 C 
BRANCH   3   4
ATOM      4  N   UNL A   1      35.706  22.092  26.602  1.00  0.00    -0.356 N 
ATOM      5  C   UNL A   1      34.396  22.479  26.519  1.00  0.00     0.224 C 
ATOM      6  O   UNL A   1      33.763  22.586  27.568  1.00  0.00    -0.275 OA
ATOM      7  H   UNL A   1      36.050  22.002  27.521  1.00  0.00     0.163 HD
BRANCH   5   8
ATOM      8  C   UNL A   1      33.762  22.700  25.143  1.00  0.00     0.095 C 
ATOM      9  C   UNL A   1      33.684  24.188  24.768  1.00  0.00     0.095 C 
ATOM     10  C   UNL A   1      32.590  24.859  25.654  1.00  0.00     0.041 C 
ATOM     11  C   UNL A   1      31.318  24.068  25.766  1.00  0.00    -0.030 C 
ATOM     12  C   UNL A   1      32.414  21.978  24.981  1.00  0.00     0.041 C 
ATOM     13  C   UNL A   1      31.234  22.772  25.443  1.00  0.00    -0.030 C 
BRANCH   9  14
ATOM     14  C   UNL A   1      33.522  24.640  23.295  1.00  0.00     0.228 C 
ATOM     15  N   UNL A   1      32.860  25.715  22.789  1.00  0.00    -0.326 N 
ATOM     16  H   UNL A   1      32.984  25.795  21.816  1.00  0.00     0.169 HD
ATOM     17  O   UNL A   1      34.042  23.941  22.408  1.00  0.00    -0.274 OA
BRANCH  15  18
ATOM     18  C   UNL A   1      32.048  26.738  23.291  1.00  0.00     0.043 A 
ATOM     19  C   UNL A   1      27.723  31.331  23.596  1.00  0.00     0.067 C 
ATOM     20  C   UNL A   1      28.480  30.125  23.040  1.00  0.00     0.182 C 
ATOM     21  C   UNL A   1      28.615  30.294  21.511  1.00  0.00     0.067 C 
ATOM     22  O   UNL A   1      29.767  30.161  23.670  1.00  0.00    -0.476 OA
ATOM     23  C   UNL A   1      27.697  28.812  23.273  1.00  0.00     0.268 C 
ATOM     24  C   UNL A   1      30.440  28.975  23.665  1.00  0.00     0.144 A 
ATOM     25  N   UNL A   1      28.475  27.680  23.176  1.00  0.00    -0.319 N 
ATOM     26  O   UNL A   1      26.479  28.735  23.403  1.00  0.00    -0.270 OA
ATOM     27  C   UNL A   1      31.752  28.991  24.106  1.00  0.00     0.051 A 
ATOM     28  C   UNL A   1      29.865  27.762  23.291  1.00  0.00     0.086 A 
ATOM     29  H   UNL A   1      28.049  26.806  23.022  1.00  0.00     0.170 HD
ATOM     30  C   UNL A   1      32.524  27.836  23.991  1.00  0.00     0.030 A 
ATOM     31  C   UNL A   1      30.668  26.640  23.085  1.00  0.00     0.056 A 
ENDBRANCH  15  18
ENDBRANCH   9  14
ENDBRANCH   5   8
ENDBRANCH   3   4
ENDBRANCH   2   3
ENDBRANCH   1   2
BRANCH   1  32
ATOM     32  C   UNL A   1      38.933  23.695  26.969  1.00  0.00     0.116 C 
BRANCH  32  33
ATOM     33  N   UNL A   1      40.211  23.935  26.312  1.00  0.00    -0.352 N 
ATOM     34  C   UNL A   1      41.044  25.032  26.413  1.00  0.00     0.251 C 
ATOM     35  H   UNL A   1      40.522  23.217  25.714  1.00  0.00     0.163 HD
ATOM     36  O   UNL A   1      42.024  25.133  25.692  1.00  0.00    -0.269 OA
BRANCH  34  37
ATOM     37  C   UNL A   1      40.701  26.104  27.376  1.00  0.00     0.039 A 
ATOM     38  C   UNL A   1      41.262  27.374  27.245  1.00  0.00     0.014 A 
ATOM     39  C   UNL A   1      39.878  25.804  28.465  1.00  0.00     0.014 A 
ATOM     40  C   UNL A   1      41.174  28.271  28.303  1.00  0.00     0.010 A 
ATOM     41  C   UNL A   1      39.710  26.749  29.482  1.00  0.00     0.010 A 
ATOM     42  C   UNL A   1      40.410  27.964  29.442  1.00  0.00    -0.014 A 
BRANCH  42  43
ATOM     43  C   UNL A   1      40.380  28.921  30.581  1.00  0.00     0.031 A 
ATOM     44  C   UNL A   1      39.358  30.026  30.639  1.00  0.00     0.074 A 
ATOM     45  C   UNL A   1      41.232  28.745  31.610  1.00  0.00     0.049 A 
ATOM     46  N   UNL A   1      39.163  30.917  31.579  1.00  0.00    -0.248 NA
ATOM     47  C   UNL A   1      38.434  30.152  29.499  1.00  0.00     0.031 C 
ATOM     48  C   UNL A   1      42.245  27.690  31.687  1.00  0.00     0.029 A 
ATOM     49  N   UNL A   1      41.361  29.418  32.799  1.00  0.00    -0.354 N 
ATOM     50  C   UNL A   1      38.107  31.710  31.142  1.00  0.00     0.074 A 
ATOM     51  C   UNL A   1      37.728  31.223  29.834  1.00  0.00     0.031 C 
ATOM     52  C   UNL A   1      42.839  27.740  32.887  1.00  0.00     0.029 A 
ATOM     53  C   UNL A   1      42.307  28.876  33.636  1.00  0.00     0.049 A 
ATOM     54  H   UNL A   1      40.826  30.211  33.031  1.00  0.00     0.167 HD
ATOM     55  C   UNL A   1      37.499  32.739  31.780  1.00  0.00     0.031 A 
ATOM     56  C   UNL A   1      42.716  29.246  34.867  1.00  0.00     0.031 A 
ATOM     57  C   UNL A   1      37.880  33.220  33.083  1.00  0.00     0.049 A 
ATOM     58  C   UNL A   1      42.075  30.430  35.528  1.00  0.00     0.074 A 
ATOM     59  C   UNL A   1      37.324  34.259  33.808  1.00  0.00     0.029 A 
ATOM     60  N   UNL A   1      38.906  32.697  33.858  1.00  0.00    -0.354 N 
ATOM     61  N   UNL A   1      41.089  31.174  35.092  1.00  0.00    -0.248 NA
ATOM     62  C   UNL A   1      42.599  30.827  36.841  1.00  0.00     0.031 C 
ATOM     63  C   UNL A   1      38.052  34.405  34.992  1.00  0.00     0.029 A 
ATOM     64  C   UNL A   1      39.016  33.410  35.040  1.00  0.00     0.049 A 
ATOM     65  H   UNL A   1      39.471  31.932  33.604  1.00  0.00     0.167 HD
ATOM     66  C   UNL A   1      40.870  32.129  36.078  1.00  0.00     0.074 A 
ATOM     67  C   UNL A   1      41.813  31.853  37.143  1.00  0.00     0.031 C 
ATOM     68  C   UNL A   1      39.969  33.141  36.091  1.00  0.00     0.031 A 
BRANCH  55  69
ATOM     69  C   UNL A   1      36.357  33.432  31.077  1.00  0.00    -0.014 A 
ATOM     70  C   UNL A   1      36.546  33.968  29.790  1.00  0.00     0.010 A 
ATOM     71  C   UNL A   1      35.120  33.624  31.719  1.00  0.00     0.010 A 
ATOM     72  C   UNL A   1      35.529  34.692  29.162  1.00  0.00     0.020 A 
ATOM     73  C   UNL A   1      34.088  34.322  31.082  1.00  0.00     0.020 A 
ATOM     74  C   UNL A   1      34.305  34.867  29.814  1.00  0.00     0.054 A 
BRANCH  74  75
ATOM     75  S   UNL A   1      32.985  35.788  28.978  1.00  0.00     0.124 S 
ATOM     76  O   UNL A   1      33.733  36.813  28.257  1.00  0.00    -0.237 OA
ATOM     77  O   UNL A   1      32.355  34.763  28.147  1.00  0.00    -0.237 OA
ATOM     78  O   UNL A   1      32.158  36.274  30.081  1.00  0.00    -0.744 OA
ENDBRANCH  74  75
ENDBRANCH  55  69
BRANCH  56  79
ATOM     79  C   UNL A   1      43.774  28.439  35.535  1.00  0.00    -0.014 A 
ATOM     80  C   UNL A   1      43.423  27.341  36.344  1.00  0.00     0.010 A 
ATOM     81  C   UNL A   1      45.115  28.856  35.490  1.00  0.00     0.010 A 
ATOM     82  C   UNL A   1      44.376  26.732  37.163  1.00  0.00     0.020 A 
ATOM     83  C   UNL A   1      46.079  28.228  36.286  1.00  0.00     0.020 A 
ATOM     84  C   UNL A   1      45.693  27.198  37.147  1.00  0.00     0.054 A 
BRANCH  84  85
ATOM     85  S   UNL A   1      46.885  26.471  38.305  1.00  0.00     0.124 S 
ATOM     86  O   UNL A   1      46.446  27.036  39.578  1.00  0.00    -0.237 OA
ATOM     87  O   UNL A   1      46.659  25.038  38.140  1.00  0.00    -0.237 OA
ATOM     88  O   UNL A   1      48.175  26.956  37.818  1.00  0.00    -0.744 OA
ENDBRANCH  84  85
ENDBRANCH  56  79
BRANCH  68  89
ATOM     89  C   UNL A   1      39.948  34.060  37.285  1.00  0.00    -0.014 A 
ATOM     90  C   UNL A   1      39.090  33.782  38.366  1.00  0.00     0.010 A 
ATOM     91  C   UNL A   1      40.669  35.267  37.275  1.00  0.00     0.010 A 
ATOM     92  C   UNL A   1      38.920  34.713  39.393  1.00  0.00     0.020 A 
ATOM     93  C   UNL A   1      40.523  36.189  38.316  1.00  0.00     0.020 A 
ATOM     94  C   UNL A   1      39.627  35.917  39.354  1.00  0.00     0.054 A 
BRANCH  94  95
ATOM     95  S   UNL A   1      39.355  37.135  40.671  1.00  0.00     0.124 S 
ATOM     96  O   UNL A   1      38.334  37.999  40.084  1.00  0.00    -0.237 OA
ATOM     97  O   UNL A   1      38.912  36.305  41.789  1.00  0.00    -0.237 OA
ATOM     98  O   UNL A   1      40.668  37.751  40.845  1.00  0.00    -0.744 OA
ENDBRANCH  94  95
ENDBRANCH  68  89
ENDBRANCH  42  43
ENDBRANCH  34  37
ENDBRANCH  32  33
ENDBRANCH   1  32
TORSDOF 16
ENDMDL
MODEL 3
REMARK VINA RESULT:     -13.1      4.081      6.006
REMARK SMILES CC1(C)Oc2ccc(NC(=O)[C@H]3CC=CC[C@@H]3C(=O)NCCCCNC(=O)c3ccc(-c4c5nc(c(-c6ccc(S(=O)(=O)[O-])cc6)c6ccc([nH]6)c(-c6ccc(S(=O)(=O)[O-])cc6)c6nc(c(-c7ccc(S(=O)(=O)[O-])cc7)c7ccc4[nH]7)C=C6)C=C5)cc3)cc2NC1=O
REMARK SMILES IDX 23 1 22 2 21 3 20 4 18 5 19 6 17 8 12 9 13 10 14 11 16 12
REMARK SMILES IDX 15 13 10 14 9 15 11 17 8 18 1 19 2 20 3 21 4 22 91 23 5 24
REMARK SMILES IDX 90 25 92 26 6 27 89 28 7 30 88 31 24 32 25 33 26 34 27 36
REMARK SMILES IDX 28 37 29 38 87 39 30 40 86 41 31 42 32 43 33 44 80 45 34 46
REMARK SMILES IDX 85 47 79 48 81 49 35 50 84 51 78 52 77 53 36 55 66 56 47 57
REMARK SMILES IDX 65 58 48 59 51 60 64 61 82 62 49 63 50 64 63 66 83 67 52 68
REMARK SMILES IDX 37 69 38 70 46 71 39 72 45 73 40 74 41 75 42 76 43 77 44 78
REMARK SMILES IDX 67 79 68 80 76 81 69 82 75 83 70 84 71 85 72 86 73 87 74 88
REMARK SMILES IDX 53 89 54 90 62 91 55 92 61 93 56 94 57 95 58 96 59 97 60 98
REMARK H PARENT 20 7 9 16 90 29 25 35 81 54 51 65
REMARK Flexibility Score: inf
ROOT
ATOM      1  C   UNL A   1      36.581  22.898  23.389  1.00  0.00     0.023 C 
ENDROOT
BRANCH   1   2
ATOM      2  C   UNL A   1      35.183  23.405  23.053  1.00  0.00     0.023 C 
BRANCH   2   3
ATOM      3  C   UNL A   1      34.758  24.646  23.831  1.00  0.00     0.116 C 
BRANCH   3   4
ATOM      4  N   UNL A   1      34.390  25.755  22.965  1.00  0.00    -0.356 N 
ATOM      5  C   UNL A   1      33.815  26.964  23.253  1.00  0.00     0.224 C 
ATOM      6  O   UNL A   1      33.688  27.771  22.333  1.00  0.00    -0.275 OA
ATOM      7  H   UNL A   1      34.586  25.612  22.010  1.00  0.00     0.163 HD
BRANCH   5   8
ATOM      8  C   UNL A   1      33.418  27.284  24.696  1.00  0.00     0.095 C 
ATOM      9  C   UNL A   1      31.982  26.845  25.017  1.00  0.00     0.095 C 
ATOM     10  C   UNL A   1      31.000  27.803  24.275  1.00  0.00     0.041 C 
ATOM     11  C   UNL A   1      31.358  29.257  24.381  1.00  0.00    -0.030 C 
ATOM     12  C   UNL A   1      33.689  28.748  25.083  1.00  0.00     0.041 C 
ATOM     13  C   UNL A   1      32.567  29.683  24.766  1.00  0.00    -0.030 C 
BRANCH   9  14
ATOM     14  C   UNL A   1      31.510  26.636  26.479  1.00  0.00     0.228 C 
ATOM     15  N   UNL A   1      31.332  25.479  27.172  1.00  0.00    -0.326 N 
ATOM     16  H   UNL A   1      31.091  25.651  28.112  1.00  0.00     0.169 HD
ATOM     17  O   UNL A   1      31.224  27.643  27.150  1.00  0.00    -0.274 OA
BRANCH  15  18
ATOM     18  C   UNL A   1      31.402  24.109  26.900  1.00  0.00     0.043 A 
ATOM     19  C   UNL A   1      32.593  18.656  23.944  1.00  0.00     0.067 C 
ATOM     20  C   UNL A   1      32.673  20.150  24.259  1.00  0.00     0.182 C 
ATOM     21  C   UNL A   1      32.711  20.930  22.928  1.00  0.00     0.067 C 
ATOM     22  O   UNL A   1      31.474  20.448  24.988  1.00  0.00    -0.476 OA
ATOM     23  C   UNL A   1      33.977  20.497  25.014  1.00  0.00     0.268 C 
ATOM     24  C   UNL A   1      31.528  21.588  25.735  1.00  0.00     0.144 A 
ATOM     25  N   UNL A   1      33.928  21.705  25.674  1.00  0.00    -0.319 N 
ATOM     26  O   UNL A   1      35.019  19.851  24.949  1.00  0.00    -0.270 OA
ATOM     27  C   UNL A   1      30.349  22.015  26.321  1.00  0.00     0.051 A 
ATOM     28  C   UNL A   1      32.701  22.303  25.971  1.00  0.00     0.086 A 
ATOM     29  H   UNL A   1      34.765  22.152  25.938  1.00  0.00     0.170 HD
ATOM     30  C   UNL A   1      30.321  23.245  26.978  1.00  0.00     0.030 A 
ATOM     31  C   UNL A   1      32.643  23.576  26.539  1.00  0.00     0.056 A 
ENDBRANCH  15  18
ENDBRANCH   9  14
ENDBRANCH   5   8
ENDBRANCH   3   4
ENDBRANCH   2   3
ENDBRANCH   1   2
BRANCH   1  32
ATOM     32  C   UNL A   1      37.062  23.245  24.792  1.00  0.00     0.116 C 
BRANCH  32  33
ATOM     33  N   UNL A   1      38.091  22.341  25.287  1.00  0.00    -0.352 N 
ATOM     34  C   UNL A   1      39.174  22.623  26.097  1.00  0.00     0.251 C 
ATOM     35  H   UNL A   1      38.003  21.402  25.006  1.00  0.00     0.163 HD
ATOM     36  O   UNL A   1      40.020  21.771  26.316  1.00  0.00    -0.269 OA
BRANCH  34  37
ATOM     37  C   UNL A   1      39.315  23.988  26.652  1.00  0.00     0.039 A 
ATOM     38  C   UNL A   1      39.978  24.979  25.928  1.00  0.00     0.014 A 
ATOM     39  C   UNL A   1      38.854  24.249  27.946  1.00  0.00     0.014 A 
ATOM     40  C   UNL A   1      40.365  26.149  26.569  1.00  0.00     0.010 A 
ATOM     41  C   UNL A   1      39.158  25.471  28.553  1.00  0.00     0.010 A 
ATOM     42  C   UNL A   1      39.973  26.405  27.894  1.00  0.00    -0.014 A 
BRANCH  42  43
ATOM     43  C   UNL A   1      40.448  27.642  28.572  1.00  0.00     0.031 A 
ATOM     44  C   UNL A   1      41.899  27.814  28.941  1.00  0.00     0.074 A 
ATOM     45  C   UNL A   1      39.580  28.649  28.787  1.00  0.00     0.049 A 
ATOM     46  N   UNL A   1      42.488  28.845  29.494  1.00  0.00    -0.248 NA
ATOM     47  C   UNL A   1      42.806  26.690  28.656  1.00  0.00     0.031 C 
ATOM     48  C   UNL A   1      38.157  28.616  28.441  1.00  0.00     0.029 A 
ATOM     49  N   UNL A   1      39.767  29.905  29.307  1.00  0.00    -0.354 N 
ATOM     50  C   UNL A   1      43.827  28.492  29.631  1.00  0.00     0.074 A 
ATOM     51  C   UNL A   1      43.957  27.137  29.142  1.00  0.00     0.031 C 
ATOM     52  C   UNL A   1      37.618  29.817  28.690  1.00  0.00     0.029 A 
ATOM     53  C   UNL A   1      38.633  30.683  29.284  1.00  0.00     0.049 A 
ATOM     54  H   UNL A   1      40.630  30.220  29.662  1.00  0.00     0.167 HD
ATOM     55  C   UNL A   1      44.856  29.235  30.105  1.00  0.00     0.031 A 
ATOM     56  C   UNL A   1      38.420  31.948  29.698  1.00  0.00     0.031 A 
ATOM     57  C   UNL A   1      44.721  30.584  30.590  1.00  0.00     0.049 A 
ATOM     58  C   UNL A   1      39.558  32.731  30.282  1.00  0.00     0.074 A 
ATOM     59  C   UNL A   1      45.707  31.416  31.092  1.00  0.00     0.029 A 
ATOM     60  N   UNL A   1      43.534  31.302  30.631  1.00  0.00    -0.354 N 
ATOM     61  N   UNL A   1      40.812  32.373  30.416  1.00  0.00    -0.248 NA
ATOM     62  C   UNL A   1      39.257  34.082  30.774  1.00  0.00     0.031 C 
ATOM     63  C   UNL A   1      45.107  32.612  31.495  1.00  0.00     0.029 A 
ATOM     64  C   UNL A   1      43.759  32.556  31.176  1.00  0.00     0.049 A 
ATOM     65  H   UNL A   1      42.663  30.970  30.319  1.00  0.00     0.167 HD
ATOM     66  C   UNL A   1      41.453  33.456  31.004  1.00  0.00     0.074 A 
ATOM     67  C   UNL A   1      40.453  34.489  31.181  1.00  0.00     0.031 C 
ATOM     68  C   UNL A   1      42.755  33.576  31.366  1.00  0.00     0.031 A 
BRANCH  55  69
ATOM     69  C   UNL A   1      46.228  28.607  30.135  1.00  0.00    -0.014 A 
ATOM     70  C   UNL A   1      47.070  28.704  29.011  1.00  0.00     0.010 A 
ATOM     71  C   UNL A   1      46.656  27.851  31.243  1.00  0.00     0.010 A 
ATOM     72  C   UNL A   1      48.305  28.052  28.988  1.00  0.00     0.020 A 
ATOM     73  C   UNL A   1      47.905  27.221  31.235  1.00  0.00     0.020 A 
ATOM     74  C   UNL A   1      48.715  27.311  30.100  1.00  0.00     0.054 A 
BRANCH  74  75
ATOM     75  S   UNL A   1      50.331  26.489  30.064  1.00  0.00     0.124 S 
ATOM     76  O   UNL A   1      49.986  25.148  29.601  1.00  0.00    -0.237 OA
ATOM     77  O   UNL A   1      51.087  27.308  29.119  1.00  0.00    -0.237 OA
ATOM     78  O   UNL A   1      50.788  26.576  31.450  1.00  0.00    -0.744 OA
ENDBRANCH  74  75
ENDBRANCH  55  69
BRANCH  56  79
ATOM     79  C   UNL A   1      37.059  32.529  29.530  1.00  0.00    -0.014 A 
ATOM     80  C   UNL A   1      36.701  33.153  28.319  1.00  0.00     0.010 A 
ATOM     81  C   UNL A   1      36.180  32.597  30.623  1.00  0.00     0.010 A 
ATOM     82  C   UNL A   1      35.529  33.909  28.233  1.00  0.00     0.020 A 
ATOM     83  C   UNL A   1      34.990  33.327  30.530  1.00  0.00     0.020 A 
ATOM     84  C   UNL A   1      34.695  34.012  29.348  1.00  0.00     0.054 A 
BRANCH  84  85
ATOM     85  S   UNL A   1      33.243  35.094  29.250  1.00  0.00     0.124 S 
ATOM     86  O   UNL A   1      33.845  36.365  28.855  1.00  0.00    -0.237 OA
ATOM     87  O   UNL A   1      32.425  34.441  28.230  1.00  0.00    -0.237 OA
ATOM     88  O   UNL A   1      32.694  35.056  30.603  1.00  0.00    -0.744 OA
ENDBRANCH  84  85
ENDBRANCH  56  79
BRANCH  68  89
ATOM     89  C   UNL A   1      43.199  34.862  32.011  1.00  0.00    -0.014 A 
ATOM     90  C   UNL A   1      43.095  35.016  33.406  1.00  0.00     0.010 A 
ATOM     91  C   UNL A   1      43.583  35.964  31.226  1.00  0.00     0.010 A 
ATOM     92  C   UNL A   1      43.326  36.259  34.001  1.00  0.00     0.020 A 
ATOM     93  C   UNL A   1      43.842  37.202  31.822  1.00  0.00     0.020 A 
ATOM     94  C   UNL A   1      43.685  37.348  33.203  1.00  0.00     0.054 A 
BRANCH  94  95
ATOM     95  S   UNL A   1      43.930  38.965  33.987  1.00  0.00     0.124 S 
ATOM     96  O   UNL A   1      42.902  39.778  33.345  1.00  0.00    -0.237 OA
ATOM     97  O   UNL A   1      43.710  38.672  35.402  1.00  0.00    -0.237 OA
ATOM     98  O   UNL A   1      45.307  39.310  33.638  1.00  0.00    -0.744 OA
ENDBRANCH  94  95
ENDBRANCH  68  89
ENDBRANCH  42  43
ENDBRANCH  34  37
ENDBRANCH  32  33
ENDBRANCH   1  32
TORSDOF 16
ENDMDL
