MODEL 1
REMARK VINA RESULT:     -12.1      0.000      0.000
REMARK SMILES O=C(NCCCCNC(=O)[C@@H](Cc1ccc(O)cc1)Nc1c2ccccc2nc2ccccc12)c1ccc(-c2c3nc(c(-c4ccc(S(=O)(=O)[O-])cc4)c4ccc([nH]4)c(-c4ccc(S(=O)(=O)[O-])cc4)c4nc(c(-c5ccc(S(=O)(=O)[O-])cc5)c5ccc2[nH]5)C=C4)C=C3)cc1
REMARK SMILES IDX 5 1 4 2 3 3 1 4 2 5 35 7 36 8 94 9 37 10 93 11 38 12 39 13
REMARK SMILES IDX 40 14 87 15 41 16 92 17 86 18 88 19 42 20 91 21 85 22 84 23
REMARK SMILES IDX 43 25 73 26 54 27 72 28 55 29 58 30 71 31 89 32 56 33 57 34
REMARK SMILES IDX 70 36 90 37 59 38 44 39 45 40 53 41 46 42 52 43 47 44 48 45
REMARK SMILES IDX 49 46 50 47 51 48 74 49 75 50 83 51 76 52 82 53 77 54 78 55
REMARK SMILES IDX 79 56 80 57 81 58 60 59 61 60 69 61 62 62 68 63 63 64 64 65
REMARK SMILES IDX 65 66 66 67 67 68 6 69 7 70 8 71 9 72 10 74 11 75 12 76
REMARK SMILES IDX 13 77 14 78 19 79 15 80 18 81 16 82 17 83 20 85 21 87 22 88
REMARK SMILES IDX 34 89 23 90 27 91 29 92 33 93 24 94 26 95 28 96 30 97 32 98
REMARK SMILES IDX 25 99 31 100
REMARK H PARENT 3 6 88 24 58 35 8 73 17 84 20 86
REMARK Flexibility Score: inf
ROOT
ATOM      1  C   UNL A   1      36.602  23.332  23.627  1.00  0.00     0.023 C 
ENDROOT
BRANCH   1   2
ATOM      2  C   UNL A   1      37.142  23.604  25.022  1.00  0.00     0.116 C 
BRANCH   2   3
ATOM      3  N   UNL A   1      38.171  22.665  25.464  1.00  0.00    -0.352 N 
ATOM      4  O   UNL A   1      40.060  21.990  26.511  1.00  0.00    -0.269 OA
ATOM      5  C   UNL A   1      39.249  22.885  26.294  1.00  0.00     0.251 C 
ATOM      6  H   UNL A   1      38.083  21.747  25.120  1.00  0.00     0.163 HD
BRANCH   5   7
ATOM      7  C   UNL A   1      39.425  24.230  26.880  1.00  0.00     0.039 A 
ATOM      8  C   UNL A   1      40.224  25.162  26.221  1.00  0.00     0.014 A 
ATOM      9  C   UNL A   1      38.895  24.520  28.140  1.00  0.00     0.014 A 
ATOM     10  C   UNL A   1      40.693  26.261  26.918  1.00  0.00     0.010 A 
ATOM     11  C   UNL A   1      39.254  25.710  28.781  1.00  0.00     0.010 A 
ATOM     12  C   UNL A   1      40.201  26.567  28.200  1.00  0.00    -0.014 A 
BRANCH  12  13
ATOM     13  C   UNL A   1      40.675  27.814  28.855  1.00  0.00     0.031 A 
ATOM     14  C   UNL A   1      42.119  28.015  29.232  1.00  0.00     0.074 A 
ATOM     15  C   UNL A   1      39.786  28.816  29.022  1.00  0.00     0.049 A 
ATOM     16  N   UNL A   1      42.684  29.071  29.765  1.00  0.00    -0.248 NA
ATOM     17  C   UNL A   1      43.049  26.898  29.000  1.00  0.00     0.031 C 
ATOM     18  C   UNL A   1      38.357  28.736  28.694  1.00  0.00     0.029 A 
ATOM     19  N   UNL A   1      39.951  30.107  29.447  1.00  0.00    -0.354 N 
ATOM     20  C   UNL A   1      44.017  28.732  29.971  1.00  0.00     0.074 A 
ATOM     21  C   UNL A   1      44.180  27.370  29.507  1.00  0.00     0.031 C 
ATOM     22  C   UNL A   1      37.806  29.948  28.823  1.00  0.00     0.029 A 
ATOM     23  C   UNL A   1      38.809  30.866  29.345  1.00  0.00     0.049 A 
ATOM     24  H   UNL A   1      40.804  30.458  29.793  1.00  0.00     0.167 HD
ATOM     25  C   UNL A   1      45.009  29.486  30.504  1.00  0.00     0.031 A 
ATOM     26  C   UNL A   1      38.577  32.155  29.654  1.00  0.00     0.031 A 
ATOM     27  C   UNL A   1      44.844  30.849  30.940  1.00  0.00     0.049 A 
ATOM     28  C   UNL A   1      39.695  32.968  30.228  1.00  0.00     0.074 A 
ATOM     29  C   UNL A   1      45.790  31.702  31.485  1.00  0.00     0.029 A 
ATOM     30  N   UNL A   1      43.657  31.564  30.872  1.00  0.00    -0.354 N 
ATOM     31  N   UNL A   1      40.941  32.615  30.436  1.00  0.00    -0.248 NA
ATOM     32  C   UNL A   1      39.372  34.341  30.630  1.00  0.00     0.031 C 
ATOM     33  C   UNL A   1      45.164  32.919  31.781  1.00  0.00     0.029 A 
ATOM     34  C   UNL A   1      43.842  32.840  31.379  1.00  0.00     0.049 A 
ATOM     35  H   UNL A   1      42.807  31.217  30.516  1.00  0.00     0.167 HD
ATOM     36  C   UNL A   1      41.551  33.722  31.009  1.00  0.00     0.074 A 
ATOM     37  C   UNL A   1      40.547  34.767  31.076  1.00  0.00     0.031 C 
ATOM     38  C   UNL A   1      42.824  33.856  31.453  1.00  0.00     0.031 A 
BRANCH  25  39
ATOM     39  C   UNL A   1      46.362  28.846  30.686  1.00  0.00    -0.014 A 
ATOM     40  C   UNL A   1      47.369  28.968  29.714  1.00  0.00     0.010 A 
ATOM     41  C   UNL A   1      46.647  28.161  31.884  1.00  0.00     0.010 A 
ATOM     42  C   UNL A   1      48.628  28.394  29.923  1.00  0.00     0.020 A 
ATOM     43  C   UNL A   1      47.910  27.604  32.104  1.00  0.00     0.020 A 
ATOM     44  C   UNL A   1      48.890  27.711  31.116  1.00  0.00     0.054 A 
BRANCH  44  45
ATOM     45  S   UNL A   1      50.539  27.001  31.376  1.00  0.00     0.124 S 
ATOM     46  O   UNL A   1      50.713  26.196  30.169  1.00  0.00    -0.237 OA
ATOM     47  O   UNL A   1      51.389  28.184  31.469  1.00  0.00    -0.237 OA
ATOM     48  O   UNL A   1      50.397  26.241  32.615  1.00  0.00    -0.744 OA
ENDBRANCH  44  45
ENDBRANCH  25  39
BRANCH  26  49
ATOM     49  C   UNL A   1      37.217  32.722  29.460  1.00  0.00    -0.014 A 
ATOM     50  C   UNL A   1      36.300  32.768  30.524  1.00  0.00     0.010 A 
ATOM     51  C   UNL A   1      36.856  33.273  28.217  1.00  0.00     0.010 A 
ATOM     52  C   UNL A   1      35.045  33.359  30.346  1.00  0.00     0.020 A 
ATOM     53  C   UNL A   1      35.616  33.892  28.045  1.00  0.00     0.020 A 
ATOM     54  C   UNL A   1      34.713  33.921  29.109  1.00  0.00     0.054 A 
BRANCH  54  55
ATOM     55  S   UNL A   1      33.116  34.759  28.917  1.00  0.00     0.124 S 
ATOM     56  O   UNL A   1      32.415  33.865  28.001  1.00  0.00    -0.237 OA
ATOM     57  O   UNL A   1      32.606  34.793  30.285  1.00  0.00    -0.237 OA
ATOM     58  O   UNL A   1      33.483  36.062  28.367  1.00  0.00    -0.744 OA
ENDBRANCH  54  55
ENDBRANCH  26  49
BRANCH  38  59
ATOM     59  C   UNL A   1      43.191  35.185  32.050  1.00  0.00    -0.014 A 
ATOM     60  C   UNL A   1      42.848  35.495  33.378  1.00  0.00     0.010 A 
ATOM     61  C   UNL A   1      43.894  36.127  31.279  1.00  0.00     0.010 A 
ATOM     62  C   UNL A   1      43.169  36.743  33.914  1.00  0.00     0.020 A 
ATOM     63  C   UNL A   1      44.236  37.367  31.819  1.00  0.00     0.020 A 
ATOM     64  C   UNL A   1      43.856  37.674  33.129  1.00  0.00     0.054 A 
BRANCH  64  65
ATOM     65  S   UNL A   1      44.281  39.283  33.850  1.00  0.00     0.124 S 
ATOM     66  O   UNL A   1      42.969  39.909  33.985  1.00  0.00    -0.237 OA
ATOM     67  O   UNL A   1      44.935  38.914  35.102  1.00  0.00    -0.237 OA
ATOM     68  O   UNL A   1      45.160  39.886  32.849  1.00  0.00    -0.744 OA
ENDBRANCH  64  65
ENDBRANCH  38  59
ENDBRANCH  12  13
ENDBRANCH   5   7
ENDBRANCH   2   3
ENDBRANCH   1   2
BRANCH   1  69
ATOM     69  C   UNL A   1      35.089  23.331  23.537  1.00  0.00     0.023 C 
BRANCH  69  70
ATOM     70  C   UNL A   1      34.407  24.649  23.879  1.00  0.00     0.116 C 
BRANCH  70  71
ATOM     71  N   UNL A   1      34.016  25.351  22.681  1.00  0.00    -0.354 N 
ATOM     72  C   UNL A   1      32.803  25.792  22.251  1.00  0.00     0.242 C 
ATOM     73  H   UNL A   1      34.759  25.547  22.064  1.00  0.00     0.163 HD
ATOM     74  O   UNL A   1      32.752  26.170  21.073  1.00  0.00    -0.273 OA
BRANCH  72  75
ATOM     75  C   UNL A   1      31.524  25.832  23.126  1.00  0.00     0.173 C 
BRANCH  75  76
ATOM     76  C   UNL A   1      30.708  24.511  23.135  1.00  0.00     0.070 C 
BRANCH  76  77
ATOM     77  C   UNL A   1      31.220  23.228  23.760  1.00  0.00    -0.045 A 
ATOM     78  C   UNL A   1      31.842  22.212  23.020  1.00  0.00     0.007 A 
ATOM     79  C   UNL A   1      31.148  23.074  25.159  1.00  0.00     0.007 A 
ATOM     80  C   UNL A   1      32.247  21.019  23.634  1.00  0.00     0.046 A 
ATOM     81  C   UNL A   1      31.570  21.894  25.777  1.00  0.00     0.046 A 
ATOM     82  C   UNL A   1      32.084  20.862  25.005  1.00  0.00     0.115 A 
BRANCH  82  83
ATOM     83  O   UNL A   1      32.404  19.699  25.636  1.00  0.00    -0.508 OA
ATOM     84  H   UNL A   1      31.926  18.915  25.445  1.00  0.00     0.293 HD
ENDBRANCH  82  83
ENDBRANCH  76  77
ENDBRANCH  75  76
BRANCH  75  85
ATOM     85  N   UNL A   1      31.739  26.426  24.461  1.00  0.00    -0.372 N 
ATOM     86  H   UNL A   1      31.996  25.840  25.210  1.00  0.00     0.161 HD
BRANCH  85  87
ATOM     87  C   UNL A   1      31.585  27.808  24.696  1.00  0.00     0.054 A 
ATOM     88  C   UNL A   1      30.529  28.557  24.096  1.00  0.00     0.024 A 
ATOM     89  C   UNL A   1      32.515  28.484  25.546  1.00  0.00     0.024 A 
ATOM     90  C   UNL A   1      29.511  28.014  23.272  1.00  0.00     0.012 A 
ATOM     91  C   UNL A   1      30.466  29.935  24.380  1.00  0.00     0.073 A 
ATOM     92  C   UNL A   1      32.302  29.857  25.777  1.00  0.00     0.073 A 
ATOM     93  C   UNL A   1      33.636  27.875  26.171  1.00  0.00     0.012 A 
ATOM     94  C   UNL A   1      28.524  28.807  22.687  1.00  0.00     0.001 A 
ATOM     95  C   UNL A   1      29.469  30.709  23.800  1.00  0.00     0.029 A 
ATOM     96  N   UNL A   1      31.316  30.555  25.205  1.00  0.00    -0.248 NA
ATOM     97  C   UNL A   1      33.147  30.547  26.637  1.00  0.00     0.029 A 
ATOM     98  C   UNL A   1      34.482  28.591  27.023  1.00  0.00     0.001 A 
ATOM     99  C   UNL A   1      28.508  30.166  22.948  1.00  0.00     0.002 A 
ATOM    100  C   UNL A   1      34.228  29.930  27.266  1.00  0.00     0.002 A 
ENDBRANCH  85  87
ENDBRANCH  75  85
ENDBRANCH  72  75
ENDBRANCH  70  71
ENDBRANCH  69  70
ENDBRANCH   1  69
TORSDOF 19
ENDMDL
MODEL 2
REMARK VINA RESULT:     -12.1      2.647      9.578
REMARK SMILES O=C(NCCCCNC(=O)[C@@H](Cc1ccc(O)cc1)Nc1c2ccccc2nc2ccccc12)c1ccc(-c2c3nc(c(-c4ccc(S(=O)(=O)[O-])cc4)c4ccc([nH]4)c(-c4ccc(S(=O)(=O)[O-])cc4)c4nc(c(-c5ccc(S(=O)(=O)[O-])cc5)c5ccc2[nH]5)C=C4)C=C3)cc1
REMARK SMILES IDX 5 1 4 2 3 3 1 4 2 5 35 7 36 8 94 9 37 10 93 11 38 12 39 13
REMARK SMILES IDX 40 14 87 15 41 16 92 17 86 18 88 19 42 20 91 21 85 22 84 23
REMARK SMILES IDX 43 25 73 26 54 27 72 28 55 29 58 30 71 31 89 32 56 33 57 34
REMARK SMILES IDX 70 36 90 37 59 38 44 39 45 40 53 41 46 42 52 43 47 44 48 45
REMARK SMILES IDX 49 46 50 47 51 48 74 49 75 50 83 51 76 52 82 53 77 54 78 55
REMARK SMILES IDX 79 56 80 57 81 58 60 59 61 60 69 61 62 62 68 63 63 64 64 65
REMARK SMILES IDX 65 66 66 67 67 68 6 69 7 70 8 71 9 72 10 74 11 75 12 76
REMARK SMILES IDX 13 77 14 78 19 79 15 80 18 81 16 82 17 83 20 85 21 87 22 88
REMARK SMILES IDX 34 89 23 90 27 91 29 92 33 93 24 94 26 95 28 96 30 97 32 98
REMARK SMILES IDX 25 99 31 100
REMARK H PARENT 3 6 88 24 58 35 8 73 17 84 20 86
REMARK Flexibility Score: inf
ROOT
ATOM      1  C   UNL A   1      33.167  28.159  26.162  1.00  0.00     0.023 C 
ENDROOT
BRANCH   1   2
ATOM      2  C   UNL A   1      34.052  29.378  25.962  1.00  0.00     0.116 C 
BRANCH   2   3
ATOM      3  N   UNL A   1      33.817  30.458  26.917  1.00  0.00    -0.352 N 
ATOM      4  O   UNL A   1      34.228  31.775  28.712  1.00  0.00    -0.269 OA
ATOM      5  C   UNL A   1      34.613  30.885  27.959  1.00  0.00     0.251 C 
ATOM      6  H   UNL A   1      32.972  30.950  26.803  1.00  0.00     0.163 HD
BRANCH   5   7
ATOM      7  C   UNL A   1      35.916  30.220  28.170  1.00  0.00     0.039 A 
ATOM      8  C   UNL A   1      36.182  29.616  29.397  1.00  0.00     0.014 A 
ATOM      9  C   UNL A   1      36.911  30.304  27.193  1.00  0.00     0.014 A 
ATOM     10  C   UNL A   1      37.492  29.327  29.736  1.00  0.00     0.010 A 
ATOM     11  C   UNL A   1      38.207  29.870  27.491  1.00  0.00     0.010 A 
ATOM     12  C   UNL A   1      38.523  29.428  28.784  1.00  0.00    -0.014 A 
BRANCH  12  13
ATOM     13  C   UNL A   1      39.892  29.013  29.186  1.00  0.00     0.031 A 
ATOM     14  C   UNL A   1      40.743  29.854  30.102  1.00  0.00     0.074 A 
ATOM     15  C   UNL A   1      40.328  27.801  28.783  1.00  0.00     0.049 A 
ATOM     16  N   UNL A   1      41.937  29.593  30.576  1.00  0.00    -0.248 NA
ATOM     17  C   UNL A   1      40.203  31.154  30.534  1.00  0.00     0.031 C 
ATOM     18  C   UNL A   1      39.590  26.896  27.892  1.00  0.00     0.029 A 
ATOM     19  N   UNL A   1      41.455  27.093  29.105  1.00  0.00    -0.354 N 
ATOM     20  C   UNL A   1      42.307  30.708  31.321  1.00  0.00     0.074 A 
ATOM     21  C   UNL A   1      41.213  31.651  31.237  1.00  0.00     0.031 C 
ATOM     22  C   UNL A   1      40.227  25.720  27.832  1.00  0.00     0.029 A 
ATOM     23  C   UNL A   1      41.469  25.820  28.586  1.00  0.00     0.049 A 
ATOM     24  H   UNL A   1      42.185  27.460  29.655  1.00  0.00     0.167 HD
ATOM     25  C   UNL A   1      43.457  30.924  32.004  1.00  0.00     0.031 A 
ATOM     26  C   UNL A   1      42.383  24.838  28.684  1.00  0.00     0.031 A 
ATOM     27  C   UNL A   1      44.532  29.969  32.102  1.00  0.00     0.049 A 
ATOM     28  C   UNL A   1      43.638  25.100  29.456  1.00  0.00     0.074 A 
ATOM     29  C   UNL A   1      45.734  30.090  32.779  1.00  0.00     0.029 A 
ATOM     30  N   UNL A   1      44.531  28.712  31.515  1.00  0.00    -0.354 N 
ATOM     31  N   UNL A   1      43.975  26.173  30.131  1.00  0.00    -0.248 NA
ATOM     32  C   UNL A   1      44.644  24.032  29.462  1.00  0.00     0.031 C 
ATOM     33  C   UNL A   1      46.475  28.920  32.569  1.00  0.00     0.029 A 
ATOM     34  C   UNL A   1      45.716  28.054  31.800  1.00  0.00     0.049 A 
ATOM     35  H   UNL A   1      43.796  28.341  30.975  1.00  0.00     0.167 HD
ATOM     36  C   UNL A   1      45.243  25.915  30.632  1.00  0.00     0.074 A 
ATOM     37  C   UNL A   1      45.593  24.570  30.216  1.00  0.00     0.031 C 
ATOM     38  C   UNL A   1      46.050  26.725  31.359  1.00  0.00     0.031 A 
BRANCH  25  39
ATOM     39  C   UNL A   1      43.639  32.263  32.673  1.00  0.00    -0.014 A 
ATOM     40  C   UNL A   1      44.214  33.351  31.995  1.00  0.00     0.010 A 
ATOM     41  C   UNL A   1      43.167  32.449  33.987  1.00  0.00     0.010 A 
ATOM     42  C   UNL A   1      44.340  34.593  32.627  1.00  0.00     0.020 A 
ATOM     43  C   UNL A   1      43.272  33.693  34.614  1.00  0.00     0.020 A 
ATOM     44  C   UNL A   1      43.871  34.756  33.935  1.00  0.00     0.054 A 
BRANCH  44  45
ATOM     45  S   UNL A   1      44.018  36.383  34.722  1.00  0.00     0.124 S 
ATOM     46  O   UNL A   1      44.700  37.157  33.688  1.00  0.00    -0.237 OA
ATOM     47  O   UNL A   1      42.626  36.752  34.965  1.00  0.00    -0.237 OA
ATOM     48  O   UNL A   1      44.807  36.118  35.923  1.00  0.00    -0.744 OA
ENDBRANCH  44  45
ENDBRANCH  25  39
BRANCH  26  49
ATOM     49  C   UNL A   1      42.147  23.545  27.990  1.00  0.00    -0.014 A 
ATOM     50  C   UNL A   1      42.836  23.228  26.807  1.00  0.00     0.010 A 
ATOM     51  C   UNL A   1      41.270  22.598  28.549  1.00  0.00     0.010 A 
ATOM     52  C   UNL A   1      42.650  21.984  26.197  1.00  0.00     0.020 A 
ATOM     53  C   UNL A   1      41.106  21.343  27.960  1.00  0.00     0.020 A 
ATOM     54  C   UNL A   1      41.791  21.047  26.780  1.00  0.00     0.054 A 
BRANCH  54  55
ATOM     55  S   UNL A   1      41.625  19.406  26.025  1.00  0.00     0.124 S 
ATOM     56  O   UNL A   1      42.515  19.512  24.875  1.00  0.00    -0.237 OA
ATOM     57  O   UNL A   1      42.072  18.515  27.093  1.00  0.00    -0.237 OA
ATOM     58  O   UNL A   1      40.200  19.321  25.714  1.00  0.00    -0.744 OA
ENDBRANCH  54  55
ENDBRANCH  26  49
BRANCH  38  59
ATOM     59  C   UNL A   1      47.390  26.166  31.745  1.00  0.00    -0.014 A 
ATOM     60  C   UNL A   1      47.567  25.507  32.974  1.00  0.00     0.010 A 
ATOM     61  C   UNL A   1      48.479  26.291  30.864  1.00  0.00     0.010 A 
ATOM     62  C   UNL A   1      48.823  25.015  33.334  1.00  0.00     0.020 A 
ATOM     63  C   UNL A   1      49.730  25.780  31.211  1.00  0.00     0.020 A 
ATOM     64  C   UNL A   1      49.898  25.161  32.453  1.00  0.00     0.054 A 
BRANCH  64  65
ATOM     65  S   UNL A   1      51.517  24.498  32.931  1.00  0.00     0.124 S 
ATOM     66  O   UNL A   1      51.490  23.170  32.327  1.00  0.00    -0.237 OA
ATOM     67  O   UNL A   1      52.448  25.447  32.325  1.00  0.00    -0.237 OA
ATOM     68  O   UNL A   1      51.480  24.521  34.392  1.00  0.00    -0.744 OA
ENDBRANCH  64  65
ENDBRANCH  38  59
ENDBRANCH  12  13
ENDBRANCH   5   7
ENDBRANCH   2   3
ENDBRANCH   1   2
BRANCH   1  69
ATOM     69  C   UNL A   1      33.925  26.850  26.259  1.00  0.00     0.023 C 
BRANCH  69  70
ATOM     70  C   UNL A   1      33.313  25.676  25.508  1.00  0.00     0.116 C 
BRANCH  70  71
ATOM     71  N   UNL A   1      32.809  24.684  26.427  1.00  0.00    -0.354 N 
ATOM     72  C   UNL A   1      32.118  23.531  26.218  1.00  0.00     0.242 C 
ATOM     73  H   UNL A   1      32.998  24.876  27.375  1.00  0.00     0.163 HD
ATOM     74  O   UNL A   1      31.633  23.001  27.227  1.00  0.00    -0.273 OA
BRANCH  72  75
ATOM     75  C   UNL A   1      31.902  22.878  24.829  1.00  0.00     0.173 C 
BRANCH  75  76
ATOM     76  C   UNL A   1      30.710  23.458  24.022  1.00  0.00     0.070 C 
BRANCH  76  77
ATOM     77  C   UNL A   1      30.672  24.886  23.515  1.00  0.00    -0.045 A 
ATOM     78  C   UNL A   1      29.867  25.880  24.091  1.00  0.00     0.007 A 
ATOM     79  C   UNL A   1      31.541  25.264  22.473  1.00  0.00     0.007 A 
ATOM     80  C   UNL A   1      29.823  27.172  23.552  1.00  0.00     0.046 A 
ATOM     81  C   UNL A   1      31.514  26.558  21.946  1.00  0.00     0.046 A 
ATOM     82  C   UNL A   1      30.630  27.492  22.467  1.00  0.00     0.115 A 
BRANCH  82  83
ATOM     83  O   UNL A   1      30.576  28.714  21.869  1.00  0.00    -0.508 OA
ATOM     84  H   UNL A   1      29.868  28.923  21.291  1.00  0.00     0.293 HD
ENDBRANCH  82  83
ENDBRANCH  76  77
ENDBRANCH  75  76
BRANCH  75  85
ATOM     85  N   UNL A   1      33.148  22.720  24.050  1.00  0.00    -0.372 N 
ATOM     86  H   UNL A   1      33.303  23.304  23.273  1.00  0.00     0.161 HD
BRANCH  85  87
ATOM     87  C   UNL A   1      34.121  21.757  24.387  1.00  0.00     0.054 A 
ATOM     88  C   UNL A   1      35.412  22.130  24.865  1.00  0.00     0.024 A 
ATOM     89  C   UNL A   1      33.817  20.368  24.235  1.00  0.00     0.024 A 
ATOM     90  C   UNL A   1      35.838  23.461  25.108  1.00  0.00     0.012 A 
ATOM     91  C   UNL A   1      36.321  21.096  25.161  1.00  0.00     0.073 A 
ATOM     92  C   UNL A   1      34.807  19.442  24.614  1.00  0.00     0.073 A 
ATOM     93  C   UNL A   1      32.592  19.854  23.729  1.00  0.00     0.012 A 
ATOM     94  C   UNL A   1      37.127  23.763  25.544  1.00  0.00     0.001 A 
ATOM     95  C   UNL A   1      37.598  21.413  25.609  1.00  0.00     0.029 A 
ATOM     96  N   UNL A   1      36.018  19.799  25.053  1.00  0.00    -0.248 NA
ATOM     97  C   UNL A   1      34.540  18.081  24.535  1.00  0.00     0.029 A 
ATOM     98  C   UNL A   1      32.349  18.481  23.646  1.00  0.00     0.001 A 
ATOM     99  C   UNL A   1      38.016  22.731  25.789  1.00  0.00     0.002 A 
ATOM    100  C   UNL A   1      33.324  17.591  24.063  1.00  0.00     0.002 A 
ENDBRANCH  85  87
ENDBRANCH  75  85
ENDBRANCH  72  75
ENDBRANCH  70  71
ENDBRANCH  69  70
ENDBRANCH   1  69
TORSDOF 19
ENDMDL
MODEL 3
REMARK VINA RESULT:     -12.0      1.019      7.949
REMARK SMILES O=C(NCCCCNC(=O)[C@@H](Cc1ccc(O)cc1)Nc1c2ccccc2nc2ccccc12)c1ccc(-c2c3nc(c(-c4ccc(S(=O)(=O)[O-])cc4)c4ccc([nH]4)c(-c4ccc(S(=O)(=O)[O-])cc4)c4nc(c(-c5ccc(S(=O)(=O)[O-])cc5)c5ccc2[nH]5)C=C4)C=C3)cc1
REMARK SMILES IDX 5 1 4 2 3 3 1 4 2 5 35 7 36 8 94 9 37 10 93 11 38 12 39 13
REMARK SMILES IDX 40 14 87 15 41 16 92 17 86 18 88 19 42 20 91 21 85 22 84 23
REMARK SMILES IDX 43 25 73 26 54 27 72 28 55 29 58 30 71 31 89 32 56 33 57 34
REMARK SMILES IDX 70 36 90 37 59 38 44 39 45 40 53 41 46 42 52 43 47 44 48 45
REMARK SMILES IDX 49 46 50 47 51 48 74 49 75 50 83 51 76 52 82 53 77 54 78 55
REMARK SMILES IDX 79 56 80 57 81 58 60 59 61 60 69 61 62 62 68 63 63 64 64 65
REMARK SMILES IDX 65 66 66 67 67 68 6 69 7 70 8 71 9 72 10 74 11 75 12 76
REMARK SMILES IDX 13 77 14 78 19 79 15 80 18 81 16 82 17 83 20 85 21 87 22 88
REMARK SMILES IDX 34 89 23 90 27 91 29 92 33 93 24 94 26 95 28 96 30 97 32 98
REMARK SMILES IDX 25 99 31 100
REMARK H PARENT 3 6 88 24 58 35 8 73 17 84 20 86
REMARK Flexibility Score: inf
ROOT
ATOM      1  C   UNL A   1      36.603  23.356  24.048  1.00  0.00     0.023 C 
ENDROOT
BRANCH   1   2
ATOM      2  C   UNL A   1      37.320  23.594  25.367  1.00  0.00     0.116 C 
BRANCH   2   3
ATOM      3  N   UNL A   1      38.516  22.778  25.560  1.00  0.00    -0.352 N 
ATOM      4  O   UNL A   1      40.619  22.297  26.244  1.00  0.00    -0.269 OA
ATOM      5  C   UNL A   1      39.677  23.083  26.237  1.00  0.00     0.251 C 
ATOM      6  H   UNL A   1      38.490  21.884  25.148  1.00  0.00     0.163 HD
BRANCH   5   7
ATOM      7  C   UNL A   1      39.775  24.394  26.914  1.00  0.00     0.039 A 
ATOM      8  C   UNL A   1      40.516  25.414  26.322  1.00  0.00     0.014 A 
ATOM      9  C   UNL A   1      39.231  24.565  28.189  1.00  0.00     0.014 A 
ATOM     10  C   UNL A   1      40.921  26.489  27.094  1.00  0.00     0.010 A 
ATOM     11  C   UNL A   1      39.520  25.727  28.912  1.00  0.00     0.010 A 
ATOM     12  C   UNL A   1      40.413  26.676  28.392  1.00  0.00    -0.014 A 
BRANCH  12  13
ATOM     13  C   UNL A   1      40.814  27.901  29.133  1.00  0.00     0.031 A 
ATOM     14  C   UNL A   1      39.857  29.041  29.364  1.00  0.00     0.074 A 
ATOM     15  C   UNL A   1      42.046  27.930  29.684  1.00  0.00     0.049 A 
ATOM     16  N   UNL A   1      40.054  30.149  30.035  1.00  0.00    -0.248 NA
ATOM     17  C   UNL A   1      38.517  28.940  28.763  1.00  0.00     0.031 C 
ATOM     18  C   UNL A   1      43.062  26.882  29.527  1.00  0.00     0.029 A 
ATOM     19  N   UNL A   1      42.637  28.832  30.528  1.00  0.00    -0.354 N 
ATOM     20  C   UNL A   1      38.887  30.893  29.900  1.00  0.00     0.074 A 
ATOM     21  C   UNL A   1      37.984  30.112  29.083  1.00  0.00     0.031 C 
ATOM     22  C   UNL A   1      44.097  27.145  30.334  1.00  0.00     0.029 A 
ATOM     23  C   UNL A   1      43.871  28.430  30.982  1.00  0.00     0.049 A 
ATOM     24  H   UNL A   1      42.219  29.686  30.785  1.00  0.00     0.167 HD
ATOM     25  C   UNL A   1      38.602  32.117  30.407  1.00  0.00     0.031 A 
ATOM     26  C   UNL A   1      44.742  29.030  31.813  1.00  0.00     0.031 A 
ATOM     27  C   UNL A   1      39.498  32.877  31.241  1.00  0.00     0.049 A 
ATOM     28  C   UNL A   1      44.395  30.375  32.368  1.00  0.00     0.074 A 
ATOM     29  C   UNL A   1      39.298  34.123  31.813  1.00  0.00     0.029 A 
ATOM     30  N   UNL A   1      40.763  32.459  31.632  1.00  0.00    -0.354 N 
ATOM     31  N   UNL A   1      43.294  31.068  32.206  1.00  0.00    -0.248 NA
ATOM     32  C   UNL A   1      45.412  31.028  33.200  1.00  0.00     0.031 C 
ATOM     33  C   UNL A   1      40.456  34.473  32.517  1.00  0.00     0.029 A 
ATOM     34  C   UNL A   1      41.359  33.428  32.423  1.00  0.00     0.049 A 
ATOM     35  H   UNL A   1      41.175  31.600  31.384  1.00  0.00     0.167 HD
ATOM     36  C   UNL A   1      43.491  32.251  32.904  1.00  0.00     0.074 A 
ATOM     37  C   UNL A   1      44.800  32.159  33.523  1.00  0.00     0.031 C 
ATOM     38  C   UNL A   1      42.669  33.323  33.011  1.00  0.00     0.031 A 
BRANCH  25  39
ATOM     39  C   UNL A   1      37.277  32.739  30.046  1.00  0.00    -0.014 A 
ATOM     40  C   UNL A   1      36.174  32.675  30.914  1.00  0.00     0.010 A 
ATOM     41  C   UNL A   1      37.156  33.455  28.839  1.00  0.00     0.010 A 
ATOM     42  C   UNL A   1      34.965  33.290  30.570  1.00  0.00     0.020 A 
ATOM     43  C   UNL A   1      35.956  34.089  28.502  1.00  0.00     0.020 A 
ATOM     44  C   UNL A   1      34.862  33.990  29.364  1.00  0.00     0.054 A 
BRANCH  44  45
ATOM     45  S   UNL A   1      33.294  34.805  28.954  1.00  0.00     0.124 S 
ATOM     46  O   UNL A   1      33.749  36.097  28.447  1.00  0.00    -0.237 OA
ATOM     47  O   UNL A   1      32.715  33.909  27.957  1.00  0.00    -0.237 OA
ATOM     48  O   UNL A   1      32.584  34.852  30.230  1.00  0.00    -0.744 OA
ENDBRANCH  44  45
ENDBRANCH  25  39
BRANCH  26  49
ATOM     49  C   UNL A   1      46.037  28.367  32.119  1.00  0.00    -0.014 A 
ATOM     50  C   UNL A   1      47.170  28.601  31.323  1.00  0.00     0.010 A 
ATOM     51  C   UNL A   1      46.152  27.541  33.252  1.00  0.00     0.010 A 
ATOM     52  C   UNL A   1      48.397  28.020  31.657  1.00  0.00     0.020 A 
ATOM     53  C   UNL A   1      47.383  26.984  33.606  1.00  0.00     0.020 A 
ATOM     54  C   UNL A   1      48.497  27.220  32.799  1.00  0.00     0.054 A 
BRANCH  54  55
ATOM     55  S   UNL A   1      50.112  26.542  33.268  1.00  0.00     0.124 S 
ATOM     56  O   UNL A   1      49.738  25.286  33.910  1.00  0.00    -0.237 OA
ATOM     57  O   UNL A   1      50.793  26.417  31.981  1.00  0.00    -0.237 OA
ATOM     58  O   UNL A   1      50.663  27.564  34.155  1.00  0.00    -0.744 OA
ENDBRANCH  54  55
ENDBRANCH  26  49
BRANCH  38  59
ATOM     59  C   UNL A   1      43.173  34.477  33.830  1.00  0.00    -0.014 A 
ATOM     60  C   UNL A   1      43.708  35.619  33.208  1.00  0.00     0.010 A 
ATOM     61  C   UNL A   1      43.099  34.423  35.232  1.00  0.00     0.010 A 
ATOM     62  C   UNL A   1      44.199  36.674  33.979  1.00  0.00     0.020 A 
ATOM     63  C   UNL A   1      43.568  35.486  36.005  1.00  0.00     0.020 A 
ATOM     64  C   UNL A   1      44.132  36.598  35.373  1.00  0.00     0.054 A 
BRANCH  64  65
ATOM     65  S   UNL A   1      44.757  37.988  36.356  1.00  0.00     0.124 S 
ATOM     66  O   UNL A   1      44.990  39.001  35.332  1.00  0.00    -0.237 OA
ATOM     67  O   UNL A   1      43.653  38.260  37.272  1.00  0.00    -0.237 OA
ATOM     68  O   UNL A   1      45.961  37.448  36.986  1.00  0.00    -0.744 OA
ENDBRANCH  64  65
ENDBRANCH  38  59
ENDBRANCH  12  13
ENDBRANCH   5   7
ENDBRANCH   2   3
ENDBRANCH   1   2
BRANCH   1  69
ATOM     69  C   UNL A   1      35.091  23.392  24.149  1.00  0.00     0.023 C 
BRANCH  69  70
ATOM     70  C   UNL A   1      34.479  24.763  24.400  1.00  0.00     0.116 C 
BRANCH  70  71
ATOM     71  N   UNL A   1      34.343  25.499  23.167  1.00  0.00    -0.354 N 
ATOM     72  C   UNL A   1      33.243  25.951  22.504  1.00  0.00     0.242 C 
ATOM     73  H   UNL A   1      35.197  25.712  22.725  1.00  0.00     0.163 HD
ATOM     74  O   UNL A   1      33.437  26.362  21.353  1.00  0.00    -0.273 OA
BRANCH  72  75
ATOM     75  C   UNL A   1      31.809  25.964  23.093  1.00  0.00     0.173 C 
BRANCH  75  76
ATOM     76  C   UNL A   1      31.017  24.645  22.890  1.00  0.00     0.070 C 
BRANCH  76  77
ATOM     77  C   UNL A   1      31.314  23.375  23.662  1.00  0.00    -0.045 A 
ATOM     78  C   UNL A   1      30.953  23.194  25.004  1.00  0.00     0.007 A 
ATOM     79  C   UNL A   1      31.906  22.289  22.986  1.00  0.00     0.007 A 
ATOM     80  C   UNL A   1      31.301  22.023  25.692  1.00  0.00     0.046 A 
ATOM     81  C   UNL A   1      32.235  21.112  23.664  1.00  0.00     0.046 A 
ATOM     82  C   UNL A   1      31.961  21.002  25.020  1.00  0.00     0.115 A 
BRANCH  82  83
ATOM     83  O   UNL A   1      32.375  19.874  25.659  1.00  0.00    -0.508 OA
ATOM     84  H   UNL A   1      32.767  19.933  26.509  1.00  0.00     0.293 HD
ENDBRANCH  82  83
ENDBRANCH  76  77
ENDBRANCH  75  76
BRANCH  75  85
ATOM     85  N   UNL A   1      31.737  26.515  24.462  1.00  0.00    -0.372 N 
ATOM     86  H   UNL A   1      31.799  25.901  25.229  1.00  0.00     0.161 HD
BRANCH  85  87
ATOM     87  C   UNL A   1      31.579  27.896  24.703  1.00  0.00     0.054 A 
ATOM     88  C   UNL A   1      30.524  28.646  24.104  1.00  0.00     0.024 A 
ATOM     89  C   UNL A   1      32.506  28.570  25.558  1.00  0.00     0.024 A 
ATOM     90  C   UNL A   1      29.508  28.105  23.275  1.00  0.00     0.012 A 
ATOM     91  C   UNL A   1      30.457  30.022  24.394  1.00  0.00     0.073 A 
ATOM     92  C   UNL A   1      32.289  29.941  25.795  1.00  0.00     0.073 A 
ATOM     93  C   UNL A   1      33.627  27.961  26.183  1.00  0.00     0.012 A 
ATOM     94  C   UNL A   1      28.521  28.898  22.692  1.00  0.00     0.001 A 
ATOM     95  C   UNL A   1      29.459  30.797  23.815  1.00  0.00     0.029 A 
ATOM     96  N   UNL A   1      31.303  30.640  25.223  1.00  0.00    -0.248 NA
ATOM     97  C   UNL A   1      33.131  30.629  26.660  1.00  0.00     0.029 A 
ATOM     98  C   UNL A   1      34.469  28.674  27.040  1.00  0.00     0.001 A 
ATOM     99  C   UNL A   1      28.502  30.256  22.958  1.00  0.00     0.002 A 
ATOM    100  C   UNL A   1      34.212  30.012  27.288  1.00  0.00     0.002 A 
ENDBRANCH  85  87
ENDBRANCH  75  85
ENDBRANCH  72  75
ENDBRANCH  70  71
ENDBRANCH  69  70
ENDBRANCH   1  69
TORSDOF 19
ENDMDL
