MODEL 1
REMARK VINA RESULT:     -13.2      0.000      0.000
REMARK SMILES Cc1c(CC(=O)NCCCCNC(=O)c2ccc(-c3c4nc(c(-c5ccc(S(=O)(=O)[O-])cc5)c5ccc([nH]5)c(-c5ccc(S(=O)(=O)[O-])cc5)c5nc(c(-c6ccc(S(=O)(=O)[O-])cc6)c6ccc3[nH]6)C=C5)C=C4)cc2)c2cc(O)ccc2n1C(=O)c1ccc(Cl)cc1
REMARK SMILES IDX 9 1 8 2 7 3 5 4 6 5 4 7 3 8 1 9 2 10 82 11 75 12 81 13 76 14
REMARK SMILES IDX 80 15 77 16 79 17 83 18 84 19 85 20 86 21 91 22 87 23 90 24
REMARK SMILES IDX 88 25 89 26 78 27 10 29 11 30 12 31 13 32 14 34 15 35 16 36
REMARK SMILES IDX 74 37 17 38 73 39 18 40 19 41 20 42 67 43 21 44 72 45 66 46
REMARK SMILES IDX 68 47 22 48 71 49 65 50 64 51 23 53 53 54 34 55 52 56 35 57
REMARK SMILES IDX 38 58 51 59 69 60 36 61 37 62 50 64 70 65 39 66 24 67 25 68
REMARK SMILES IDX 33 69 26 70 32 71 27 72 28 73 29 74 30 75 31 76 54 77 55 78
REMARK SMILES IDX 63 79 56 80 62 81 57 82 58 83 59 84 60 85 61 86 40 87 41 88
REMARK SMILES IDX 49 89 42 90 48 91 43 92 44 93 45 94 46 95 47 96
REMARK H PARENT 7 6 78 28 12 33 68 52 38 63
REMARK Flexibility Score: inf
ROOT
ATOM      1  C   UNL A   1      38.215  23.537  26.126  1.00  0.00     0.023 C 
ENDROOT
BRANCH   1   2
ATOM      2  C   UNL A   1      37.035  23.693  25.166  1.00  0.00     0.116 C 
BRANCH   2   3
ATOM      3  N   UNL A   1      35.768  23.385  25.797  1.00  0.00    -0.356 N 
ATOM      4  C   UNL A   1      34.548  23.954  25.575  1.00  0.00     0.224 C 
ATOM      5  O   UNL A   1      33.574  23.511  26.188  1.00  0.00    -0.275 OA
ATOM      6  H   UNL A   1      35.791  22.670  26.474  1.00  0.00     0.163 HD
BRANCH   4   7
ATOM      7  C   UNL A   1      34.391  25.051  24.531  1.00  0.00     0.138 C 
BRANCH   7   8
ATOM      8  C   UNL A   1      33.167  25.902  24.728  1.00  0.00    -0.009 A 
ATOM      9  C   UNL A   1      31.468  24.679  23.183  1.00  0.00     0.065 C 
ATOM     10  C   UNL A   1      31.919  25.742  24.138  1.00  0.00     0.028 A 
ATOM     11  N   UNL A   1      31.094  26.809  24.523  1.00  0.00    -0.280 N 
ATOM     12  C   UNL A   1      33.081  27.028  25.593  1.00  0.00     0.008 A 
ATOM     13  C   UNL A   1      31.779  27.538  25.510  1.00  0.00     0.057 A 
ATOM     14  C   UNL A   1      34.014  27.645  26.457  1.00  0.00     0.056 A 
ATOM     15  C   UNL A   1      31.393  28.610  26.345  1.00  0.00     0.031 A 
ATOM     16  C   UNL A   1      33.636  28.750  27.209  1.00  0.00     0.116 A 
ATOM     17  C   UNL A   1      32.340  29.226  27.167  1.00  0.00     0.048 A 
BRANCH  11  18
ATOM     18  C   UNL A   1      29.792  27.076  24.002  1.00  0.00     0.262 C 
ATOM     19  O   UNL A   1      28.863  26.327  24.313  1.00  0.00    -0.268 OA
BRANCH  18  20
ATOM     20  C   UNL A   1      29.428  28.217  23.148  1.00  0.00     0.040 A 
ATOM     21  C   UNL A   1      30.388  28.919  22.412  1.00  0.00     0.015 A 
ATOM     22  C   UNL A   1      28.082  28.603  23.122  1.00  0.00     0.015 A 
ATOM     23  C   UNL A   1      30.010  30.078  21.726  1.00  0.00     0.021 A 
ATOM     24  C   UNL A   1      27.710  29.753  22.428  1.00  0.00     0.021 A 
ATOM     25  C   UNL A   1      28.678  30.498  21.753  1.00  0.00     0.041 A 
ATOM     26  Cl  UNL A   1      28.219  31.961  20.975  1.00  0.00    -0.084 Cl
ENDBRANCH  18  20
ENDBRANCH  11  18
BRANCH  16  27
ATOM     27  O   UNL A   1      34.578  29.340  27.999  1.00  0.00    -0.508 OA
ATOM     28  H   UNL A   1      34.423  30.191  28.358  1.00  0.00     0.293 HD
ENDBRANCH  16  27
ENDBRANCH   7   8
ENDBRANCH   4   7
ENDBRANCH   2   3
ENDBRANCH   1   2
BRANCH   1  29
ATOM     29  C   UNL A   1      38.840  22.133  26.141  1.00  0.00     0.023 C 
BRANCH  29  30
ATOM     30  C   UNL A   1      40.225  22.065  26.788  1.00  0.00     0.116 C 
BRANCH  30  31
ATOM     31  N   UNL A   1      41.307  22.284  25.849  1.00  0.00    -0.352 N 
ATOM     32  C   UNL A   1      42.231  23.267  25.647  1.00  0.00     0.251 C 
ATOM     33  H   UNL A   1      41.396  21.548  25.202  1.00  0.00     0.163 HD
ATOM     34  O   UNL A   1      43.098  23.015  24.804  1.00  0.00    -0.269 OA
BRANCH  32  35
ATOM     35  C   UNL A   1      42.232  24.601  26.302  1.00  0.00     0.039 A 
ATOM     36  C   UNL A   1      42.860  24.924  27.506  1.00  0.00     0.014 A 
ATOM     37  C   UNL A   1      41.450  25.587  25.666  1.00  0.00     0.014 A 
ATOM     38  C   UNL A   1      42.630  26.155  28.110  1.00  0.00     0.010 A 
ATOM     39  C   UNL A   1      41.221  26.819  26.263  1.00  0.00     0.010 A 
ATOM     40  C   UNL A   1      41.766  27.076  27.514  1.00  0.00    -0.014 A 
BRANCH  40  41
ATOM     41  C   UNL A   1      41.488  28.316  28.229  1.00  0.00     0.031 A 
ATOM     42  C   UNL A   1      42.556  29.353  28.156  1.00  0.00     0.074 A 
ATOM     43  C   UNL A   1      40.308  28.555  28.835  1.00  0.00     0.049 A 
ATOM     44  N   UNL A   1      43.236  29.883  29.120  1.00  0.00    -0.248 NA
ATOM     45  C   UNL A   1      42.986  29.783  26.816  1.00  0.00     0.031 C 
ATOM     46  C   UNL A   1      39.065  27.781  28.753  1.00  0.00     0.029 A 
ATOM     47  N   UNL A   1      39.944  29.630  29.586  1.00  0.00    -0.354 N 
ATOM     48  C   UNL A   1      44.076  30.829  28.533  1.00  0.00     0.074 A 
ATOM     49  C   UNL A   1      43.963  30.641  27.109  1.00  0.00     0.031 C 
ATOM     50  C   UNL A   1      38.038  28.533  29.214  1.00  0.00     0.029 A 
ATOM     51  C   UNL A   1      38.575  29.759  29.777  1.00  0.00     0.049 A 
ATOM     52  H   UNL A   1      40.597  30.264  29.961  1.00  0.00     0.167 HD
ATOM     53  C   UNL A   1      44.694  31.810  29.249  1.00  0.00     0.031 A 
ATOM     54  C   UNL A   1      37.930  30.827  30.311  1.00  0.00     0.031 A 
ATOM     55  C   UNL A   1      44.712  31.522  30.654  1.00  0.00     0.049 A 
ATOM     56  C   UNL A   1      38.933  31.594  31.090  1.00  0.00     0.074 A 
ATOM     57  C   UNL A   1      45.313  30.559  31.437  1.00  0.00     0.029 A 
ATOM     58  N   UNL A   1      43.732  32.088  31.433  1.00  0.00    -0.354 N 
ATOM     59  N   UNL A   1      39.527  31.138  32.158  1.00  0.00    -0.248 NA
ATOM     60  C   UNL A   1      39.598  32.702  30.425  1.00  0.00     0.031 C 
ATOM     61  C   UNL A   1      44.357  30.263  32.448  1.00  0.00     0.029 A 
ATOM     62  C   UNL A   1      43.256  31.105  32.263  1.00  0.00     0.049 A 
ATOM     63  H   UNL A   1      43.429  33.024  31.402  1.00  0.00     0.167 HD
ATOM     64  C   UNL A   1      40.826  31.619  32.077  1.00  0.00     0.074 A 
ATOM     65  C   UNL A   1      40.786  32.639  31.030  1.00  0.00     0.031 C 
ATOM     66  C   UNL A   1      41.870  30.973  32.673  1.00  0.00     0.031 A 
BRANCH  53  67
ATOM     67  C   UNL A   1      45.039  33.173  28.704  1.00  0.00    -0.014 A 
ATOM     68  C   UNL A   1      44.082  34.030  28.125  1.00  0.00     0.010 A 
ATOM     69  C   UNL A   1      46.304  33.733  28.988  1.00  0.00     0.010 A 
ATOM     70  C   UNL A   1      44.363  35.366  27.829  1.00  0.00     0.020 A 
ATOM     71  C   UNL A   1      46.583  35.086  28.735  1.00  0.00     0.020 A 
ATOM     72  C   UNL A   1      45.608  35.891  28.151  1.00  0.00     0.054 A 
BRANCH  72  73
ATOM     73  S   UNL A   1      45.888  37.656  27.862  1.00  0.00     0.124 S 
ATOM     74  O   UNL A   1      44.857  37.966  26.876  1.00  0.00    -0.237 OA
ATOM     75  O   UNL A   1      45.681  38.225  29.190  1.00  0.00    -0.237 OA
ATOM     76  O   UNL A   1      47.262  37.709  27.369  1.00  0.00    -0.744 OA
ENDBRANCH  72  73
ENDBRANCH  53  67
BRANCH  54  77
ATOM     77  C   UNL A   1      36.678  31.452  29.810  1.00  0.00    -0.014 A 
ATOM     78  C   UNL A   1      36.664  32.063  28.539  1.00  0.00     0.010 A 
ATOM     79  C   UNL A   1      35.608  31.729  30.683  1.00  0.00     0.010 A 
ATOM     80  C   UNL A   1      35.660  32.969  28.175  1.00  0.00     0.020 A 
ATOM     81  C   UNL A   1      34.594  32.635  30.323  1.00  0.00     0.020 A 
ATOM     82  C   UNL A   1      34.647  33.276  29.083  1.00  0.00     0.054 A 
BRANCH  82  83
ATOM     83  S   UNL A   1      33.459  34.578  28.640  1.00  0.00     0.124 S 
ATOM     84  O   UNL A   1      32.547  33.867  27.749  1.00  0.00    -0.237 OA
ATOM     85  O   UNL A   1      32.902  34.952  29.938  1.00  0.00    -0.237 OA
ATOM     86  O   UNL A   1      34.285  35.600  28.003  1.00  0.00    -0.744 OA
ENDBRANCH  82  83
ENDBRANCH  54  77
BRANCH  66  87
ATOM     87  C   UNL A   1      41.595  29.838  33.640  1.00  0.00    -0.014 A 
ATOM     88  C   UNL A   1      41.727  30.121  35.012  1.00  0.00     0.010 A 
ATOM     89  C   UNL A   1      41.496  28.491  33.239  1.00  0.00     0.010 A 
ATOM     90  C   UNL A   1      41.841  29.094  35.951  1.00  0.00     0.020 A 
ATOM     91  C   UNL A   1      41.584  27.453  34.183  1.00  0.00     0.020 A 
ATOM     92  C   UNL A   1      41.797  27.764  35.529  1.00  0.00     0.054 A 
BRANCH  92  93
ATOM     93  S   UNL A   1      42.091  26.465  36.762  1.00  0.00     0.124 S 
ATOM     94  O   UNL A   1      43.105  27.075  37.619  1.00  0.00    -0.237 OA
ATOM     95  O   UNL A   1      40.776  26.298  37.376  1.00  0.00    -0.237 OA
ATOM     96  O   UNL A   1      42.555  25.323  35.975  1.00  0.00    -0.744 OA
ENDBRANCH  92  93
ENDBRANCH  66  87
ENDBRANCH  40  41
ENDBRANCH  32  35
ENDBRANCH  30  31
ENDBRANCH  29  30
ENDBRANCH   1  29
TORSDOF 18
ENDMDL
MODEL 2
REMARK VINA RESULT:     -12.8      3.673      9.743
REMARK SMILES Cc1c(CC(=O)NCCCCNC(=O)c2ccc(-c3c4nc(c(-c5ccc(S(=O)(=O)[O-])cc5)c5ccc([nH]5)c(-c5ccc(S(=O)(=O)[O-])cc5)c5nc(c(-c6ccc(S(=O)(=O)[O-])cc6)c6ccc3[nH]6)C=C5)C=C4)cc2)c2cc(O)ccc2n1C(=O)c1ccc(Cl)cc1
REMARK SMILES IDX 9 1 8 2 7 3 5 4 6 5 4 7 3 8 1 9 2 10 82 11 75 12 81 13 76 14
REMARK SMILES IDX 80 15 77 16 79 17 83 18 84 19 85 20 86 21 91 22 87 23 90 24
REMARK SMILES IDX 88 25 89 26 78 27 10 29 11 30 12 31 13 32 14 34 15 35 16 36
REMARK SMILES IDX 74 37 17 38 73 39 18 40 19 41 20 42 67 43 21 44 72 45 66 46
REMARK SMILES IDX 68 47 22 48 71 49 65 50 64 51 23 53 53 54 34 55 52 56 35 57
REMARK SMILES IDX 38 58 51 59 69 60 36 61 37 62 50 64 70 65 39 66 24 67 25 68
REMARK SMILES IDX 33 69 26 70 32 71 27 72 28 73 29 74 30 75 31 76 54 77 55 78
REMARK SMILES IDX 63 79 56 80 62 81 57 82 58 83 59 84 60 85 61 86 40 87 41 88
REMARK SMILES IDX 49 89 42 90 48 91 43 92 44 93 45 94 46 95 47 96
REMARK H PARENT 7 6 78 28 12 33 68 52 38 63
REMARK Flexibility Score: inf
ROOT
ATOM      1  C   UNL A   1      33.887  29.350  27.670  1.00  0.00     0.023 C 
ENDROOT
BRANCH   1   2
ATOM      2  C   UNL A   1      34.466  28.359  26.661  1.00  0.00     0.116 C 
BRANCH   2   3
ATOM      3  N   UNL A   1      33.586  28.145  25.531  1.00  0.00    -0.356 N 
ATOM      4  C   UNL A   1      32.914  27.010  25.181  1.00  0.00     0.224 C 
ATOM      5  O   UNL A   1      32.169  27.049  24.199  1.00  0.00    -0.275 OA
ATOM      6  H   UNL A   1      33.454  28.921  24.939  1.00  0.00     0.163 HD
BRANCH   4   7
ATOM      7  C   UNL A   1      33.023  25.758  26.040  1.00  0.00     0.138 C 
BRANCH   7   8
ATOM      8  C   UNL A   1      33.333  24.513  25.256  1.00  0.00    -0.009 A 
ATOM      9  C   UNL A   1      30.952  23.834  24.455  1.00  0.00     0.065 C 
ATOM     10  C   UNL A   1      32.438  23.687  24.587  1.00  0.00     0.028 A 
ATOM     11  N   UNL A   1      33.135  22.586  24.067  1.00  0.00    -0.280 N 
ATOM     12  C   UNL A   1      34.634  23.977  25.047  1.00  0.00     0.008 A 
ATOM     13  C   UNL A   1      34.506  22.828  24.257  1.00  0.00     0.057 A 
ATOM     14  C   UNL A   1      35.920  24.396  25.461  1.00  0.00     0.056 A 
ATOM     15  C   UNL A   1      35.665  22.148  23.820  1.00  0.00     0.031 A 
ATOM     16  C   UNL A   1      37.040  23.663  25.087  1.00  0.00     0.116 A 
ATOM     17  C   UNL A   1      36.924  22.558  24.268  1.00  0.00     0.048 A 
BRANCH  11  18
ATOM     18  C   UNL A   1      32.538  21.446  23.450  1.00  0.00     0.262 C 
ATOM     19  O   UNL A   1      31.915  21.600  22.397  1.00  0.00    -0.268 OA
BRANCH  18  20
ATOM     20  C   UNL A   1      32.638  20.060  23.931  1.00  0.00     0.040 A 
ATOM     21  C   UNL A   1      32.512  18.970  23.063  1.00  0.00     0.015 A 
ATOM     22  C   UNL A   1      32.830  19.863  25.304  1.00  0.00     0.015 A 
ATOM     23  C   UNL A   1      32.477  17.676  23.592  1.00  0.00     0.021 A 
ATOM     24  C   UNL A   1      32.805  18.570  25.824  1.00  0.00     0.021 A 
ATOM     25  C   UNL A   1      32.605  17.485  24.970  1.00  0.00     0.041 A 
ATOM     26  Cl  UNL A   1      32.488  15.904  25.635  1.00  0.00    -0.084 Cl
ENDBRANCH  18  20
ENDBRANCH  11  18
BRANCH  16  27
ATOM     27  O   UNL A   1      38.257  24.079  25.542  1.00  0.00    -0.508 OA
ATOM     28  H   UNL A   1      38.967  24.192  24.941  1.00  0.00     0.293 HD
ENDBRANCH  16  27
ENDBRANCH   7   8
ENDBRANCH   4   7
ENDBRANCH   2   3
ENDBRANCH   1   2
BRANCH   1  29
ATOM     29  C   UNL A   1      33.758  30.789  27.147  1.00  0.00     0.023 C 
BRANCH  29  30
ATOM     30  C   UNL A   1      34.742  31.780  27.771  1.00  0.00     0.116 C 
BRANCH  30  31
ATOM     31  N   UNL A   1      34.466  32.058  29.166  1.00  0.00    -0.352 N 
ATOM     32  C   UNL A   1      35.146  31.902  30.339  1.00  0.00     0.251 C 
ATOM     33  H   UNL A   1      33.575  32.455  29.300  1.00  0.00     0.163 HD
ATOM     34  O   UNL A   1      34.610  32.403  31.333  1.00  0.00    -0.269 OA
BRANCH  32  35
ATOM     35  C   UNL A   1      36.412  31.142  30.511  1.00  0.00     0.039 A 
ATOM     36  C   UNL A   1      37.697  31.685  30.541  1.00  0.00     0.014 A 
ATOM     37  C   UNL A   1      36.272  29.740  30.563  1.00  0.00     0.014 A 
ATOM     38  C   UNL A   1      38.811  30.854  30.517  1.00  0.00     0.010 A 
ATOM     39  C   UNL A   1      37.381  28.907  30.544  1.00  0.00     0.010 A 
ATOM     40  C   UNL A   1      38.649  29.468  30.460  1.00  0.00    -0.014 A 
BRANCH  40  41
ATOM     41  C   UNL A   1      39.845  28.643  30.346  1.00  0.00     0.031 A 
ATOM     42  C   UNL A   1      40.612  28.446  31.610  1.00  0.00     0.074 A 
ATOM     43  C   UNL A   1      40.188  28.015  29.204  1.00  0.00     0.049 A 
ATOM     44  N   UNL A   1      41.833  28.778  31.873  1.00  0.00    -0.248 NA
ATOM     45  C   UNL A   1      39.882  27.890  32.760  1.00  0.00     0.031 C 
ATOM     46  C   UNL A   1      39.403  27.862  27.974  1.00  0.00     0.029 A 
ATOM     47  N   UNL A   1      41.301  27.277  28.944  1.00  0.00    -0.354 N 
ATOM     48  C   UNL A   1      42.087  28.337  33.173  1.00  0.00     0.074 A 
ATOM     49  C   UNL A   1      40.820  27.906  33.707  1.00  0.00     0.031 C 
ATOM     50  C   UNL A   1      39.951  26.887  27.212  1.00  0.00     0.029 A 
ATOM     51  C   UNL A   1      41.208  26.477  27.813  1.00  0.00     0.049 A 
ATOM     52  H   UNL A   1      42.105  27.306  29.512  1.00  0.00     0.167 HD
ATOM     53  C   UNL A   1      43.347  28.210  33.675  1.00  0.00     0.031 A 
ATOM     54  C   UNL A   1      42.079  25.508  27.434  1.00  0.00     0.031 A 
ATOM     55  C   UNL A   1      44.311  28.936  32.899  1.00  0.00     0.049 A 
ATOM     56  C   UNL A   1      43.360  25.780  28.132  1.00  0.00     0.074 A 
ATOM     57  C   UNL A   1      44.539  30.272  32.641  1.00  0.00     0.029 A 
ATOM     58  N   UNL A   1      45.021  28.239  31.951  1.00  0.00    -0.354 N 
ATOM     59  N   UNL A   1      44.096  26.835  27.916  1.00  0.00    -0.248 NA
ATOM     60  C   UNL A   1      43.601  25.092  29.389  1.00  0.00     0.031 C 
ATOM     61  C   UNL A   1      44.959  30.313  31.283  1.00  0.00     0.029 A 
ATOM     62  C   UNL A   1      45.025  28.999  30.809  1.00  0.00     0.049 A 
ATOM     63  H   UNL A   1      45.447  27.360  32.069  1.00  0.00     0.167 HD
ATOM     64  C   UNL A   1      44.600  27.180  29.161  1.00  0.00     0.074 A 
ATOM     65  C   UNL A   1      44.324  26.024  30.014  1.00  0.00     0.031 C 
ATOM     66  C   UNL A   1      44.957  28.463  29.462  1.00  0.00     0.031 A 
BRANCH  53  67
ATOM     67  C   UNL A   1      43.752  27.194  34.714  1.00  0.00    -0.014 A 
ATOM     68  C   UNL A   1      43.696  25.805  34.487  1.00  0.00     0.010 A 
ATOM     69  C   UNL A   1      44.441  27.622  35.869  1.00  0.00     0.010 A 
ATOM     70  C   UNL A   1      44.277  24.885  35.363  1.00  0.00     0.020 A 
ATOM     71  C   UNL A   1      45.066  26.709  36.733  1.00  0.00     0.020 A 
ATOM     72  C   UNL A   1      44.973  25.344  36.474  1.00  0.00     0.054 A 
BRANCH  72  73
ATOM     73  S   UNL A   1      45.813  24.125  37.515  1.00  0.00     0.124 S 
ATOM     74  O   UNL A   1      45.412  22.868  36.889  1.00  0.00    -0.237 OA
ATOM     75  O   UNL A   1      47.217  24.491  37.352  1.00  0.00    -0.237 OA
ATOM     76  O   UNL A   1      45.257  24.367  38.844  1.00  0.00    -0.744 OA
ENDBRANCH  72  73
ENDBRANCH  53  67
BRANCH  54  77
ATOM     77  C   UNL A   1      41.738  24.158  26.915  1.00  0.00    -0.014 A 
ATOM     78  C   UNL A   1      40.894  23.314  27.667  1.00  0.00     0.010 A 
ATOM     79  C   UNL A   1      42.474  23.580  25.862  1.00  0.00     0.010 A 
ATOM     80  C   UNL A   1      40.838  21.936  27.426  1.00  0.00     0.020 A 
ATOM     81  C   UNL A   1      42.419  22.197  25.612  1.00  0.00     0.020 A 
ATOM     82  C   UNL A   1      41.626  21.379  26.420  1.00  0.00     0.054 A 
BRANCH  82  83
ATOM     83  S   UNL A   1      41.651  19.570  26.248  1.00  0.00     0.124 S 
ATOM     84  O   UNL A   1      40.258  19.276  25.924  1.00  0.00    -0.237 OA
ATOM     85  O   UNL A   1      42.603  19.370  25.158  1.00  0.00    -0.237 OA
ATOM     86  O   UNL A   1      42.101  19.103  27.556  1.00  0.00    -0.744 OA
ENDBRANCH  82  83
ENDBRANCH  54  77
BRANCH  66  87
ATOM     87  C   UNL A   1      45.033  29.498  28.357  1.00  0.00    -0.014 A 
ATOM     88  C   UNL A   1      46.315  29.943  27.985  1.00  0.00     0.010 A 
ATOM     89  C   UNL A   1      43.912  30.219  27.900  1.00  0.00     0.010 A 
ATOM     90  C   UNL A   1      46.483  31.117  27.248  1.00  0.00     0.020 A 
ATOM     91  C   UNL A   1      44.075  31.387  27.135  1.00  0.00     0.020 A 
ATOM     92  C   UNL A   1      45.363  31.849  26.851  1.00  0.00     0.054 A 
BRANCH  92  93
ATOM     93  S   UNL A   1      45.632  33.441  26.019  1.00  0.00     0.124 S 
ATOM     94  O   UNL A   1      47.090  33.499  25.926  1.00  0.00    -0.237 OA
ATOM     95  O   UNL A   1      44.935  33.264  24.748  1.00  0.00    -0.237 OA
ATOM     96  O   UNL A   1      45.033  34.422  26.922  1.00  0.00    -0.744 OA
ENDBRANCH  92  93
ENDBRANCH  66  87
ENDBRANCH  40  41
ENDBRANCH  32  35
ENDBRANCH  30  31
ENDBRANCH  29  30
ENDBRANCH   1  29
TORSDOF 18
ENDMDL
MODEL 3
REMARK VINA RESULT:     -12.5      3.192      9.831
REMARK SMILES Cc1c(CC(=O)NCCCCNC(=O)c2ccc(-c3c4nc(c(-c5ccc(S(=O)(=O)[O-])cc5)c5ccc([nH]5)c(-c5ccc(S(=O)(=O)[O-])cc5)c5nc(c(-c6ccc(S(=O)(=O)[O-])cc6)c6ccc3[nH]6)C=C5)C=C4)cc2)c2cc(O)ccc2n1C(=O)c1ccc(Cl)cc1
REMARK SMILES IDX 9 1 8 2 7 3 5 4 6 5 4 7 3 8 1 9 2 10 82 11 75 12 81 13 76 14
REMARK SMILES IDX 80 15 77 16 79 17 83 18 84 19 85 20 86 21 91 22 87 23 90 24
REMARK SMILES IDX 88 25 89 26 78 27 10 29 11 30 12 31 13 32 14 34 15 35 16 36
REMARK SMILES IDX 74 37 17 38 73 39 18 40 19 41 20 42 67 43 21 44 72 45 66 46
REMARK SMILES IDX 68 47 22 48 71 49 65 50 64 51 23 53 53 54 34 55 52 56 35 57
REMARK SMILES IDX 38 58 51 59 69 60 36 61 37 62 50 64 70 65 39 66 24 67 25 68
REMARK SMILES IDX 33 69 26 70 32 71 27 72 28 73 29 74 30 75 31 76 54 77 55 78
REMARK SMILES IDX 63 79 56 80 62 81 57 82 58 83 59 84 60 85 61 86 40 87 41 88
REMARK SMILES IDX 49 89 42 90 48 91 43 92 44 93 45 94 46 95 47 96
REMARK H PARENT 7 6 78 28 12 33 68 52 38 63
REMARK Flexibility Score: inf
ROOT
ATOM      1  C   UNL A   1      31.410  27.788  25.580  1.00  0.00     0.023 C 
ENDROOT
BRANCH   1   2
ATOM      2  C   UNL A   1      30.645  26.471  25.450  1.00  0.00     0.116 C 
BRANCH   2   3
ATOM      3  N   UNL A   1      30.911  25.569  26.551  1.00  0.00    -0.356 N 
ATOM      4  C   UNL A   1      31.269  24.252  26.503  1.00  0.00     0.224 C 
ATOM      5  O   UNL A   1      31.498  23.668  27.565  1.00  0.00    -0.275 OA
ATOM      6  H   UNL A   1      30.823  25.956  27.452  1.00  0.00     0.163 HD
BRANCH   4   7
ATOM      7  C   UNL A   1      31.459  23.557  25.162  1.00  0.00     0.138 C 
BRANCH   7   8
ATOM      8  C   UNL A   1      32.816  22.934  24.991  1.00  0.00    -0.009 A 
ATOM      9  C   UNL A   1      34.327  25.053  24.980  1.00  0.00     0.065 C 
ATOM     10  C   UNL A   1      34.042  23.584  24.904  1.00  0.00     0.028 A 
ATOM     11  N   UNL A   1      35.044  22.634  24.654  1.00  0.00    -0.280 N 
ATOM     12  C   UNL A   1      33.075  21.537  24.913  1.00  0.00     0.008 A 
ATOM     13  C   UNL A   1      34.458  21.362  24.773  1.00  0.00     0.057 A 
ATOM     14  C   UNL A   1      32.233  20.404  24.966  1.00  0.00     0.056 A 
ATOM     15  C   UNL A   1      34.999  20.057  24.765  1.00  0.00     0.031 A 
ATOM     16  C   UNL A   1      32.781  19.130  24.874  1.00  0.00     0.116 A 
ATOM     17  C   UNL A   1      34.147  18.950  24.785  1.00  0.00     0.048 A 
BRANCH  11  18
ATOM     18  C   UNL A   1      36.407  22.930  24.350  1.00  0.00     0.262 C 
ATOM     19  O   UNL A   1      36.708  23.206  23.186  1.00  0.00    -0.268 OA
BRANCH  18  20
ATOM     20  C   UNL A   1      37.509  22.990  25.322  1.00  0.00     0.040 A 
ATOM     21  C   UNL A   1      37.790  24.156  26.042  1.00  0.00     0.015 A 
ATOM     22  C   UNL A   1      38.295  21.843  25.481  1.00  0.00     0.015 A 
ATOM     23  C   UNL A   1      38.931  24.202  26.849  1.00  0.00     0.021 A 
ATOM     24  C   UNL A   1      39.425  21.891  26.296  1.00  0.00     0.021 A 
ATOM     25  C   UNL A   1      39.751  23.076  26.957  1.00  0.00     0.041 A 
ATOM     26  Cl  UNL A   1      41.195  23.148  27.888  1.00  0.00    -0.084 Cl
ENDBRANCH  18  20
ENDBRANCH  11  18
BRANCH  16  27
ATOM     27  O   UNL A   1      31.929  18.064  24.889  1.00  0.00    -0.508 OA
ATOM     28  H   UNL A   1      32.205  17.239  24.542  1.00  0.00     0.293 HD
ENDBRANCH  16  27
ENDBRANCH   7   8
ENDBRANCH   4   7
ENDBRANCH   2   3
ENDBRANCH   1   2
BRANCH   1  29
ATOM     29  C   UNL A   1      31.762  28.179  27.024  1.00  0.00     0.023 C 
BRANCH  29  30
ATOM     30  C   UNL A   1      33.214  28.616  27.225  1.00  0.00     0.116 C 
BRANCH  30  31
ATOM     31  N   UNL A   1      33.341  29.975  27.711  1.00  0.00    -0.352 N 
ATOM     32  C   UNL A   1      34.381  30.817  27.978  1.00  0.00     0.251 C 
ATOM     33  H   UNL A   1      32.467  30.392  27.892  1.00  0.00     0.163 HD
ATOM     34  O   UNL A   1      34.066  31.979  28.254  1.00  0.00    -0.269 OA
BRANCH  32  35
ATOM     35  C   UNL A   1      35.817  30.432  28.019  1.00  0.00     0.039 A 
ATOM     36  C   UNL A   1      36.344  29.192  27.657  1.00  0.00     0.014 A 
ATOM     37  C   UNL A   1      36.687  31.403  28.556  1.00  0.00     0.014 A 
ATOM     38  C   UNL A   1      37.677  28.892  27.919  1.00  0.00     0.010 A 
ATOM     39  C   UNL A   1      38.018  31.109  28.814  1.00  0.00     0.010 A 
ATOM     40  C   UNL A   1      38.494  29.832  28.550  1.00  0.00    -0.014 A 
BRANCH  40  41
ATOM     41  C   UNL A   1      39.858  29.439  28.883  1.00  0.00     0.031 A 
ATOM     42  C   UNL A   1      40.146  29.291  30.338  1.00  0.00     0.074 A 
ATOM     43  C   UNL A   1      40.775  29.134  27.944  1.00  0.00     0.049 A 
ATOM     44  N   UNL A   1      41.002  29.933  31.062  1.00  0.00    -0.248 NA
ATOM     45  C   UNL A   1      39.293  28.365  31.101  1.00  0.00     0.031 C 
ATOM     46  C   UNL A   1      40.579  28.943  26.503  1.00  0.00     0.029 A 
ATOM     47  N   UNL A   1      42.088  28.821  28.113  1.00  0.00    -0.354 N 
ATOM     48  C   UNL A   1      40.914  29.393  32.345  1.00  0.00     0.074 A 
ATOM     49  C   UNL A   1      39.769  28.518  32.337  1.00  0.00     0.031 C 
ATOM     50  C   UNL A   1      41.659  28.314  25.983  1.00  0.00     0.029 A 
ATOM     51  C   UNL A   1      42.681  28.218  27.011  1.00  0.00     0.049 A 
ATOM     52  H   UNL A   1      42.577  29.004  28.947  1.00  0.00     0.167 HD
ATOM     53  C   UNL A   1      41.878  29.579  33.291  1.00  0.00     0.031 A 
ATOM     54  C   UNL A   1      43.904  27.633  26.970  1.00  0.00     0.031 A 
ATOM     55  C   UNL A   1      42.744  30.677  32.968  1.00  0.00     0.049 A 
ATOM     56  C   UNL A   1      44.680  28.170  28.115  1.00  0.00     0.074 A 
ATOM     57  C   UNL A   1      42.576  32.041  32.857  1.00  0.00     0.029 A 
ATOM     58  N   UNL A   1      43.935  30.388  32.348  1.00  0.00    -0.354 N 
ATOM     59  N   UNL A   1      45.036  29.420  28.230  1.00  0.00    -0.248 NA
ATOM     60  C   UNL A   1      44.681  27.400  29.348  1.00  0.00     0.031 C 
ATOM     61  C   UNL A   1      43.408  32.421  31.768  1.00  0.00     0.029 A 
ATOM     62  C   UNL A   1      44.083  31.282  31.319  1.00  0.00     0.049 A 
ATOM     63  H   UNL A   1      44.565  29.673  32.596  1.00  0.00     0.167 HD
ATOM     64  C   UNL A   1      44.917  29.702  29.583  1.00  0.00     0.074 A 
ATOM     65  C   UNL A   1      44.770  28.398  30.230  1.00  0.00     0.031 C 
ATOM     66  C   UNL A   1      44.683  30.968  30.035  1.00  0.00     0.031 A 
BRANCH  53  67
ATOM     67  C   UNL A   1      42.210  28.586  34.376  1.00  0.00    -0.014 A 
ATOM     68  C   UNL A   1      42.284  27.198  34.145  1.00  0.00     0.010 A 
ATOM     69  C   UNL A   1      42.703  29.051  35.614  1.00  0.00     0.010 A 
ATOM     70  C   UNL A   1      42.806  26.314  35.093  1.00  0.00     0.020 A 
ATOM     71  C   UNL A   1      43.270  28.177  36.555  1.00  0.00     0.020 A 
ATOM     72  C   UNL A   1      43.311  26.811  36.287  1.00  0.00     0.054 A 
BRANCH  72  73
ATOM     73  S   UNL A   1      44.088  25.645  37.434  1.00  0.00     0.124 S 
ATOM     74  O   UNL A   1      43.533  24.370  36.987  1.00  0.00    -0.237 OA
ATOM     75  O   UNL A   1      45.509  25.844  37.164  1.00  0.00    -0.237 OA
ATOM     76  O   UNL A   1      43.633  26.100  38.746  1.00  0.00    -0.744 OA
ENDBRANCH  72  73
ENDBRANCH  53  67
BRANCH  54  77
ATOM     77  C   UNL A   1      44.252  26.343  26.320  1.00  0.00    -0.014 A 
ATOM     78  C   UNL A   1      43.287  25.672  25.540  1.00  0.00     0.010 A 
ATOM     79  C   UNL A   1      45.395  25.620  26.713  1.00  0.00     0.010 A 
ATOM     80  C   UNL A   1      43.421  24.315  25.221  1.00  0.00     0.020 A 
ATOM     81  C   UNL A   1      45.538  24.257  26.393  1.00  0.00     0.020 A 
ATOM     82  C   UNL A   1      44.531  23.606  25.677  1.00  0.00     0.054 A 
BRANCH  82  83
ATOM     83  S   UNL A   1      44.586  21.813  25.386  1.00  0.00     0.124 S 
ATOM     84  O   UNL A   1      45.931  21.472  25.839  1.00  0.00    -0.237 OA
ATOM     85  O   UNL A   1      43.498  21.323  26.229  1.00  0.00    -0.237 OA
ATOM     86  O   UNL A   1      44.361  21.688  23.949  1.00  0.00    -0.744 OA
ENDBRANCH  82  83
ENDBRANCH  54  77
BRANCH  66  87
ATOM     87  C   UNL A   1      44.786  32.137  29.075  1.00  0.00    -0.014 A 
ATOM     88  C   UNL A   1      44.062  32.043  27.872  1.00  0.00     0.010 A 
ATOM     89  C   UNL A   1      45.760  33.149  29.196  1.00  0.00     0.010 A 
ATOM     90  C   UNL A   1      44.354  32.876  26.790  1.00  0.00     0.020 A 
ATOM     91  C   UNL A   1      46.039  34.008  28.119  1.00  0.00     0.020 A 
ATOM     92  C   UNL A   1      45.360  33.836  26.909  1.00  0.00     0.054 A 
BRANCH  92  93
ATOM     93  S   UNL A   1      45.801  34.800  25.435  1.00  0.00     0.124 S 
ATOM     94  O   UNL A   1      44.854  34.298  24.442  1.00  0.00    -0.237 OA
ATOM     95  O   UNL A   1      45.577  36.177  25.869  1.00  0.00    -0.237 OA
ATOM     96  O   UNL A   1      47.199  34.451  25.184  1.00  0.00    -0.744 OA
ENDBRANCH  92  93
ENDBRANCH  66  87
ENDBRANCH  40  41
ENDBRANCH  32  35
ENDBRANCH  30  31
ENDBRANCH  29  30
ENDBRANCH   1  29
TORSDOF 18
ENDMDL
