MODEL 1
REMARK VINA RESULT:     -13.0      0.000      0.000
REMARK SMILES Cc1cccc(-c2cc(C(=O)NCCCCNC(=O)c3ccc(-c4c5nc(c(-c6ccc(S(=O)(=O)[O-])cc6)c6ccc([nH]6)c(-c6ccc(S(=O)(=O)[O-])cc6)c6nc(c(-c7ccc(S(=O)(=O)[O-])cc7)c7ccc4[nH]7)C=C6)C=C5)cc3)ccn2)c1
REMARK SMILES IDX 15 1 14 2 13 3 12 4 10 5 11 6 9 8 7 9 8 10 82 11 81 12 80 13
REMARK SMILES IDX 6 14 1 15 2 16 3 17 83 18 4 19 5 20 16 21 17 22 18 23 19 25
REMARK SMILES IDX 20 26 21 27 79 28 22 29 78 30 23 31 24 32 25 33 72 34 26 35
REMARK SMILES IDX 77 36 71 37 73 38 27 39 76 40 70 41 69 42 28 44 58 45 39 46
REMARK SMILES IDX 57 47 40 48 43 49 56 50 74 51 41 52 42 53 55 55 75 56 44 57
REMARK SMILES IDX 29 58 30 59 38 60 31 61 37 62 32 63 33 64 34 65 35 66 36 67
REMARK SMILES IDX 59 68 60 69 68 70 61 71 67 72 62 73 63 74 64 75 65 76 66 77
REMARK SMILES IDX 45 78 46 79 54 80 47 81 53 82 48 83 49 84 50 85 51 86 52 87
REMARK H PARENT 12 7 17 24 73 43 43 54
REMARK Flexibility Score: inf
ROOT
ATOM      1  C   UNL A   1      34.996  31.836  28.984  1.00  0.00     0.023 C 
ENDROOT
BRANCH   1   2
ATOM      2  C   UNL A   1      34.062  31.584  27.788  1.00  0.00     0.023 C 
BRANCH   2   3
ATOM      3  C   UNL A   1      34.117  30.160  27.224  1.00  0.00     0.116 C 
BRANCH   3   4
ATOM      4  N   UNL A   1      33.070  29.336  27.812  1.00  0.00    -0.352 N 
ATOM      5  C   UNL A   1      32.326  28.279  27.362  1.00  0.00     0.251 C 
ATOM      6  O   UNL A   1      31.431  27.868  28.106  1.00  0.00    -0.269 OA
ATOM      7  H   UNL A   1      32.848  29.599  28.735  1.00  0.00     0.163 HD
BRANCH   5   8
ATOM      8  C   UNL A   1      32.547  27.565  26.071  1.00  0.00     0.043 A 
ATOM      9  C   UNL A   1      33.564  25.940  24.617  1.00  0.00     0.071 A 
ATOM     10  C   UNL A   1      33.543  26.629  25.829  1.00  0.00     0.042 A 
ATOM     11  N   UNL A   1      32.715  26.215  23.602  1.00  0.00    -0.256 NA
ATOM     12  C   UNL A   1      31.788  27.168  23.830  1.00  0.00     0.112 A 
ATOM     13  C   UNL A   1      31.658  27.847  25.029  1.00  0.00     0.034 A 
BRANCH   9  14
ATOM     14  C   UNL A   1      34.472  24.802  24.448  1.00  0.00     0.000 A 
ATOM     15  C   UNL A   1      37.705  23.528  26.045  1.00  0.00     0.044 C 
ATOM     16  C   UNL A   1      36.524  23.647  25.127  1.00  0.00    -0.050 A 
ATOM     17  C   UNL A   1      36.369  22.767  24.053  1.00  0.00     0.003 A 
ATOM     18  C   UNL A   1      35.571  24.653  25.317  1.00  0.00     0.013 A 
ATOM     19  C   UNL A   1      35.273  22.883  23.196  1.00  0.00     0.001 A 
ATOM     20  C   UNL A   1      34.324  23.890  23.396  1.00  0.00     0.010 A 
ENDBRANCH   9  14
ENDBRANCH   5   8
ENDBRANCH   3   4
ENDBRANCH   2   3
ENDBRANCH   1   2
BRANCH   1  21
ATOM     21  C   UNL A   1      36.382  32.333  28.602  1.00  0.00     0.116 C 
BRANCH  21  22
ATOM     22  N   UNL A   1      37.419  31.695  29.376  1.00  0.00    -0.352 N 
ATOM     23  C   UNL A   1      38.334  30.788  28.926  1.00  0.00     0.251 C 
ATOM     24  H   UNL A   1      37.473  31.940  30.328  1.00  0.00     0.163 HD
ATOM     25  O   UNL A   1      39.513  31.027  29.177  1.00  0.00    -0.269 OA
BRANCH  23  26
ATOM     26  C   UNL A   1      37.993  29.643  27.995  1.00  0.00     0.039 A 
ATOM     27  C   UNL A   1      37.761  28.508  28.794  1.00  0.00     0.014 A 
ATOM     28  C   UNL A   1      38.930  29.520  26.976  1.00  0.00     0.014 A 
ATOM     29  C   UNL A   1      38.867  27.736  29.116  1.00  0.00     0.010 A 
ATOM     30  C   UNL A   1      40.067  28.826  27.298  1.00  0.00     0.010 A 
ATOM     31  C   UNL A   1      40.051  28.035  28.451  1.00  0.00    -0.014 A 
BRANCH  31  32
ATOM     32  C   UNL A   1      41.334  27.522  28.852  1.00  0.00     0.031 A 
ATOM     33  C   UNL A   1      41.547  26.094  28.610  1.00  0.00     0.074 A 
ATOM     34  C   UNL A   1      42.267  28.387  29.305  1.00  0.00     0.049 A 
ATOM     35  N   UNL A   1      42.479  25.388  29.135  1.00  0.00    -0.248 NA
ATOM     36  C   UNL A   1      40.612  25.309  27.795  1.00  0.00     0.031 C 
ATOM     37  C   UNL A   1      43.695  28.146  29.484  1.00  0.00     0.029 A 
ATOM     38  N   UNL A   1      42.048  29.622  29.931  1.00  0.00    -0.354 N 
ATOM     39  C   UNL A   1      42.482  24.192  28.457  1.00  0.00     0.074 A 
ATOM     40  C   UNL A   1      41.214  24.121  27.787  1.00  0.00     0.031 C 
ATOM     41  C   UNL A   1      44.153  29.001  30.417  1.00  0.00     0.029 A 
ATOM     42  C   UNL A   1      42.992  29.690  30.967  1.00  0.00     0.049 A 
ATOM     43  H   UNL A   1      41.373  30.299  29.694  1.00  0.00     0.167 HD
ATOM     44  C   UNL A   1      43.655  23.509  28.376  1.00  0.00     0.031 A 
ATOM     45  C   UNL A   1      42.627  29.653  32.283  1.00  0.00     0.031 A 
ATOM     46  C   UNL A   1      44.600  24.028  29.367  1.00  0.00     0.049 A 
ATOM     47  C   UNL A   1      43.162  28.395  32.966  1.00  0.00     0.074 A 
ATOM     48  C   UNL A   1      45.701  24.862  29.289  1.00  0.00     0.029 A 
ATOM     49  N   UNL A   1      44.204  24.030  30.706  1.00  0.00    -0.354 N 
ATOM     50  N   UNL A   1      43.520  27.303  32.336  1.00  0.00    -0.248 NA
ATOM     51  C   UNL A   1      43.395  28.296  34.404  1.00  0.00     0.031 C 
ATOM     52  C   UNL A   1      45.856  25.490  30.565  1.00  0.00     0.029 A 
ATOM     53  C   UNL A   1      44.884  24.998  31.423  1.00  0.00     0.049 A 
ATOM     54  H   UNL A   1      43.530  23.423  31.089  1.00  0.00     0.167 HD
ATOM     55  C   UNL A   1      44.065  26.404  33.218  1.00  0.00     0.074 A 
ATOM     56  C   UNL A   1      43.952  27.075  34.505  1.00  0.00     0.031 C 
ATOM     57  C   UNL A   1      44.585  25.191  32.842  1.00  0.00     0.031 A 
BRANCH  44  58
ATOM     58  C   UNL A   1      43.998  22.603  27.211  1.00  0.00    -0.014 A 
ATOM     59  C   UNL A   1      43.062  21.650  26.768  1.00  0.00     0.010 A 
ATOM     60  C   UNL A   1      45.265  22.549  26.587  1.00  0.00     0.010 A 
ATOM     61  C   UNL A   1      43.381  20.696  25.782  1.00  0.00     0.020 A 
ATOM     62  C   UNL A   1      45.593  21.618  25.593  1.00  0.00     0.020 A 
ATOM     63  C   UNL A   1      44.648  20.686  25.200  1.00  0.00     0.054 A 
BRANCH  63  64
ATOM     64  S   UNL A   1      45.061  19.449  23.944  1.00  0.00     0.124 S 
ATOM     65  O   UNL A   1      44.367  18.261  24.435  1.00  0.00    -0.237 OA
ATOM     66  O   UNL A   1      44.519  20.043  22.727  1.00  0.00    -0.237 OA
ATOM     67  O   UNL A   1      46.521  19.374  23.996  1.00  0.00    -0.744 OA
ENDBRANCH  63  64
ENDBRANCH  44  58
BRANCH  45  68
ATOM     68  C   UNL A   1      41.378  30.418  32.606  1.00  0.00    -0.014 A 
ATOM     69  C   UNL A   1      40.202  29.658  32.826  1.00  0.00     0.010 A 
ATOM     70  C   UNL A   1      41.391  31.747  33.064  1.00  0.00     0.010 A 
ATOM     71  C   UNL A   1      39.137  30.152  33.593  1.00  0.00     0.020 A 
ATOM     72  C   UNL A   1      40.314  32.253  33.830  1.00  0.00     0.020 A 
ATOM     73  C   UNL A   1      39.215  31.437  34.128  1.00  0.00     0.054 A 
BRANCH  73  74
ATOM     74  S   UNL A   1      37.994  31.913  35.416  1.00  0.00     0.124 S 
ATOM     75  O   UNL A   1      37.939  30.707  36.238  1.00  0.00    -0.237 OA
ATOM     76  O   UNL A   1      38.610  33.069  36.076  1.00  0.00    -0.237 OA
ATOM     77  O   UNL A   1      36.770  32.201  34.668  1.00  0.00    -0.744 OA
ENDBRANCH  73  74
ENDBRANCH  45  68
BRANCH  57  78
ATOM     78  C   UNL A   1      44.920  24.040  33.779  1.00  0.00    -0.014 A 
ATOM     79  C   UNL A   1      44.034  23.008  34.118  1.00  0.00     0.010 A 
ATOM     80  C   UNL A   1      46.259  23.894  34.229  1.00  0.00     0.010 A 
ATOM     81  C   UNL A   1      44.446  21.918  34.901  1.00  0.00     0.020 A 
ATOM     82  C   UNL A   1      46.697  22.783  34.952  1.00  0.00     0.020 A 
ATOM     83  C   UNL A   1      45.776  21.809  35.308  1.00  0.00     0.054 A 
BRANCH  83  84
ATOM     84  S   UNL A   1      46.307  20.357  36.247  1.00  0.00     0.124 S 
ATOM     85  O   UNL A   1      47.752  20.387  36.053  1.00  0.00    -0.237 OA
ATOM     86  O   UNL A   1      45.848  20.657  37.599  1.00  0.00    -0.237 OA
ATOM     87  O   UNL A   1      45.608  19.250  35.592  1.00  0.00    -0.744 OA
ENDBRANCH  83  84
ENDBRANCH  57  78
ENDBRANCH  31  32
ENDBRANCH  23  26
ENDBRANCH  21  22
ENDBRANCH   1  21
TORSDOF 15
ENDMDL
MODEL 2
REMARK VINA RESULT:     -12.4      2.551      4.235
REMARK SMILES Cc1cccc(-c2cc(C(=O)NCCCCNC(=O)c3ccc(-c4c5nc(c(-c6ccc(S(=O)(=O)[O-])cc6)c6ccc([nH]6)c(-c6ccc(S(=O)(=O)[O-])cc6)c6nc(c(-c7ccc(S(=O)(=O)[O-])cc7)c7ccc4[nH]7)C=C6)C=C5)cc3)ccn2)c1
REMARK SMILES IDX 15 1 14 2 13 3 12 4 10 5 11 6 9 8 7 9 8 10 82 11 81 12 80 13
REMARK SMILES IDX 6 14 1 15 2 16 3 17 83 18 4 19 5 20 16 21 17 22 18 23 19 25
REMARK SMILES IDX 20 26 21 27 79 28 22 29 78 30 23 31 24 32 25 33 72 34 26 35
REMARK SMILES IDX 77 36 71 37 73 38 27 39 76 40 70 41 69 42 28 44 58 45 39 46
REMARK SMILES IDX 57 47 40 48 43 49 56 50 74 51 41 52 42 53 55 55 75 56 44 57
REMARK SMILES IDX 29 58 30 59 38 60 31 61 37 62 32 63 33 64 34 65 35 66 36 67
REMARK SMILES IDX 59 68 60 69 68 70 61 71 67 72 62 73 63 74 64 75 65 76 66 77
REMARK SMILES IDX 45 78 46 79 54 80 47 81 53 82 48 83 49 84 50 85 51 86 52 87
REMARK H PARENT 12 7 17 24 73 43 43 54
REMARK Flexibility Score: inf
ROOT
ATOM      1  C   UNL A   1      33.456  32.003  27.943  1.00  0.00     0.023 C 
ENDROOT
BRANCH   1   2
ATOM      2  C   UNL A   1      33.313  30.988  26.796  1.00  0.00     0.023 C 
BRANCH   2   3
ATOM      3  C   UNL A   1      32.485  29.745  27.143  1.00  0.00     0.116 C 
BRANCH   3   4
ATOM      4  N   UNL A   1      33.195  28.534  26.755  1.00  0.00    -0.352 N 
ATOM      5  C   UNL A   1      33.043  27.626  25.741  1.00  0.00     0.251 C 
ATOM      6  O   UNL A   1      33.779  26.635  25.764  1.00  0.00    -0.269 OA
ATOM      7  H   UNL A   1      33.949  28.322  27.352  1.00  0.00     0.163 HD
BRANCH   5   8
ATOM      8  C   UNL A   1      32.095  27.769  24.599  1.00  0.00     0.043 A 
ATOM      9  C   UNL A   1      30.438  28.886  23.260  1.00  0.00     0.071 A 
ATOM     10  C   UNL A   1      31.180  28.800  24.437  1.00  0.00     0.042 A 
ATOM     11  N   UNL A   1      30.482  27.943  22.293  1.00  0.00    -0.256 NA
ATOM     12  C   UNL A   1      31.334  26.915  22.489  1.00  0.00     0.112 A 
ATOM     13  C   UNL A   1      32.156  26.794  23.598  1.00  0.00     0.034 A 
BRANCH   9  14
ATOM     14  C   UNL A   1      29.641  30.087  22.993  1.00  0.00     0.000 A 
ATOM     15  C   UNL A   1      27.880  31.678  19.994  1.00  0.00     0.044 C 
ATOM     16  C   UNL A   1      28.422  31.470  21.377  1.00  0.00    -0.050 A 
ATOM     17  C   UNL A   1      28.283  32.462  22.351  1.00  0.00     0.003 A 
ATOM     18  C   UNL A   1      29.097  30.289  21.710  1.00  0.00     0.013 A 
ATOM     19  C   UNL A   1      28.794  32.269  23.636  1.00  0.00     0.001 A 
ATOM     20  C   UNL A   1      29.463  31.085  23.959  1.00  0.00     0.010 A 
ENDBRANCH   9  14
ENDBRANCH   5   8
ENDBRANCH   3   4
ENDBRANCH   2   3
ENDBRANCH   1   2
BRANCH   1  21
ATOM     21  C   UNL A   1      34.740  32.818  27.900  1.00  0.00     0.116 C 
BRANCH  21  22
ATOM     22  N   UNL A   1      35.632  32.481  28.983  1.00  0.00    -0.352 N 
ATOM     23  C   UNL A   1      36.663  31.588  28.945  1.00  0.00     0.251 C 
ATOM     24  H   UNL A   1      35.481  32.944  29.838  1.00  0.00     0.163 HD
ATOM     25  O   UNL A   1      37.754  31.992  29.340  1.00  0.00    -0.269 OA
BRANCH  23  26
ATOM     26  C   UNL A   1      36.573  30.231  28.279  1.00  0.00     0.039 A 
ATOM     27  C   UNL A   1      36.478  29.268  29.301  1.00  0.00     0.014 A 
ATOM     28  C   UNL A   1      37.581  30.059  27.338  1.00  0.00     0.014 A 
ATOM     29  C   UNL A   1      37.672  28.784  29.815  1.00  0.00     0.010 A 
ATOM     30  C   UNL A   1      38.793  29.655  27.836  1.00  0.00     0.010 A 
ATOM     31  C   UNL A   1      38.831  29.135  29.134  1.00  0.00    -0.014 A 
BRANCH  31  32
ATOM     32  C   UNL A   1      40.152  28.949  29.673  1.00  0.00     0.031 A 
ATOM     33  C   UNL A   1      40.785  27.665  29.364  1.00  0.00     0.074 A 
ATOM     34  C   UNL A   1      40.746  29.980  30.311  1.00  0.00     0.049 A 
ATOM     35  N   UNL A   1      41.811  27.186  29.963  1.00  0.00    -0.248 NA
ATOM     36  C   UNL A   1      40.208  26.748  28.373  1.00  0.00     0.031 C 
ATOM     37  C   UNL A   1      42.153  30.117  30.670  1.00  0.00     0.029 A 
ATOM     38  N   UNL A   1      40.118  31.037  30.985  1.00  0.00    -0.354 N 
ATOM     39  C   UNL A   1      42.229  26.114  29.210  1.00  0.00     0.074 A 
ATOM     40  C   UNL A   1      41.117  25.774  28.366  1.00  0.00     0.031 C 
ATOM     41  C   UNL A   1      42.242  30.959  31.716  1.00  0.00     0.029 A 
ATOM     42  C   UNL A   1      40.880  31.247  32.145  1.00  0.00     0.049 A 
ATOM     43  H   UNL A   1      39.311  31.528  30.704  1.00  0.00     0.167 HD
ATOM     44  C   UNL A   1      43.547  25.785  29.245  1.00  0.00     0.031 A 
ATOM     45  C   UNL A   1      40.391  30.973  33.391  1.00  0.00     0.031 A 
ATOM     46  C   UNL A   1      44.188  26.432  30.393  1.00  0.00     0.049 A 
ATOM     47  C   UNL A   1      41.177  29.842  34.053  1.00  0.00     0.074 A 
ATOM     48  C   UNL A   1      45.012  27.535  30.527  1.00  0.00     0.029 A 
ATOM     49  N   UNL A   1      43.657  26.186  31.660  1.00  0.00    -0.354 N 
ATOM     50  N   UNL A   1      41.898  28.960  33.403  1.00  0.00    -0.248 NA
ATOM     51  C   UNL A   1      41.262  29.658  35.499  1.00  0.00     0.031 C 
ATOM     52  C   UNL A   1      44.836  28.043  31.853  1.00  0.00     0.029 A 
ATOM     53  C   UNL A   1      43.951  27.219  32.530  1.00  0.00     0.049 A 
ATOM     54  H   UNL A   1      43.142  25.381  31.902  1.00  0.00     0.167 HD
ATOM     55  C   UNL A   1      42.569  28.153  34.288  1.00  0.00     0.074 A 
ATOM     56  C   UNL A   1      42.124  28.629  35.590  1.00  0.00     0.031 C 
ATOM     57  C   UNL A   1      43.449  27.173  33.905  1.00  0.00     0.031 A 
BRANCH  44  58
ATOM     58  C   UNL A   1      44.263  25.134  28.079  1.00  0.00    -0.014 A 
ATOM     59  C   UNL A   1      44.227  25.743  26.810  1.00  0.00     0.010 A 
ATOM     60  C   UNL A   1      44.882  23.865  28.129  1.00  0.00     0.010 A 
ATOM     61  C   UNL A   1      44.759  25.114  25.667  1.00  0.00     0.020 A 
ATOM     62  C   UNL A   1      45.430  23.233  27.005  1.00  0.00     0.020 A 
ATOM     63  C   UNL A   1      45.357  23.859  25.773  1.00  0.00     0.054 A 
BRANCH  63  64
ATOM     64  S   UNL A   1      46.025  23.045  24.300  1.00  0.00     0.124 S 
ATOM     65  O   UNL A   1      46.540  21.790  24.842  1.00  0.00    -0.237 OA
ATOM     66  O   UNL A   1      44.850  22.930  23.443  1.00  0.00    -0.237 OA
ATOM     67  O   UNL A   1      47.049  23.974  23.822  1.00  0.00    -0.744 OA
ENDBRANCH  63  64
ENDBRANCH  44  58
BRANCH  45  68
ATOM     68  C   UNL A   1      38.950  31.334  33.589  1.00  0.00    -0.014 A 
ATOM     69  C   UNL A   1      38.667  32.689  33.898  1.00  0.00     0.010 A 
ATOM     70  C   UNL A   1      37.889  30.536  33.126  1.00  0.00     0.010 A 
ATOM     71  C   UNL A   1      37.416  33.262  33.624  1.00  0.00     0.020 A 
ATOM     72  C   UNL A   1      36.623  31.109  32.858  1.00  0.00     0.020 A 
ATOM     73  C   UNL A   1      36.409  32.478  33.067  1.00  0.00     0.054 A 
BRANCH  73  74
ATOM     74  S   UNL A   1      34.929  33.327  32.384  1.00  0.00     0.124 S 
ATOM     75  O   UNL A   1      34.310  32.265  31.595  1.00  0.00    -0.237 OA
ATOM     76  O   UNL A   1      34.169  33.723  33.573  1.00  0.00    -0.237 OA
ATOM     77  O   UNL A   1      35.477  34.433  31.597  1.00  0.00    -0.744 OA
ENDBRANCH  73  74
ENDBRANCH  45  68
BRANCH  57  78
ATOM     78  C   UNL A   1      43.984  26.062  34.795  1.00  0.00    -0.014 A 
ATOM     79  C   UNL A   1      43.392  24.800  34.935  1.00  0.00     0.010 A 
ATOM     80  C   UNL A   1      45.250  26.236  35.415  1.00  0.00     0.010 A 
ATOM     81  C   UNL A   1      44.001  23.784  35.690  1.00  0.00     0.020 A 
ATOM     82  C   UNL A   1      45.897  25.214  36.113  1.00  0.00     0.020 A 
ATOM     83  C   UNL A   1      45.252  23.996  36.269  1.00  0.00     0.054 A 
BRANCH  83  84
ATOM     84  S   UNL A   1      46.060  22.651  37.169  1.00  0.00     0.124 S 
ATOM     85  O   UNL A   1      45.534  21.475  36.485  1.00  0.00    -0.237 OA
ATOM     86  O   UNL A   1      47.478  22.921  36.956  1.00  0.00    -0.237 OA
ATOM     87  O   UNL A   1      45.599  22.834  38.547  1.00  0.00    -0.744 OA
ENDBRANCH  83  84
ENDBRANCH  57  78
ENDBRANCH  31  32
ENDBRANCH  23  26
ENDBRANCH  21  22
ENDBRANCH   1  21
TORSDOF 15
ENDMDL
MODEL 3
REMARK VINA RESULT:     -12.2      2.058      2.784
REMARK SMILES Cc1cccc(-c2cc(C(=O)NCCCCNC(=O)c3ccc(-c4c5nc(c(-c6ccc(S(=O)(=O)[O-])cc6)c6ccc([nH]6)c(-c6ccc(S(=O)(=O)[O-])cc6)c6nc(c(-c7ccc(S(=O)(=O)[O-])cc7)c7ccc4[nH]7)C=C6)C=C5)cc3)ccn2)c1
REMARK SMILES IDX 15 1 14 2 13 3 12 4 10 5 11 6 9 8 7 9 8 10 82 11 81 12 80 13
REMARK SMILES IDX 6 14 1 15 2 16 3 17 83 18 4 19 5 20 16 21 17 22 18 23 19 25
REMARK SMILES IDX 20 26 21 27 79 28 22 29 78 30 23 31 24 32 25 33 72 34 26 35
REMARK SMILES IDX 77 36 71 37 73 38 27 39 76 40 70 41 69 42 28 44 58 45 39 46
REMARK SMILES IDX 57 47 40 48 43 49 56 50 74 51 41 52 42 53 55 55 75 56 44 57
REMARK SMILES IDX 29 58 30 59 38 60 31 61 37 62 32 63 33 64 34 65 35 66 36 67
REMARK SMILES IDX 59 68 60 69 68 70 61 71 67 72 62 73 63 74 64 75 65 76 66 77
REMARK SMILES IDX 45 78 46 79 54 80 47 81 53 82 48 83 49 84 50 85 51 86 52 87
REMARK H PARENT 12 7 17 24 73 43 43 54
REMARK Flexibility Score: inf
ROOT
ATOM      1  C   UNL A   1      33.272  31.972  28.016  1.00  0.00     0.023 C 
ENDROOT
BRANCH   1   2
ATOM      2  C   UNL A   1      33.372  30.767  27.066  1.00  0.00     0.023 C 
BRANCH   2   3
ATOM      3  C   UNL A   1      32.038  30.324  26.452  1.00  0.00     0.116 C 
BRANCH   3   4
ATOM      4  N   UNL A   1      32.179  30.120  25.017  1.00  0.00    -0.352 N 
ATOM      5  C   UNL A   1      32.247  29.012  24.216  1.00  0.00     0.251 C 
ATOM      6  O   UNL A   1      32.470  29.202  23.017  1.00  0.00    -0.269 OA
ATOM      7  H   UNL A   1      32.238  30.964  24.513  1.00  0.00     0.163 HD
BRANCH   5   8
ATOM      8  C   UNL A   1      32.027  27.610  24.675  1.00  0.00     0.043 A 
ATOM      9  C   UNL A   1      32.683  25.365  25.237  1.00  0.00     0.071 A 
ATOM     10  C   UNL A   1      32.979  26.601  24.662  1.00  0.00     0.042 A 
ATOM     11  N   UNL A   1      31.459  25.054  25.719  1.00  0.00    -0.256 NA
ATOM     12  C   UNL A   1      30.525  26.026  25.672  1.00  0.00     0.112 A 
ATOM     13  C   UNL A   1      30.761  27.300  25.182  1.00  0.00     0.034 A 
BRANCH   9  14
ATOM     14  C   UNL A   1      33.752  24.379  25.424  1.00  0.00     0.000 A 
ATOM     15  C   UNL A   1      36.648  22.957  23.372  1.00  0.00     0.044 C 
ATOM     16  C   UNL A   1      35.671  23.175  24.488  1.00  0.00    -0.050 A 
ATOM     17  C   UNL A   1      35.699  22.364  25.626  1.00  0.00     0.003 A 
ATOM     18  C   UNL A   1      34.699  24.179  24.401  1.00  0.00     0.013 A 
ATOM     19  C   UNL A   1      34.784  22.564  26.661  1.00  0.00     0.001 A 
ATOM     20  C   UNL A   1      33.820  23.572  26.565  1.00  0.00     0.010 A 
ENDBRANCH   9  14
ENDBRANCH   5   8
ENDBRANCH   3   4
ENDBRANCH   2   3
ENDBRANCH   1   2
BRANCH   1  21
ATOM     21  C   UNL A   1      34.459  32.922  27.949  1.00  0.00     0.116 C 
BRANCH  21  22
ATOM     22  N   UNL A   1      35.459  32.611  28.942  1.00  0.00    -0.352 N 
ATOM     23  C   UNL A   1      36.450  31.679  28.840  1.00  0.00     0.251 C 
ATOM     24  H   UNL A   1      35.421  33.125  29.781  1.00  0.00     0.163 HD
ATOM     25  O   UNL A   1      37.592  32.064  29.085  1.00  0.00    -0.269 OA
BRANCH  23  26
ATOM     26  C   UNL A   1      36.243  30.293  28.268  1.00  0.00     0.039 A 
ATOM     27  C   UNL A   1      36.188  29.396  29.352  1.00  0.00     0.014 A 
ATOM     28  C   UNL A   1      37.161  30.015  27.262  1.00  0.00     0.014 A 
ATOM     29  C   UNL A   1      37.396  28.883  29.798  1.00  0.00     0.010 A 
ATOM     30  C   UNL A   1      38.390  29.579  27.687  1.00  0.00     0.010 A 
ATOM     31  C   UNL A   1      38.511  29.134  29.007  1.00  0.00    -0.014 A 
BRANCH  31  32
ATOM     32  C   UNL A   1      39.862  28.911  29.450  1.00  0.00     0.031 A 
ATOM     33  C   UNL A   1      40.423  27.598  29.127  1.00  0.00     0.074 A 
ATOM     34  C   UNL A   1      40.538  29.934  30.014  1.00  0.00     0.049 A 
ATOM     35  N   UNL A   1      41.475  27.096  29.659  1.00  0.00    -0.248 NA
ATOM     36  C   UNL A   1      39.741  26.680  28.207  1.00  0.00     0.031 C 
ATOM     37  C   UNL A   1      41.972  30.027  30.263  1.00  0.00     0.029 A 
ATOM     38  N   UNL A   1      40.000  31.029  30.706  1.00  0.00    -0.354 N 
ATOM     39  C   UNL A   1      41.796  25.992  28.905  1.00  0.00     0.074 A 
ATOM     40  C   UNL A   1      40.612  25.674  28.156  1.00  0.00     0.031 C 
ATOM     41  C   UNL A   1      42.170  30.890  31.276  1.00  0.00     0.029 A 
ATOM     42  C   UNL A   1      40.855  31.238  31.799  1.00  0.00     0.049 A 
ATOM     43  H   UNL A   1      39.192  31.543  30.474  1.00  0.00     0.167 HD
ATOM     44  C   UNL A   1      43.101  25.615  28.849  1.00  0.00     0.031 A 
ATOM     45  C   UNL A   1      40.453  31.011  33.085  1.00  0.00     0.031 A 
ATOM     46  C   UNL A   1      43.850  26.264  29.928  1.00  0.00     0.049 A 
ATOM     47  C   UNL A   1      41.247  29.867  33.715  1.00  0.00     0.074 A 
ATOM     48  C   UNL A   1      44.719  27.340  29.972  1.00  0.00     0.029 A 
ATOM     49  N   UNL A   1      43.409  26.067  31.238  1.00  0.00    -0.354 N 
ATOM     50  N   UNL A   1      41.885  28.944  33.037  1.00  0.00    -0.248 NA
ATOM     51  C   UNL A   1      41.436  29.713  35.155  1.00  0.00     0.031 C 
ATOM     52  C   UNL A   1      44.663  27.884  31.293  1.00  0.00     0.029 A 
ATOM     53  C   UNL A   1      43.804  27.109  32.057  1.00  0.00     0.049 A 
ATOM     54  H   UNL A   1      42.885  25.289  31.538  1.00  0.00     0.167 HD
ATOM     55  C   UNL A   1      42.593  28.134  33.889  1.00  0.00     0.074 A 
ATOM     56  C   UNL A   1      42.266  28.656  35.208  1.00  0.00     0.031 C 
ATOM     57  C   UNL A   1      43.406  27.114  33.466  1.00  0.00     0.031 A 
BRANCH  44  58
ATOM     58  C   UNL A   1      43.702  24.912  27.650  1.00  0.00    -0.014 A 
ATOM     59  C   UNL A   1      43.465  23.538  27.455  1.00  0.00     0.010 A 
ATOM     60  C   UNL A   1      44.610  25.509  26.745  1.00  0.00     0.010 A 
ATOM     61  C   UNL A   1      44.109  22.810  26.435  1.00  0.00     0.020 A 
ATOM     62  C   UNL A   1      45.245  24.802  25.716  1.00  0.00     0.020 A 
ATOM     63  C   UNL A   1      44.998  23.448  25.571  1.00  0.00     0.054 A 
BRANCH  63  64
ATOM     64  S   UNL A   1      45.836  22.507  24.272  1.00  0.00     0.124 S 
ATOM     65  O   UNL A   1      44.735  22.162  23.375  1.00  0.00    -0.237 OA
ATOM     66  O   UNL A   1      46.797  23.473  23.753  1.00  0.00    -0.237 OA
ATOM     67  O   UNL A   1      46.424  21.374  24.987  1.00  0.00    -0.744 OA
ENDBRANCH  63  64
ENDBRANCH  44  58
BRANCH  45  68
ATOM     68  C   UNL A   1      39.045  31.430  33.382  1.00  0.00    -0.014 A 
ATOM     69  C   UNL A   1      38.816  32.816  33.571  1.00  0.00     0.010 A 
ATOM     70  C   UNL A   1      37.930  30.617  33.110  1.00  0.00     0.010 A 
ATOM     71  C   UNL A   1      37.555  33.392  33.361  1.00  0.00     0.020 A 
ATOM     72  C   UNL A   1      36.654  31.192  32.906  1.00  0.00     0.020 A 
ATOM     73  C   UNL A   1      36.484  32.581  32.989  1.00  0.00     0.054 A 
BRANCH  73  74
ATOM     74  S   UNL A   1      34.959  33.395  32.365  1.00  0.00     0.124 S 
ATOM     75  O   UNL A   1      35.507  34.449  31.514  1.00  0.00    -0.237 OA
ATOM     76  O   UNL A   1      34.262  32.329  31.638  1.00  0.00    -0.237 OA
ATOM     77  O   UNL A   1      34.283  33.872  33.572  1.00  0.00    -0.744 OA
ENDBRANCH  73  74
ENDBRANCH  45  68
BRANCH  57  78
ATOM     78  C   UNL A   1      43.969  26.005  34.342  1.00  0.00    -0.014 A 
ATOM     79  C   UNL A   1      43.393  24.735  34.485  1.00  0.00     0.010 A 
ATOM     80  C   UNL A   1      45.242  26.190  34.943  1.00  0.00     0.010 A 
ATOM     81  C   UNL A   1      44.026  23.723  35.224  1.00  0.00     0.020 A 
ATOM     82  C   UNL A   1      45.912  25.173  35.625  1.00  0.00     0.020 A 
ATOM     83  C   UNL A   1      45.284  23.946  35.785  1.00  0.00     0.054 A 
BRANCH  83  84
ATOM     84  S   UNL A   1      46.121  22.606  36.665  1.00  0.00     0.124 S 
ATOM     85  O   UNL A   1      45.453  21.428  36.122  1.00  0.00    -0.237 OA
ATOM     86  O   UNL A   1      47.515  22.777  36.269  1.00  0.00    -0.237 OA
ATOM     87  O   UNL A   1      45.842  22.893  38.073  1.00  0.00    -0.744 OA
ENDBRANCH  83  84
ENDBRANCH  57  78
ENDBRANCH  31  32
ENDBRANCH  23  26
ENDBRANCH  21  22
ENDBRANCH   1  21
TORSDOF 15
ENDMDL
