MODEL 1
REMARK VINA RESULT:     -10.9      0.000      0.000
REMARK SMILES O=C(NCCCCNC(=O)[C@]1(CCc2cccnc2)C[C@H]2CC[C@@H]1O2)c1ccc(-c2c3nc(c(-c4ccc(S(=O)(=O)[O-])cc4)c4ccc([nH]4)c(-c4ccc(S(=O)(=O)[O-])cc4)c4nc(c(-c5ccc(S(=O)(=O)[O-])cc5)c5ccc2[nH]5)C=C4)C=C3)cc1
REMARK SMILES IDX 5 1 4 2 3 3 1 4 2 5 26 7 27 8 85 9 28 10 84 11 29 12 30 13
REMARK SMILES IDX 31 14 78 15 32 16 83 17 77 18 79 19 33 20 82 21 76 22 75 23
REMARK SMILES IDX 34 25 64 26 45 27 63 28 46 29 49 30 62 31 80 32 47 33 48 34
REMARK SMILES IDX 61 36 81 37 50 38 35 39 36 40 44 41 37 42 43 43 38 44 39 45
REMARK SMILES IDX 40 46 41 47 42 48 65 49 66 50 74 51 67 52 73 53 68 54 69 55
REMARK SMILES IDX 70 56 71 57 72 58 51 59 52 60 60 61 53 62 59 63 54 64 55 65
REMARK SMILES IDX 56 66 57 67 58 68 6 69 7 70 8 71 9 72 10 74 11 75 20 76
REMARK SMILES IDX 24 77 21 78 23 79 25 80 22 81 12 82 13 83 14 84 15 85 19 86
REMARK SMILES IDX 16 87 18 88 17 89
REMARK H PARENT 3 6 79 24 49 35 8 73
REMARK Flexibility Score: inf
ROOT
ATOM      1  C   UNL A   1      32.653  28.561  26.157  1.00  0.00     0.023 C 
ENDROOT
BRANCH   1   2
ATOM      2  C   UNL A   1      33.756  28.701  27.194  1.00  0.00     0.116 C 
BRANCH   2   3
ATOM      3  N   UNL A   1      33.858  30.064  27.699  1.00  0.00    -0.352 N 
ATOM      4  O   UNL A   1      34.650  31.778  28.908  1.00  0.00    -0.269 OA
ATOM      5  C   UNL A   1      34.879  30.687  28.386  1.00  0.00     0.251 C 
ATOM      6  H   UNL A   1      33.073  30.630  27.522  1.00  0.00     0.163 HD
BRANCH   5   7
ATOM      7  C   UNL A   1      36.241  30.091  28.502  1.00  0.00     0.039 A 
ATOM      8  C   UNL A   1      37.172  30.178  27.468  1.00  0.00     0.014 A 
ATOM      9  C   UNL A   1      36.639  29.520  29.723  1.00  0.00     0.014 A 
ATOM     10  C   UNL A   1      38.441  29.622  27.609  1.00  0.00     0.010 A 
ATOM     11  C   UNL A   1      37.951  29.050  29.900  1.00  0.00     0.010 A 
ATOM     12  C   UNL A   1      38.867  29.100  28.842  1.00  0.00    -0.014 A 
BRANCH  12  13
ATOM     13  C   UNL A   1      40.311  28.772  29.012  1.00  0.00     0.031 A 
ATOM     14  C   UNL A   1      40.884  27.439  28.618  1.00  0.00     0.074 A 
ATOM     15  C   UNL A   1      41.124  29.737  29.495  1.00  0.00     0.049 A 
ATOM     16  N   UNL A   1      42.134  27.049  28.640  1.00  0.00    -0.248 NA
ATOM     17  C   UNL A   1      39.943  26.413  28.146  1.00  0.00     0.031 C 
ATOM     18  C   UNL A   1      40.681  31.061  29.949  1.00  0.00     0.029 A 
ATOM     19  N   UNL A   1      42.487  29.779  29.650  1.00  0.00    -0.354 N 
ATOM     20  C   UNL A   1      42.134  25.731  28.195  1.00  0.00     0.074 A 
ATOM     21  C   UNL A   1      40.751  25.381  27.936  1.00  0.00     0.031 C 
ATOM     22  C   UNL A   1      41.751  31.804  30.259  1.00  0.00     0.029 A 
ATOM     23  C   UNL A   1      42.952  30.994  30.099  1.00  0.00     0.049 A 
ATOM     24  H   UNL A   1      43.075  29.014  29.459  1.00  0.00     0.167 HD
ATOM     25  C   UNL A   1      43.187  24.896  28.014  1.00  0.00     0.031 A 
ATOM     26  C   UNL A   1      44.201  31.417  30.367  1.00  0.00     0.031 A 
ATOM     27  C   UNL A   1      44.560  25.248  28.285  1.00  0.00     0.049 A 
ATOM     28  C   UNL A   1      45.346  30.471  30.155  1.00  0.00     0.074 A 
ATOM     29  C   UNL A   1      45.695  24.469  28.132  1.00  0.00     0.029 A 
ATOM     30  N   UNL A   1      44.986  26.478  28.763  1.00  0.00    -0.354 N 
ATOM     31  N   UNL A   1      45.319  29.236  29.716  1.00  0.00    -0.248 NA
ATOM     32  C   UNL A   1      46.688  30.974  30.476  1.00  0.00     0.031 C 
ATOM     33  C   UNL A   1      46.802  25.215  28.555  1.00  0.00     0.029 A 
ATOM     34  C   UNL A   1      46.363  26.477  28.921  1.00  0.00     0.049 A 
ATOM     35  H   UNL A   1      44.397  27.241  28.962  1.00  0.00     0.167 HD
ATOM     36  C   UNL A   1      46.642  28.812  29.707  1.00  0.00     0.074 A 
ATOM     37  C   UNL A   1      47.444  29.937  30.146  1.00  0.00     0.031 C 
ATOM     38  C   UNL A   1      47.146  27.597  29.378  1.00  0.00     0.031 A 
BRANCH  25  39
ATOM     39  C   UNL A   1      42.900  23.505  27.507  1.00  0.00    -0.014 A 
ATOM     40  C   UNL A   1      43.061  23.182  26.148  1.00  0.00     0.010 A 
ATOM     41  C   UNL A   1      42.530  22.490  28.410  1.00  0.00     0.010 A 
ATOM     42  C   UNL A   1      42.830  21.879  25.696  1.00  0.00     0.020 A 
ATOM     43  C   UNL A   1      42.321  21.179  27.965  1.00  0.00     0.020 A 
ATOM     44  C   UNL A   1      42.461  20.885  26.607  1.00  0.00     0.054 A 
BRANCH  44  45
ATOM     45  S   UNL A   1      42.201  19.195  25.999  1.00  0.00     0.124 S 
ATOM     46  O   UNL A   1      40.762  19.181  25.750  1.00  0.00    -0.237 OA
ATOM     47  O   UNL A   1      43.044  19.152  24.805  1.00  0.00    -0.237 OA
ATOM     48  O   UNL A   1      42.651  18.355  27.104  1.00  0.00    -0.744 OA
ENDBRANCH  44  45
ENDBRANCH  25  39
BRANCH  26  49
ATOM     49  C   UNL A   1      44.422  32.791  30.894  1.00  0.00    -0.014 A 
ATOM     50  C   UNL A   1      44.651  33.873  30.029  1.00  0.00     0.010 A 
ATOM     51  C   UNL A   1      44.386  33.023  32.283  1.00  0.00     0.010 A 
ATOM     52  C   UNL A   1      44.859  35.159  30.542  1.00  0.00     0.020 A 
ATOM     53  C   UNL A   1      44.559  34.308  32.798  1.00  0.00     0.020 A 
ATOM     54  C   UNL A   1      44.811  35.367  31.924  1.00  0.00     0.054 A 
BRANCH  54  55
ATOM     55  S   UNL A   1      45.033  37.047  32.571  1.00  0.00     0.124 S 
ATOM     56  O   UNL A   1      44.794  36.855  33.998  1.00  0.00    -0.237 OA
ATOM     57  O   UNL A   1      46.410  37.354  32.194  1.00  0.00    -0.237 OA
ATOM     58  O   UNL A   1      44.016  37.821  31.862  1.00  0.00    -0.744 OA
ENDBRANCH  54  55
ENDBRANCH  26  49
BRANCH  38  59
ATOM     59  C   UNL A   1      48.639  27.437  29.472  1.00  0.00    -0.014 A 
ATOM     60  C   UNL A   1      49.478  27.818  28.409  1.00  0.00     0.010 A 
ATOM     61  C   UNL A   1      49.211  26.899  30.640  1.00  0.00     0.010 A 
ATOM     62  C   UNL A   1      50.858  27.616  28.491  1.00  0.00     0.020 A 
ATOM     63  C   UNL A   1      50.593  26.722  30.736  1.00  0.00     0.020 A 
ATOM     64  C   UNL A   1      51.406  27.062  29.653  1.00  0.00     0.054 A 
BRANCH  64  65
ATOM     65  S   UNL A   1      53.200  26.814  29.740  1.00  0.00     0.124 S 
ATOM     66  O   UNL A   1      53.688  28.181  29.894  1.00  0.00    -0.237 OA
ATOM     67  O   UNL A   1      53.350  25.955  30.912  1.00  0.00    -0.237 OA
ATOM     68  O   UNL A   1      53.522  26.177  28.464  1.00  0.00    -0.744 OA
ENDBRANCH  64  65
ENDBRANCH  38  59
ENDBRANCH  12  13
ENDBRANCH   5   7
ENDBRANCH   2   3
ENDBRANCH   1   2
BRANCH   1  69
ATOM     69  C   UNL A   1      31.356  27.882  26.590  1.00  0.00     0.023 C 
BRANCH  69  70
ATOM     70  C   UNL A   1      30.751  26.679  25.806  1.00  0.00     0.116 C 
BRANCH  70  71
ATOM     71  N   UNL A   1      30.601  25.332  26.377  1.00  0.00    -0.356 N 
ATOM     72  C   UNL A   1      31.243  24.115  26.359  1.00  0.00     0.228 C 
ATOM     73  H   UNL A   1      29.797  25.287  26.944  1.00  0.00     0.163 HD
ATOM     74  O   UNL A   1      30.898  23.331  27.250  1.00  0.00    -0.274 OA
BRANCH  72  75
ATOM     75  C   UNL A   1      32.304  23.703  25.334  1.00  0.00     0.078 C 
ATOM     76  C   UNL A   1      32.921  24.839  24.466  1.00  0.00     0.051 C 
ATOM     77  C   UNL A   1      31.473  22.955  24.245  1.00  0.00     0.134 C 
ATOM     78  C   UNL A   1      32.496  24.453  23.050  1.00  0.00     0.120 C 
ATOM     79  C   UNL A   1      32.278  22.088  23.292  1.00  0.00     0.036 C 
ATOM     80  O   UNL A   1      31.146  24.031  23.307  1.00  0.00    -0.374 OA
ATOM     81  C   UNL A   1      33.138  23.136  22.583  1.00  0.00     0.035 C 
BRANCH  75  82
ATOM     82  C   UNL A   1      33.458  22.984  26.023  1.00  0.00     0.024 C 
BRANCH  82  83
ATOM     83  C   UNL A   1      34.855  23.679  26.146  1.00  0.00     0.038 C 
BRANCH  83  84
ATOM     84  C   UNL A   1      36.277  23.170  25.944  1.00  0.00    -0.030 A 
ATOM     85  C   UNL A   1      37.494  23.795  26.210  1.00  0.00     0.007 A 
ATOM     86  C   UNL A   1      36.413  21.831  25.562  1.00  0.00     0.114 A 
ATOM     87  C   UNL A   1      38.719  23.127  26.126  1.00  0.00     0.020 A 
ATOM     88  N   UNL A   1      37.579  21.143  25.457  1.00  0.00    -0.264 NA
ATOM     89  C   UNL A   1      38.711  21.806  25.749  1.00  0.00     0.111 A 
ENDBRANCH  83  84
ENDBRANCH  82  83
ENDBRANCH  75  82
ENDBRANCH  72  75
ENDBRANCH  70  71
ENDBRANCH  69  70
ENDBRANCH   1  69
TORSDOF 17
ENDMDL
MODEL 2
REMARK VINA RESULT:     -10.8      3.225      8.546
REMARK SMILES O=C(NCCCCNC(=O)[C@]1(CCc2cccnc2)C[C@H]2CC[C@@H]1O2)c1ccc(-c2c3nc(c(-c4ccc(S(=O)(=O)[O-])cc4)c4ccc([nH]4)c(-c4ccc(S(=O)(=O)[O-])cc4)c4nc(c(-c5ccc(S(=O)(=O)[O-])cc5)c5ccc2[nH]5)C=C4)C=C3)cc1
REMARK SMILES IDX 5 1 4 2 3 3 1 4 2 5 26 7 27 8 85 9 28 10 84 11 29 12 30 13
REMARK SMILES IDX 31 14 78 15 32 16 83 17 77 18 79 19 33 20 82 21 76 22 75 23
REMARK SMILES IDX 34 25 64 26 45 27 63 28 46 29 49 30 62 31 80 32 47 33 48 34
REMARK SMILES IDX 61 36 81 37 50 38 35 39 36 40 44 41 37 42 43 43 38 44 39 45
REMARK SMILES IDX 40 46 41 47 42 48 65 49 66 50 74 51 67 52 73 53 68 54 69 55
REMARK SMILES IDX 70 56 71 57 72 58 51 59 52 60 60 61 53 62 59 63 54 64 55 65
REMARK SMILES IDX 56 66 57 67 58 68 6 69 7 70 8 71 9 72 10 74 11 75 20 76
REMARK SMILES IDX 24 77 21 78 23 79 25 80 22 81 12 82 13 83 14 84 15 85 19 86
REMARK SMILES IDX 16 87 18 88 17 89
REMARK H PARENT 3 6 79 24 49 35 8 73
REMARK Flexibility Score: inf
ROOT
ATOM      1  C   UNL A   1      33.251  27.717  26.638  1.00  0.00     0.023 C 
ENDROOT
BRANCH   1   2
ATOM      2  C   UNL A   1      33.897  28.766  25.747  1.00  0.00     0.116 C 
BRANCH   2   3
ATOM      3  N   UNL A   1      33.698  30.114  26.262  1.00  0.00    -0.352 N 
ATOM      4  O   UNL A   1      33.848  31.837  27.689  1.00  0.00    -0.269 OA
ATOM      5  C   UNL A   1      34.338  30.783  27.285  1.00  0.00     0.251 C 
ATOM      6  H   UNL A   1      32.995  30.631  25.807  1.00  0.00     0.163 HD
BRANCH   5   7
ATOM      7  C   UNL A   1      35.600  30.280  27.899  1.00  0.00     0.039 A 
ATOM      8  C   UNL A   1      36.838  30.451  27.281  1.00  0.00     0.014 A 
ATOM      9  C   UNL A   1      35.559  29.711  29.183  1.00  0.00     0.014 A 
ATOM     10  C   UNL A   1      38.002  29.980  27.884  1.00  0.00     0.010 A 
ATOM     11  C   UNL A   1      36.744  29.328  29.834  1.00  0.00     0.010 A 
ATOM     12  C   UNL A   1      37.980  29.462  29.190  1.00  0.00    -0.014 A 
BRANCH  12  13
ATOM     13  C   UNL A   1      39.278  29.231  29.883  1.00  0.00     0.031 A 
ATOM     14  C   UNL A   1      39.676  29.989  31.118  1.00  0.00     0.074 A 
ATOM     15  C   UNL A   1      40.090  28.268  29.396  1.00  0.00     0.049 A 
ATOM     16  N   UNL A   1      40.740  29.834  31.866  1.00  0.00    -0.248 NA
ATOM     17  C   UNL A   1      38.775  31.059  31.573  1.00  0.00     0.031 C 
ATOM     18  C   UNL A   1      39.833  27.487  28.179  1.00  0.00     0.029 A 
ATOM     19  N   UNL A   1      41.269  27.749  29.872  1.00  0.00    -0.354 N 
ATOM     20  C   UNL A   1      40.646  30.788  32.873  1.00  0.00     0.074 A 
ATOM     21  C   UNL A   1      39.431  31.537  32.624  1.00  0.00     0.031 C 
ATOM     22  C   UNL A   1      40.779  26.547  28.048  1.00  0.00     0.029 A 
ATOM     23  C   UNL A   1      41.750  26.700  29.123  1.00  0.00     0.049 A 
ATOM     24  H   UNL A   1      41.726  28.096  30.672  1.00  0.00     0.167 HD
ATOM     25  C   UNL A   1      41.490  31.013  33.910  1.00  0.00     0.031 A 
ATOM     26  C   UNL A   1      42.855  25.946  29.268  1.00  0.00     0.031 A 
ATOM     27  C   UNL A   1      42.705  30.271  34.146  1.00  0.00     0.049 A 
ATOM     28  C   UNL A   1      43.770  26.218  30.427  1.00  0.00     0.074 A 
ATOM     29  C   UNL A   1      43.624  30.426  35.170  1.00  0.00     0.029 A 
ATOM     30  N   UNL A   1      43.171  29.235  33.351  1.00  0.00    -0.354 N 
ATOM     31  N   UNL A   1      43.647  27.114  31.376  1.00  0.00    -0.248 NA
ATOM     32  C   UNL A   1      44.969  25.378  30.534  1.00  0.00     0.031 C 
ATOM     33  C   UNL A   1      44.665  29.511  34.972  1.00  0.00     0.029 A 
ATOM     34  C   UNL A   1      44.368  28.749  33.854  1.00  0.00     0.049 A 
ATOM     35  H   UNL A   1      42.718  28.894  32.546  1.00  0.00     0.167 HD
ATOM     36  C   UNL A   1      44.756  26.947  32.194  1.00  0.00     0.074 A 
ATOM     37  C   UNL A   1      45.514  25.837  31.651  1.00  0.00     0.031 C 
ATOM     38  C   UNL A   1      45.121  27.657  33.291  1.00  0.00     0.031 A 
BRANCH  25  39
ATOM     39  C   UNL A   1      41.140  32.120  34.873  1.00  0.00    -0.014 A 
ATOM     40  C   UNL A   1      40.392  31.860  36.035  1.00  0.00     0.010 A 
ATOM     41  C   UNL A   1      41.619  33.424  34.649  1.00  0.00     0.010 A 
ATOM     42  C   UNL A   1      40.107  32.886  36.941  1.00  0.00     0.020 A 
ATOM     43  C   UNL A   1      41.356  34.450  35.565  1.00  0.00     0.020 A 
ATOM     44  C   UNL A   1      40.590  34.176  36.700  1.00  0.00     0.054 A 
BRANCH  44  45
ATOM     45  S   UNL A   1      40.233  35.482  37.908  1.00  0.00     0.124 S 
ATOM     46  O   UNL A   1      39.305  34.811  38.813  1.00  0.00    -0.237 OA
ATOM     47  O   UNL A   1      41.555  35.770  38.466  1.00  0.00    -0.237 OA
ATOM     48  O   UNL A   1      39.655  36.553  37.103  1.00  0.00    -0.744 OA
ENDBRANCH  44  45
ENDBRANCH  25  39
BRANCH  26  49
ATOM     49  C   UNL A   1      43.168  24.887  28.270  1.00  0.00    -0.014 A 
ATOM     50  C   UNL A   1      42.759  23.558  28.469  1.00  0.00     0.010 A 
ATOM     51  C   UNL A   1      43.869  25.217  27.095  1.00  0.00     0.010 A 
ATOM     52  C   UNL A   1      43.063  22.574  27.522  1.00  0.00     0.020 A 
ATOM     53  C   UNL A   1      44.145  24.246  26.131  1.00  0.00     0.020 A 
ATOM     54  C   UNL A   1      43.753  22.926  26.358  1.00  0.00     0.054 A 
BRANCH  54  55
ATOM     55  S   UNL A   1      44.096  21.649  25.116  1.00  0.00     0.124 S 
ATOM     56  O   UNL A   1      43.033  20.683  25.376  1.00  0.00    -0.237 OA
ATOM     57  O   UNL A   1      43.987  22.388  23.861  1.00  0.00    -0.237 OA
ATOM     58  O   UNL A   1      45.447  21.203  25.450  1.00  0.00    -0.744 OA
ENDBRANCH  54  55
ENDBRANCH  26  49
BRANCH  38  59
ATOM     59  C   UNL A   1      46.394  27.237  33.975  1.00  0.00    -0.014 A 
ATOM     60  C   UNL A   1      47.632  27.798  33.611  1.00  0.00     0.010 A 
ATOM     61  C   UNL A   1      46.352  26.269  34.996  1.00  0.00     0.010 A 
ATOM     62  C   UNL A   1      48.811  27.363  34.220  1.00  0.00     0.020 A 
ATOM     63  C   UNL A   1      47.526  25.851  35.626  1.00  0.00     0.020 A 
ATOM     64  C   UNL A   1      48.751  26.385  35.219  1.00  0.00     0.054 A 
BRANCH  64  65
ATOM     65  S   UNL A   1      50.294  25.838  35.999  1.00  0.00     0.124 S 
ATOM     66  O   UNL A   1      49.878  25.639  37.385  1.00  0.00    -0.237 OA
ATOM     67  O   UNL A   1      50.616  24.621  35.258  1.00  0.00    -0.237 OA
ATOM     68  O   UNL A   1      51.208  26.956  35.777  1.00  0.00    -0.744 OA
ENDBRANCH  64  65
ENDBRANCH  38  59
ENDBRANCH  12  13
ENDBRANCH   5   7
ENDBRANCH   2   3
ENDBRANCH   1   2
BRANCH   1  69
ATOM     69  C   UNL A   1      31.727  27.614  26.620  1.00  0.00     0.023 C 
BRANCH  69  70
ATOM     70  C   UNL A   1      30.992  26.339  26.110  1.00  0.00     0.116 C 
BRANCH  70  71
ATOM     71  N   UNL A   1      31.137  25.014  26.732  1.00  0.00    -0.356 N 
ATOM     72  C   UNL A   1      31.968  23.920  26.671  1.00  0.00     0.228 C 
ATOM     73  H   UNL A   1      30.422  24.865  27.393  1.00  0.00     0.163 HD
ATOM     74  O   UNL A   1      31.865  23.133  27.618  1.00  0.00    -0.274 OA
BRANCH  72  75
ATOM     75  C   UNL A   1      32.960  23.640  25.536  1.00  0.00     0.078 C 
ATOM     76  C   UNL A   1      33.315  24.834  24.602  1.00  0.00     0.051 C 
ATOM     77  C   UNL A   1      32.128  22.764  24.548  1.00  0.00     0.134 C 
ATOM     78  C   UNL A   1      32.798  24.367  23.243  1.00  0.00     0.120 C 
ATOM     79  C   UNL A   1      32.939  21.999  23.515  1.00  0.00     0.036 C 
ATOM     80  O   UNL A   1      31.555  23.767  23.647  1.00  0.00    -0.374 OA
ATOM     81  C   UNL A   1      33.563  23.143  22.712  1.00  0.00     0.035 C 
BRANCH  75  82
ATOM     82  C   UNL A   1      34.270  23.099  26.097  1.00  0.00     0.024 C 
BRANCH  82  83
ATOM     83  C   UNL A   1      35.620  23.826  25.780  1.00  0.00     0.038 C 
BRANCH  83  84
ATOM     84  C   UNL A   1      37.075  23.401  25.926  1.00  0.00    -0.030 A 
ATOM     85  C   UNL A   1      38.149  24.077  26.501  1.00  0.00     0.007 A 
ATOM     86  C   UNL A   1      37.381  22.086  25.559  1.00  0.00     0.114 A 
ATOM     87  C   UNL A   1      39.395  23.478  26.708  1.00  0.00     0.020 A 
ATOM     88  N   UNL A   1      38.576  21.463  25.731  1.00  0.00    -0.264 NA
ATOM     89  C   UNL A   1      39.559  22.173  26.312  1.00  0.00     0.111 A 
ENDBRANCH  83  84
ENDBRANCH  82  83
ENDBRANCH  75  82
ENDBRANCH  72  75
ENDBRANCH  70  71
ENDBRANCH  69  70
ENDBRANCH   1  69
TORSDOF 17
ENDMDL
MODEL 3
REMARK VINA RESULT:     -10.8      1.308      8.425
REMARK SMILES O=C(NCCCCNC(=O)[C@]1(CCc2cccnc2)C[C@H]2CC[C@@H]1O2)c1ccc(-c2c3nc(c(-c4ccc(S(=O)(=O)[O-])cc4)c4ccc([nH]4)c(-c4ccc(S(=O)(=O)[O-])cc4)c4nc(c(-c5ccc(S(=O)(=O)[O-])cc5)c5ccc2[nH]5)C=C4)C=C3)cc1
REMARK SMILES IDX 5 1 4 2 3 3 1 4 2 5 26 7 27 8 85 9 28 10 84 11 29 12 30 13
REMARK SMILES IDX 31 14 78 15 32 16 83 17 77 18 79 19 33 20 82 21 76 22 75 23
REMARK SMILES IDX 34 25 64 26 45 27 63 28 46 29 49 30 62 31 80 32 47 33 48 34
REMARK SMILES IDX 61 36 81 37 50 38 35 39 36 40 44 41 37 42 43 43 38 44 39 45
REMARK SMILES IDX 40 46 41 47 42 48 65 49 66 50 74 51 67 52 73 53 68 54 69 55
REMARK SMILES IDX 70 56 71 57 72 58 51 59 52 60 60 61 53 62 59 63 54 64 55 65
REMARK SMILES IDX 56 66 57 67 58 68 6 69 7 70 8 71 9 72 10 74 11 75 20 76
REMARK SMILES IDX 24 77 21 78 23 79 25 80 22 81 12 82 13 83 14 84 15 85 19 86
REMARK SMILES IDX 16 87 18 88 17 89
REMARK H PARENT 3 6 79 24 49 35 8 73
REMARK Flexibility Score: inf
ROOT
ATOM      1  C   UNL A   1      31.982  28.099  26.583  1.00  0.00     0.023 C 
ENDROOT
BRANCH   1   2
ATOM      2  C   UNL A   1      33.277  28.477  27.285  1.00  0.00     0.116 C 
BRANCH   2   3
ATOM      3  N   UNL A   1      33.356  29.908  27.549  1.00  0.00    -0.352 N 
ATOM      4  O   UNL A   1      34.119  31.817  28.443  1.00  0.00    -0.269 OA
ATOM      5  C   UNL A   1      34.366  30.657  28.115  1.00  0.00     0.251 C 
ATOM      6  H   UNL A   1      32.562  30.422  27.279  1.00  0.00     0.163 HD
BRANCH   5   7
ATOM      7  C   UNL A   1      35.738  30.112  28.329  1.00  0.00     0.039 A 
ATOM      8  C   UNL A   1      36.715  30.172  27.337  1.00  0.00     0.014 A 
ATOM      9  C   UNL A   1      36.092  29.621  29.597  1.00  0.00     0.014 A 
ATOM     10  C   UNL A   1      37.992  29.665  27.568  1.00  0.00     0.010 A 
ATOM     11  C   UNL A   1      37.407  29.203  29.861  1.00  0.00     0.010 A 
ATOM     12  C   UNL A   1      38.372  29.225  28.847  1.00  0.00    -0.014 A 
BRANCH  12  13
ATOM     13  C   UNL A   1      39.815  28.953  29.103  1.00  0.00     0.031 A 
ATOM     14  C   UNL A   1      40.708  29.945  29.795  1.00  0.00     0.074 A 
ATOM     15  C   UNL A   1      40.305  27.749  28.737  1.00  0.00     0.049 A 
ATOM     16  N   UNL A   1      41.961  29.807  30.151  1.00  0.00    -0.248 NA
ATOM     17  C   UNL A   1      40.132  31.256  30.126  1.00  0.00     0.031 C 
ATOM     18  C   UNL A   1      39.547  26.715  28.022  1.00  0.00     0.029 A 
ATOM     19  N   UNL A   1      41.533  27.170  28.940  1.00  0.00    -0.354 N 
ATOM     20  C   UNL A   1      42.330  31.012  30.739  1.00  0.00     0.074 A 
ATOM     21  C   UNL A   1      41.172  31.880  30.667  1.00  0.00     0.031 C 
ATOM     22  C   UNL A   1      40.297  25.610  27.915  1.00  0.00     0.029 A 
ATOM     23  C   UNL A   1      41.612  25.875  28.483  1.00  0.00     0.049 A 
ATOM     24  H   UNL A   1      42.284  27.638  29.371  1.00  0.00     0.167 HD
ATOM     25  C   UNL A   1      43.519  31.358  31.291  1.00  0.00     0.031 A 
ATOM     26  C   UNL A   1      42.629  24.993  28.502  1.00  0.00     0.031 A 
ATOM     27  C   UNL A   1      44.672  30.493  31.349  1.00  0.00     0.049 A 
ATOM     28  C   UNL A   1      43.932  25.404  29.122  1.00  0.00     0.074 A 
ATOM     29  C   UNL A   1      45.920  30.755  31.889  1.00  0.00     0.029 A 
ATOM     30  N   UNL A   1      44.720  29.199  30.852  1.00  0.00    -0.354 N 
ATOM     31  N   UNL A   1      44.248  26.545  29.688  1.00  0.00    -0.248 NA
ATOM     32  C   UNL A   1      45.015  24.413  29.105  1.00  0.00     0.031 C 
ATOM     33  C   UNL A   1      46.734  29.635  31.684  1.00  0.00     0.029 A 
ATOM     34  C   UNL A   1      45.978  28.654  31.063  1.00  0.00     0.049 A 
ATOM     35  H   UNL A   1      43.971  28.734  30.413  1.00  0.00     0.167 HD
ATOM     36  C   UNL A   1      45.568  26.408  30.095  1.00  0.00     0.074 A 
ATOM     37  C   UNL A   1      45.976  25.061  29.747  1.00  0.00     0.031 C 
ATOM     38  C   UNL A   1      46.375  27.319  30.693  1.00  0.00     0.031 A 
BRANCH  25  39
ATOM     39  C   UNL A   1      43.646  32.744  31.873  1.00  0.00    -0.014 A 
ATOM     40  C   UNL A   1      43.455  32.973  33.247  1.00  0.00     0.010 A 
ATOM     41  C   UNL A   1      44.025  33.820  31.049  1.00  0.00     0.010 A 
ATOM     42  C   UNL A   1      43.614  34.256  33.782  1.00  0.00     0.020 A 
ATOM     43  C   UNL A   1      44.208  35.101  31.584  1.00  0.00     0.020 A 
ATOM     44  C   UNL A   1      43.988  35.312  32.947  1.00  0.00     0.054 A 
BRANCH  44  45
ATOM     45  S   UNL A   1      44.221  36.959  33.673  1.00  0.00     0.124 S 
ATOM     46  O   UNL A   1      42.875  37.520  33.587  1.00  0.00    -0.237 OA
ATOM     47  O   UNL A   1      44.687  36.650  35.025  1.00  0.00    -0.237 OA
ATOM     48  O   UNL A   1      45.213  37.585  32.805  1.00  0.00    -0.744 OA
ENDBRANCH  44  45
ENDBRANCH  25  39
BRANCH  26  49
ATOM     49  C   UNL A   1      42.457  23.649  27.886  1.00  0.00    -0.014 A 
ATOM     50  C   UNL A   1      42.842  23.405  26.558  1.00  0.00     0.010 A 
ATOM     51  C   UNL A   1      41.917  22.594  28.646  1.00  0.00     0.010 A 
ATOM     52  C   UNL A   1      42.671  22.136  25.993  1.00  0.00     0.020 A 
ATOM     53  C   UNL A   1      41.776  21.318  28.098  1.00  0.00     0.020 A 
ATOM     54  C   UNL A   1      42.140  21.101  26.769  1.00  0.00     0.054 A 
BRANCH  54  55
ATOM     55  S   UNL A   1      41.971  19.449  26.038  1.00  0.00     0.124 S 
ATOM     56  O   UNL A   1      40.529  19.354  25.836  1.00  0.00    -0.237 OA
ATOM     57  O   UNL A   1      42.776  19.555  24.823  1.00  0.00    -0.237 OA
ATOM     58  O   UNL A   1      42.522  18.565  27.064  1.00  0.00    -0.744 OA
ENDBRANCH  54  55
ENDBRANCH  26  49
BRANCH  38  59
ATOM     59  C   UNL A   1      47.776  26.874  31.014  1.00  0.00    -0.014 A 
ATOM     60  C   UNL A   1      48.834  27.105  30.116  1.00  0.00     0.010 A 
ATOM     61  C   UNL A   1      48.038  26.217  32.230  1.00  0.00     0.010 A 
ATOM     62  C   UNL A   1      50.120  26.642  30.406  1.00  0.00     0.020 A 
ATOM     63  C   UNL A   1      49.328  25.777  32.535  1.00  0.00     0.020 A 
ATOM     64  C   UNL A   1      50.357  25.974  31.611  1.00  0.00     0.054 A 
BRANCH  64  65
ATOM     65  S   UNL A   1      52.035  25.385  31.968  1.00  0.00     0.124 S 
ATOM     66  O   UNL A   1      51.824  23.950  32.131  1.00  0.00    -0.237 OA
ATOM     67  O   UNL A   1      52.776  25.781  30.774  1.00  0.00    -0.237 OA
ATOM     68  O   UNL A   1      52.400  26.104  33.187  1.00  0.00    -0.744 OA
ENDBRANCH  64  65
ENDBRANCH  38  59
ENDBRANCH  12  13
ENDBRANCH   5   7
ENDBRANCH   2   3
ENDBRANCH   1   2
BRANCH   1  69
ATOM     69  C   UNL A   1      31.905  28.315  25.073  1.00  0.00     0.023 C 
BRANCH  69  70
ATOM     70  C   UNL A   1      33.180  28.529  24.204  1.00  0.00     0.116 C 
BRANCH  70  71
ATOM     71  N   UNL A   1      33.593  27.613  23.131  1.00  0.00    -0.356 N 
ATOM     72  C   UNL A   1      33.528  26.275  22.821  1.00  0.00     0.228 C 
ATOM     73  H   UNL A   1      34.058  28.108  22.417  1.00  0.00     0.163 HD
ATOM     74  O   UNL A   1      33.763  26.001  21.638  1.00  0.00    -0.274 OA
BRANCH  72  75
ATOM     75  C   UNL A   1      33.204  25.161  23.823  1.00  0.00     0.078 C 
ATOM     76  C   UNL A   1      33.335  23.696  23.312  1.00  0.00     0.051 C 
ATOM     77  C   UNL A   1      31.652  25.257  23.968  1.00  0.00     0.134 C 
ATOM     78  C   UNL A   1      31.905  23.169  23.421  1.00  0.00     0.120 C 
ATOM     79  C   UNL A   1      31.067  24.550  25.179  1.00  0.00     0.036 C 
ATOM     80  O   UNL A   1      31.185  24.318  22.945  1.00  0.00    -0.374 OA
ATOM     81  C   UNL A   1      31.418  23.092  24.878  1.00  0.00     0.035 C 
BRANCH  75  82
ATOM     82  C   UNL A   1      34.082  25.288  25.061  1.00  0.00     0.024 C 
BRANCH  82  83
ATOM     83  C   UNL A   1      34.685  24.009  25.732  1.00  0.00     0.038 C 
BRANCH  83  84
ATOM     84  C   UNL A   1      36.069  23.376  25.679  1.00  0.00    -0.030 A 
ATOM     85  C   UNL A   1      37.298  23.881  26.100  1.00  0.00     0.007 A 
ATOM     86  C   UNL A   1      36.129  22.038  25.277  1.00  0.00     0.114 A 
ATOM     87  C   UNL A   1      38.460  23.105  26.137  1.00  0.00     0.020 A 
ATOM     88  N   UNL A   1      37.234  21.247  25.286  1.00  0.00    -0.264 NA
ATOM     89  C   UNL A   1      38.379  21.798  25.724  1.00  0.00     0.111 A 
ENDBRANCH  83  84
ENDBRANCH  82  83
ENDBRANCH  75  82
ENDBRANCH  72  75
ENDBRANCH  70  71
ENDBRANCH  69  70
ENDBRANCH   1  69
TORSDOF 17
ENDMDL
