MODEL 1
REMARK VINA RESULT:     -11.8      0.000      0.000
REMARK SMILES Cc1cc(F)cc(N[C@H](C(=O)NCCCCNC(=O)c2ccc(-c3c4nc(c(-c5ccc(S(=O)(=O)[O-])cc5)c5ccc([nH]5)c(-c5ccc(S(=O)(=O)[O-])cc5)c5nc(c(-c6ccc(S(=O)(=O)[O-])cc6)c6ccc3[nH]6)C=C5)C=C4)cc2)c2cc(C)cc(C)c2)c1
REMARK SMILES IDX 15 1 14 2 13 3 12 4 10 5 11 6 9 8 8 9 7 11 1 12 2 13 3 14
REMARK SMILES IDX 88 15 4 16 5 17 6 18 80 19 81 20 87 21 82 22 85 23 83 24
REMARK SMILES IDX 84 25 86 26 16 27 17 28 18 29 19 31 20 32 21 33 79 34 22 35
REMARK SMILES IDX 78 36 23 37 24 38 25 39 72 40 26 41 77 42 71 43 73 44 27 45
REMARK SMILES IDX 76 46 70 47 69 48 28 50 58 51 39 52 57 53 40 54 43 55 56 56
REMARK SMILES IDX 74 57 41 58 42 59 55 61 75 62 44 63 29 64 30 65 38 66 31 67
REMARK SMILES IDX 37 68 32 69 33 70 34 71 35 72 36 73 59 74 60 75 68 76 61 77
REMARK SMILES IDX 67 78 62 79 63 80 64 81 65 82 66 83 45 84 46 85 54 86 47 87
REMARK SMILES IDX 53 88 48 89 49 90 50 91 51 92 52 93
REMARK H PARENT 12 7 8 10 17 30 73 49 43 60
REMARK Flexibility Score: inf
ROOT
ATOM      1  C   UNL A   1      33.060  28.372  25.827  1.00  0.00     0.023 C 
ENDROOT
BRANCH   1   2
ATOM      2  C   UNL A   1      34.139  28.413  24.746  1.00  0.00     0.023 C 
BRANCH   2   3
ATOM      3  C   UNL A   1      33.677  28.849  23.358  1.00  0.00     0.116 C 
BRANCH   3   4
ATOM      4  N   UNL A   1      33.848  27.840  22.335  1.00  0.00    -0.354 N 
ATOM      5  C   UNL A   1      33.264  26.601  22.235  1.00  0.00     0.247 C 
ATOM      6  O   UNL A   1      33.520  25.976  21.199  1.00  0.00    -0.272 OA
ATOM      7  H   UNL A   1      34.471  28.074  21.609  1.00  0.00     0.163 HD
BRANCH   5   8
ATOM      8  C   UNL A   1      32.472  25.961  23.418  1.00  0.00     0.200 C 
BRANCH   8   9
ATOM      9  N   UNL A   1      31.012  25.816  23.202  1.00  0.00    -0.370 N 
ATOM     10  H   UNL A   1      30.719  24.896  23.012  1.00  0.00     0.161 HD
BRANCH   9  11
ATOM     11  C   UNL A   1      29.990  26.744  23.220  1.00  0.00     0.038 A 
ATOM     12  C   UNL A   1      29.455  30.274  21.805  1.00  0.00     0.044 C 
ATOM     13  C   UNL A   1      29.207  28.976  22.512  1.00  0.00    -0.046 A 
ATOM     14  C   UNL A   1      27.966  28.739  23.098  1.00  0.00     0.042 A 
ATOM     15  C   UNL A   1      30.212  27.995  22.611  1.00  0.00     0.029 A 
ATOM     16  C   UNL A   1      27.730  27.514  23.692  1.00  0.00     0.125 A 
ATOM     17  F   UNL A   1      26.537  27.266  24.249  1.00  0.00    -0.207 F 
ATOM     18  C   UNL A   1      28.708  26.524  23.713  1.00  0.00     0.065 A 
ENDBRANCH   9  11
ENDBRANCH   8   9
BRANCH   8  19
ATOM     19  C   UNL A   1      33.058  24.680  24.015  1.00  0.00    -0.016 A 
ATOM     20  C   UNL A   1      34.232  24.704  24.781  1.00  0.00     0.009 A 
ATOM     21  C   UNL A   1      32.520  23.427  23.678  1.00  0.00     0.009 A 
ATOM     22  C   UNL A   1      34.979  23.546  25.002  1.00  0.00    -0.051 A 
ATOM     23  C   UNL A   1      33.179  22.239  24.031  1.00  0.00    -0.051 A 
ATOM     24  C   UNL A   1      36.408  23.667  25.446  1.00  0.00     0.044 C 
ATOM     25  C   UNL A   1      34.441  22.312  24.633  1.00  0.00     0.006 A 
ATOM     26  C   UNL A   1      32.602  20.901  23.678  1.00  0.00     0.044 C 
ENDBRANCH   8  19
ENDBRANCH   5   8
ENDBRANCH   3   4
ENDBRANCH   2   3
ENDBRANCH   1   2
BRANCH   1  27
ATOM     27  C   UNL A   1      33.537  28.598  27.258  1.00  0.00     0.116 C 
BRANCH  27  28
ATOM     28  N   UNL A   1      33.555  30.002  27.642  1.00  0.00    -0.352 N 
ATOM     29  C   UNL A   1      34.564  30.737  28.222  1.00  0.00     0.251 C 
ATOM     30  H   UNL A   1      32.725  30.500  27.461  1.00  0.00     0.163 HD
ATOM     31  O   UNL A   1      34.353  31.890  28.590  1.00  0.00    -0.269 OA
BRANCH  29  32
ATOM     32  C   UNL A   1      35.893  30.122  28.434  1.00  0.00     0.039 A 
ATOM     33  C   UNL A   1      36.822  30.126  27.390  1.00  0.00     0.014 A 
ATOM     34  C   UNL A   1      36.232  29.572  29.672  1.00  0.00     0.014 A 
ATOM     35  C   UNL A   1      38.123  29.667  27.618  1.00  0.00     0.010 A 
ATOM     36  C   UNL A   1      37.547  29.186  29.919  1.00  0.00     0.010 A 
ATOM     37  C   UNL A   1      38.509  29.238  28.898  1.00  0.00    -0.014 A 
BRANCH  37  38
ATOM     38  C   UNL A   1      39.913  28.858  29.208  1.00  0.00     0.031 A 
ATOM     39  C   UNL A   1      40.853  29.870  29.805  1.00  0.00     0.074 A 
ATOM     40  C   UNL A   1      40.371  27.637  28.862  1.00  0.00     0.049 A 
ATOM     41  N   UNL A   1      42.139  29.774  30.023  1.00  0.00    -0.248 NA
ATOM     42  C   UNL A   1      40.275  31.172  30.178  1.00  0.00     0.031 C 
ATOM     43  C   UNL A   1      39.574  26.575  28.241  1.00  0.00     0.029 A 
ATOM     44  N   UNL A   1      41.625  27.088  28.967  1.00  0.00    -0.354 N 
ATOM     45  C   UNL A   1      42.530  31.008  30.531  1.00  0.00     0.074 A 
ATOM     46  C   UNL A   1      41.352  31.848  30.551  1.00  0.00     0.031 C 
ATOM     47  C   UNL A   1      40.353  25.500  28.038  1.00  0.00     0.029 A 
ATOM     48  C   UNL A   1      41.714  25.808  28.469  1.00  0.00     0.049 A 
ATOM     49  H   UNL A   1      42.391  27.565  29.361  1.00  0.00     0.167 HD
ATOM     50  C   UNL A   1      43.754  31.403  30.957  1.00  0.00     0.031 A 
ATOM     51  C   UNL A   1      42.770  24.979  28.358  1.00  0.00     0.031 A 
ATOM     52  C   UNL A   1      44.919  30.559  30.955  1.00  0.00     0.049 A 
ATOM     53  C   UNL A   1      44.119  25.438  28.841  1.00  0.00     0.074 A 
ATOM     54  C   UNL A   1      46.191  30.851  31.417  1.00  0.00     0.029 A 
ATOM     55  N   UNL A   1      44.955  29.260  30.473  1.00  0.00    -0.354 N 
ATOM     56  N   UNL A   1      44.457  26.592  29.365  1.00  0.00    -0.248 NA
ATOM     57  C   UNL A   1      45.228  24.480  28.726  1.00  0.00     0.031 C 
ATOM     58  C   UNL A   1      47.006  29.740  31.178  1.00  0.00     0.029 A 
ATOM     59  C   UNL A   1      46.230  28.739  30.615  1.00  0.00     0.049 A 
ATOM     60  H   UNL A   1      44.187  28.778  30.089  1.00  0.00     0.167 HD
ATOM     61  C   UNL A   1      45.808  26.486  29.673  1.00  0.00     0.074 A 
ATOM     62  C   UNL A   1      46.225  25.156  29.280  1.00  0.00     0.031 C 
ATOM     63  C   UNL A   1      46.628  27.408  30.234  1.00  0.00     0.031 A 
BRANCH  50  64
ATOM     64  C   UNL A   1      43.892  32.816  31.456  1.00  0.00    -0.014 A 
ATOM     65  C   UNL A   1      44.198  33.870  30.576  1.00  0.00     0.010 A 
ATOM     66  C   UNL A   1      43.679  33.101  32.818  1.00  0.00     0.010 A 
ATOM     67  C   UNL A   1      44.336  35.175  31.056  1.00  0.00     0.020 A 
ATOM     68  C   UNL A   1      43.789  34.410  33.296  1.00  0.00     0.020 A 
ATOM     69  C   UNL A   1      44.136  35.435  32.414  1.00  0.00     0.054 A 
BRANCH  69  70
ATOM     70  S   UNL A   1      44.308  37.141  33.007  1.00  0.00     0.124 S 
ATOM     71  O   UNL A   1      45.404  37.018  33.964  1.00  0.00    -0.237 OA
ATOM     72  O   UNL A   1      44.624  37.876  31.783  1.00  0.00    -0.237 OA
ATOM     73  O   UNL A   1      43.002  37.440  33.589  1.00  0.00    -0.744 OA
ENDBRANCH  69  70
ENDBRANCH  50  64
BRANCH  51  74
ATOM     74  C   UNL A   1      42.589  23.619  27.779  1.00  0.00    -0.014 A 
ATOM     75  C   UNL A   1      42.832  23.390  26.414  1.00  0.00     0.010 A 
ATOM     76  C   UNL A   1      42.189  22.544  28.594  1.00  0.00     0.010 A 
ATOM     77  C   UNL A   1      42.664  22.114  25.868  1.00  0.00     0.020 A 
ATOM     78  C   UNL A   1      42.045  21.261  28.057  1.00  0.00     0.020 A 
ATOM     79  C   UNL A   1      42.273  21.056  26.694  1.00  0.00     0.054 A 
BRANCH  79  80
ATOM     80  S   UNL A   1      42.116  19.396  25.977  1.00  0.00     0.124 S 
ATOM     81  O   UNL A   1      40.683  19.314  25.712  1.00  0.00    -0.237 OA
ATOM     82  O   UNL A   1      42.975  19.479  24.797  1.00  0.00    -0.237 OA
ATOM     83  O   UNL A   1      42.611  18.519  27.036  1.00  0.00    -0.744 OA
ENDBRANCH  79  80
ENDBRANCH  51  74
BRANCH  63  84
ATOM     84  C   UNL A   1      48.050  27.003  30.510  1.00  0.00    -0.014 A 
ATOM     85  C   UNL A   1      49.079  27.278  29.594  1.00  0.00     0.010 A 
ATOM     86  C   UNL A   1      48.369  26.411  31.747  1.00  0.00     0.010 A 
ATOM     87  C   UNL A   1      50.403  26.953  29.904  1.00  0.00     0.020 A 
ATOM     88  C   UNL A   1      49.694  26.106  32.069  1.00  0.00     0.020 A 
ATOM     89  C   UNL A   1      50.702  26.371  31.140  1.00  0.00     0.054 A 
BRANCH  89  90
ATOM     90  S   UNL A   1      52.435  26.021  31.546  1.00  0.00     0.124 S 
ATOM     91  O   UNL A   1      53.078  26.107  30.237  1.00  0.00    -0.237 OA
ATOM     92  O   UNL A   1      52.769  27.091  32.482  1.00  0.00    -0.237 OA
ATOM     93  O   UNL A   1      52.390  24.682  32.131  1.00  0.00    -0.744 OA
ENDBRANCH  89  90
ENDBRANCH  63  84
ENDBRANCH  37  38
ENDBRANCH  29  32
ENDBRANCH  27  28
ENDBRANCH   1  27
TORSDOF 17
ENDMDL
MODEL 2
REMARK VINA RESULT:     -11.3      2.218      3.930
REMARK SMILES Cc1cc(F)cc(N[C@H](C(=O)NCCCCNC(=O)c2ccc(-c3c4nc(c(-c5ccc(S(=O)(=O)[O-])cc5)c5ccc([nH]5)c(-c5ccc(S(=O)(=O)[O-])cc5)c5nc(c(-c6ccc(S(=O)(=O)[O-])cc6)c6ccc3[nH]6)C=C5)C=C4)cc2)c2cc(C)cc(C)c2)c1
REMARK SMILES IDX 15 1 14 2 13 3 12 4 10 5 11 6 9 8 8 9 7 11 1 12 2 13 3 14
REMARK SMILES IDX 88 15 4 16 5 17 6 18 80 19 81 20 87 21 82 22 85 23 83 24
REMARK SMILES IDX 84 25 86 26 16 27 17 28 18 29 19 31 20 32 21 33 79 34 22 35
REMARK SMILES IDX 78 36 23 37 24 38 25 39 72 40 26 41 77 42 71 43 73 44 27 45
REMARK SMILES IDX 76 46 70 47 69 48 28 50 58 51 39 52 57 53 40 54 43 55 56 56
REMARK SMILES IDX 74 57 41 58 42 59 55 61 75 62 44 63 29 64 30 65 38 66 31 67
REMARK SMILES IDX 37 68 32 69 33 70 34 71 35 72 36 73 59 74 60 75 68 76 61 77
REMARK SMILES IDX 67 78 62 79 63 80 64 81 65 82 66 83 45 84 46 85 54 86 47 87
REMARK SMILES IDX 53 88 48 89 49 90 50 91 51 92 52 93
REMARK H PARENT 12 7 8 10 17 30 73 49 43 60
REMARK Flexibility Score: inf
ROOT
ATOM      1  C   UNL A   1      33.663  26.886  25.305  1.00  0.00     0.023 C 
ENDROOT
BRANCH   1   2
ATOM      2  C   UNL A   1      32.361  26.121  25.536  1.00  0.00     0.023 C 
BRANCH   2   3
ATOM      3  C   UNL A   1      32.485  24.812  26.312  1.00  0.00     0.116 C 
BRANCH   3   4
ATOM      4  N   UNL A   1      31.313  23.966  26.233  1.00  0.00    -0.354 N 
ATOM      5  C   UNL A   1      31.237  22.597  26.158  1.00  0.00     0.247 C 
ATOM      6  O   UNL A   1      30.094  22.127  26.195  1.00  0.00    -0.272 OA
ATOM      7  H   UNL A   1      30.449  24.439  26.231  1.00  0.00     0.163 HD
BRANCH   5   8
ATOM      8  C   UNL A   1      32.491  21.712  25.877  1.00  0.00     0.200 C 
BRANCH   8   9
ATOM      9  N   UNL A   1      32.232  20.256  25.767  1.00  0.00    -0.370 N 
ATOM     10  H   UNL A   1      31.651  19.893  26.474  1.00  0.00     0.161 HD
BRANCH   9  11
ATOM     11  C   UNL A   1      32.663  19.318  24.851  1.00  0.00     0.038 A 
ATOM     12  C   UNL A   1      34.932  16.222  24.941  1.00  0.00     0.044 C 
ATOM     13  C   UNL A   1      34.011  17.290  24.438  1.00  0.00    -0.046 A 
ATOM     14  C   UNL A   1      33.589  17.267  23.111  1.00  0.00     0.042 A 
ATOM     15  C   UNL A   1      33.573  18.332  25.280  1.00  0.00     0.029 A 
ATOM     16  C   UNL A   1      32.691  18.222  22.678  1.00  0.00     0.125 A 
ATOM     17  F   UNL A   1      32.267  18.205  21.407  1.00  0.00    -0.207 F 
ATOM     18  C   UNL A   1      32.206  19.200  23.542  1.00  0.00     0.065 A 
ENDBRANCH   9  11
ENDBRANCH   8   9
BRANCH   8  19
ATOM     19  C   UNL A   1      33.418  22.181  24.754  1.00  0.00    -0.016 A 
ATOM     20  C   UNL A   1      34.807  22.238  24.931  1.00  0.00     0.009 A 
ATOM     21  C   UNL A   1      32.884  22.716  23.569  1.00  0.00     0.009 A 
ATOM     22  C   UNL A   1      35.616  23.006  24.091  1.00  0.00    -0.051 A 
ATOM     23  C   UNL A   1      33.709  23.356  22.631  1.00  0.00    -0.051 A 
ATOM     24  C   UNL A   1      36.996  23.383  24.543  1.00  0.00     0.044 C 
ATOM     25  C   UNL A   1      35.061  23.554  22.933  1.00  0.00     0.006 A 
ATOM     26  C   UNL A   1      33.142  23.921  21.363  1.00  0.00     0.044 C 
ENDBRANCH   8  19
ENDBRANCH   5   8
ENDBRANCH   3   4
ENDBRANCH   2   3
ENDBRANCH   1   2
BRANCH   1  27
ATOM     27  C   UNL A   1      34.294  27.521  26.540  1.00  0.00     0.116 C 
BRANCH  27  28
ATOM     28  N   UNL A   1      33.789  28.859  26.818  1.00  0.00    -0.352 N 
ATOM     29  C   UNL A   1      34.393  29.899  27.486  1.00  0.00     0.251 C 
ATOM     30  H   UNL A   1      32.884  29.046  26.480  1.00  0.00     0.163 HD
ATOM     31  O   UNL A   1      33.760  30.923  27.733  1.00  0.00    -0.269 OA
BRANCH  29  32
ATOM     32  C   UNL A   1      35.796  29.767  27.938  1.00  0.00     0.039 A 
ATOM     33  C   UNL A   1      36.055  29.359  29.249  1.00  0.00     0.014 A 
ATOM     34  C   UNL A   1      36.852  30.012  27.058  1.00  0.00     0.014 A 
ATOM     35  C   UNL A   1      37.371  29.103  29.648  1.00  0.00     0.010 A 
ATOM     36  C   UNL A   1      38.153  29.686  27.432  1.00  0.00     0.010 A 
ATOM     37  C   UNL A   1      38.425  29.218  28.728  1.00  0.00    -0.014 A 
BRANCH  37  38
ATOM     38  C   UNL A   1      39.820  28.839  29.081  1.00  0.00     0.031 A 
ATOM     39  C   UNL A   1      40.741  29.855  29.700  1.00  0.00     0.074 A 
ATOM     40  C   UNL A   1      40.287  27.616  28.757  1.00  0.00     0.049 A 
ATOM     41  N   UNL A   1      42.020  29.760  29.957  1.00  0.00    -0.248 NA
ATOM     42  C   UNL A   1      40.153  31.159  30.047  1.00  0.00     0.031 C 
ATOM     43  C   UNL A   1      39.509  26.550  28.120  1.00  0.00     0.029 A 
ATOM     44  N   UNL A   1      41.538  27.067  28.903  1.00  0.00    -0.354 N 
ATOM     45  C   UNL A   1      42.396  30.998  30.468  1.00  0.00     0.074 A 
ATOM     46  C   UNL A   1      41.218  31.838  30.447  1.00  0.00     0.031 C 
ATOM     47  C   UNL A   1      40.293  25.474  27.946  1.00  0.00     0.029 A 
ATOM     48  C   UNL A   1      41.641  25.785  28.416  1.00  0.00     0.049 A 
ATOM     49  H   UNL A   1      42.291  27.548  29.316  1.00  0.00     0.167 HD
ATOM     50  C   UNL A   1      43.607  31.396  30.927  1.00  0.00     0.031 A 
ATOM     51  C   UNL A   1      42.700  24.955  28.341  1.00  0.00     0.031 A 
ATOM     52  C   UNL A   1      44.771  30.552  30.965  1.00  0.00     0.049 A 
ATOM     53  C   UNL A   1      44.034  25.417  28.861  1.00  0.00     0.074 A 
ATOM     54  C   UNL A   1      46.029  30.847  31.462  1.00  0.00     0.029 A 
ATOM     55  N   UNL A   1      44.822  29.250  30.493  1.00  0.00    -0.354 N 
ATOM     56  N   UNL A   1      44.356  26.574  29.388  1.00  0.00    -0.248 NA
ATOM     57  C   UNL A   1      45.146  24.458  28.785  1.00  0.00     0.031 C 
ATOM     58  C   UNL A   1      46.851  29.735  31.255  1.00  0.00     0.029 A 
ATOM     59  C   UNL A   1      46.092  28.730  30.676  1.00  0.00     0.049 A 
ATOM     60  H   UNL A   1      44.066  28.765  30.089  1.00  0.00     0.167 HD
ATOM     61  C   UNL A   1      45.698  26.471  29.736  1.00  0.00     0.074 A 
ATOM     62  C   UNL A   1      46.126  25.138  29.364  1.00  0.00     0.031 C 
ATOM     63  C   UNL A   1      46.500  27.397  30.315  1.00  0.00     0.031 A 
BRANCH  50  64
ATOM     64  C   UNL A   1      43.730  32.812  31.421  1.00  0.00    -0.014 A 
ATOM     65  C   UNL A   1      44.194  33.837  30.577  1.00  0.00     0.010 A 
ATOM     66  C   UNL A   1      43.345  33.130  32.737  1.00  0.00     0.010 A 
ATOM     67  C   UNL A   1      44.316  35.145  31.053  1.00  0.00     0.020 A 
ATOM     68  C   UNL A   1      43.440  34.444  33.207  1.00  0.00     0.020 A 
ATOM     69  C   UNL A   1      43.943  35.438  32.367  1.00  0.00     0.054 A 
BRANCH  69  70
ATOM     70  S   UNL A   1      44.099  37.148  32.954  1.00  0.00     0.124 S 
ATOM     71  O   UNL A   1      45.486  37.185  33.408  1.00  0.00    -0.237 OA
ATOM     72  O   UNL A   1      43.810  37.928  31.752  1.00  0.00    -0.237 OA
ATOM     73  O   UNL A   1      43.094  37.245  34.011  1.00  0.00    -0.744 OA
ENDBRANCH  69  70
ENDBRANCH  50  64
BRANCH  51  74
ATOM     74  C   UNL A   1      42.536  23.591  27.766  1.00  0.00    -0.014 A 
ATOM     75  C   UNL A   1      42.965  23.317  26.457  1.00  0.00     0.010 A 
ATOM     76  C   UNL A   1      41.966  22.557  28.532  1.00  0.00     0.010 A 
ATOM     77  C   UNL A   1      42.814  22.037  25.914  1.00  0.00     0.020 A 
ATOM     78  C   UNL A   1      41.836  21.270  28.002  1.00  0.00     0.020 A 
ATOM     79  C   UNL A   1      42.251  21.021  26.692  1.00  0.00     0.054 A 
BRANCH  79  80
ATOM     80  S   UNL A   1      42.116  19.353  25.989  1.00  0.00     0.124 S 
ATOM     81  O   UNL A   1      42.952  19.458  24.797  1.00  0.00    -0.237 OA
ATOM     82  O   UNL A   1      42.646  18.513  27.062  1.00  0.00    -0.237 OA
ATOM     83  O   UNL A   1      40.684  19.202  25.741  1.00  0.00    -0.744 OA
ENDBRANCH  79  80
ENDBRANCH  51  74
BRANCH  63  84
ATOM     84  C   UNL A   1      47.914  26.994  30.636  1.00  0.00    -0.014 A 
ATOM     85  C   UNL A   1      48.967  27.244  29.740  1.00  0.00     0.010 A 
ATOM     86  C   UNL A   1      48.200  26.429  31.894  1.00  0.00     0.010 A 
ATOM     87  C   UNL A   1      50.281  26.921  30.090  1.00  0.00     0.020 A 
ATOM     88  C   UNL A   1      49.515  26.128  32.256  1.00  0.00     0.020 A 
ATOM     89  C   UNL A   1      50.547  26.368  31.346  1.00  0.00     0.054 A 
BRANCH  89  90
ATOM     90  S   UNL A   1      52.268  26.022  31.803  1.00  0.00     0.124 S 
ATOM     91  O   UNL A   1      52.955  26.146  30.520  1.00  0.00    -0.237 OA
ATOM     92  O   UNL A   1      52.560  27.070  32.777  1.00  0.00    -0.237 OA
ATOM     93  O   UNL A   1      52.215  24.668  32.352  1.00  0.00    -0.744 OA
ENDBRANCH  89  90
ENDBRANCH  63  84
ENDBRANCH  37  38
ENDBRANCH  29  32
ENDBRANCH  27  28
ENDBRANCH   1  27
TORSDOF 17
ENDMDL
MODEL 3
REMARK VINA RESULT:     -11.3      2.688      9.200
REMARK SMILES Cc1cc(F)cc(N[C@H](C(=O)NCCCCNC(=O)c2ccc(-c3c4nc(c(-c5ccc(S(=O)(=O)[O-])cc5)c5ccc([nH]5)c(-c5ccc(S(=O)(=O)[O-])cc5)c5nc(c(-c6ccc(S(=O)(=O)[O-])cc6)c6ccc3[nH]6)C=C5)C=C4)cc2)c2cc(C)cc(C)c2)c1
REMARK SMILES IDX 15 1 14 2 13 3 12 4 10 5 11 6 9 8 8 9 7 11 1 12 2 13 3 14
REMARK SMILES IDX 88 15 4 16 5 17 6 18 80 19 81 20 87 21 82 22 85 23 83 24
REMARK SMILES IDX 84 25 86 26 16 27 17 28 18 29 19 31 20 32 21 33 79 34 22 35
REMARK SMILES IDX 78 36 23 37 24 38 25 39 72 40 26 41 77 42 71 43 73 44 27 45
REMARK SMILES IDX 76 46 70 47 69 48 28 50 58 51 39 52 57 53 40 54 43 55 56 56
REMARK SMILES IDX 74 57 41 58 42 59 55 61 75 62 44 63 29 64 30 65 38 66 31 67
REMARK SMILES IDX 37 68 32 69 33 70 34 71 35 72 36 73 59 74 60 75 68 76 61 77
REMARK SMILES IDX 67 78 62 79 63 80 64 81 65 82 66 83 45 84 46 85 54 86 47 87
REMARK SMILES IDX 53 88 48 89 49 90 50 91 51 92 52 93
REMARK H PARENT 12 7 8 10 17 30 73 49 43 60
REMARK Flexibility Score: inf
ROOT
ATOM      1  C   UNL A   1      35.710  22.827  24.831  1.00  0.00     0.023 C 
ENDROOT
BRANCH   1   2
ATOM      2  C   UNL A   1      35.263  23.965  23.914  1.00  0.00     0.023 C 
BRANCH   2   3
ATOM      3  C   UNL A   1      33.755  24.131  23.743  1.00  0.00     0.116 C 
BRANCH   3   4
ATOM      4  N   UNL A   1      33.360  24.634  22.444  1.00  0.00    -0.354 N 
ATOM      5  C   UNL A   1      32.779  25.836  22.122  1.00  0.00     0.247 C 
ATOM      6  O   UNL A   1      32.632  26.045  20.912  1.00  0.00    -0.272 OA
ATOM      7  H   UNL A   1      33.531  24.029  21.686  1.00  0.00     0.163 HD
BRANCH   5   8
ATOM      8  C   UNL A   1      32.195  26.792  23.209  1.00  0.00     0.200 C 
BRANCH   8   9
ATOM      9  N   UNL A   1      33.099  27.882  23.650  1.00  0.00    -0.370 N 
ATOM     10  H   UNL A   1      33.796  28.120  22.997  1.00  0.00     0.161 HD
BRANCH   9  11
ATOM     11  C   UNL A   1      33.136  28.621  24.815  1.00  0.00     0.038 A 
ATOM     12  C   UNL A   1      31.104  31.523  26.297  1.00  0.00     0.044 C 
ATOM     13  C   UNL A   1      32.130  30.442  26.146  1.00  0.00    -0.046 A 
ATOM     14  C   UNL A   1      33.025  30.193  27.183  1.00  0.00     0.042 A 
ATOM     15  C   UNL A   1      32.218  29.680  24.964  1.00  0.00     0.029 A 
ATOM     16  C   UNL A   1      33.924  29.152  27.055  1.00  0.00     0.125 A 
ATOM     17  F   UNL A   1      34.783  28.892  28.050  1.00  0.00    -0.207 F 
ATOM     18  C   UNL A   1      33.948  28.357  25.912  1.00  0.00     0.065 A 
ENDBRANCH   9  11
ENDBRANCH   8   9
BRANCH   8  19
ATOM     19  C   UNL A   1      30.785  27.329  22.956  1.00  0.00    -0.016 A 
ATOM     20  C   UNL A   1      30.574  28.511  22.234  1.00  0.00     0.009 A 
ATOM     21  C   UNL A   1      29.675  26.732  23.578  1.00  0.00     0.009 A 
ATOM     22  C   UNL A   1      29.368  29.210  22.321  1.00  0.00    -0.051 A 
ATOM     23  C   UNL A   1      28.412  27.343  23.541  1.00  0.00    -0.051 A 
ATOM     24  C   UNL A   1      29.320  30.648  21.893  1.00  0.00     0.044 C 
ATOM     25  C   UNL A   1      28.285  28.613  22.968  1.00  0.00     0.006 A 
ATOM     26  C   UNL A   1      27.226  26.703  24.198  1.00  0.00     0.044 C 
ENDBRANCH   8  19
ENDBRANCH   5   8
ENDBRANCH   3   4
ENDBRANCH   2   3
ENDBRANCH   1   2
BRANCH   1  27
ATOM     27  C   UNL A   1      36.611  23.223  25.996  1.00  0.00     0.116 C 
BRANCH  27  28
ATOM     28  N   UNL A   1      37.831  22.431  26.073  1.00  0.00    -0.352 N 
ATOM     29  C   UNL A   1      39.098  22.811  26.455  1.00  0.00     0.251 C 
ATOM     30  H   UNL A   1      37.737  21.485  25.815  1.00  0.00     0.163 HD
ATOM     31  O   UNL A   1      40.037  22.027  26.338  1.00  0.00    -0.269 OA
BRANCH  29  32
ATOM     32  C   UNL A   1      39.330  24.177  26.971  1.00  0.00     0.039 A 
ATOM     33  C   UNL A   1      38.967  24.481  28.287  1.00  0.00     0.014 A 
ATOM     34  C   UNL A   1      39.936  25.147  26.169  1.00  0.00     0.014 A 
ATOM     35  C   UNL A   1      39.301  25.727  28.828  1.00  0.00     0.010 A 
ATOM     36  C   UNL A   1      40.334  26.357  26.731  1.00  0.00     0.010 A 
ATOM     37  C   UNL A   1      40.031  26.656  28.069  1.00  0.00    -0.014 A 
BRANCH  37  38
ATOM     38  C   UNL A   1      40.507  27.941  28.649  1.00  0.00     0.031 A 
ATOM     39  C   UNL A   1      41.904  28.045  29.199  1.00  0.00     0.074 A 
ATOM     40  C   UNL A   1      39.656  28.980  28.771  1.00  0.00     0.049 A 
ATOM     41  N   UNL A   1      42.459  29.029  29.859  1.00  0.00    -0.248 NA
ATOM     42  C   UNL A   1      42.781  26.879  29.006  1.00  0.00     0.031 C 
ATOM     43  C   UNL A   1      38.264  28.997  28.314  1.00  0.00     0.029 A 
ATOM     44  N   UNL A   1      39.832  30.220  29.335  1.00  0.00    -0.354 N 
ATOM     45  C   UNL A   1      43.738  28.590  30.186  1.00  0.00     0.074 A 
ATOM     46  C   UNL A   1      43.861  27.238  29.685  1.00  0.00     0.031 C 
ATOM     47  C   UNL A   1      37.720  30.191  28.599  1.00  0.00     0.029 A 
ATOM     48  C   UNL A   1      38.706  31.010  29.300  1.00  0.00     0.049 A 
ATOM     49  H   UNL A   1      40.684  30.516  29.729  1.00  0.00     0.167 HD
ATOM     50  C   UNL A   1      44.726  29.257  30.830  1.00  0.00     0.031 A 
ATOM     51  C   UNL A   1      38.484  32.246  29.786  1.00  0.00     0.031 A 
ATOM     52  C   UNL A   1      44.608  30.608  31.309  1.00  0.00     0.049 A 
ATOM     53  C   UNL A   1      39.597  32.969  30.495  1.00  0.00     0.074 A 
ATOM     54  C   UNL A   1      45.571  31.388  31.925  1.00  0.00     0.029 A 
ATOM     55  N   UNL A   1      43.461  31.382  31.222  1.00  0.00    -0.354 N 
ATOM     56  N   UNL A   1      40.816  32.555  30.749  1.00  0.00    -0.248 NA
ATOM     57  C   UNL A   1      39.309  34.328  30.976  1.00  0.00     0.031 C 
ATOM     58  C   UNL A   1      44.994  32.621  32.246  1.00  0.00     0.029 A 
ATOM     59  C   UNL A   1      43.688  32.626  31.783  1.00  0.00     0.049 A 
ATOM     60  H   UNL A   1      42.611  31.090  30.818  1.00  0.00     0.167 HD
ATOM     61  C   UNL A   1      41.449  33.615  31.388  1.00  0.00     0.074 A 
ATOM     62  C   UNL A   1      40.482  34.689  31.479  1.00  0.00     0.031 C 
ATOM     63  C   UNL A   1      42.720  33.691  31.853  1.00  0.00     0.031 A 
BRANCH  50  64
ATOM     64  C   UNL A   1      46.022  28.525  31.057  1.00  0.00    -0.014 A 
ATOM     65  C   UNL A   1      47.075  28.611  30.130  1.00  0.00     0.010 A 
ATOM     66  C   UNL A   1      46.202  27.770  32.231  1.00  0.00     0.010 A 
ATOM     67  C   UNL A   1      48.268  27.916  30.347  1.00  0.00     0.020 A 
ATOM     68  C   UNL A   1      47.405  27.096  32.465  1.00  0.00     0.020 A 
ATOM     69  C   UNL A   1      48.423  27.159  31.512  1.00  0.00     0.054 A 
BRANCH  69  70
ATOM     70  S   UNL A   1      49.987  26.279  31.775  1.00  0.00     0.124 S 
ATOM     71  O   UNL A   1      49.963  26.048  33.216  1.00  0.00    -0.237 OA
ATOM     72  O   UNL A   1      49.828  25.086  30.945  1.00  0.00    -0.237 OA
ATOM     73  O   UNL A   1      50.999  27.225  31.311  1.00  0.00    -0.744 OA
ENDBRANCH  69  70
ENDBRANCH  50  64
BRANCH  51  74
ATOM     74  C   UNL A   1      37.154  32.889  29.603  1.00  0.00    -0.014 A 
ATOM     75  C   UNL A   1      36.209  32.877  30.643  1.00  0.00     0.010 A 
ATOM     76  C   UNL A   1      36.831  33.531  28.393  1.00  0.00     0.010 A 
ATOM     77  C   UNL A   1      34.959  33.481  30.474  1.00  0.00     0.020 A 
ATOM     78  C   UNL A   1      35.592  34.157  28.228  1.00  0.00     0.020 A 
ATOM     79  C   UNL A   1      34.660  34.119  29.267  1.00  0.00     0.054 A 
BRANCH  79  80
ATOM     80  S   UNL A   1      33.054  34.946  29.089  1.00  0.00     0.124 S 
ATOM     81  O   UNL A   1      33.446  36.273  28.624  1.00  0.00    -0.237 OA
ATOM     82  O   UNL A   1      32.373  34.106  28.106  1.00  0.00    -0.237 OA
ATOM     83  O   UNL A   1      32.491  34.892  30.436  1.00  0.00    -0.744 OA
ENDBRANCH  79  80
ENDBRANCH  51  74
BRANCH  63  84
ATOM     84  C   UNL A   1      43.165  34.994  32.460  1.00  0.00    -0.014 A 
ATOM     85  C   UNL A   1      43.794  35.983  31.685  1.00  0.00     0.010 A 
ATOM     86  C   UNL A   1      42.872  35.260  33.811  1.00  0.00     0.010 A 
ATOM     87  C   UNL A   1      44.137  37.213  32.257  1.00  0.00     0.020 A 
ATOM     88  C   UNL A   1      43.192  36.495  34.378  1.00  0.00     0.020 A 
ATOM     89  C   UNL A   1      43.832  37.462  33.599  1.00  0.00     0.054 A 
BRANCH  89  90
ATOM     90  S   UNL A   1      44.225  39.088  34.299  1.00  0.00     0.124 S 
ATOM     91  O   UNL A   1      45.475  39.418  33.618  1.00  0.00    -0.237 OA
ATOM     92  O   UNL A   1      43.069  39.893  33.914  1.00  0.00    -0.237 OA
ATOM     93  O   UNL A   1      44.347  38.829  35.732  1.00  0.00    -0.744 OA
ENDBRANCH  89  90
ENDBRANCH  63  84
ENDBRANCH  37  38
ENDBRANCH  29  32
ENDBRANCH  27  28
ENDBRANCH   1  27
TORSDOF 17
ENDMDL
