MODEL 1
REMARK VINA RESULT:     -12.8      0.000      0.000
REMARK SMILES Cc1cc(C)n(-c2nc(C)c(C)c(Oc3cccc(C(=O)NCCCCNC(=O)c4ccc(-c5c6nc(c(-c7ccc(S(=O)(=O)[O-])cc7)c7ccc([nH]7)c(-c7ccc(S(=O)(=O)[O-])cc7)c7nc(c(-c8ccc(S(=O)(=O)[O-])cc8)c8ccc5[nH]8)C=C7)C=C6)cc4)c3)n2)n1
REMARK SMILES IDX 24 1 23 2 22 3 20 4 21 5 19 7 15 8 16 9 90 10 17 11 18 12
REMARK SMILES IDX 14 13 13 14 7 15 8 16 91 17 9 18 10 19 11 20 12 21 6 22 1 23
REMARK SMILES IDX 2 24 3 25 92 26 4 27 5 28 25 29 26 30 27 31 28 32 29 34
REMARK SMILES IDX 30 35 31 36 89 37 32 38 88 39 33 40 34 41 35 42 82 43 36 44
REMARK SMILES IDX 87 45 81 46 83 47 37 48 86 49 80 50 79 51 38 53 68 54 49 55
REMARK SMILES IDX 67 56 50 57 53 58 66 59 84 60 51 61 52 62 65 64 85 65 54 66
REMARK SMILES IDX 39 67 40 68 48 69 41 70 47 71 42 72 43 73 44 74 45 75 46 76
REMARK SMILES IDX 69 77 70 78 78 79 71 80 77 81 72 82 73 83 74 84 75 85 76 86
REMARK SMILES IDX 55 87 56 88 64 89 57 90 63 91 58 92 59 93 60 94 61 95 62 96
REMARK H PARENT 22 6 27 33 83 52 53 63
REMARK Flexibility Score: inf
ROOT
ATOM      1  C   UNL A   1      37.745  22.728  25.541  1.00  0.00     0.023 C 
ENDROOT
BRANCH   1   2
ATOM      2  C   UNL A   1      36.268  22.354  25.383  1.00  0.00     0.116 C 
BRANCH   2   3
ATOM      3  N   UNL A   1      35.736  22.865  24.135  1.00  0.00    -0.352 N 
ATOM      4  C   UNL A   1      34.485  23.221  23.702  1.00  0.00     0.251 C 
ATOM      5  O   UNL A   1      34.400  23.586  22.527  1.00  0.00    -0.269 OA
ATOM      6  H   UNL A   1      36.426  22.981  23.444  1.00  0.00     0.163 HD
BRANCH   4   7
ATOM      7  C   UNL A   1      33.246  23.223  24.538  1.00  0.00     0.043 A 
ATOM      8  C   UNL A   1      31.438  24.231  25.803  1.00  0.00     0.130 A 
ATOM      9  C   UNL A   1      30.856  22.985  26.021  1.00  0.00     0.047 A 
ATOM     10  C   UNL A   1      32.663  24.343  25.130  1.00  0.00     0.061 A 
ATOM     11  C   UNL A   1      31.461  21.848  25.500  1.00  0.00     0.005 A 
ATOM     12  C   UNL A   1      32.634  21.972  24.750  1.00  0.00     0.014 A 
BRANCH   8  13
ATOM     13  O   UNL A   1      30.792  25.324  26.334  1.00  0.00    -0.439 OA
BRANCH  13  14
ATOM     14  C   UNL A   1      31.131  26.581  25.829  1.00  0.00     0.227 A 
ATOM     15  C   UNL A   1      32.320  28.531  25.971  1.00  0.00     0.254 A 
ATOM     16  N   UNL A   1      31.684  29.044  24.897  1.00  0.00    -0.216 NA
ATOM     17  N   UNL A   1      32.098  27.293  26.441  1.00  0.00    -0.175 NA
ATOM     18  C   UNL A   1      30.800  28.263  24.240  1.00  0.00     0.050 A 
ATOM     19  C   UNL A   1      30.320  28.832  22.938  1.00  0.00     0.067 C 
ATOM     20  C   UNL A   1      30.443  27.006  24.701  1.00  0.00     0.033 A 
ATOM     21  C   UNL A   1      29.409  26.164  24.022  1.00  0.00     0.052 C 
BRANCH  15  22
ATOM     22  N   UNL A   1      33.277  29.376  26.642  1.00  0.00    -0.203 N 
ATOM     23  C   UNL A   1      36.642  29.980  27.652  1.00  0.00     0.069 C 
ATOM     24  C   UNL A   1      35.191  30.031  27.347  1.00  0.00     0.060 A 
ATOM     25  C   UNL A   1      34.346  31.156  27.411  1.00  0.00     0.049 A 
ATOM     26  N   UNL A   1      34.521  28.929  26.988  1.00  0.00    -0.170 NA
ATOM     27  C   UNL A   1      33.107  30.707  27.015  1.00  0.00     0.045 A 
ATOM     28  C   UNL A   1      31.802  31.415  26.997  1.00  0.00     0.067 C 
ENDBRANCH  15  22
ENDBRANCH  13  14
ENDBRANCH   8  13
ENDBRANCH   4   7
ENDBRANCH   2   3
ENDBRANCH   1   2
BRANCH   1  29
ATOM     29  C   UNL A   1      38.689  21.523  25.713  1.00  0.00     0.023 C 
BRANCH  29  30
ATOM     30  C   UNL A   1      39.810  21.732  26.731  1.00  0.00     0.116 C 
BRANCH  30  31
ATOM     31  N   UNL A   1      41.113  21.907  26.095  1.00  0.00    -0.352 N 
ATOM     32  C   UNL A   1      41.858  23.054  25.961  1.00  0.00     0.251 C 
ATOM     33  H   UNL A   1      41.511  21.092  25.709  1.00  0.00     0.163 HD
ATOM     34  O   UNL A   1      42.773  23.111  25.137  1.00  0.00    -0.269 OA
BRANCH  32  35
ATOM     35  C   UNL A   1      41.539  24.220  26.800  1.00  0.00     0.039 A 
ATOM     36  C   UNL A   1      42.172  24.397  28.029  1.00  0.00     0.014 A 
ATOM     37  C   UNL A   1      40.641  25.174  26.319  1.00  0.00     0.014 A 
ATOM     38  C   UNL A   1      41.980  25.589  28.725  1.00  0.00     0.010 A 
ATOM     39  C   UNL A   1      40.515  26.389  26.970  1.00  0.00     0.010 A 
ATOM     40  C   UNL A   1      41.180  26.609  28.180  1.00  0.00    -0.014 A 
BRANCH  40  41
ATOM     41  C   UNL A   1      41.157  27.928  28.830  1.00  0.00     0.031 A 
ATOM     42  C   UNL A   1      42.223  28.888  28.410  1.00  0.00     0.074 A 
ATOM     43  C   UNL A   1      40.162  28.399  29.612  1.00  0.00     0.049 A 
ATOM     44  N   UNL A   1      43.190  29.366  29.122  1.00  0.00    -0.248 NA
ATOM     45  C   UNL A   1      42.242  29.325  27.006  1.00  0.00     0.031 C 
ATOM     46  C   UNL A   1      38.865  27.778  29.892  1.00  0.00     0.029 A 
ATOM     47  N   UNL A   1      40.068  29.604  30.251  1.00  0.00    -0.354 N 
ATOM     48  C   UNL A   1      43.838  30.304  28.319  1.00  0.00     0.074 A 
ATOM     49  C   UNL A   1      43.298  30.143  26.993  1.00  0.00     0.031 C 
ATOM     50  C   UNL A   1      38.034  28.693  30.438  1.00  0.00     0.029 A 
ATOM     51  C   UNL A   1      38.798  29.893  30.728  1.00  0.00     0.049 A 
ATOM     52  H   UNL A   1      40.834  30.213  30.362  1.00  0.00     0.167 HD
ATOM     53  C   UNL A   1      44.619  31.291  28.845  1.00  0.00     0.031 A 
ATOM     54  C   UNL A   1      38.387  31.023  31.345  1.00  0.00     0.031 A 
ATOM     55  C   UNL A   1      44.870  31.095  30.247  1.00  0.00     0.049 A 
ATOM     56  C   UNL A   1      39.569  31.676  31.945  1.00  0.00     0.074 A 
ATOM     57  C   UNL A   1      45.687  30.314  31.031  1.00  0.00     0.029 A 
ATOM     58  N   UNL A   1      43.922  31.648  31.068  1.00  0.00    -0.354 N 
ATOM     59  N   UNL A   1      40.266  31.143  32.908  1.00  0.00    -0.248 NA
ATOM     60  C   UNL A   1      40.160  32.853  31.322  1.00  0.00     0.031 C 
ATOM     61  C   UNL A   1      45.044  30.225  32.304  1.00  0.00     0.029 A 
ATOM     62  C   UNL A   1      43.863  30.962  32.253  1.00  0.00     0.049 A 
ATOM     63  H   UNL A   1      43.364  32.427  30.839  1.00  0.00     0.167 HD
ATOM     64  C   UNL A   1      41.536  31.648  32.733  1.00  0.00     0.074 A 
ATOM     65  C   UNL A   1      41.373  32.816  31.881  1.00  0.00     0.031 C 
ATOM     66  C   UNL A   1      42.635  30.894  33.019  1.00  0.00     0.031 A 
BRANCH  53  67
ATOM     67  C   UNL A   1      44.816  32.661  28.229  1.00  0.00    -0.014 A 
ATOM     68  C   UNL A   1      46.121  33.197  28.167  1.00  0.00     0.010 A 
ATOM     69  C   UNL A   1      43.750  33.552  27.992  1.00  0.00     0.010 A 
ATOM     70  C   UNL A   1      46.344  34.564  27.938  1.00  0.00     0.020 A 
ATOM     71  C   UNL A   1      43.963  34.909  27.724  1.00  0.00     0.020 A 
ATOM     72  C   UNL A   1      45.258  35.414  27.734  1.00  0.00     0.054 A 
BRANCH  72  73
ATOM     73  S   UNL A   1      45.546  37.195  27.565  1.00  0.00     0.124 S 
ATOM     74  O   UNL A   1      46.723  37.230  26.703  1.00  0.00    -0.237 OA
ATOM     75  O   UNL A   1      44.300  37.655  26.957  1.00  0.00    -0.237 OA
ATOM     76  O   UNL A   1      45.762  37.637  28.941  1.00  0.00    -0.744 OA
ENDBRANCH  72  73
ENDBRANCH  53  67
BRANCH  54  77
ATOM     77  C   UNL A   1      37.053  31.658  31.357  1.00  0.00    -0.014 A 
ATOM     78  C   UNL A   1      36.289  31.676  32.538  1.00  0.00     0.010 A 
ATOM     79  C   UNL A   1      36.675  32.515  30.304  1.00  0.00     0.010 A 
ATOM     80  C   UNL A   1      35.246  32.594  32.702  1.00  0.00     0.020 A 
ATOM     81  C   UNL A   1      35.626  33.429  30.458  1.00  0.00     0.020 A 
ATOM     82  C   UNL A   1      34.944  33.490  31.673  1.00  0.00     0.054 A 
BRANCH  82  83
ATOM     83  S   UNL A   1      33.760  34.828  31.997  1.00  0.00     0.124 S 
ATOM     84  O   UNL A   1      34.621  35.887  32.518  1.00  0.00    -0.237 OA
ATOM     85  O   UNL A   1      33.190  35.068  30.675  1.00  0.00    -0.237 OA
ATOM     86  O   UNL A   1      32.838  34.243  32.970  1.00  0.00    -0.744 OA
ENDBRANCH  82  83
ENDBRANCH  54  77
BRANCH  66  87
ATOM     87  C   UNL A   1      42.482  29.783  34.020  1.00  0.00    -0.014 A 
ATOM     88  C   UNL A   1      42.462  29.983  35.413  1.00  0.00     0.010 A 
ATOM     89  C   UNL A   1      42.277  28.485  33.523  1.00  0.00     0.010 A 
ATOM     90  C   UNL A   1      42.263  28.905  36.286  1.00  0.00     0.020 A 
ATOM     91  C   UNL A   1      42.061  27.409  34.386  1.00  0.00     0.020 A 
ATOM     92  C   UNL A   1      42.063  27.622  35.765  1.00  0.00     0.054 A 
BRANCH  92  93
ATOM     93  S   UNL A   1      41.757  26.239  36.899  1.00  0.00     0.124 S 
ATOM     94  O   UNL A   1      41.777  25.085  36.004  1.00  0.00    -0.237 OA
ATOM     95  O   UNL A   1      42.877  26.331  37.832  1.00  0.00    -0.237 OA
ATOM     96  O   UNL A   1      40.451  26.546  37.481  1.00  0.00    -0.744 OA
ENDBRANCH  92  93
ENDBRANCH  66  87
ENDBRANCH  40  41
ENDBRANCH  32  35
ENDBRANCH  30  31
ENDBRANCH  29  30
ENDBRANCH   1  29
TORSDOF 17
ENDMDL
MODEL 2
REMARK VINA RESULT:     -12.5      2.790      9.628
REMARK SMILES Cc1cc(C)n(-c2nc(C)c(C)c(Oc3cccc(C(=O)NCCCCNC(=O)c4ccc(-c5c6nc(c(-c7ccc(S(=O)(=O)[O-])cc7)c7ccc([nH]7)c(-c7ccc(S(=O)(=O)[O-])cc7)c7nc(c(-c8ccc(S(=O)(=O)[O-])cc8)c8ccc5[nH]8)C=C7)C=C6)cc4)c3)n2)n1
REMARK SMILES IDX 24 1 23 2 22 3 20 4 21 5 19 7 15 8 16 9 90 10 17 11 18 12
REMARK SMILES IDX 14 13 13 14 7 15 8 16 91 17 9 18 10 19 11 20 12 21 6 22 1 23
REMARK SMILES IDX 2 24 3 25 92 26 4 27 5 28 25 29 26 30 27 31 28 32 29 34
REMARK SMILES IDX 30 35 31 36 89 37 32 38 88 39 33 40 34 41 35 42 82 43 36 44
REMARK SMILES IDX 87 45 81 46 83 47 37 48 86 49 80 50 79 51 38 53 68 54 49 55
REMARK SMILES IDX 67 56 50 57 53 58 66 59 84 60 51 61 52 62 65 64 85 65 54 66
REMARK SMILES IDX 39 67 40 68 48 69 41 70 47 71 42 72 43 73 44 74 45 75 46 76
REMARK SMILES IDX 69 77 70 78 78 79 71 80 77 81 72 82 73 83 74 84 75 85 76 86
REMARK SMILES IDX 55 87 56 88 64 89 57 90 63 91 58 92 59 93 60 94 61 95 62 96
REMARK H PARENT 22 6 27 33 83 52 53 63
REMARK Flexibility Score: inf
ROOT
ATOM      1  C   UNL A   1      32.469  29.588  25.498  1.00  0.00     0.023 C 
ENDROOT
BRANCH   1   2
ATOM      2  C   UNL A   1      33.740  28.801  25.165  1.00  0.00     0.116 C 
BRANCH   2   3
ATOM      3  N   UNL A   1      34.035  28.872  23.747  1.00  0.00    -0.352 N 
ATOM      4  C   UNL A   1      33.828  28.034  22.683  1.00  0.00     0.251 C 
ATOM      5  O   UNL A   1      34.263  28.419  21.594  1.00  0.00    -0.269 OA
ATOM      6  H   UNL A   1      34.486  29.708  23.492  1.00  0.00     0.163 HD
BRANCH   4   7
ATOM      7  C   UNL A   1      33.108  26.725  22.737  1.00  0.00     0.043 A 
ATOM      8  C   UNL A   1      32.900  24.313  22.593  1.00  0.00     0.130 A 
ATOM      9  C   UNL A   1      31.566  24.374  22.990  1.00  0.00     0.047 A 
ATOM     10  C   UNL A   1      33.645  25.484  22.397  1.00  0.00     0.061 A 
ATOM     11  C   UNL A   1      30.992  25.609  23.265  1.00  0.00     0.005 A 
ATOM     12  C   UNL A   1      31.764  26.769  23.157  1.00  0.00     0.014 A 
BRANCH   8  13
ATOM     13  O   UNL A   1      33.420  23.064  22.342  1.00  0.00    -0.439 OA
BRANCH  13  14
ATOM     14  C   UNL A   1      34.005  22.382  23.412  1.00  0.00     0.227 A 
ATOM     15  C   UNL A   1      35.733  22.090  24.883  1.00  0.00     0.254 A 
ATOM     16  N   UNL A   1      35.158  20.983  25.400  1.00  0.00    -0.216 NA
ATOM     17  N   UNL A   1      35.168  22.835  23.918  1.00  0.00    -0.175 NA
ATOM     18  C   UNL A   1      33.940  20.621  24.947  1.00  0.00     0.050 A 
ATOM     19  C   UNL A   1      33.289  19.522  25.735  1.00  0.00     0.067 C 
ATOM     20  C   UNL A   1      33.320  21.275  23.895  1.00  0.00     0.033 A 
ATOM     21  C   UNL A   1      32.004  20.834  23.335  1.00  0.00     0.052 C 
BRANCH  15  22
ATOM     22  N   UNL A   1      37.024  22.472  25.400  1.00  0.00    -0.203 N 
ATOM     23  C   UNL A   1      39.028  24.810  27.197  1.00  0.00     0.069 C 
ATOM     24  C   UNL A   1      38.466  23.654  26.455  1.00  0.00     0.060 A 
ATOM     25  C   UNL A   1      39.053  22.386  26.283  1.00  0.00     0.049 A 
ATOM     26  N   UNL A   1      37.286  23.743  25.828  1.00  0.00    -0.170 NA
ATOM     27  C   UNL A   1      38.142  21.657  25.551  1.00  0.00     0.045 A 
ATOM     28  C   UNL A   1      38.265  20.296  24.969  1.00  0.00     0.067 C 
ENDBRANCH  15  22
ENDBRANCH  13  14
ENDBRANCH   8  13
ENDBRANCH   4   7
ENDBRANCH   2   3
ENDBRANCH   1   2
BRANCH   1  29
ATOM     29  C   UNL A   1      32.292  29.903  26.995  1.00  0.00     0.023 C 
BRANCH  29  30
ATOM     30  C   UNL A   1      33.585  30.263  27.727  1.00  0.00     0.116 C 
BRANCH  30  31
ATOM     31  N   UNL A   1      34.050  31.610  27.403  1.00  0.00    -0.352 N 
ATOM     32  C   UNL A   1      35.228  32.221  27.759  1.00  0.00     0.251 C 
ATOM     33  H   UNL A   1      33.436  32.152  26.856  1.00  0.00     0.163 HD
ATOM     34  O   UNL A   1      35.341  33.447  27.685  1.00  0.00    -0.269 OA
BRANCH  32  35
ATOM     35  C   UNL A   1      36.346  31.399  28.248  1.00  0.00     0.039 A 
ATOM     36  C   UNL A   1      36.566  30.127  27.722  1.00  0.00     0.014 A 
ATOM     37  C   UNL A   1      37.215  31.935  29.200  1.00  0.00     0.014 A 
ATOM     38  C   UNL A   1      37.724  29.438  28.078  1.00  0.00     0.010 A 
ATOM     39  C   UNL A   1      38.403  31.286  29.488  1.00  0.00     0.010 A 
ATOM     40  C   UNL A   1      38.669  30.031  28.934  1.00  0.00    -0.014 A 
BRANCH  40  41
ATOM     41  C   UNL A   1      39.970  29.375  29.130  1.00  0.00     0.031 A 
ATOM     42  C   UNL A   1      40.388  29.150  30.547  1.00  0.00     0.074 A 
ATOM     43  C   UNL A   1      40.711  28.798  28.159  1.00  0.00     0.049 A 
ATOM     44  N   UNL A   1      41.385  29.681  31.178  1.00  0.00    -0.248 NA
ATOM     45  C   UNL A   1      39.558  28.265  31.379  1.00  0.00     0.031 C 
ATOM     46  C   UNL A   1      40.352  28.593  26.753  1.00  0.00     0.029 A 
ATOM     47  N   UNL A   1      41.923  28.173  28.260  1.00  0.00    -0.354 N 
ATOM     48  C   UNL A   1      41.425  29.067  32.429  1.00  0.00     0.074 A 
ATOM     49  C   UNL A   1      40.206  28.305  32.546  1.00  0.00     0.031 C 
ATOM     50  C   UNL A   1      41.202  27.703  26.195  1.00  0.00     0.029 A 
ATOM     51  C   UNL A   1      42.272  27.435  27.138  1.00  0.00     0.049 A 
ATOM     52  H   UNL A   1      42.497  28.242  29.056  1.00  0.00     0.167 HD
ATOM     53  C   UNL A   1      42.553  29.056  33.194  1.00  0.00     0.031 A 
ATOM     54  C   UNL A   1      43.373  26.670  26.966  1.00  0.00     0.031 A 
ATOM     55  C   UNL A   1      43.570  29.929  32.674  1.00  0.00     0.049 A 
ATOM     56  C   UNL A   1      44.421  27.156  27.887  1.00  0.00     0.074 A 
ATOM     57  C   UNL A   1      43.839  31.278  32.661  1.00  0.00     0.029 A 
ATOM     58  N   UNL A   1      44.398  29.339  31.755  1.00  0.00    -0.354 N 
ATOM     59  N   UNL A   1      44.960  28.338  27.793  1.00  0.00    -0.248 NA
ATOM     60  C   UNL A   1      44.737  26.419  29.104  1.00  0.00     0.031 C 
ATOM     61  C   UNL A   1      44.679  31.502  31.528  1.00  0.00     0.029 A 
ATOM     62  C   UNL A   1      44.901  30.281  30.895  1.00  0.00     0.049 A 
ATOM     63  H   UNL A   1      44.602  28.376  31.717  1.00  0.00     0.167 HD
ATOM     64  C   UNL A   1      45.327  28.652  29.084  1.00  0.00     0.074 A 
ATOM     65  C   UNL A   1      45.341  27.386  29.801  1.00  0.00     0.031 C 
ATOM     66  C   UNL A   1      45.267  29.936  29.536  1.00  0.00     0.031 A 
BRANCH  53  67
ATOM     67  C   UNL A   1      42.931  27.958  34.168  1.00  0.00    -0.014 A 
ATOM     68  C   UNL A   1      43.508  28.316  35.407  1.00  0.00     0.010 A 
ATOM     69  C   UNL A   1      43.018  26.602  33.793  1.00  0.00     0.010 A 
ATOM     70  C   UNL A   1      44.188  27.378  36.199  1.00  0.00     0.020 A 
ATOM     71  C   UNL A   1      43.661  25.651  34.595  1.00  0.00     0.020 A 
ATOM     72  C   UNL A   1      44.273  26.052  35.776  1.00  0.00     0.054 A 
BRANCH  72  73
ATOM     73  S   UNL A   1      45.258  24.877  36.740  1.00  0.00     0.124 S 
ATOM     74  O   UNL A   1      45.689  23.931  35.716  1.00  0.00    -0.237 OA
ATOM     75  O   UNL A   1      46.305  25.730  37.297  1.00  0.00    -0.237 OA
ATOM     76  O   UNL A   1      44.305  24.353  37.717  1.00  0.00    -0.744 OA
ENDBRANCH  72  73
ENDBRANCH  53  67
BRANCH  54  77
ATOM     77  C   UNL A   1      43.558  25.456  26.143  1.00  0.00    -0.014 A 
ATOM     78  C   UNL A   1      44.796  25.203  25.526  1.00  0.00     0.010 A 
ATOM     79  C   UNL A   1      42.626  24.403  26.228  1.00  0.00     0.010 A 
ATOM     80  C   UNL A   1      45.134  23.914  25.101  1.00  0.00     0.020 A 
ATOM     81  C   UNL A   1      42.955  23.113  25.796  1.00  0.00     0.020 A 
ATOM     82  C   UNL A   1      44.223  22.868  25.271  1.00  0.00     0.054 A 
BRANCH  82  83
ATOM     83  S   UNL A   1      44.771  21.168  24.943  1.00  0.00     0.124 S 
ATOM     84  O   UNL A   1      46.128  21.168  25.485  1.00  0.00    -0.237 OA
ATOM     85  O   UNL A   1      43.794  20.376  25.684  1.00  0.00    -0.237 OA
ATOM     86  O   UNL A   1      44.683  21.053  23.488  1.00  0.00    -0.744 OA
ENDBRANCH  82  83
ENDBRANCH  54  77
BRANCH  66  87
ATOM     87  C   UNL A   1      45.354  31.042  28.521  1.00  0.00    -0.014 A 
ATOM     88  C   UNL A   1      46.560  31.476  27.941  1.00  0.00     0.010 A 
ATOM     89  C   UNL A   1      44.149  31.618  28.084  1.00  0.00     0.010 A 
ATOM     90  C   UNL A   1      46.560  32.478  26.961  1.00  0.00     0.020 A 
ATOM     91  C   UNL A   1      44.140  32.604  27.096  1.00  0.00     0.020 A 
ATOM     92  C   UNL A   1      45.347  33.037  26.544  1.00  0.00     0.054 A 
BRANCH  92  93
ATOM     93  S   UNL A   1      45.349  34.299  25.241  1.00  0.00     0.124 S 
ATOM     94  O   UNL A   1      44.582  35.383  25.847  1.00  0.00    -0.237 OA
ATOM     95  O   UNL A   1      46.773  34.566  25.051  1.00  0.00    -0.237 OA
ATOM     96  O   UNL A   1      44.697  33.636  24.111  1.00  0.00    -0.744 OA
ENDBRANCH  92  93
ENDBRANCH  66  87
ENDBRANCH  40  41
ENDBRANCH  32  35
ENDBRANCH  30  31
ENDBRANCH  29  30
ENDBRANCH   1  29
TORSDOF 17
ENDMDL
MODEL 3
REMARK VINA RESULT:     -11.2      4.656     12.263
REMARK SMILES Cc1cc(C)n(-c2nc(C)c(C)c(Oc3cccc(C(=O)NCCCCNC(=O)c4ccc(-c5c6nc(c(-c7ccc(S(=O)(=O)[O-])cc7)c7ccc([nH]7)c(-c7ccc(S(=O)(=O)[O-])cc7)c7nc(c(-c8ccc(S(=O)(=O)[O-])cc8)c8ccc5[nH]8)C=C7)C=C6)cc4)c3)n2)n1
REMARK SMILES IDX 24 1 23 2 22 3 20 4 21 5 19 7 15 8 16 9 90 10 17 11 18 12
REMARK SMILES IDX 14 13 13 14 7 15 8 16 91 17 9 18 10 19 11 20 12 21 6 22 1 23
REMARK SMILES IDX 2 24 3 25 92 26 4 27 5 28 25 29 26 30 27 31 28 32 29 34
REMARK SMILES IDX 30 35 31 36 89 37 32 38 88 39 33 40 34 41 35 42 82 43 36 44
REMARK SMILES IDX 87 45 81 46 83 47 37 48 86 49 80 50 79 51 38 53 68 54 49 55
REMARK SMILES IDX 67 56 50 57 53 58 66 59 84 60 51 61 52 62 65 64 85 65 54 66
REMARK SMILES IDX 39 67 40 68 48 69 41 70 47 71 42 72 43 73 44 74 45 75 46 76
REMARK SMILES IDX 69 77 70 78 78 79 71 80 77 81 72 82 73 83 74 84 75 85 76 86
REMARK SMILES IDX 55 87 56 88 64 89 57 90 63 91 58 92 59 93 60 94 61 95 62 96
REMARK H PARENT 22 6 27 33 83 52 53 63
REMARK Flexibility Score: inf
ROOT
ATOM      1  C   UNL A   1      36.804  32.999  33.735  1.00  0.00     0.023 C 
ENDROOT
BRANCH   1   2
ATOM      2  C   UNL A   1      37.949  32.092  33.273  1.00  0.00     0.116 C 
BRANCH   2   3
ATOM      3  N   UNL A   1      38.263  31.101  34.283  1.00  0.00    -0.352 N 
ATOM      4  C   UNL A   1      38.717  31.160  35.575  1.00  0.00     0.251 C 
ATOM      5  O   UNL A   1      38.916  30.078  36.132  1.00  0.00    -0.269 OA
ATOM      6  H   UNL A   1      38.119  30.179  33.971  1.00  0.00     0.163 HD
BRANCH   4   7
ATOM      7  C   UNL A   1      38.962  32.414  36.351  1.00  0.00     0.043 A 
ATOM      8  C   UNL A   1      40.135  34.457  36.932  1.00  0.00     0.130 A 
ATOM      9  C   UNL A   1      39.170  34.775  37.884  1.00  0.00     0.047 A 
ATOM     10  C   UNL A   1      40.072  33.249  36.221  1.00  0.00     0.061 A 
ATOM     11  C   UNL A   1      38.093  33.918  38.078  1.00  0.00     0.005 A 
ATOM     12  C   UNL A   1      37.983  32.760  37.303  1.00  0.00     0.014 A 
BRANCH   8  13
ATOM     13  O   UNL A   1      41.174  35.344  36.775  1.00  0.00    -0.439 OA
BRANCH  13  14
ATOM     14  C   UNL A   1      42.176  35.009  35.861  1.00  0.00     0.227 A 
ATOM     15  C   UNL A   1      42.934  34.841  33.708  1.00  0.00     0.254 A 
ATOM     16  N   UNL A   1      44.078  34.253  34.115  1.00  0.00    -0.216 NA
ATOM     17  N   UNL A   1      41.980  35.267  34.553  1.00  0.00    -0.175 NA
ATOM     18  C   UNL A   1      44.292  34.111  35.440  1.00  0.00     0.050 A 
ATOM     19  C   UNL A   1      45.678  33.660  35.798  1.00  0.00     0.067 C 
ATOM     20  C   UNL A   1      43.330  34.439  36.381  1.00  0.00     0.033 A 
ATOM     21  C   UNL A   1      43.528  34.215  37.847  1.00  0.00     0.052 C 
BRANCH  15  22
ATOM     22  N   UNL A   1      42.738  35.004  32.288  1.00  0.00    -0.203 N 
ATOM     23  C   UNL A   1      43.750  36.502  29.216  1.00  0.00     0.069 C 
ATOM     24  C   UNL A   1      43.126  35.708  30.303  1.00  0.00     0.060 A 
ATOM     25  C   UNL A   1      42.270  34.599  30.162  1.00  0.00     0.049 A 
ATOM     26  N   UNL A   1      43.322  36.022  31.589  1.00  0.00    -0.170 NA
ATOM     27  C   UNL A   1      41.980  34.195  31.446  1.00  0.00     0.045 A 
ATOM     28  C   UNL A   1      41.036  33.152  31.923  1.00  0.00     0.067 C 
ENDBRANCH  15  22
ENDBRANCH  13  14
ENDBRANCH   8  13
ENDBRANCH   4   7
ENDBRANCH   2   3
ENDBRANCH   1   2
BRANCH   1  29
ATOM     29  C   UNL A   1      35.752  33.294  32.651  1.00  0.00     0.023 C 
BRANCH  29  30
ATOM     30  C   UNL A   1      35.063  32.056  32.077  1.00  0.00     0.116 C 
BRANCH  30  31
ATOM     31  N   UNL A   1      34.403  32.328  30.803  1.00  0.00    -0.352 N 
ATOM     32  C   UNL A   1      34.934  32.296  29.535  1.00  0.00     0.251 C 
ATOM     33  H   UNL A   1      33.449  32.567  30.860  1.00  0.00     0.163 HD
ATOM     34  O   UNL A   1      34.350  32.848  28.601  1.00  0.00    -0.269 OA
BRANCH  32  35
ATOM     35  C   UNL A   1      36.217  31.611  29.310  1.00  0.00     0.039 A 
ATOM     36  C   UNL A   1      37.414  32.322  29.370  1.00  0.00     0.014 A 
ATOM     37  C   UNL A   1      36.219  30.232  29.097  1.00  0.00     0.014 A 
ATOM     38  C   UNL A   1      38.620  31.625  29.322  1.00  0.00     0.010 A 
ATOM     39  C   UNL A   1      37.414  29.533  29.132  1.00  0.00     0.010 A 
ATOM     40  C   UNL A   1      38.625  30.220  29.241  1.00  0.00    -0.014 A 
BRANCH  40  41
ATOM     41  C   UNL A   1      39.896  29.498  29.397  1.00  0.00     0.031 A 
ATOM     42  C   UNL A   1      40.320  29.205  30.800  1.00  0.00     0.074 A 
ATOM     43  C   UNL A   1      40.599  28.923  28.397  1.00  0.00     0.049 A 
ATOM     44  N   UNL A   1      41.347  29.667  31.436  1.00  0.00    -0.248 NA
ATOM     45  C   UNL A   1      39.459  28.331  31.612  1.00  0.00     0.031 C 
ATOM     46  C   UNL A   1      40.215  28.784  26.990  1.00  0.00     0.029 A 
ATOM     47  N   UNL A   1      41.782  28.240  28.460  1.00  0.00    -0.354 N 
ATOM     48  C   UNL A   1      41.373  29.008  32.665  1.00  0.00     0.074 A 
ATOM     49  C   UNL A   1      40.121  28.299  32.770  1.00  0.00     0.031 C 
ATOM     50  C   UNL A   1      41.016  27.875  26.390  1.00  0.00     0.029 A 
ATOM     51  C   UNL A   1      42.083  27.526  27.310  1.00  0.00     0.049 A 
ATOM     52  H   UNL A   1      42.367  28.254  29.251  1.00  0.00     0.167 HD
ATOM     53  C   UNL A   1      42.508  28.918  33.414  1.00  0.00     0.031 A 
ATOM     54  C   UNL A   1      43.145  26.717  27.097  1.00  0.00     0.031 A 
ATOM     55  C   UNL A   1      43.558  29.762  32.911  1.00  0.00     0.049 A 
ATOM     56  C   UNL A   1      44.225  27.122  28.021  1.00  0.00     0.074 A 
ATOM     57  C   UNL A   1      43.889  31.096  32.942  1.00  0.00     0.029 A 
ATOM     58  N   UNL A   1      44.348  29.166  31.962  1.00  0.00    -0.354 N 
ATOM     59  N   UNL A   1      44.818  28.281  27.961  1.00  0.00    -0.248 NA
ATOM     60  C   UNL A   1      44.520  26.329  29.207  1.00  0.00     0.031 C 
ATOM     61  C   UNL A   1      44.726  31.321  31.806  1.00  0.00     0.029 A 
ATOM     62  C   UNL A   1      44.883  30.114  31.128  1.00  0.00     0.049 A 
ATOM     63  H   UNL A   1      44.506  28.197  31.888  1.00  0.00     0.167 HD
ATOM     64  C   UNL A   1      45.213  28.531  29.257  1.00  0.00     0.074 A 
ATOM     65  C   UNL A   1      45.176  27.242  29.929  1.00  0.00     0.031 C 
ATOM     66  C   UNL A   1      45.218  29.801  29.754  1.00  0.00     0.031 A 
BRANCH  53  67
ATOM     67  C   UNL A   1      42.845  27.771  34.344  1.00  0.00    -0.014 A 
ATOM     68  C   UNL A   1      43.244  28.062  35.668  1.00  0.00     0.010 A 
ATOM     69  C   UNL A   1      43.073  26.457  33.885  1.00  0.00     0.010 A 
ATOM     70  C   UNL A   1      43.891  27.107  36.467  1.00  0.00     0.020 A 
ATOM     71  C   UNL A   1      43.682  25.486  34.689  1.00  0.00     0.020 A 
ATOM     72  C   UNL A   1      44.120  25.828  35.963  1.00  0.00     0.054 A 
BRANCH  72  73
ATOM     73  S   UNL A   1      45.065  24.641  36.953  1.00  0.00     0.124 S 
ATOM     74  O   UNL A   1      44.747  23.377  36.297  1.00  0.00    -0.237 OA
ATOM     75  O   UNL A   1      46.436  25.117  36.783  1.00  0.00    -0.237 OA
ATOM     76  O   UNL A   1      44.517  24.806  38.298  1.00  0.00    -0.744 OA
ENDBRANCH  72  73
ENDBRANCH  53  67
BRANCH  54  77
ATOM     77  C   UNL A   1      43.264  25.526  26.230  1.00  0.00    -0.014 A 
ATOM     78  C   UNL A   1      44.407  25.345  25.432  1.00  0.00     0.010 A 
ATOM     79  C   UNL A   1      42.407  24.426  26.429  1.00  0.00     0.010 A 
ATOM     80  C   UNL A   1      44.741  24.080  24.934  1.00  0.00     0.020 A 
ATOM     81  C   UNL A   1      42.730  23.160  25.926  1.00  0.00     0.020 A 
ATOM     82  C   UNL A   1      43.916  22.987  25.215  1.00  0.00     0.054 A 
BRANCH  82  83
ATOM     83  S   UNL A   1      44.491  21.322  24.774  1.00  0.00     0.124 S 
ATOM     84  O   UNL A   1      44.528  21.381  23.315  1.00  0.00    -0.237 OA
ATOM     85  O   UNL A   1      45.790  21.254  25.438  1.00  0.00    -0.237 OA
ATOM     86  O   UNL A   1      43.465  20.445  25.334  1.00  0.00    -0.744 OA
ENDBRANCH  82  83
ENDBRANCH  54  77
BRANCH  66  87
ATOM     87  C   UNL A   1      45.345  30.936  28.777  1.00  0.00    -0.014 A 
ATOM     88  C   UNL A   1      46.572  31.380  28.250  1.00  0.00     0.010 A 
ATOM     89  C   UNL A   1      44.159  31.533  28.318  1.00  0.00     0.010 A 
ATOM     90  C   UNL A   1      46.610  32.411  27.301  1.00  0.00     0.020 A 
ATOM     91  C   UNL A   1      44.188  32.549  27.361  1.00  0.00     0.020 A 
ATOM     92  C   UNL A   1      45.415  32.990  26.863  1.00  0.00     0.054 A 
BRANCH  92  93
ATOM     93  S   UNL A   1      45.467  34.292  25.599  1.00  0.00     0.124 S 
ATOM     94  O   UNL A   1      44.727  33.690  24.493  1.00  0.00    -0.237 OA
ATOM     95  O   UNL A   1      44.806  35.413  26.262  1.00  0.00    -0.237 OA
ATOM     96  O   UNL A   1      46.896  34.484  25.355  1.00  0.00    -0.744 OA
ENDBRANCH  92  93
ENDBRANCH  66  87
ENDBRANCH  40  41
ENDBRANCH  32  35
ENDBRANCH  30  31
ENDBRANCH  29  30
ENDBRANCH   1  29
TORSDOF 17
ENDMDL
