MODEL 1
REMARK VINA RESULT:     -11.8      0.000      0.000
REMARK SMILES C=CCN1C(=O)/C(=C/c2ccc(-c3ccc(Cl)c(C(=O)NCCCCNC(=O)c4ccc(-c5c6nc(c(-c7ccc(S(=O)(=O)[O-])cc7)c7ccc([nH]7)c(-c7ccc(S(=O)(=O)[O-])cc7)c7nc(c(-c8ccc(S(=O)(=O)[O-])cc8)c8ccc5[nH]8)C=C7)C=C6)cc4)c3)o2)C(=O)NC1=S
REMARK SMILES IDX 23 1 22 2 21 3 19 4 20 5 18 7 13 8 14 9 89 10 15 11 16 12
REMARK SMILES IDX 17 13 12 14 9 15 10 16 90 17 11 18 8 19 4 20 5 21 94 22 6 23
REMARK SMILES IDX 7 24 93 25 95 26 91 27 92 29 3 30 2 31 1 32 24 33 25 34
REMARK SMILES IDX 26 35 27 36 28 38 29 39 30 40 88 41 31 42 87 43 32 44 33 45
REMARK SMILES IDX 34 46 81 47 35 48 86 49 80 50 82 51 36 52 85 53 79 54 78 55
REMARK SMILES IDX 37 57 67 58 48 59 66 60 49 61 52 62 65 63 83 64 50 65 51 66
REMARK SMILES IDX 64 68 84 69 53 70 38 71 39 72 47 73 40 74 46 75 41 76 42 77
REMARK SMILES IDX 43 78 44 79 45 80 68 81 69 82 77 83 70 84 76 85 71 86 72 87
REMARK SMILES IDX 73 88 74 89 75 90 54 91 55 92 63 93 56 94 62 95 57 96 58 97
REMARK SMILES IDX 59 98 60 99 61 100
REMARK H PARENT 21 6 93 28 26 37 82 56 52 67
REMARK Flexibility Score: inf
ROOT
ATOM      1  C   UNL A   1      37.817  22.963  25.477  1.00  0.00     0.023 C 
ENDROOT
BRANCH   1   2
ATOM      2  C   UNL A   1      36.969  21.698  25.530  1.00  0.00     0.116 C 
BRANCH   2   3
ATOM      3  N   UNL A   1      35.942  21.676  26.556  1.00  0.00    -0.352 N 
ATOM      4  C   UNL A   1      34.567  21.691  26.446  1.00  0.00     0.252 C 
ATOM      5  O   UNL A   1      33.897  21.611  27.475  1.00  0.00    -0.269 OA
ATOM      6  H   UNL A   1      36.282  21.644  27.480  1.00  0.00     0.163 HD
BRANCH   4   7
ATOM      7  C   UNL A   1      33.857  21.894  25.151  1.00  0.00     0.059 A 
ATOM      8  C   UNL A   1      33.199  23.499  23.423  1.00  0.00     0.018 A 
ATOM      9  C   UNL A   1      32.647  22.449  22.681  1.00  0.00     0.013 A 
ATOM     10  C   UNL A   1      33.876  23.205  24.615  1.00  0.00     0.027 A 
ATOM     11  C   UNL A   1      32.572  21.173  23.225  1.00  0.00     0.022 A 
ATOM     12  C   UNL A   1      33.079  20.926  24.503  1.00  0.00     0.053 A 
ATOM     13  Cl  UNL A   1      32.481  19.495  25.267  1.00  0.00    -0.083 Cl
BRANCH   8  14
ATOM     14  C   UNL A   1      32.832  24.854  23.040  1.00  0.00     0.134 A 
ATOM     15  C   UNL A   1      31.452  26.551  22.679  1.00  0.00     0.128 A 
ATOM     16  C   UNL A   1      32.736  26.977  22.369  1.00  0.00     0.051 A 
ATOM     17  O   UNL A   1      31.530  25.236  23.104  1.00  0.00    -0.457 OA
ATOM     18  C   UNL A   1      33.609  25.898  22.588  1.00  0.00     0.051 A 
BRANCH  15  19
ATOM     19  C   UNL A   1      30.239  27.279  22.663  1.00  0.00     0.066 C 
ATOM     20  N   UNL A   1      28.690  30.425  23.216  1.00  0.00    -0.281 N 
ATOM     21  C   UNL A   1      28.692  29.033  23.104  1.00  0.00     0.266 C 
ATOM     22  C   UNL A   1      29.680  31.105  23.935  1.00  0.00     0.183 C 
ATOM     23  O   UNL A   1      27.735  28.336  22.774  1.00  0.00    -0.268 OA
ATOM     24  C   UNL A   1      29.980  28.369  23.409  1.00  0.00     0.109 C 
ATOM     25  N   UNL A   1      30.657  30.344  24.522  1.00  0.00    -0.298 N 
ATOM     26  S   UNL A   1      29.818  32.762  24.176  1.00  0.00    -0.040 S 
ATOM     27  C   UNL A   1      30.887  29.006  24.372  1.00  0.00     0.263 C 
ATOM     28  H   UNL A   1      31.269  30.820  25.129  1.00  0.00     0.172 HD
ATOM     29  O   UNL A   1      31.767  28.439  25.005  1.00  0.00    -0.269 OA
BRANCH  20  30
ATOM     30  C   UNL A   1      27.710  31.207  22.426  1.00  0.00     0.155 C 
BRANCH  30  31
ATOM     31  C   UNL A   1      28.168  31.749  21.107  1.00  0.00    -0.013 C 
ATOM     32  C   UNL A   1      27.650  32.817  20.484  1.00  0.00     0.006 C 
ENDBRANCH  30  31
ENDBRANCH  20  30
ENDBRANCH  15  19
ENDBRANCH   8  14
ENDBRANCH   4   7
ENDBRANCH   2   3
ENDBRANCH   1   2
BRANCH   1  33
ATOM     33  C   UNL A   1      38.770  23.201  26.648  1.00  0.00     0.023 C 
BRANCH  33  34
ATOM     34  C   UNL A   1      39.095  24.651  27.002  1.00  0.00     0.116 C 
BRANCH  34  35
ATOM     35  N   UNL A   1      40.105  25.265  26.151  1.00  0.00    -0.352 N 
ATOM     36  C   UNL A   1      40.809  26.438  26.305  1.00  0.00     0.251 C 
ATOM     37  H   UNL A   1      40.318  24.759  25.334  1.00  0.00     0.163 HD
ATOM     38  O   UNL A   1      41.586  26.797  25.425  1.00  0.00    -0.269 OA
BRANCH  36  39
ATOM     39  C   UNL A   1      40.599  27.295  27.495  1.00  0.00     0.039 A 
ATOM     40  C   UNL A   1      39.985  26.741  28.622  1.00  0.00     0.014 A 
ATOM     41  C   UNL A   1      41.015  28.628  27.517  1.00  0.00     0.014 A 
ATOM     42  C   UNL A   1      39.886  27.486  29.800  1.00  0.00     0.010 A 
ATOM     43  C   UNL A   1      40.989  29.342  28.714  1.00  0.00     0.010 A 
ATOM     44  C   UNL A   1      40.438  28.775  29.874  1.00  0.00    -0.014 A 
BRANCH  44  45
ATOM     45  C   UNL A   1      40.478  29.532  31.154  1.00  0.00     0.031 A 
ATOM     46  C   UNL A   1      41.562  29.267  32.163  1.00  0.00     0.074 A 
ATOM     47  C   UNL A   1      39.491  30.405  31.444  1.00  0.00     0.049 A 
ATOM     48  N   UNL A   1      41.708  29.760  33.366  1.00  0.00    -0.248 NA
ATOM     49  C   UNL A   1      42.605  28.301  31.779  1.00  0.00     0.031 C 
ATOM     50  C   UNL A   1      38.357  30.728  30.574  1.00  0.00     0.029 A 
ATOM     51  N   UNL A   1      39.279  31.179  32.559  1.00  0.00    -0.354 N 
ATOM     52  C   UNL A   1      42.843  29.153  33.890  1.00  0.00     0.074 A 
ATOM     53  C   UNL A   1      43.321  28.220  32.892  1.00  0.00     0.031 C 
ATOM     54  C   UNL A   1      37.587  31.650  31.174  1.00  0.00     0.029 A 
ATOM     55  C   UNL A   1      38.146  31.956  32.487  1.00  0.00     0.049 A 
ATOM     56  H   UNL A   1      39.882  31.179  33.337  1.00  0.00     0.167 HD
ATOM     57  C   UNL A   1      43.448  29.364  35.084  1.00  0.00     0.031 A 
ATOM     58  C   UNL A   1      37.609  32.813  33.377  1.00  0.00     0.031 A 
ATOM     59  C   UNL A   1      42.984  30.302  36.073  1.00  0.00     0.049 A 
ATOM     60  C   UNL A   1      38.297  33.029  34.698  1.00  0.00     0.074 A 
ATOM     61  C   UNL A   1      43.554  30.617  37.294  1.00  0.00     0.029 A 
ATOM     62  N   UNL A   1      41.843  31.079  35.951  1.00  0.00    -0.354 N 
ATOM     63  N   UNL A   1      39.396  32.477  35.154  1.00  0.00    -0.248 NA
ATOM     64  C   UNL A   1      37.676  33.991  35.620  1.00  0.00     0.031 C 
ATOM     65  C   UNL A   1      42.738  31.561  37.928  1.00  0.00     0.029 A 
ATOM     66  C   UNL A   1      41.685  31.866  37.079  1.00  0.00     0.049 A 
ATOM     67  H   UNL A   1      41.235  31.073  35.177  1.00  0.00     0.167 HD
ATOM     68  C   UNL A   1      39.613  33.046  36.404  1.00  0.00     0.074 A 
ATOM     69  C   UNL A   1      38.538  33.992  36.627  1.00  0.00     0.031 C 
ATOM     70  C   UNL A   1      40.614  32.807  37.286  1.00  0.00     0.031 A 
BRANCH  57  71
ATOM     71  C   UNL A   1      44.686  28.561  35.383  1.00  0.00    -0.014 A 
ATOM     72  C   UNL A   1      44.591  27.265  35.924  1.00  0.00     0.010 A 
ATOM     73  C   UNL A   1      45.956  29.092  35.097  1.00  0.00     0.010 A 
ATOM     74  C   UNL A   1      45.745  26.535  36.217  1.00  0.00     0.020 A 
ATOM     75  C   UNL A   1      47.113  28.353  35.364  1.00  0.00     0.020 A 
ATOM     76  C   UNL A   1      47.000  27.086  35.941  1.00  0.00     0.054 A 
BRANCH  76  77
ATOM     77  S   UNL A   1      48.482  26.112  36.321  1.00  0.00     0.124 S 
ATOM     78  O   UNL A   1      48.383  25.024  35.351  1.00  0.00    -0.237 OA
ATOM     79  O   UNL A   1      49.563  27.067  36.085  1.00  0.00    -0.237 OA
ATOM     80  O   UNL A   1      48.292  25.723  37.716  1.00  0.00    -0.744 OA
ENDBRANCH  76  77
ENDBRANCH  57  71
BRANCH  58  81
ATOM     81  C   UNL A   1      36.362  33.553  33.045  1.00  0.00    -0.014 A 
ATOM     82  C   UNL A   1      35.107  32.939  33.215  1.00  0.00     0.010 A 
ATOM     83  C   UNL A   1      36.417  34.872  32.559  1.00  0.00     0.010 A 
ATOM     84  C   UNL A   1      33.934  33.622  32.886  1.00  0.00     0.020 A 
ATOM     85  C   UNL A   1      35.243  35.567  32.252  1.00  0.00     0.020 A 
ATOM     86  C   UNL A   1      34.009  34.932  32.404  1.00  0.00     0.054 A 
BRANCH  86  87
ATOM     87  S   UNL A   1      32.471  35.817  32.025  1.00  0.00     0.124 S 
ATOM     88  O   UNL A   1      32.674  37.087  32.715  1.00  0.00    -0.237 OA
ATOM     89  O   UNL A   1      32.492  35.879  30.566  1.00  0.00    -0.237 OA
ATOM     90  O   UNL A   1      31.435  34.954  32.589  1.00  0.00    -0.744 OA
ENDBRANCH  86  87
ENDBRANCH  58  81
BRANCH  70  91
ATOM     91  C   UNL A   1      40.618  33.608  38.560  1.00  0.00    -0.014 A 
ATOM     92  C   UNL A   1      41.352  34.803  38.667  1.00  0.00     0.010 A 
ATOM     93  C   UNL A   1      39.833  33.184  39.648  1.00  0.00     0.010 A 
ATOM     94  C   UNL A   1      41.323  35.543  39.851  1.00  0.00     0.020 A 
ATOM     95  C   UNL A   1      39.783  33.934  40.824  1.00  0.00     0.020 A 
ATOM     96  C   UNL A   1      40.539  35.104  40.923  1.00  0.00     0.054 A 
BRANCH  96  97
ATOM     97  S   UNL A   1      40.480  36.106  42.434  1.00  0.00     0.124 S 
ATOM     98  O   UNL A   1      41.093  37.356  41.994  1.00  0.00    -0.237 OA
ATOM     99  O   UNL A   1      39.048  36.175  42.720  1.00  0.00    -0.237 OA
ATOM    100  O   UNL A   1      41.264  35.331  43.393  1.00  0.00    -0.744 OA
ENDBRANCH  96  97
ENDBRANCH  70  91
ENDBRANCH  44  45
ENDBRANCH  36  39
ENDBRANCH  34  35
ENDBRANCH  33  34
ENDBRANCH   1  33
TORSDOF 18
ENDMDL
MODEL 2
REMARK VINA RESULT:     -11.8      5.920     10.229
REMARK SMILES C=CCN1C(=O)/C(=C/c2ccc(-c3ccc(Cl)c(C(=O)NCCCCNC(=O)c4ccc(-c5c6nc(c(-c7ccc(S(=O)(=O)[O-])cc7)c7ccc([nH]7)c(-c7ccc(S(=O)(=O)[O-])cc7)c7nc(c(-c8ccc(S(=O)(=O)[O-])cc8)c8ccc5[nH]8)C=C7)C=C6)cc4)c3)o2)C(=O)NC1=S
REMARK SMILES IDX 23 1 22 2 21 3 19 4 20 5 18 7 13 8 14 9 89 10 15 11 16 12
REMARK SMILES IDX 17 13 12 14 9 15 10 16 90 17 11 18 8 19 4 20 5 21 94 22 6 23
REMARK SMILES IDX 7 24 93 25 95 26 91 27 92 29 3 30 2 31 1 32 24 33 25 34
REMARK SMILES IDX 26 35 27 36 28 38 29 39 30 40 88 41 31 42 87 43 32 44 33 45
REMARK SMILES IDX 34 46 81 47 35 48 86 49 80 50 82 51 36 52 85 53 79 54 78 55
REMARK SMILES IDX 37 57 67 58 48 59 66 60 49 61 52 62 65 63 83 64 50 65 51 66
REMARK SMILES IDX 64 68 84 69 53 70 38 71 39 72 47 73 40 74 46 75 41 76 42 77
REMARK SMILES IDX 43 78 44 79 45 80 68 81 69 82 77 83 70 84 76 85 71 86 72 87
REMARK SMILES IDX 73 88 74 89 75 90 54 91 55 92 63 93 56 94 62 95 57 96 58 97
REMARK SMILES IDX 59 98 60 99 61 100
REMARK H PARENT 21 6 93 28 26 37 82 56 52 67
REMARK Flexibility Score: inf
ROOT
ATOM      1  C   UNL A   1      43.428  23.814  26.976  1.00  0.00     0.023 C 
ENDROOT
BRANCH   1   2
ATOM      2  C   UNL A   1      44.209  24.797  26.113  1.00  0.00     0.116 C 
BRANCH   2   3
ATOM      3  N   UNL A   1      43.407  25.772  25.394  1.00  0.00    -0.352 N 
ATOM      4  C   UNL A   1      43.616  27.119  25.182  1.00  0.00     0.252 C 
ATOM      5  O   UNL A   1      42.809  27.733  24.484  1.00  0.00    -0.269 OA
ATOM      6  H   UNL A   1      42.583  25.414  24.993  1.00  0.00     0.163 HD
BRANCH   4   7
ATOM      7  C   UNL A   1      44.717  27.885  25.832  1.00  0.00     0.059 A 
ATOM      8  C   UNL A   1      45.309  29.813  27.220  1.00  0.00     0.018 A 
ATOM      9  C   UNL A   1      46.644  29.397  27.200  1.00  0.00     0.013 A 
ATOM     10  C   UNL A   1      44.338  29.008  26.606  1.00  0.00     0.027 A 
ATOM     11  C   UNL A   1      47.032  28.332  26.397  1.00  0.00     0.022 A 
ATOM     12  C   UNL A   1      46.083  27.650  25.632  1.00  0.00     0.053 A 
ATOM     13  Cl  UNL A   1      46.725  26.729  24.318  1.00  0.00    -0.083 Cl
BRANCH   8  14
ATOM     14  C   UNL A   1      45.037  31.172  27.666  1.00  0.00     0.134 A 
ATOM     15  C   UNL A   1      45.549  33.217  28.348  1.00  0.00     0.128 A 
ATOM     16  C   UNL A   1      44.165  33.119  28.310  1.00  0.00     0.051 A 
ATOM     17  O   UNL A   1      46.075  32.005  27.935  1.00  0.00    -0.457 OA
ATOM     18  C   UNL A   1      43.841  31.819  27.887  1.00  0.00     0.051 A 
BRANCH  15  19
ATOM     19  C   UNL A   1      46.359  34.334  28.666  1.00  0.00     0.066 C 
ATOM     20  N   UNL A   1      47.394  37.588  27.697  1.00  0.00    -0.281 N 
ATOM     21  C   UNL A   1      47.544  36.377  28.375  1.00  0.00     0.266 C 
ATOM     22  C   UNL A   1      46.966  37.636  26.365  1.00  0.00     0.183 C 
ATOM     23  O   UNL A   1      48.189  36.204  29.408  1.00  0.00    -0.268 OA
ATOM     24  C   UNL A   1      46.845  35.217  27.774  1.00  0.00     0.109 C 
ATOM     25  N   UNL A   1      46.697  36.439  25.754  1.00  0.00    -0.298 N 
ATOM     26  S   UNL A   1      46.745  38.998  25.405  1.00  0.00    -0.040 S 
ATOM     27  C   UNL A   1      46.640  35.198  26.321  1.00  0.00     0.263 C 
ATOM     28  H   UNL A   1      46.524  36.477  24.786  1.00  0.00     0.172 HD
ATOM     29  O   UNL A   1      46.443  34.199  25.643  1.00  0.00    -0.269 OA
BRANCH  20  30
ATOM     30  C   UNL A   1      47.538  38.856  28.451  1.00  0.00     0.155 C 
BRANCH  30  31
ATOM     31  C   UNL A   1      48.863  39.550  28.381  1.00  0.00    -0.013 C 
ATOM     32  C   UNL A   1      49.064  40.796  27.930  1.00  0.00     0.006 C 
ENDBRANCH  30  31
ENDBRANCH  20  30
ENDBRANCH  15  19
ENDBRANCH   8  14
ENDBRANCH   4   7
ENDBRANCH   2   3
ENDBRANCH   1   2
BRANCH   1  33
ATOM     33  C   UNL A   1      42.611  22.752  26.239  1.00  0.00     0.023 C 
BRANCH  33  34
ATOM     34  C   UNL A   1      41.609  21.944  27.062  1.00  0.00     0.116 C 
BRANCH  34  35
ATOM     35  N   UNL A   1      40.273  21.880  26.487  1.00  0.00    -0.352 N 
ATOM     36  C   UNL A   1      39.284  22.835  26.418  1.00  0.00     0.251 C 
ATOM     37  H   UNL A   1      40.040  21.013  26.083  1.00  0.00     0.163 HD
ATOM     38  O   UNL A   1      38.196  22.545  25.928  1.00  0.00    -0.269 OA
BRANCH  36  39
ATOM     39  C   UNL A   1      39.501  24.191  26.975  1.00  0.00     0.039 A 
ATOM     40  C   UNL A   1      39.185  24.424  28.317  1.00  0.00     0.014 A 
ATOM     41  C   UNL A   1      40.027  25.224  26.197  1.00  0.00     0.014 A 
ATOM     42  C   UNL A   1      39.495  25.655  28.903  1.00  0.00     0.010 A 
ATOM     43  C   UNL A   1      40.408  26.422  26.800  1.00  0.00     0.010 A 
ATOM     44  C   UNL A   1      40.161  26.646  28.164  1.00  0.00    -0.014 A 
BRANCH  44  45
ATOM     45  C   UNL A   1      40.632  27.905  28.800  1.00  0.00     0.031 A 
ATOM     46  C   UNL A   1      42.029  28.003  29.353  1.00  0.00     0.074 A 
ATOM     47  C   UNL A   1      39.777  28.938  28.951  1.00  0.00     0.049 A 
ATOM     48  N   UNL A   1      42.585  28.982  30.020  1.00  0.00    -0.248 NA
ATOM     49  C   UNL A   1      42.906  26.838  29.153  1.00  0.00     0.031 C 
ATOM     50  C   UNL A   1      38.383  28.962  28.498  1.00  0.00     0.029 A 
ATOM     51  N   UNL A   1      39.954  30.168  29.536  1.00  0.00    -0.354 N 
ATOM     52  C   UNL A   1      43.866  28.546  30.336  1.00  0.00     0.074 A 
ATOM     53  C   UNL A   1      43.989  27.196  29.828  1.00  0.00     0.031 C 
ATOM     54  C   UNL A   1      37.843  30.155  28.797  1.00  0.00     0.029 A 
ATOM     55  C   UNL A   1      38.833  30.966  29.497  1.00  0.00     0.049 A 
ATOM     56  H   UNL A   1      40.802  30.454  29.944  1.00  0.00     0.167 HD
ATOM     57  C   UNL A   1      44.860  29.212  30.971  1.00  0.00     0.031 A 
ATOM     58  C   UNL A   1      38.620  32.207  29.976  1.00  0.00     0.031 A 
ATOM     59  C   UNL A   1      44.746  30.559  31.464  1.00  0.00     0.049 A 
ATOM     60  C   UNL A   1      39.738  32.926  30.682  1.00  0.00     0.074 A 
ATOM     61  C   UNL A   1      45.712  31.333  32.083  1.00  0.00     0.029 A 
ATOM     62  N   UNL A   1      43.600  31.335  31.388  1.00  0.00    -0.354 N 
ATOM     63  N   UNL A   1      40.957  32.510  30.929  1.00  0.00    -0.248 NA
ATOM     64  C   UNL A   1      39.453  34.284  31.165  1.00  0.00     0.031 C 
ATOM     65  C   UNL A   1      45.140  32.567  32.413  1.00  0.00     0.029 A 
ATOM     66  C   UNL A   1      43.831  32.576  31.958  1.00  0.00     0.049 A 
ATOM     67  H   UNL A   1      42.749  31.047  30.987  1.00  0.00     0.167 HD
ATOM     68  C   UNL A   1      41.593  33.567  31.571  1.00  0.00     0.074 A 
ATOM     69  C   UNL A   1      40.627  34.643  31.664  1.00  0.00     0.031 C 
ATOM     70  C   UNL A   1      42.863  33.639  32.039  1.00  0.00     0.031 A 
BRANCH  57  71
ATOM     71  C   UNL A   1      46.164  28.485  31.167  1.00  0.00    -0.014 A 
ATOM     72  C   UNL A   1      47.235  28.672  30.274  1.00  0.00     0.010 A 
ATOM     73  C   UNL A   1      46.333  27.627  32.269  1.00  0.00     0.010 A 
ATOM     74  C   UNL A   1      48.435  27.979  30.452  1.00  0.00     0.020 A 
ATOM     75  C   UNL A   1      47.541  26.951  32.465  1.00  0.00     0.020 A 
ATOM     76  C   UNL A   1      48.578  27.118  31.544  1.00  0.00     0.054 A 
BRANCH  76  77
ATOM     77  S   UNL A   1      50.150  26.238  31.758  1.00  0.00     0.124 S 
ATOM     78  O   UNL A   1      50.782  26.431  30.455  1.00  0.00    -0.237 OA
ATOM     79  O   UNL A   1      50.771  26.956  32.869  1.00  0.00    -0.237 OA
ATOM     80  O   UNL A   1      49.742  24.867  32.057  1.00  0.00    -0.744 OA
ENDBRANCH  76  77
ENDBRANCH  57  71
BRANCH  58  81
ATOM     81  C   UNL A   1      37.299  32.865  29.788  1.00  0.00    -0.014 A 
ATOM     82  C   UNL A   1      37.092  33.746  28.711  1.00  0.00     0.010 A 
ATOM     83  C   UNL A   1      36.239  32.614  30.678  1.00  0.00     0.010 A 
ATOM     84  C   UNL A   1      35.860  34.381  28.541  1.00  0.00     0.020 A 
ATOM     85  C   UNL A   1      34.997  33.229  30.497  1.00  0.00     0.020 A 
ATOM     86  C   UNL A   1      34.819  34.119  29.437  1.00  0.00     0.054 A 
BRANCH  86  87
ATOM     87  S   UNL A   1      33.212  34.920  29.173  1.00  0.00     0.124 S 
ATOM     88  O   UNL A   1      33.605  36.206  28.605  1.00  0.00    -0.237 OA
ATOM     89  O   UNL A   1      32.546  34.000  28.255  1.00  0.00    -0.237 OA
ATOM     90  O   UNL A   1      32.636  34.976  30.514  1.00  0.00    -0.744 OA
ENDBRANCH  86  87
ENDBRANCH  58  81
BRANCH  70  91
ATOM     91  C   UNL A   1      43.297  34.939  32.661  1.00  0.00    -0.014 A 
ATOM     92  C   UNL A   1      43.127  35.182  34.035  1.00  0.00     0.010 A 
ATOM     93  C   UNL A   1      43.934  35.909  31.865  1.00  0.00     0.010 A 
ATOM     94  C   UNL A   1      43.559  36.386  34.597  1.00  0.00     0.020 A 
ATOM     95  C   UNL A   1      44.388  37.103  32.428  1.00  0.00     0.020 A 
ATOM     96  C   UNL A   1      44.186  37.340  33.789  1.00  0.00     0.054 A 
BRANCH  96  97
ATOM     97  S   UNL A   1      44.781  38.877  34.549  1.00  0.00     0.124 S 
ATOM     98  O   UNL A   1      46.093  39.033  33.930  1.00  0.00    -0.237 OA
ATOM     99  O   UNL A   1      43.771  39.850  34.137  1.00  0.00    -0.237 OA
ATOM    100  O   UNL A   1      44.797  38.572  35.977  1.00  0.00    -0.744 OA
ENDBRANCH  96  97
ENDBRANCH  70  91
ENDBRANCH  44  45
ENDBRANCH  36  39
ENDBRANCH  34  35
ENDBRANCH  33  34
ENDBRANCH   1  33
TORSDOF 18
ENDMDL
MODEL 3
REMARK VINA RESULT:     -11.6      6.289      8.598
REMARK SMILES C=CCN1C(=O)/C(=C/c2ccc(-c3ccc(Cl)c(C(=O)NCCCCNC(=O)c4ccc(-c5c6nc(c(-c7ccc(S(=O)(=O)[O-])cc7)c7ccc([nH]7)c(-c7ccc(S(=O)(=O)[O-])cc7)c7nc(c(-c8ccc(S(=O)(=O)[O-])cc8)c8ccc5[nH]8)C=C7)C=C6)cc4)c3)o2)C(=O)NC1=S
REMARK SMILES IDX 23 1 22 2 21 3 19 4 20 5 18 7 13 8 14 9 89 10 15 11 16 12
REMARK SMILES IDX 17 13 12 14 9 15 10 16 90 17 11 18 8 19 4 20 5 21 94 22 6 23
REMARK SMILES IDX 7 24 93 25 95 26 91 27 92 29 3 30 2 31 1 32 24 33 25 34
REMARK SMILES IDX 26 35 27 36 28 38 29 39 30 40 88 41 31 42 87 43 32 44 33 45
REMARK SMILES IDX 34 46 81 47 35 48 86 49 80 50 82 51 36 52 85 53 79 54 78 55
REMARK SMILES IDX 37 57 67 58 48 59 66 60 49 61 52 62 65 63 83 64 50 65 51 66
REMARK SMILES IDX 64 68 84 69 53 70 38 71 39 72 47 73 40 74 46 75 41 76 42 77
REMARK SMILES IDX 43 78 44 79 45 80 68 81 69 82 77 83 70 84 76 85 71 86 72 87
REMARK SMILES IDX 73 88 74 89 75 90 54 91 55 92 63 93 56 94 62 95 57 96 58 97
REMARK SMILES IDX 59 98 60 99 61 100
REMARK H PARENT 21 6 93 28 26 37 82 56 52 67
REMARK Flexibility Score: inf
ROOT
ATOM      1  C   UNL A   1      38.328  22.566  26.128  1.00  0.00     0.023 C 
ENDROOT
BRANCH   1   2
ATOM      2  C   UNL A   1      36.870  22.673  25.698  1.00  0.00     0.116 C 
BRANCH   2   3
ATOM      3  N   UNL A   1      35.897  22.644  26.776  1.00  0.00    -0.352 N 
ATOM      4  C   UNL A   1      34.547  22.929  26.769  1.00  0.00     0.252 C 
ATOM      5  O   UNL A   1      33.913  22.779  27.814  1.00  0.00    -0.269 OA
ATOM      6  H   UNL A   1      36.259  22.378  27.652  1.00  0.00     0.163 HD
BRANCH   4   7
ATOM      7  C   UNL A   1      33.841  23.497  25.587  1.00  0.00     0.059 A 
ATOM      8  C   UNL A   1      33.504  25.467  24.172  1.00  0.00     0.018 A 
ATOM      9  C   UNL A   1      32.674  24.708  23.340  1.00  0.00     0.013 A 
ATOM     10  C   UNL A   1      34.151  24.835  25.244  1.00  0.00     0.027 A 
ATOM     11  C   UNL A   1      32.319  23.414  23.700  1.00  0.00     0.022 A 
ATOM     12  C   UNL A   1      32.817  22.853  24.879  1.00  0.00     0.053 A 
ATOM     13  Cl  UNL A   1      31.929  21.498  25.480  1.00  0.00    -0.083 Cl
BRANCH   8  14
ATOM     14  C   UNL A   1      33.459  26.914  24.022  1.00  0.00     0.134 A 
ATOM     15  C   UNL A   1      33.079  29.003  24.659  1.00  0.00     0.128 A 
ATOM     16  C   UNL A   1      33.549  29.038  23.353  1.00  0.00     0.051 A 
ATOM     17  O   UNL A   1      33.040  27.679  25.063  1.00  0.00    -0.457 OA
ATOM     18  C   UNL A   1      33.780  27.713  22.946  1.00  0.00     0.051 A 
BRANCH  15  19
ATOM     19  C   UNL A   1      32.747  30.075  25.520  1.00  0.00     0.066 C 
ATOM     20  N   UNL A   1      33.978  32.524  27.777  1.00  0.00    -0.281 N 
ATOM     21  C   UNL A   1      32.986  31.699  27.244  1.00  0.00     0.266 C 
ATOM     22  C   UNL A   1      35.268  32.046  28.037  1.00  0.00     0.183 C 
ATOM     23  O   UNL A   1      31.776  31.920  27.267  1.00  0.00    -0.268 OA
ATOM     24  C   UNL A   1      33.466  30.459  26.591  1.00  0.00     0.109 C 
ATOM     25  N   UNL A   1      35.517  30.731  27.740  1.00  0.00    -0.298 N 
ATOM     26  S   UNL A   1      36.567  32.895  28.682  1.00  0.00    -0.040 S 
ATOM     27  C   UNL A   1      34.712  29.852  27.073  1.00  0.00     0.263 C 
ATOM     28  H   UNL A   1      36.382  30.376  28.045  1.00  0.00     0.172 HD
ATOM     29  O   UNL A   1      35.038  28.681  26.925  1.00  0.00    -0.269 OA
BRANCH  20  30
ATOM     30  C   UNL A   1      33.705  33.973  27.923  1.00  0.00     0.155 C 
BRANCH  30  31
ATOM     31  C   UNL A   1      33.163  34.440  29.240  1.00  0.00    -0.013 C 
ATOM     32  C   UNL A   1      32.962  35.719  29.587  1.00  0.00     0.006 C 
ENDBRANCH  30  31
ENDBRANCH  20  30
ENDBRANCH  15  19
ENDBRANCH   8  14
ENDBRANCH   4   7
ENDBRANCH   2   3
ENDBRANCH   1   2
BRANCH   1  33
ATOM     33  C   UNL A   1      39.108  21.355  25.616  1.00  0.00     0.023 C 
BRANCH  33  34
ATOM     34  C   UNL A   1      40.086  20.692  26.583  1.00  0.00     0.116 C 
BRANCH  34  35
ATOM     35  N   UNL A   1      41.052  19.806  25.949  1.00  0.00    -0.352 N 
ATOM     36  C   UNL A   1      42.367  20.021  25.601  1.00  0.00     0.251 C 
ATOM     37  H   UNL A   1      40.709  18.908  25.735  1.00  0.00     0.163 HD
ATOM     38  O   UNL A   1      42.990  19.138  25.018  1.00  0.00    -0.269 OA
BRANCH  36  39
ATOM     39  C   UNL A   1      43.019  21.322  25.876  1.00  0.00     0.039 A 
ATOM     40  C   UNL A   1      43.011  22.301  24.877  1.00  0.00     0.014 A 
ATOM     41  C   UNL A   1      43.620  21.593  27.107  1.00  0.00     0.014 A 
ATOM     42  C   UNL A   1      43.507  23.579  25.149  1.00  0.00     0.010 A 
ATOM     43  C   UNL A   1      44.041  22.888  27.403  1.00  0.00     0.010 A 
ATOM     44  C   UNL A   1      43.975  23.901  26.433  1.00  0.00    -0.014 A 
BRANCH  44  45
ATOM     45  C   UNL A   1      44.371  25.289  26.792  1.00  0.00     0.031 A 
ATOM     46  C   UNL A   1      45.757  25.790  26.483  1.00  0.00     0.074 A 
ATOM     47  C   UNL A   1      43.508  26.077  27.467  1.00  0.00     0.049 A 
ATOM     48  N   UNL A   1      46.310  26.933  26.799  1.00  0.00    -0.248 NA
ATOM     49  C   UNL A   1      46.644  24.877  25.745  1.00  0.00     0.031 C 
ATOM     50  C   UNL A   1      42.149  25.703  27.866  1.00  0.00     0.029 A 
ATOM     51  N   UNL A   1      43.650  27.357  27.945  1.00  0.00    -0.354 N 
ATOM     52  C   UNL A   1      47.612  26.870  26.318  1.00  0.00     0.074 A 
ATOM     53  C   UNL A   1      47.781  25.559  25.730  1.00  0.00     0.031 C 
ATOM     54  C   UNL A   1      41.574  26.737  28.501  1.00  0.00     0.029 A 
ATOM     55  C   UNL A   1      42.533  27.833  28.592  1.00  0.00     0.049 A 
ATOM     56  H   UNL A   1      44.473  27.885  27.833  1.00  0.00     0.167 HD
ATOM     57  C   UNL A   1      48.576  27.822  26.343  1.00  0.00     0.031 A 
ATOM     58  C   UNL A   1      42.306  29.015  29.199  1.00  0.00     0.031 A 
ATOM     59  C   UNL A   1      48.407  29.132  26.914  1.00  0.00     0.049 A 
ATOM     60  C   UNL A   1      43.393  30.054  29.217  1.00  0.00     0.074 A 
ATOM     61  C   UNL A   1      49.311  30.179  26.948  1.00  0.00     0.029 A 
ATOM     62  N   UNL A   1      47.255  29.578  27.543  1.00  0.00    -0.354 N 
ATOM     63  N   UNL A   1      44.603  29.989  28.715  1.00  0.00    -0.248 NA
ATOM     64  C   UNL A   1      43.079  31.330  29.875  1.00  0.00     0.031 C 
ATOM     65  C   UNL A   1      48.719  31.248  27.630  1.00  0.00     0.029 A 
ATOM     66  C   UNL A   1      47.429  30.880  27.979  1.00  0.00     0.049 A 
ATOM     67  H   UNL A   1      46.435  29.046  27.662  1.00  0.00     0.167 HD
ATOM     68  C   UNL A   1      45.185  31.226  28.973  1.00  0.00     0.074 A 
ATOM     69  C   UNL A   1      44.191  32.022  29.664  1.00  0.00     0.031 C 
ATOM     70  C   UNL A   1      46.430  31.662  28.662  1.00  0.00     0.031 A 
BRANCH  57  71
ATOM     71  C   UNL A   1      49.907  27.474  25.729  1.00  0.00    -0.014 A 
ATOM     72  C   UNL A   1      50.175  27.766  24.379  1.00  0.00     0.010 A 
ATOM     73  C   UNL A   1      50.909  26.875  26.513  1.00  0.00     0.010 A 
ATOM     74  C   UNL A   1      51.405  27.422  23.812  1.00  0.00     0.020 A 
ATOM     75  C   UNL A   1      52.151  26.554  25.956  1.00  0.00     0.020 A 
ATOM     76  C   UNL A   1      52.383  26.813  24.603  1.00  0.00     0.054 A 
BRANCH  76  77
ATOM     77  S   UNL A   1      53.975  26.386  23.845  1.00  0.00     0.124 S 
ATOM     78  O   UNL A   1      54.412  25.266  24.674  1.00  0.00    -0.237 OA
ATOM     79  O   UNL A   1      53.596  26.042  22.476  1.00  0.00    -0.237 OA
ATOM     80  O   UNL A   1      54.762  27.609  23.981  1.00  0.00    -0.744 OA
ENDBRANCH  76  77
ENDBRANCH  57  71
BRANCH  58  81
ATOM     81  C   UNL A   1      40.984  29.292  29.824  1.00  0.00    -0.014 A 
ATOM     82  C   UNL A   1      40.785  29.053  31.196  1.00  0.00     0.010 A 
ATOM     83  C   UNL A   1      39.919  29.796  29.057  1.00  0.00     0.010 A 
ATOM     84  C   UNL A   1      39.541  29.292  31.784  1.00  0.00     0.020 A 
ATOM     85  C   UNL A   1      38.679  30.060  29.647  1.00  0.00     0.020 A 
ATOM     86  C   UNL A   1      38.494  29.793  31.005  1.00  0.00     0.054 A 
BRANCH  86  87
ATOM     87  S   UNL A   1      36.899  30.140  31.797  1.00  0.00     0.124 S 
ATOM     88  O   UNL A   1      36.919  29.222  32.932  1.00  0.00    -0.237 OA
ATOM     89  O   UNL A   1      37.010  31.558  32.129  1.00  0.00    -0.237 OA
ATOM     90  O   UNL A   1      35.926  29.827  30.753  1.00  0.00    -0.744 OA
ENDBRANCH  86  87
ENDBRANCH  58  81
BRANCH  70  91
ATOM     91  C   UNL A   1      46.778  33.079  29.032  1.00  0.00    -0.014 A 
ATOM     92  C   UNL A   1      46.479  34.151  28.174  1.00  0.00     0.010 A 
ATOM     93  C   UNL A   1      47.366  33.342  30.283  1.00  0.00     0.010 A 
ATOM     94  C   UNL A   1      46.789  35.460  28.548  1.00  0.00     0.020 A 
ATOM     95  C   UNL A   1      47.656  34.652  30.670  1.00  0.00     0.020 A 
ATOM     96  C   UNL A   1      47.377  35.703  29.794  1.00  0.00     0.054 A 
BRANCH  96  97
ATOM     97  S   UNL A   1      47.729  37.416  30.278  1.00  0.00     0.124 S 
ATOM     98  O   UNL A   1      48.978  37.271  31.019  1.00  0.00    -0.237 OA
ATOM     99  O   UNL A   1      47.839  38.098  28.990  1.00  0.00    -0.237 OA
ATOM    100  O   UNL A   1      46.568  37.794  31.080  1.00  0.00    -0.744 OA
ENDBRANCH  96  97
ENDBRANCH  70  91
ENDBRANCH  44  45
ENDBRANCH  36  39
ENDBRANCH  34  35
ENDBRANCH  33  34
ENDBRANCH   1  33
TORSDOF 18
ENDMDL
