MODEL 1
REMARK VINA RESULT:     -10.6      0.000      0.000
REMARK SMILES CC1(C)[C@@H](C(=O)NCCCCNC(=O)c2ccc(-c3c4nc(c(-c5ccc(S(=O)(=O)[O-])cc5)c5ccc([nH]5)c(-c5ccc(S(=O)(=O)[O-])cc5)c5nc(c(-c6ccc(S(=O)(=O)[O-])cc6)c6ccc3[nH]6)C=C5)C=C4)cc2)CC[C@@]1(C)C(N)=O
REMARK SMILES IDX 10 1 9 2 8 3 7 4 5 5 6 6 4 8 1 9 2 10 3 11 77 12 75 13 76 14
REMARK SMILES IDX 78 15 79 16 80 17 81 18 11 21 12 22 13 23 14 25 15 26 16 27
REMARK SMILES IDX 74 28 17 29 73 30 18 31 19 32 20 33 67 34 21 35 72 36 66 37
REMARK SMILES IDX 68 38 22 39 71 40 65 41 64 42 23 44 53 45 34 46 52 47 35 48
REMARK SMILES IDX 38 49 51 50 69 51 36 52 37 53 50 55 70 56 39 57 24 58 25 59
REMARK SMILES IDX 33 60 26 61 32 62 27 63 28 64 29 65 30 66 31 67 54 68 55 69
REMARK SMILES IDX 63 70 56 71 62 72 57 73 58 74 59 75 60 76 61 77 40 78 41 79
REMARK SMILES IDX 49 80 42 81 48 82 43 83 44 84 45 85 46 86 47 87
REMARK H PARENT 7 7 80 19 80 20 12 24 68 43 38 54
REMARK Flexibility Score: inf
ROOT
ATOM      1  C   UNL A   1      33.839  28.252  25.694  1.00  0.00     0.023 C 
ENDROOT
BRANCH   1   2
ATOM      2  C   UNL A   1      32.651  28.047  24.747  1.00  0.00     0.023 C 
BRANCH   2   3
ATOM      3  C   UNL A   1      32.651  26.716  23.998  1.00  0.00     0.116 C 
BRANCH   3   4
ATOM      4  N   UNL A   1      31.984  25.668  24.749  1.00  0.00    -0.356 N 
ATOM      5  C   UNL A   1      32.478  24.516  25.288  1.00  0.00     0.223 C 
ATOM      6  O   UNL A   1      31.710  23.809  25.939  1.00  0.00    -0.275 OA
ATOM      7  H   UNL A   1      31.020  25.812  24.893  1.00  0.00     0.163 HD
BRANCH   5   8
ATOM      8  C   UNL A   1      33.971  24.218  25.171  1.00  0.00     0.085 C 
ATOM      9  C   UNL A   1      33.676  23.143  22.862  1.00  0.00     0.013 C 
ATOM     10  C   UNL A   1      34.408  23.067  24.214  1.00  0.00    -0.010 C 
ATOM     11  C   UNL A   1      35.904  23.329  23.858  1.00  0.00     0.013 C 
ATOM     12  C   UNL A   1      34.222  21.736  25.070  1.00  0.00     0.052 C 
ATOM     13  C   UNL A   1      34.461  23.743  26.536  1.00  0.00     0.015 C 
ATOM     14  C   UNL A   1      34.184  22.242  26.546  1.00  0.00     0.018 C 
ATOM     15  C   UNL A   1      35.375  20.714  24.905  1.00  0.00     0.022 C 
BRANCH  12  16
ATOM     16  C   UNL A   1      32.950  20.897  24.758  1.00  0.00     0.223 C 
ATOM     17  N   UNL A   1      31.921  21.010  25.655  1.00  0.00    -0.369 N 
ATOM     18  O   UNL A   1      32.857  20.035  23.892  1.00  0.00    -0.275 OA
ATOM     19  H   UNL A   1      31.960  21.690  26.365  1.00  0.00     0.159 HD
ATOM     20  H   UNL A   1      31.143  20.411  25.589  1.00  0.00     0.159 HD
ENDBRANCH  12  16
ENDBRANCH   5   8
ENDBRANCH   3   4
ENDBRANCH   2   3
ENDBRANCH   1   2
BRANCH   1  21
ATOM     21  C   UNL A   1      33.483  28.465  27.163  1.00  0.00     0.116 C 
BRANCH  21  22
ATOM     22  N   UNL A   1      33.387  29.868  27.532  1.00  0.00    -0.352 N 
ATOM     23  C   UNL A   1      34.341  30.669  28.115  1.00  0.00     0.251 C 
ATOM     24  H   UNL A   1      32.524  30.303  27.339  1.00  0.00     0.163 HD
ATOM     25  O   UNL A   1      34.054  31.808  28.471  1.00  0.00    -0.269 OA
BRANCH  23  26
ATOM     26  C   UNL A   1      35.703  30.135  28.343  1.00  0.00     0.039 A 
ATOM     27  C   UNL A   1      36.636  30.191  27.304  1.00  0.00     0.014 A 
ATOM     28  C   UNL A   1      36.064  29.608  29.586  1.00  0.00     0.014 A 
ATOM     29  C   UNL A   1      37.952  29.782  27.533  1.00  0.00     0.010 A 
ATOM     30  C   UNL A   1      37.391  29.263  29.830  1.00  0.00     0.010 A 
ATOM     31  C   UNL A   1      38.349  29.349  28.807  1.00  0.00    -0.014 A 
BRANCH  31  32
ATOM     32  C   UNL A   1      39.757  28.970  29.101  1.00  0.00     0.031 A 
ATOM     33  C   UNL A   1      40.692  29.981  29.708  1.00  0.00     0.074 A 
ATOM     34  C   UNL A   1      40.213  27.748  28.759  1.00  0.00     0.049 A 
ATOM     35  N   UNL A   1      41.979  29.891  29.924  1.00  0.00    -0.248 NA
ATOM     36  C   UNL A   1      40.105  31.272  30.105  1.00  0.00     0.031 C 
ATOM     37  C   UNL A   1      39.416  26.680  28.149  1.00  0.00     0.029 A 
ATOM     38  N   UNL A   1      41.469  27.201  28.866  1.00  0.00    -0.354 N 
ATOM     39  C   UNL A   1      42.358  31.113  30.466  1.00  0.00     0.074 A 
ATOM     40  C   UNL A   1      41.175  31.945  30.502  1.00  0.00     0.031 C 
ATOM     41  C   UNL A   1      40.195  25.603  27.957  1.00  0.00     0.029 A 
ATOM     42  C   UNL A   1      41.556  25.915  28.384  1.00  0.00     0.049 A 
ATOM     43  H   UNL A   1      42.235  27.684  29.252  1.00  0.00     0.167 HD
ATOM     44  C   UNL A   1      43.575  31.502  30.915  1.00  0.00     0.031 A 
ATOM     45  C   UNL A   1      42.613  25.087  28.284  1.00  0.00     0.031 A 
ATOM     46  C   UNL A   1      44.748  30.672  30.891  1.00  0.00     0.049 A 
ATOM     47  C   UNL A   1      43.963  25.557  28.757  1.00  0.00     0.074 A 
ATOM     48  C   UNL A   1      46.024  30.971  31.338  1.00  0.00     0.029 A 
ATOM     49  N   UNL A   1      44.789  29.375  30.403  1.00  0.00    -0.354 N 
ATOM     50  N   UNL A   1      44.295  26.710  29.288  1.00  0.00    -0.248 NA
ATOM     51  C   UNL A   1      45.081  24.610  28.625  1.00  0.00     0.031 C 
ATOM     52  C   UNL A   1      46.845  29.865  31.090  1.00  0.00     0.029 A 
ATOM     53  C   UNL A   1      46.068  28.861  30.535  1.00  0.00     0.049 A 
ATOM     54  H   UNL A   1      44.023  28.891  30.019  1.00  0.00     0.167 HD
ATOM     55  C   UNL A   1      45.650  26.609  29.590  1.00  0.00     0.074 A 
ATOM     56  C   UNL A   1      46.074  25.285  29.188  1.00  0.00     0.031 C 
ATOM     57  C   UNL A   1      46.468  27.532  30.153  1.00  0.00     0.031 A 
BRANCH  44  58
ATOM     58  C   UNL A   1      43.694  32.893  31.482  1.00  0.00    -0.014 A 
ATOM     59  C   UNL A   1      43.525  33.123  32.859  1.00  0.00     0.010 A 
ATOM     60  C   UNL A   1      44.021  33.972  30.641  1.00  0.00     0.010 A 
ATOM     61  C   UNL A   1      43.643  34.414  33.379  1.00  0.00     0.020 A 
ATOM     62  C   UNL A   1      44.167  35.260  31.163  1.00  0.00     0.020 A 
ATOM     63  C   UNL A   1      43.961  35.475  32.527  1.00  0.00     0.054 A 
BRANCH  63  64
ATOM     64  S   UNL A   1      44.134  37.136  33.236  1.00  0.00     0.124 S 
ATOM     65  O   UNL A   1      44.171  37.971  32.038  1.00  0.00    -0.237 OA
ATOM     66  O   UNL A   1      42.929  37.264  34.053  1.00  0.00    -0.237 OA
ATOM     67  O   UNL A   1      45.386  37.065  33.984  1.00  0.00    -0.744 OA
ENDBRANCH  63  64
ENDBRANCH  44  58
BRANCH  45  68
ATOM     68  C   UNL A   1      42.448  23.717  27.723  1.00  0.00    -0.014 A 
ATOM     69  C   UNL A   1      42.194  22.627  28.574  1.00  0.00     0.010 A 
ATOM     70  C   UNL A   1      42.572  23.489  26.340  1.00  0.00     0.010 A 
ATOM     71  C   UNL A   1      42.103  21.330  28.059  1.00  0.00     0.020 A 
ATOM     72  C   UNL A   1      42.452  22.197  25.818  1.00  0.00     0.020 A 
ATOM     73  C   UNL A   1      42.238  21.123  26.685  1.00  0.00     0.054 A 
BRANCH  73  74
ATOM     74  S   UNL A   1      42.101  19.434  26.036  1.00  0.00     0.124 S 
ATOM     75  O   UNL A   1      42.560  18.637  27.169  1.00  0.00    -0.237 OA
ATOM     76  O   UNL A   1      40.679  19.329  25.721  1.00  0.00    -0.237 OA
ATOM     77  O   UNL A   1      42.988  19.443  24.874  1.00  0.00    -0.744 OA
ENDBRANCH  73  74
ENDBRANCH  45  68
BRANCH  57  78
ATOM     78  C   UNL A   1      47.889  27.125  30.434  1.00  0.00    -0.014 A 
ATOM     79  C   UNL A   1      48.921  27.388  29.517  1.00  0.00     0.010 A 
ATOM     80  C   UNL A   1      48.203  26.532  31.671  1.00  0.00     0.010 A 
ATOM     81  C   UNL A   1      50.240  27.044  29.824  1.00  0.00     0.020 A 
ATOM     82  C   UNL A   1      49.524  26.211  31.991  1.00  0.00     0.020 A 
ATOM     83  C   UNL A   1      50.534  26.460  31.061  1.00  0.00     0.054 A 
BRANCH  83  84
ATOM     84  S   UNL A   1      52.262  26.080  31.461  1.00  0.00     0.124 S 
ATOM     85  O   UNL A   1      52.885  26.068  30.140  1.00  0.00    -0.237 OA
ATOM     86  O   UNL A   1      52.644  27.194  32.326  1.00  0.00    -0.237 OA
ATOM     87  O   UNL A   1      52.186  24.781  32.126  1.00  0.00    -0.744 OA
ENDBRANCH  83  84
ENDBRANCH  57  78
ENDBRANCH  31  32
ENDBRANCH  23  26
ENDBRANCH  21  22
ENDBRANCH   1  21
TORSDOF 15
ENDMDL
MODEL 2
REMARK VINA RESULT:     -10.5      2.777      9.414
REMARK SMILES CC1(C)[C@@H](C(=O)NCCCCNC(=O)c2ccc(-c3c4nc(c(-c5ccc(S(=O)(=O)[O-])cc5)c5ccc([nH]5)c(-c5ccc(S(=O)(=O)[O-])cc5)c5nc(c(-c6ccc(S(=O)(=O)[O-])cc6)c6ccc3[nH]6)C=C5)C=C4)cc2)CC[C@@]1(C)C(N)=O
REMARK SMILES IDX 10 1 9 2 8 3 7 4 5 5 6 6 4 8 1 9 2 10 3 11 77 12 75 13 76 14
REMARK SMILES IDX 78 15 79 16 80 17 81 18 11 21 12 22 13 23 14 25 15 26 16 27
REMARK SMILES IDX 74 28 17 29 73 30 18 31 19 32 20 33 67 34 21 35 72 36 66 37
REMARK SMILES IDX 68 38 22 39 71 40 65 41 64 42 23 44 53 45 34 46 52 47 35 48
REMARK SMILES IDX 38 49 51 50 69 51 36 52 37 53 50 55 70 56 39 57 24 58 25 59
REMARK SMILES IDX 33 60 26 61 32 62 27 63 28 64 29 65 30 66 31 67 54 68 55 69
REMARK SMILES IDX 63 70 56 71 62 72 57 73 58 74 59 75 60 76 61 77 40 78 41 79
REMARK SMILES IDX 49 80 42 81 48 82 43 83 44 84 45 85 46 86 47 87
REMARK H PARENT 7 7 80 19 80 20 12 24 68 43 38 54
REMARK Flexibility Score: inf
ROOT
ATOM      1  C   UNL A   1      34.976  23.862  25.701  1.00  0.00     0.023 C 
ENDROOT
BRANCH   1   2
ATOM      2  C   UNL A   1      34.256  23.232  24.505  1.00  0.00     0.023 C 
BRANCH   2   3
ATOM      3  C   UNL A   1      32.865  23.799  24.222  1.00  0.00     0.116 C 
BRANCH   3   4
ATOM      4  N   UNL A   1      32.896  24.833  23.204  1.00  0.00    -0.356 N 
ATOM      5  C   UNL A   1      32.930  26.192  23.326  1.00  0.00     0.223 C 
ATOM      6  O   UNL A   1      33.010  26.861  22.297  1.00  0.00    -0.275 OA
ATOM      7  H   UNL A   1      32.891  24.501  22.277  1.00  0.00     0.163 HD
BRANCH   5   8
ATOM      8  C   UNL A   1      32.993  26.815  24.719  1.00  0.00     0.085 C 
ATOM      9  C   UNL A   1      30.445  26.718  24.985  1.00  0.00     0.013 C 
ATOM     10  C   UNL A   1      31.719  27.542  25.246  1.00  0.00    -0.010 C 
ATOM     11  C   UNL A   1      31.841  27.581  26.802  1.00  0.00     0.013 C 
ATOM     12  C   UNL A   1      31.789  28.999  24.605  1.00  0.00     0.052 C 
ATOM     13  C   UNL A   1      34.041  27.923  24.687  1.00  0.00     0.015 C 
ATOM     14  C   UNL A   1      33.287  29.156  24.194  1.00  0.00     0.018 C 
ATOM     15  C   UNL A   1      31.401  30.137  25.583  1.00  0.00     0.022 C 
BRANCH  12  16
ATOM     16  C   UNL A   1      30.867  29.249  23.377  1.00  0.00     0.223 C 
ATOM     17  N   UNL A   1      31.494  29.330  22.163  1.00  0.00    -0.369 N 
ATOM     18  O   UNL A   1      29.678  29.541  23.425  1.00  0.00    -0.275 OA
ATOM     19  H   UNL A   1      32.448  29.103  22.086  1.00  0.00     0.159 HD
ATOM     20  H   UNL A   1      30.989  29.615  21.367  1.00  0.00     0.159 HD
ENDBRANCH  12  16
ENDBRANCH   5   8
ENDBRANCH   3   4
ENDBRANCH   2   3
ENDBRANCH   1   2
BRANCH   1  21
ATOM     21  C   UNL A   1      36.455  24.178  25.491  1.00  0.00     0.116 C 
BRANCH  21  22
ATOM     22  N   UNL A   1      37.316  23.015  25.634  1.00  0.00    -0.352 N 
ATOM     23  C   UNL A   1      38.573  22.941  26.190  1.00  0.00     0.251 C 
ATOM     24  H   UNL A   1      36.951  22.168  25.289  1.00  0.00     0.163 HD
ATOM     25  O   UNL A   1      39.213  21.897  26.124  1.00  0.00    -0.269 OA
BRANCH  23  26
ATOM     26  C   UNL A   1      39.159  24.139  26.832  1.00  0.00     0.039 A 
ATOM     27  C   UNL A   1      39.960  24.994  26.069  1.00  0.00     0.014 A 
ATOM     28  C   UNL A   1      38.895  24.432  28.173  1.00  0.00     0.014 A 
ATOM     29  C   UNL A   1      40.439  26.179  26.633  1.00  0.00     0.010 A 
ATOM     30  C   UNL A   1      39.320  25.643  28.711  1.00  0.00     0.010 A 
ATOM     31  C   UNL A   1      40.094  26.531  27.947  1.00  0.00    -0.014 A 
BRANCH  31  32
ATOM     32  C   UNL A   1      40.533  27.815  28.554  1.00  0.00     0.031 A 
ATOM     33  C   UNL A   1      41.930  27.945  29.100  1.00  0.00     0.074 A 
ATOM     34  C   UNL A   1      39.661  28.836  28.680  1.00  0.00     0.049 A 
ATOM     35  N   UNL A   1      42.464  28.929  29.776  1.00  0.00    -0.248 NA
ATOM     36  C   UNL A   1      42.838  26.808  28.874  1.00  0.00     0.031 C 
ATOM     37  C   UNL A   1      38.274  28.836  28.208  1.00  0.00     0.029 A 
ATOM     38  N   UNL A   1      39.813  30.074  29.256  1.00  0.00    -0.354 N 
ATOM     39  C   UNL A   1      43.762  28.526  30.069  1.00  0.00     0.074 A 
ATOM     40  C   UNL A   1      43.919  27.188  29.538  1.00  0.00     0.031 C 
ATOM     41  C   UNL A   1      37.710  30.020  28.495  1.00  0.00     0.029 A 
ATOM     42  C   UNL A   1      38.676  30.848  29.211  1.00  0.00     0.049 A 
ATOM     43  H   UNL A   1      40.655  30.379  29.664  1.00  0.00     0.167 HD
ATOM     44  C   UNL A   1      44.743  29.212  30.700  1.00  0.00     0.031 A 
ATOM     45  C   UNL A   1      38.435  32.079  29.702  1.00  0.00     0.031 A 
ATOM     46  C   UNL A   1      44.592  30.546  31.217  1.00  0.00     0.049 A 
ATOM     47  C   UNL A   1      39.532  32.808  30.433  1.00  0.00     0.074 A 
ATOM     48  C   UNL A   1      45.533  31.333  31.859  1.00  0.00     0.029 A 
ATOM     49  N   UNL A   1      43.428  31.296  31.140  1.00  0.00    -0.354 N 
ATOM     50  N   UNL A   1      40.760  32.417  30.679  1.00  0.00    -0.248 NA
ATOM     51  C   UNL A   1      39.212  34.148  30.946  1.00  0.00     0.031 C 
ATOM     52  C   UNL A   1      44.927  32.547  32.201  1.00  0.00     0.029 A 
ATOM     53  C   UNL A   1      43.626  32.535  31.726  1.00  0.00     0.049 A 
ATOM     54  H   UNL A   1      42.586  30.992  30.731  1.00  0.00     0.167 HD
ATOM     55  C   UNL A   1      41.368  33.480  31.338  1.00  0.00     0.074 A 
ATOM     56  C   UNL A   1      40.378  34.530  31.448  1.00  0.00     0.031 C 
ATOM     57  C   UNL A   1      42.637  33.578  31.806  1.00  0.00     0.031 A 
BRANCH  44  58
ATOM     58  C   UNL A   1      46.077  28.531  30.859  1.00  0.00    -0.014 A 
ATOM     59  C   UNL A   1      47.086  28.695  29.894  1.00  0.00     0.010 A 
ATOM     60  C   UNL A   1      46.340  27.756  32.003  1.00  0.00     0.010 A 
ATOM     61  C   UNL A   1      48.323  28.065  30.051  1.00  0.00     0.020 A 
ATOM     62  C   UNL A   1      47.587  27.147  32.177  1.00  0.00     0.020 A 
ATOM     63  C   UNL A   1      48.564  27.293  31.191  1.00  0.00     0.054 A 
BRANCH  63  64
ATOM     64  S   UNL A   1      50.190  26.509  31.380  1.00  0.00     0.124 S 
ATOM     65  O   UNL A   1      50.488  26.773  32.786  1.00  0.00    -0.237 OA
ATOM     66  O   UNL A   1      49.914  25.113  31.050  1.00  0.00    -0.237 OA
ATOM     67  O   UNL A   1      51.031  27.219  30.421  1.00  0.00    -0.744 OA
ENDBRANCH  63  64
ENDBRANCH  44  58
BRANCH  45  68
ATOM     68  C   UNL A   1      37.102  32.719  29.515  1.00  0.00    -0.014 A 
ATOM     69  C   UNL A   1      36.820  33.442  28.343  1.00  0.00     0.010 A 
ATOM     70  C   UNL A   1      36.119  32.632  30.518  1.00  0.00     0.010 A 
ATOM     71  C   UNL A   1      35.595  34.098  28.191  1.00  0.00     0.020 A 
ATOM     72  C   UNL A   1      34.881  33.263  30.356  1.00  0.00     0.020 A 
ATOM     73  C   UNL A   1      34.635  34.008  29.202  1.00  0.00     0.054 A 
BRANCH  73  74
ATOM     74  S   UNL A   1      33.045  34.854  28.978  1.00  0.00     0.124 S 
ATOM     75  O   UNL A   1      32.358  33.965  28.047  1.00  0.00    -0.237 OA
ATOM     76  O   UNL A   1      32.510  34.888  30.335  1.00  0.00    -0.237 OA
ATOM     77  O   UNL A   1      33.427  36.157  28.435  1.00  0.00    -0.744 OA
ENDBRANCH  73  74
ENDBRANCH  45  68
BRANCH  57  78
ATOM     78  C   UNL A   1      43.054  34.886  32.422  1.00  0.00    -0.014 A 
ATOM     79  C   UNL A   1      43.650  35.901  31.654  1.00  0.00     0.010 A 
ATOM     80  C   UNL A   1      42.775  35.126  33.781  1.00  0.00     0.010 A 
ATOM     81  C   UNL A   1      43.982  37.125  32.241  1.00  0.00     0.020 A 
ATOM     82  C   UNL A   1      43.083  36.357  34.364  1.00  0.00     0.020 A 
ATOM     83  C   UNL A   1      43.694  37.346  33.592  1.00  0.00     0.054 A 
BRANCH  83  84
ATOM     84  S   UNL A   1      44.077  38.965  34.314  1.00  0.00     0.124 S 
ATOM     85  O   UNL A   1      44.096  38.665  35.743  1.00  0.00    -0.237 OA
ATOM     86  O   UNL A   1      45.374  39.284  33.721  1.00  0.00    -0.237 OA
ATOM     87  O   UNL A   1      42.972  39.812  33.871  1.00  0.00    -0.744 OA
ENDBRANCH  83  84
ENDBRANCH  57  78
ENDBRANCH  31  32
ENDBRANCH  23  26
ENDBRANCH  21  22
ENDBRANCH   1  21
TORSDOF 15
ENDMDL
MODEL 3
REMARK VINA RESULT:     -10.2      3.313      9.254
REMARK SMILES CC1(C)[C@@H](C(=O)NCCCCNC(=O)c2ccc(-c3c4nc(c(-c5ccc(S(=O)(=O)[O-])cc5)c5ccc([nH]5)c(-c5ccc(S(=O)(=O)[O-])cc5)c5nc(c(-c6ccc(S(=O)(=O)[O-])cc6)c6ccc3[nH]6)C=C5)C=C4)cc2)CC[C@@]1(C)C(N)=O
REMARK SMILES IDX 10 1 9 2 8 3 7 4 5 5 6 6 4 8 1 9 2 10 3 11 77 12 75 13 76 14
REMARK SMILES IDX 78 15 79 16 80 17 81 18 11 21 12 22 13 23 14 25 15 26 16 27
REMARK SMILES IDX 74 28 17 29 73 30 18 31 19 32 20 33 67 34 21 35 72 36 66 37
REMARK SMILES IDX 68 38 22 39 71 40 65 41 64 42 23 44 53 45 34 46 52 47 35 48
REMARK SMILES IDX 38 49 51 50 69 51 36 52 37 53 50 55 70 56 39 57 24 58 25 59
REMARK SMILES IDX 33 60 26 61 32 62 27 63 28 64 29 65 30 66 31 67 54 68 55 69
REMARK SMILES IDX 63 70 56 71 62 72 57 73 58 74 59 75 60 76 61 77 40 78 41 79
REMARK SMILES IDX 49 80 42 81 48 82 43 83 44 84 45 85 46 86 47 87
REMARK H PARENT 7 7 80 19 80 20 12 24 68 43 38 54
REMARK Flexibility Score: inf
ROOT
ATOM      1  C   UNL A   1      38.302  20.036  25.069  1.00  0.00     0.023 C 
ENDROOT
BRANCH   1   2
ATOM      2  C   UNL A   1      37.465  21.231  24.602  1.00  0.00     0.023 C 
BRANCH   2   3
ATOM      3  C   UNL A   1      37.038  22.189  25.714  1.00  0.00     0.116 C 
BRANCH   3   4
ATOM      4  N   UNL A   1      35.880  21.699  26.439  1.00  0.00    -0.356 N 
ATOM      5  C   UNL A   1      34.563  21.666  26.082  1.00  0.00     0.223 C 
ATOM      6  O   UNL A   1      33.768  21.141  26.859  1.00  0.00    -0.275 OA
ATOM      7  H   UNL A   1      36.075  21.333  27.331  1.00  0.00     0.163 HD
BRANCH   5   8
ATOM      8  C   UNL A   1      34.153  22.162  24.696  1.00  0.00     0.085 C 
ATOM      9  C   UNL A   1      34.197  24.611  25.450  1.00  0.00     0.013 C 
ATOM     10  C   UNL A   1      33.467  23.557  24.599  1.00  0.00    -0.010 C 
ATOM     11  C   UNL A   1      33.660  24.047  23.130  1.00  0.00     0.013 C 
ATOM     12  C   UNL A   1      31.934  23.280  24.939  1.00  0.00     0.052 C 
ATOM     13  C   UNL A   1      33.090  21.209  24.155  1.00  0.00     0.015 C 
ATOM     14  C   UNL A   1      31.773  21.744  24.712  1.00  0.00     0.018 C 
ATOM     15  C   UNL A   1      30.939  24.043  24.029  1.00  0.00     0.022 C 
BRANCH  12  16
ATOM     16  C   UNL A   1      31.475  23.661  26.375  1.00  0.00     0.223 C 
ATOM     17  N   UNL A   1      31.266  22.616  27.235  1.00  0.00    -0.369 N 
ATOM     18  O   UNL A   1      31.129  24.778  26.742  1.00  0.00    -0.275 OA
ATOM     19  H   UNL A   1      31.531  21.705  26.976  1.00  0.00     0.159 HD
ATOM     20  H   UNL A   1      30.851  22.778  28.113  1.00  0.00     0.159 HD
ENDBRANCH  12  16
ENDBRANCH   5   8
ENDBRANCH   3   4
ENDBRANCH   2   3
ENDBRANCH   1   2
BRANCH   1  21
ATOM     21  C   UNL A   1      39.436  20.363  26.038  1.00  0.00     0.116 C 
BRANCH  21  22
ATOM     22  N   UNL A   1      40.423  19.300  26.145  1.00  0.00    -0.352 N 
ATOM     23  C   UNL A   1      41.784  19.408  26.318  1.00  0.00     0.251 C 
ATOM     24  H   UNL A   1      40.071  18.382  26.088  1.00  0.00     0.163 HD
ATOM     25  O   UNL A   1      42.490  18.406  26.270  1.00  0.00    -0.269 OA
BRANCH  23  26
ATOM     26  C   UNL A   1      42.391  20.742  26.523  1.00  0.00     0.039 A 
ATOM     27  C   UNL A   1      42.760  21.498  25.407  1.00  0.00     0.014 A 
ATOM     28  C   UNL A   1      42.569  21.255  27.811  1.00  0.00     0.014 A 
ATOM     29  C   UNL A   1      43.243  22.798  25.580  1.00  0.00     0.010 A 
ATOM     30  C   UNL A   1      42.989  22.572  27.977  1.00  0.00     0.010 A 
ATOM     31  C   UNL A   1      43.327  23.358  26.864  1.00  0.00    -0.014 A 
BRANCH  31  32
ATOM     32  C   UNL A   1      43.774  24.760  27.078  1.00  0.00     0.031 A 
ATOM     33  C   UNL A   1      45.223  25.120  26.886  1.00  0.00     0.074 A 
ATOM     34  C   UNL A   1      42.900  25.689  27.512  1.00  0.00     0.049 A 
ATOM     35  N   UNL A   1      45.835  26.248  27.142  1.00  0.00    -0.248 NA
ATOM     36  C   UNL A   1      46.104  24.064  26.357  1.00  0.00     0.031 C 
ATOM     37  C   UNL A   1      41.471  25.469  27.754  1.00  0.00     0.029 A 
ATOM     38  N   UNL A   1      43.088  27.011  27.839  1.00  0.00    -0.354 N 
ATOM     39  C   UNL A   1      47.171  26.034  26.820  1.00  0.00     0.074 A 
ATOM     40  C   UNL A   1      47.289  24.656  26.397  1.00  0.00     0.031 C 
ATOM     41  C   UNL A   1      40.911  26.617  28.169  1.00  0.00     0.029 A 
ATOM     42  C   UNL A   1      41.945  27.643  28.269  1.00  0.00     0.049 A 
ATOM     43  H   UNL A   1      43.961  27.462  27.772  1.00  0.00     0.167 HD
ATOM     44  C   UNL A   1      48.202  26.911  26.851  1.00  0.00     0.031 A 
ATOM     45  C   UNL A   1      41.753  28.903  28.707  1.00  0.00     0.031 A 
ATOM     46  C   UNL A   1      48.083  28.284  27.260  1.00  0.00     0.049 A 
ATOM     47  C   UNL A   1      42.924  29.848  28.767  1.00  0.00     0.074 A 
ATOM     48  C   UNL A   1      49.068  29.256  27.310  1.00  0.00     0.029 A 
ATOM     49  N   UNL A   1      46.906  28.885  27.678  1.00  0.00    -0.354 N 
ATOM     50  N   UNL A   1      44.175  29.632  28.436  1.00  0.00    -0.248 NA
ATOM     51  C   UNL A   1      42.655  31.210  29.251  1.00  0.00     0.031 C 
ATOM     52  C   UNL A   1      48.492  30.437  27.791  1.00  0.00     0.029 A 
ATOM     53  C   UNL A   1      47.140  30.214  27.991  1.00  0.00     0.049 A 
ATOM     54  H   UNL A   1      46.033  28.435  27.743  1.00  0.00     0.167 HD
ATOM     55  C   UNL A   1      44.831  30.843  28.634  1.00  0.00     0.074 A 
ATOM     56  C   UNL A   1      43.841  31.786  29.108  1.00  0.00     0.031 C 
ATOM     57  C   UNL A   1      46.138  31.145  28.438  1.00  0.00     0.031 A 
BRANCH  44  58
ATOM     58  C   UNL A   1      49.555  26.407  26.420  1.00  0.00    -0.014 A 
ATOM     59  C   UNL A   1      50.023  26.638  25.114  1.00  0.00     0.010 A 
ATOM     60  C   UNL A   1      50.383  25.737  27.338  1.00  0.00     0.010 A 
ATOM     61  C   UNL A   1      51.281  26.174  24.722  1.00  0.00     0.020 A 
ATOM     62  C   UNL A   1      51.654  25.295  26.957  1.00  0.00     0.020 A 
ATOM     63  C   UNL A   1      52.088  25.503  25.647  1.00  0.00     0.054 A 
BRANCH  63  64
ATOM     64  S   UNL A   1      53.728  24.936  25.116  1.00  0.00     0.124 S 
ATOM     65  O   UNL A   1      53.857  25.574  23.808  1.00  0.00    -0.237 OA
ATOM     66  O   UNL A   1      54.603  25.463  26.160  1.00  0.00    -0.237 OA
ATOM     67  O   UNL A   1      53.600  23.482  25.090  1.00  0.00    -0.744 OA
ENDBRANCH  63  64
ENDBRANCH  44  58
BRANCH  45  68
ATOM     68  C   UNL A   1      40.396  29.360  29.118  1.00  0.00    -0.014 A 
ATOM     69  C   UNL A   1      39.437  29.700  28.146  1.00  0.00     0.010 A 
ATOM     70  C   UNL A   1      40.063  29.485  30.479  1.00  0.00     0.010 A 
ATOM     71  C   UNL A   1      38.185  30.192  28.526  1.00  0.00     0.020 A 
ATOM     72  C   UNL A   1      38.800  29.949  30.862  1.00  0.00     0.020 A 
ATOM     73  C   UNL A   1      37.877  30.318  29.882  1.00  0.00     0.054 A 
BRANCH  73  74
ATOM     74  S   UNL A   1      36.240  30.943  30.354  1.00  0.00     0.124 S 
ATOM     75  O   UNL A   1      36.512  32.358  30.587  1.00  0.00    -0.237 OA
ATOM     76  O   UNL A   1      35.432  30.639  29.176  1.00  0.00    -0.237 OA
ATOM     77  O   UNL A   1      35.907  30.163  31.544  1.00  0.00    -0.744 OA
ENDBRANCH  73  74
ENDBRANCH  45  68
BRANCH  57  78
ATOM     78  C   UNL A   1      46.566  32.570  28.668  1.00  0.00    -0.014 A 
ATOM     79  C   UNL A   1      46.381  33.558  27.686  1.00  0.00     0.010 A 
ATOM     80  C   UNL A   1      47.095  32.935  29.920  1.00  0.00     0.010 A 
ATOM     81  C   UNL A   1      46.742  34.883  27.944  1.00  0.00     0.020 A 
ATOM     82  C   UNL A   1      47.433  34.262  30.189  1.00  0.00     0.020 A 
ATOM     83  C   UNL A   1      47.264  35.227  29.196  1.00  0.00     0.054 A 
BRANCH  83  84
ATOM     84  S   UNL A   1      47.665  36.965  29.528  1.00  0.00     0.124 S 
ATOM     85  O   UNL A   1      46.605  37.666  28.809  1.00  0.00    -0.237 OA
ATOM     86  O   UNL A   1      47.592  37.040  30.985  1.00  0.00    -0.237 OA
ATOM     87  O   UNL A   1      49.007  37.123  28.969  1.00  0.00    -0.744 OA
ENDBRANCH  83  84
ENDBRANCH  57  78
ENDBRANCH  31  32
ENDBRANCH  23  26
ENDBRANCH  21  22
ENDBRANCH   1  21
TORSDOF 15
ENDMDL
