MODEL 1
REMARK VINA RESULT:     -11.6      0.000      0.000
REMARK SMILES CC[NH+]1CCC2(CC1)OC[C@@H](C(=O)NCCCCNC(=O)c1ccc(-c3c4nc(c(-c5ccc(S(=O)(=O)[O-])cc5)c5ccc([nH]5)c(-c5ccc(S(=O)(=O)[O-])cc5)c5nc(c(-c6ccc(S(=O)(=O)[O-])cc6)c6ccc3[nH]6)C=C5)C=C4)cc1)N2C(=O)c1ccc(Cl)c([N+](=O)[O-])c1
REMARK SMILES IDX 16 1 15 2 14 3 12 4 13 5 11 7 3 8 4 9 8 10 5 12 7 13 6 14
REMARK SMILES IDX 9 15 82 16 10 17 2 18 1 19 83 20 84 21 85 22 86 23 94 24
REMARK SMILES IDX 87 25 90 26 88 27 89 28 91 29 92 30 93 31 17 32 18 33 19 34
REMARK SMILES IDX 20 35 21 37 22 38 23 39 81 40 24 41 80 42 25 43 26 44 27 45
REMARK SMILES IDX 74 46 28 47 79 48 73 49 75 50 29 51 78 52 72 53 71 54 30 56
REMARK SMILES IDX 60 57 41 58 59 59 42 60 45 61 58 62 76 63 43 64 44 65 57 67
REMARK SMILES IDX 77 68 46 69 31 70 32 71 40 72 33 73 39 74 34 75 35 76 36 77
REMARK SMILES IDX 37 78 38 79 61 80 62 81 70 82 63 83 69 84 64 85 65 86 66 87
REMARK SMILES IDX 67 88 68 89 47 90 48 91 56 92 49 93 55 94 50 95 51 96 52 97
REMARK SMILES IDX 53 98 54 99
REMARK H PARENT 14 6 3 11 19 36 75 55 45 66
REMARK Flexibility Score: inf
ROOT
ATOM      1  C   UNL A   1      31.331  27.171  26.799  1.00  0.00     0.023 C 
ENDROOT
BRANCH   1   2
ATOM      2  C   UNL A   1      31.841  25.739  26.798  1.00  0.00     0.116 C 
BRANCH   2   3
ATOM      3  N   UNL A   1      30.750  24.798  26.873  1.00  0.00    -0.354 N 
ATOM      4  C   UNL A   1      30.752  23.447  26.716  1.00  0.00     0.245 C 
ATOM      5  O   UNL A   1      29.698  22.855  26.978  1.00  0.00    -0.273 OA
ATOM      6  H   UNL A   1      29.870  25.194  27.068  1.00  0.00     0.163 HD
BRANCH   4   7
ATOM      7  C   UNL A   1      32.045  22.643  26.499  1.00  0.00     0.203 C 
ATOM      8  N   UNL A   1      36.693  22.114  24.528  1.00  0.00    -0.335 N 
ATOM      9  C   UNL A   1      35.640  21.175  24.880  1.00  0.00     0.267 C 
ATOM     10  C   UNL A   1      36.489  23.521  24.882  1.00  0.00     0.267 C 
ATOM     11  H   UNL A   1      36.574  22.077  23.516  1.00  0.00     0.348 HD
ATOM     12  C   UNL A   1      34.946  21.451  26.187  1.00  0.00     0.120 C 
ATOM     13  C   UNL A   1      35.546  23.866  26.032  1.00  0.00     0.120 C 
ATOM     14  C   UNL A   1      34.405  22.884  26.271  1.00  0.00     0.155 C 
ATOM     15  O   UNL A   1      34.051  23.056  27.673  1.00  0.00    -0.352 OA
ATOM     16  N   UNL A   1      33.111  23.094  25.597  1.00  0.00    -0.295 N 
ATOM     17  C   UNL A   1      32.727  22.529  27.855  1.00  0.00     0.198 C 
BRANCH   8  18
ATOM     18  C   UNL A   1      38.072  21.687  24.778  1.00  0.00     0.258 C 
ATOM     19  C   UNL A   1      38.722  22.254  26.037  1.00  0.00     0.071 C 
ENDBRANCH   8  18
BRANCH  16  20
ATOM     20  C   UNL A   1      32.739  23.282  24.267  1.00  0.00     0.257 C 
ATOM     21  O   UNL A   1      32.729  22.357  23.456  1.00  0.00    -0.269 OA
BRANCH  20  22
ATOM     22  C   UNL A   1      32.294  24.579  23.728  1.00  0.00     0.047 A 
ATOM     23  C   UNL A   1      30.938  24.861  23.527  1.00  0.00     0.016 A 
ATOM     24  C   UNL A   1      33.251  25.497  23.293  1.00  0.00     0.101 A 
ATOM     25  C   UNL A   1      30.544  26.097  22.995  1.00  0.00     0.028 A 
ATOM     26  C   UNL A   1      32.847  26.778  22.879  1.00  0.00     0.288 A 
ATOM     27  C   UNL A   1      31.495  27.082  22.704  1.00  0.00     0.118 A 
ATOM     28  Cl  UNL A   1      30.902  28.589  22.109  1.00  0.00    -0.077 Cl
BRANCH  26  29
ATOM     29  N   UNL A   1      33.885  27.794  22.773  1.00  0.00     0.064 N 
ATOM     30  O   UNL A   1      34.252  28.137  21.641  1.00  0.00    -0.258 OA
ATOM     31  O   UNL A   1      34.279  28.310  23.828  1.00  0.00    -0.258 OA
ENDBRANCH  26  29
ENDBRANCH  20  22
ENDBRANCH  16  20
ENDBRANCH   4   7
ENDBRANCH   2   3
ENDBRANCH   1   2
BRANCH   1  32
ATOM     32  C   UNL A   1      32.352  28.229  26.394  1.00  0.00     0.023 C 
BRANCH  32  33
ATOM     33  C   UNL A   1      33.387  28.564  27.454  1.00  0.00     0.116 C 
BRANCH  33  34
ATOM     34  N   UNL A   1      33.455  29.989  27.749  1.00  0.00    -0.352 N 
ATOM     35  C   UNL A   1      34.512  30.716  28.243  1.00  0.00     0.251 C 
ATOM     36  H   UNL A   1      32.632  30.500  27.571  1.00  0.00     0.163 HD
ATOM     37  O   UNL A   1      34.358  31.890  28.570  1.00  0.00    -0.269 OA
BRANCH  35  38
ATOM     38  C   UNL A   1      35.820  30.052  28.414  1.00  0.00     0.039 A 
ATOM     39  C   UNL A   1      36.721  30.048  27.348  1.00  0.00     0.014 A 
ATOM     40  C   UNL A   1      36.180  29.512  29.651  1.00  0.00     0.014 A 
ATOM     41  C   UNL A   1      38.023  29.588  27.553  1.00  0.00     0.010 A 
ATOM     42  C   UNL A   1      37.497  29.130  29.875  1.00  0.00     0.010 A 
ATOM     43  C   UNL A   1      38.436  29.180  28.833  1.00  0.00    -0.014 A 
BRANCH  43  44
ATOM     44  C   UNL A   1      39.853  28.843  29.120  1.00  0.00     0.031 A 
ATOM     45  C   UNL A   1      40.780  29.887  29.676  1.00  0.00     0.074 A 
ATOM     46  C   UNL A   1      40.324  27.623  28.789  1.00  0.00     0.049 A 
ATOM     47  N   UNL A   1      42.067  29.810  29.897  1.00  0.00    -0.248 NA
ATOM     48  C   UNL A   1      40.190  31.194  30.003  1.00  0.00     0.031 C 
ATOM     49  C   UNL A   1      39.532  26.538  28.203  1.00  0.00     0.029 A 
ATOM     50  N   UNL A   1      41.587  27.094  28.885  1.00  0.00    -0.354 N 
ATOM     51  C   UNL A   1      42.443  31.059  30.374  1.00  0.00     0.074 A 
ATOM     52  C   UNL A   1      41.259  31.889  30.366  1.00  0.00     0.031 C 
ATOM     53  C   UNL A   1      40.322  25.469  28.012  1.00  0.00     0.029 A 
ATOM     54  C   UNL A   1      41.684  25.806  28.414  1.00  0.00     0.049 A 
ATOM     55  H   UNL A   1      42.352  27.591  29.257  1.00  0.00     0.167 HD
ATOM     56  C   UNL A   1      43.662  31.473  30.795  1.00  0.00     0.031 A 
ATOM     57  C   UNL A   1      42.751  24.991  28.299  1.00  0.00     0.031 A 
ATOM     58  C   UNL A   1      44.837  30.642  30.803  1.00  0.00     0.049 A 
ATOM     59  C   UNL A   1      44.100  25.485  28.742  1.00  0.00     0.074 A 
ATOM     60  C   UNL A   1      46.103  30.949  31.270  1.00  0.00     0.029 A 
ATOM     61  N   UNL A   1      44.894  29.345  30.314  1.00  0.00    -0.354 N 
ATOM     62  N   UNL A   1      44.421  26.647  29.261  1.00  0.00    -0.248 NA
ATOM     63  C   UNL A   1      45.231  24.562  28.582  1.00  0.00     0.031 C 
ATOM     64  C   UNL A   1      46.940  29.860  31.009  1.00  0.00     0.029 A 
ATOM     65  C   UNL A   1      46.183  28.852  30.433  1.00  0.00     0.049 A 
ATOM     66  H   UNL A   1      44.131  28.849  29.939  1.00  0.00     0.167 HD
ATOM     67  C   UNL A   1      45.788  26.588  29.502  1.00  0.00     0.074 A 
ATOM     68  C   UNL A   1      46.229  25.268  29.095  1.00  0.00     0.031 C 
ATOM     69  C   UNL A   1      46.607  27.541  30.010  1.00  0.00     0.031 A 
BRANCH  56  70
ATOM     70  C   UNL A   1      43.787  32.894  31.275  1.00  0.00    -0.014 A 
ATOM     71  C   UNL A   1      43.750  33.203  32.646  1.00  0.00     0.010 A 
ATOM     72  C   UNL A   1      43.983  33.932  30.345  1.00  0.00     0.010 A 
ATOM     73  C   UNL A   1      43.868  34.529  33.076  1.00  0.00     0.020 A 
ATOM     74  C   UNL A   1      44.130  35.254  30.773  1.00  0.00     0.020 A 
ATOM     75  C   UNL A   1      44.055  35.546  32.136  1.00  0.00     0.054 A 
BRANCH  75  76
ATOM     76  S   UNL A   1      44.227  37.252  32.726  1.00  0.00     0.124 S 
ATOM     77  O   UNL A   1      42.991  37.434  33.483  1.00  0.00    -0.237 OA
ATOM     78  O   UNL A   1      45.449  37.192  33.525  1.00  0.00    -0.237 OA
ATOM     79  O   UNL A   1      44.326  38.036  31.498  1.00  0.00    -0.744 OA
ENDBRANCH  75  76
ENDBRANCH  56  70
BRANCH  57  80
ATOM     80  C   UNL A   1      42.585  23.623  27.735  1.00  0.00    -0.014 A 
ATOM     81  C   UNL A   1      42.805  23.385  26.367  1.00  0.00     0.010 A 
ATOM     82  C   UNL A   1      42.221  22.549  28.567  1.00  0.00     0.010 A 
ATOM     83  C   UNL A   1      42.651  22.100  25.839  1.00  0.00     0.020 A 
ATOM     84  C   UNL A   1      42.093  21.257  28.047  1.00  0.00     0.020 A 
ATOM     85  C   UNL A   1      42.300  21.043  26.683  1.00  0.00     0.054 A 
BRANCH  85  86
ATOM     86  S   UNL A   1      42.165  19.374  25.984  1.00  0.00     0.124 S 
ATOM     87  O   UNL A   1      43.029  19.465  24.812  1.00  0.00    -0.237 OA
ATOM     88  O   UNL A   1      42.660  18.536  27.073  1.00  0.00    -0.237 OA
ATOM     89  O   UNL A   1      40.737  19.236  25.703  1.00  0.00    -0.744 OA
ENDBRANCH  85  86
ENDBRANCH  57  80
BRANCH  69  90
ATOM     90  C   UNL A   1      48.064  27.193  30.161  1.00  0.00    -0.014 A 
ATOM     91  C   UNL A   1      49.002  27.576  29.186  1.00  0.00     0.010 A 
ATOM     92  C   UNL A   1      48.507  26.529  31.319  1.00  0.00     0.010 A 
ATOM     93  C   UNL A   1      50.357  27.280  29.356  1.00  0.00     0.020 A 
ATOM     94  C   UNL A   1      49.866  26.255  31.505  1.00  0.00     0.020 A 
ATOM     95  C   UNL A   1      50.781  26.622  30.516  1.00  0.00     0.054 A 
BRANCH  95  96
ATOM     96  S   UNL A   1      52.551  26.298  30.736  1.00  0.00     0.124 S 
ATOM     97  O   UNL A   1      52.986  26.042  29.366  1.00  0.00    -0.237 OA
ATOM     98  O   UNL A   1      53.034  27.544  31.327  1.00  0.00    -0.237 OA
ATOM     99  O   UNL A   1      52.583  25.139  31.626  1.00  0.00    -0.744 OA
ENDBRANCH  95  96
ENDBRANCH  69  90
ENDBRANCH  43  44
ENDBRANCH  35  38
ENDBRANCH  33  34
ENDBRANCH  32  33
ENDBRANCH   1  32
TORSDOF 18
ENDMDL
MODEL 2
REMARK VINA RESULT:     -11.5      3.314      8.121
REMARK SMILES CC[NH+]1CCC2(CC1)OC[C@@H](C(=O)NCCCCNC(=O)c1ccc(-c3c4nc(c(-c5ccc(S(=O)(=O)[O-])cc5)c5ccc([nH]5)c(-c5ccc(S(=O)(=O)[O-])cc5)c5nc(c(-c6ccc(S(=O)(=O)[O-])cc6)c6ccc3[nH]6)C=C5)C=C4)cc1)N2C(=O)c1ccc(Cl)c([N+](=O)[O-])c1
REMARK SMILES IDX 16 1 15 2 14 3 12 4 13 5 11 7 3 8 4 9 8 10 5 12 7 13 6 14
REMARK SMILES IDX 9 15 82 16 10 17 2 18 1 19 83 20 84 21 85 22 86 23 94 24
REMARK SMILES IDX 87 25 90 26 88 27 89 28 91 29 92 30 93 31 17 32 18 33 19 34
REMARK SMILES IDX 20 35 21 37 22 38 23 39 81 40 24 41 80 42 25 43 26 44 27 45
REMARK SMILES IDX 74 46 28 47 79 48 73 49 75 50 29 51 78 52 72 53 71 54 30 56
REMARK SMILES IDX 60 57 41 58 59 59 42 60 45 61 58 62 76 63 43 64 44 65 57 67
REMARK SMILES IDX 77 68 46 69 31 70 32 71 40 72 33 73 39 74 34 75 35 76 36 77
REMARK SMILES IDX 37 78 38 79 61 80 62 81 70 82 63 83 69 84 64 85 65 86 66 87
REMARK SMILES IDX 67 88 68 89 47 90 48 91 56 92 49 93 55 94 50 95 51 96 52 97
REMARK SMILES IDX 53 98 54 99
REMARK H PARENT 14 6 3 11 19 36 75 55 45 66
REMARK Flexibility Score: inf
ROOT
ATOM      1  C   UNL A   1      37.251  20.460  25.031  1.00  0.00     0.023 C 
ENDROOT
BRANCH   1   2
ATOM      2  C   UNL A   1      35.761  20.755  25.084  1.00  0.00     0.116 C 
BRANCH   2   3
ATOM      3  N   UNL A   1      35.399  21.384  26.331  1.00  0.00    -0.354 N 
ATOM      4  C   UNL A   1      34.812  22.589  26.560  1.00  0.00     0.245 C 
ATOM      5  O   UNL A   1      34.473  22.830  27.725  1.00  0.00    -0.273 OA
ATOM      6  H   UNL A   1      35.609  20.862  27.139  1.00  0.00     0.163 HD
BRANCH   4   7
ATOM      7  C   UNL A   1      34.328  23.502  25.422  1.00  0.00     0.203 C 
ATOM      8  N   UNL A   1      30.789  26.408  23.229  1.00  0.00    -0.335 N 
ATOM      9  C   UNL A   1      31.881  25.596  22.715  1.00  0.00     0.267 C 
ATOM     10  C   UNL A   1      30.683  26.553  24.683  1.00  0.00     0.267 C 
ATOM     11  H   UNL A   1      30.025  25.784  22.971  1.00  0.00     0.348 HD
ATOM     12  C   UNL A   1      33.173  25.700  23.480  1.00  0.00     0.120 C 
ATOM     13  C   UNL A   1      31.935  26.371  25.538  1.00  0.00     0.120 C 
ATOM     14  C   UNL A   1      32.989  25.423  24.978  1.00  0.00     0.155 C 
ATOM     15  O   UNL A   1      34.241  25.856  25.583  1.00  0.00    -0.352 OA
ATOM     16  N   UNL A   1      32.948  23.994  25.339  1.00  0.00    -0.295 N 
ATOM     17  C   UNL A   1      35.172  24.767  25.480  1.00  0.00     0.198 C 
BRANCH   8  18
ATOM     18  C   UNL A   1      30.519  27.670  22.537  1.00  0.00     0.258 C 
ATOM     19  C   UNL A   1      29.349  28.486  23.080  1.00  0.00     0.071 C 
ENDBRANCH   8  18
BRANCH  16  20
ATOM     20  C   UNL A   1      31.959  23.015  25.276  1.00  0.00     0.257 C 
ATOM     21  O   UNL A   1      30.919  23.095  25.929  1.00  0.00    -0.269 OA
BRANCH  20  22
ATOM     22  C   UNL A   1      32.048  21.832  24.403  1.00  0.00     0.047 A 
ATOM     23  C   UNL A   1      31.880  21.929  23.017  1.00  0.00     0.016 A 
ATOM     24  C   UNL A   1      32.179  20.570  24.984  1.00  0.00     0.101 A 
ATOM     25  C   UNL A   1      31.951  20.783  22.214  1.00  0.00     0.028 A 
ATOM     26  C   UNL A   1      32.375  19.444  24.166  1.00  0.00     0.288 A 
ATOM     27  C   UNL A   1      32.240  19.535  22.778  1.00  0.00     0.118 A 
ATOM     28  Cl  UNL A   1      32.365  18.197  21.695  1.00  0.00    -0.077 Cl
BRANCH  26  29
ATOM     29  N   UNL A   1      32.849  18.230  24.816  1.00  0.00     0.064 N 
ATOM     30  O   UNL A   1      32.051  17.596  25.520  1.00  0.00    -0.258 OA
ATOM     31  O   UNL A   1      34.003  17.864  24.556  1.00  0.00    -0.258 OA
ENDBRANCH  26  29
ENDBRANCH  20  22
ENDBRANCH  16  20
ENDBRANCH   4   7
ENDBRANCH   2   3
ENDBRANCH   1   2
BRANCH   1  32
ATOM     32  C   UNL A   1      38.164  21.661  25.258  1.00  0.00     0.023 C 
BRANCH  32  33
ATOM     33  C   UNL A   1      39.235  21.464  26.317  1.00  0.00     0.116 C 
BRANCH  33  34
ATOM     34  N   UNL A   1      39.990  20.230  26.138  1.00  0.00    -0.352 N 
ATOM     35  C   UNL A   1      41.352  20.053  26.102  1.00  0.00     0.251 C 
ATOM     36  H   UNL A   1      39.450  19.414  26.027  1.00  0.00     0.163 HD
ATOM     37  O   UNL A   1      41.827  18.961  25.800  1.00  0.00    -0.269 OA
BRANCH  35  38
ATOM     38  C   UNL A   1      42.232  21.203  26.391  1.00  0.00     0.039 A 
ATOM     39  C   UNL A   1      42.644  22.022  25.338  1.00  0.00     0.014 A 
ATOM     40  C   UNL A   1      42.577  21.513  27.710  1.00  0.00     0.014 A 
ATOM     41  C   UNL A   1      43.321  23.210  25.619  1.00  0.00     0.010 A 
ATOM     42  C   UNL A   1      43.179  22.733  27.991  1.00  0.00     0.010 A 
ATOM     43  C   UNL A   1      43.542  23.601  26.951  1.00  0.00    -0.014 A 
BRANCH  43  44
ATOM     44  C   UNL A   1      44.110  24.932  27.284  1.00  0.00     0.031 A 
ATOM     45  C   UNL A   1      43.213  26.037  27.767  1.00  0.00     0.074 A 
ATOM     46  C   UNL A   1      45.419  25.168  27.061  1.00  0.00     0.049 A 
ATOM     47  N   UNL A   1      43.507  27.288  28.012  1.00  0.00    -0.248 NA
ATOM     48  C   UNL A   1      41.796  25.699  27.978  1.00  0.00     0.031 C 
ATOM     49  C   UNL A   1      46.384  24.189  26.554  1.00  0.00     0.029 A 
ATOM     50  N   UNL A   1      46.162  26.311  27.218  1.00  0.00    -0.354 N 
ATOM     51  C   UNL A   1      42.314  27.889  28.391  1.00  0.00     0.074 A 
ATOM     52  C   UNL A   1      41.283  26.878  28.298  1.00  0.00     0.031 C 
ATOM     53  C   UNL A   1      47.592  24.766  26.462  1.00  0.00     0.029 A 
ATOM     54  C   UNL A   1      47.480  26.167  26.855  1.00  0.00     0.049 A 
ATOM     55  H   UNL A   1      45.786  27.155  27.559  1.00  0.00     0.167 HD
ATOM     56  C   UNL A   1      42.099  29.164  28.794  1.00  0.00     0.031 A 
ATOM     57  C   UNL A   1      48.485  27.065  26.821  1.00  0.00     0.031 A 
ATOM     58  C   UNL A   1      43.129  30.164  28.886  1.00  0.00     0.049 A 
ATOM     59  C   UNL A   1      48.214  28.483  27.241  1.00  0.00     0.074 A 
ATOM     60  C   UNL A   1      43.023  31.466  29.345  1.00  0.00     0.029 A 
ATOM     61  N   UNL A   1      44.450  29.980  28.506  1.00  0.00    -0.354 N 
ATOM     62  N   UNL A   1      47.092  29.014  27.669  1.00  0.00    -0.248 NA
ATOM     63  C   UNL A   1      49.340  29.423  27.174  1.00  0.00     0.031 C 
ATOM     64  C   UNL A   1      44.266  32.086  29.185  1.00  0.00     0.029 A 
ATOM     65  C   UNL A   1      45.161  31.155  28.682  1.00  0.00     0.049 A 
ATOM     66  H   UNL A   1      44.826  29.138  28.161  1.00  0.00     0.167 HD
ATOM     67  C   UNL A   1      47.383  30.347  27.933  1.00  0.00     0.074 A 
ATOM     68  C   UNL A   1      48.790  30.535  27.642  1.00  0.00     0.031 C 
ATOM     69  C   UNL A   1      46.558  31.329  28.374  1.00  0.00     0.031 A 
BRANCH  56  70
ATOM     70  C   UNL A   1      40.690  29.550  29.158  1.00  0.00    -0.014 A 
ATOM     71  C   UNL A   1      39.708  29.731  28.167  1.00  0.00     0.010 A 
ATOM     72  C   UNL A   1      40.332  29.695  30.511  1.00  0.00     0.010 A 
ATOM     73  C   UNL A   1      38.404  30.089  28.521  1.00  0.00     0.020 A 
ATOM     74  C   UNL A   1      39.022  30.025  30.869  1.00  0.00     0.020 A 
ATOM     75  C   UNL A   1      38.070  30.236  29.870  1.00  0.00     0.054 A 
BRANCH  75  76
ATOM     76  S   UNL A   1      36.364  30.679  30.299  1.00  0.00     0.124 S 
ATOM     77  O   UNL A   1      35.657  30.385  29.055  1.00  0.00    -0.237 OA
ATOM     78  O   UNL A   1      36.072  29.782  31.415  1.00  0.00    -0.237 OA
ATOM     79  O   UNL A   1      36.450  32.095  30.646  1.00  0.00    -0.744 OA
ENDBRANCH  75  76
ENDBRANCH  56  70
BRANCH  57  80
ATOM     80  C   UNL A   1      49.840  26.648  26.368  1.00  0.00    -0.014 A 
ATOM     81  C   UNL A   1      50.727  26.019  27.258  1.00  0.00     0.010 A 
ATOM     82  C   UNL A   1      50.245  26.867  25.037  1.00  0.00     0.010 A 
ATOM     83  C   UNL A   1      52.000  25.626  26.829  1.00  0.00     0.020 A 
ATOM     84  C   UNL A   1      51.505  26.451  24.599  1.00  0.00     0.020 A 
ATOM     85  C   UNL A   1      52.379  25.841  25.502  1.00  0.00     0.054 A 
BRANCH  85  86
ATOM     86  S   UNL A   1      54.012  25.270  24.956  1.00  0.00     0.124 S 
ATOM     87  O   UNL A   1      53.833  23.822  24.928  1.00  0.00    -0.237 OA
ATOM     88  O   UNL A   1      54.152  25.915  23.654  1.00  0.00    -0.237 OA
ATOM     89  O   UNL A   1      54.913  25.771  25.991  1.00  0.00    -0.744 OA
ENDBRANCH  85  86
ENDBRANCH  57  80
BRANCH  69  90
ATOM     90  C   UNL A   1      47.156  32.696  28.573  1.00  0.00    -0.014 A 
ATOM     91  C   UNL A   1      47.765  33.047  29.791  1.00  0.00     0.010 A 
ATOM     92  C   UNL A   1      47.162  33.617  27.511  1.00  0.00     0.010 A 
ATOM     93  C   UNL A   1      48.349  34.306  29.950  1.00  0.00     0.020 A 
ATOM     94  C   UNL A   1      47.770  34.868  27.658  1.00  0.00     0.020 A 
ATOM     95  C   UNL A   1      48.350  35.209  28.881  1.00  0.00     0.054 A 
BRANCH  95  96
ATOM     96  S   UNL A   1      49.162  36.815  29.098  1.00  0.00     0.124 S 
ATOM     97  O   UNL A   1      49.432  36.828  30.532  1.00  0.00    -0.237 OA
ATOM     98  O   UNL A   1      50.337  36.699  28.238  1.00  0.00    -0.237 OA
ATOM     99  O   UNL A   1      48.158  37.775  28.644  1.00  0.00    -0.744 OA
ENDBRANCH  95  96
ENDBRANCH  69  90
ENDBRANCH  43  44
ENDBRANCH  35  38
ENDBRANCH  33  34
ENDBRANCH  32  33
ENDBRANCH   1  32
TORSDOF 18
ENDMDL
MODEL 3
REMARK VINA RESULT:     -11.4      3.237      9.118
REMARK SMILES CC[NH+]1CCC2(CC1)OC[C@@H](C(=O)NCCCCNC(=O)c1ccc(-c3c4nc(c(-c5ccc(S(=O)(=O)[O-])cc5)c5ccc([nH]5)c(-c5ccc(S(=O)(=O)[O-])cc5)c5nc(c(-c6ccc(S(=O)(=O)[O-])cc6)c6ccc3[nH]6)C=C5)C=C4)cc1)N2C(=O)c1ccc(Cl)c([N+](=O)[O-])c1
REMARK SMILES IDX 16 1 15 2 14 3 12 4 13 5 11 7 3 8 4 9 8 10 5 12 7 13 6 14
REMARK SMILES IDX 9 15 82 16 10 17 2 18 1 19 83 20 84 21 85 22 86 23 94 24
REMARK SMILES IDX 87 25 90 26 88 27 89 28 91 29 92 30 93 31 17 32 18 33 19 34
REMARK SMILES IDX 20 35 21 37 22 38 23 39 81 40 24 41 80 42 25 43 26 44 27 45
REMARK SMILES IDX 74 46 28 47 79 48 73 49 75 50 29 51 78 52 72 53 71 54 30 56
REMARK SMILES IDX 60 57 41 58 59 59 42 60 45 61 58 62 76 63 43 64 44 65 57 67
REMARK SMILES IDX 77 68 46 69 31 70 32 71 40 72 33 73 39 74 34 75 35 76 36 77
REMARK SMILES IDX 37 78 38 79 61 80 62 81 70 82 63 83 69 84 64 85 65 86 66 87
REMARK SMILES IDX 67 88 68 89 47 90 48 91 56 92 49 93 55 94 50 95 51 96 52 97
REMARK SMILES IDX 53 98 54 99
REMARK H PARENT 14 6 3 11 19 36 75 55 45 66
REMARK Flexibility Score: inf
ROOT
ATOM      1  C   UNL A   1      37.418  21.351  24.955  1.00  0.00     0.023 C 
ENDROOT
BRANCH   1   2
ATOM      2  C   UNL A   1      35.933  21.081  25.136  1.00  0.00     0.116 C 
BRANCH   2   3
ATOM      3  N   UNL A   1      35.457  21.619  26.388  1.00  0.00    -0.354 N 
ATOM      4  C   UNL A   1      34.745  22.752  26.634  1.00  0.00     0.245 C 
ATOM      5  O   UNL A   1      34.333  22.910  27.789  1.00  0.00    -0.273 OA
ATOM      6  H   UNL A   1      35.680  21.085  27.184  1.00  0.00     0.163 HD
BRANCH   4   7
ATOM      7  C   UNL A   1      34.226  23.662  25.508  1.00  0.00     0.203 C 
ATOM      8  N   UNL A   1      30.584  26.476  23.366  1.00  0.00    -0.335 N 
ATOM      9  C   UNL A   1      31.700  25.707  22.837  1.00  0.00     0.267 C 
ATOM     10  C   UNL A   1      30.479  26.599  24.822  1.00  0.00     0.267 C 
ATOM     11  H   UNL A   1      29.839  25.830  23.103  1.00  0.00     0.348 HD
ATOM     12  C   UNL A   1      32.990  25.844  23.599  1.00  0.00     0.120 C 
ATOM     13  C   UNL A   1      31.740  26.449  25.670  1.00  0.00     0.120 C 
ATOM     14  C   UNL A   1      32.822  25.543  25.094  1.00  0.00     0.155 C 
ATOM     15  O   UNL A   1      34.061  26.009  25.699  1.00  0.00    -0.352 OA
ATOM     16  N   UNL A   1      32.830  24.109  25.437  1.00  0.00    -0.295 N 
ATOM     17  C   UNL A   1      35.028  24.954  25.579  1.00  0.00     0.198 C 
BRANCH   8  18
ATOM     18  C   UNL A   1      30.269  27.737  22.690  1.00  0.00     0.258 C 
ATOM     19  C   UNL A   1      30.385  28.993  23.548  1.00  0.00     0.071 C 
ENDBRANCH   8  18
BRANCH  16  20
ATOM     20  C   UNL A   1      31.873  23.099  25.366  1.00  0.00     0.257 C 
ATOM     21  O   UNL A   1      30.829  23.142  26.014  1.00  0.00    -0.269 OA
BRANCH  20  22
ATOM     22  C   UNL A   1      32.006  21.922  24.489  1.00  0.00     0.047 A 
ATOM     23  C   UNL A   1      31.852  22.020  23.102  1.00  0.00     0.016 A 
ATOM     24  C   UNL A   1      32.163  20.661  25.067  1.00  0.00     0.101 A 
ATOM     25  C   UNL A   1      31.965  20.881  22.294  1.00  0.00     0.028 A 
ATOM     26  C   UNL A   1      32.400  19.545  24.246  1.00  0.00     0.288 A 
ATOM     27  C   UNL A   1      32.279  19.638  22.857  1.00  0.00     0.118 A 
ATOM     28  Cl  UNL A   1      32.454  18.310  21.770  1.00  0.00    -0.077 Cl
BRANCH  26  29
ATOM     29  N   UNL A   1      32.898  18.341  24.897  1.00  0.00     0.064 N 
ATOM     30  O   UNL A   1      32.095  17.650  25.538  1.00  0.00    -0.258 OA
ATOM     31  O   UNL A   1      34.083  18.041  24.698  1.00  0.00    -0.258 OA
ENDBRANCH  26  29
ENDBRANCH  20  22
ENDBRANCH  16  20
ENDBRANCH   4   7
ENDBRANCH   2   3
ENDBRANCH   1   2
BRANCH   1  32
ATOM     32  C   UNL A   1      38.331  20.145  25.149  1.00  0.00     0.023 C 
BRANCH  32  33
ATOM     33  C   UNL A   1      39.584  20.410  25.966  1.00  0.00     0.116 C 
BRANCH  33  34
ATOM     34  N   UNL A   1      40.470  19.256  26.036  1.00  0.00    -0.352 N 
ATOM     35  C   UNL A   1      41.839  19.229  26.151  1.00  0.00     0.251 C 
ATOM     36  H   UNL A   1      40.028  18.377  25.995  1.00  0.00     0.163 HD
ATOM     37  O   UNL A   1      42.449  18.167  26.054  1.00  0.00    -0.269 OA
BRANCH  35  38
ATOM     38  C   UNL A   1      42.567  20.499  26.350  1.00  0.00     0.039 A 
ATOM     39  C   UNL A   1      43.116  21.147  25.242  1.00  0.00     0.014 A 
ATOM     40  C   UNL A   1      42.630  21.082  27.619  1.00  0.00     0.014 A 
ATOM     41  C   UNL A   1      43.643  22.430  25.391  1.00  0.00     0.010 A 
ATOM     42  C   UNL A   1      43.082  22.390  27.749  1.00  0.00     0.010 A 
ATOM     43  C   UNL A   1      43.578  23.083  26.634  1.00  0.00    -0.014 A 
BRANCH  43  44
ATOM     44  C   UNL A   1      43.979  24.504  26.785  1.00  0.00     0.031 A 
ATOM     45  C   UNL A   1      45.421  24.902  26.641  1.00  0.00     0.074 A 
ATOM     46  C   UNL A   1      43.055  25.419  27.145  1.00  0.00     0.049 A 
ATOM     47  N   UNL A   1      45.975  26.071  26.834  1.00  0.00    -0.248 NA
ATOM     48  C   UNL A   1      46.367  23.844  26.253  1.00  0.00     0.031 C 
ATOM     49  C   UNL A   1      41.630  25.147  27.357  1.00  0.00     0.029 A 
ATOM     50  N   UNL A   1      43.178  26.759  27.411  1.00  0.00    -0.354 N 
ATOM     51  C   UNL A   1      47.332  25.887  26.607  1.00  0.00     0.074 A 
ATOM     52  C   UNL A   1      47.525  24.485  26.307  1.00  0.00     0.031 C 
ATOM     53  C   UNL A   1      41.011  26.288  27.700  1.00  0.00     0.029 A 
ATOM     54  C   UNL A   1      41.997  27.360  27.780  1.00  0.00     0.049 A 
ATOM     55  H   UNL A   1      44.032  27.245  27.344  1.00  0.00     0.167 HD
ATOM     56  C   UNL A   1      48.328  26.806  26.630  1.00  0.00     0.031 A 
ATOM     57  C   UNL A   1      41.738  28.627  28.160  1.00  0.00     0.031 A 
ATOM     58  C   UNL A   1      48.129  28.200  26.926  1.00  0.00     0.049 A 
ATOM     59  C   UNL A   1      42.865  29.621  28.211  1.00  0.00     0.074 A 
ATOM     60  C   UNL A   1      49.063  29.222  26.913  1.00  0.00     0.029 A 
ATOM     61  N   UNL A   1      46.920  28.768  27.299  1.00  0.00    -0.354 N 
ATOM     62  N   UNL A   1      44.132  29.444  27.919  1.00  0.00    -0.248 NA
ATOM     63  C   UNL A   1      42.529  30.983  28.644  1.00  0.00     0.031 C 
ATOM     64  C   UNL A   1      48.430  30.396  27.334  1.00  0.00     0.029 A 
ATOM     65  C   UNL A   1      47.090  30.118  27.555  1.00  0.00     0.049 A 
ATOM     66  H   UNL A   1      46.067  28.282  27.370  1.00  0.00     0.167 HD
ATOM     67  C   UNL A   1      44.741  30.676  28.121  1.00  0.00     0.074 A 
ATOM     68  C   UNL A   1      43.700  31.596  28.535  1.00  0.00     0.031 C 
ATOM     69  C   UNL A   1      46.046  31.016  27.980  1.00  0.00     0.031 A 
BRANCH  56  70
ATOM     70  C   UNL A   1      49.723  26.328  26.335  1.00  0.00    -0.014 A 
ATOM     71  C   UNL A   1      50.287  26.478  25.055  1.00  0.00     0.010 A 
ATOM     72  C   UNL A   1      50.499  25.756  27.361  1.00  0.00     0.010 A 
ATOM     73  C   UNL A   1      51.586  26.029  24.796  1.00  0.00     0.020 A 
ATOM     74  C   UNL A   1      51.807  25.333  27.113  1.00  0.00     0.020 A 
ATOM     75  C   UNL A   1      52.336  25.457  25.827  1.00  0.00     0.054 A 
BRANCH  75  76
ATOM     76  S   UNL A   1      54.026  24.905  25.466  1.00  0.00     0.124 S 
ATOM     77  O   UNL A   1      53.858  23.456  25.387  1.00  0.00    -0.237 OA
ATOM     78  O   UNL A   1      54.317  25.572  24.200  1.00  0.00    -0.237 OA
ATOM     79  O   UNL A   1      54.799  25.380  26.611  1.00  0.00    -0.744 OA
ENDBRANCH  75  76
ENDBRANCH  56  70
BRANCH  57  80
ATOM     80  C   UNL A   1      40.351  29.024  28.527  1.00  0.00    -0.014 A 
ATOM     81  C   UNL A   1      39.427  29.387  27.532  1.00  0.00     0.010 A 
ATOM     82  C   UNL A   1      39.944  29.027  29.874  1.00  0.00     0.010 A 
ATOM     83  C   UNL A   1      38.123  29.758  27.879  1.00  0.00     0.020 A 
ATOM     84  C   UNL A   1      38.634  29.371  30.221  1.00  0.00     0.020 A 
ATOM     85  C   UNL A   1      37.734  29.744  29.220  1.00  0.00     0.054 A 
BRANCH  85  86
ATOM     86  S   UNL A   1      36.021  30.173  29.639  1.00  0.00     0.124 S 
ATOM     87  O   UNL A   1      35.271  29.460  28.610  1.00  0.00    -0.237 OA
ATOM     88  O   UNL A   1      35.889  29.650  30.996  1.00  0.00    -0.237 OA
ATOM     89  O   UNL A   1      35.999  31.630  29.536  1.00  0.00    -0.744 OA
ENDBRANCH  85  86
ENDBRANCH  57  80
BRANCH  69  90
ATOM     90  C   UNL A   1      46.424  32.444  28.271  1.00  0.00    -0.014 A 
ATOM     91  C   UNL A   1      46.857  32.829  29.552  1.00  0.00     0.010 A 
ATOM     92  C   UNL A   1      46.405  33.397  27.237  1.00  0.00     0.010 A 
ATOM     93  C   UNL A   1      47.241  34.149  29.799  1.00  0.00     0.020 A 
ATOM     94  C   UNL A   1      46.814  34.712  27.474  1.00  0.00     0.020 A 
ATOM     95  C   UNL A   1      47.219  35.083  28.758  1.00  0.00     0.054 A 
BRANCH  95  96
ATOM     96  S   UNL A   1      47.774  36.776  29.094  1.00  0.00     0.124 S 
ATOM     97  O   UNL A   1      48.422  37.138  27.837  1.00  0.00    -0.237 OA
ATOM     98  O   UNL A   1      46.523  37.473  29.381  1.00  0.00    -0.237 OA
ATOM     99  O   UNL A   1      48.672  36.625  30.237  1.00  0.00    -0.744 OA
ENDBRANCH  95  96
ENDBRANCH  69  90
ENDBRANCH  43  44
ENDBRANCH  35  38
ENDBRANCH  33  34
ENDBRANCH  32  33
ENDBRANCH   1  32
TORSDOF 18
ENDMDL
