MODEL 1
REMARK VINA RESULT:     -11.4      0.000      0.000
REMARK SMILES COc1ccc(-c2nc(NCC(=O)NCCCCNC(=O)c3ccc(-c4c5nc(c(-c6ccc(S(=O)(=O)[O-])cc6)c6ccc([nH]6)c(-c6ccc(S(=O)(=O)[O-])cc6)c6nc(c(-c7ccc(S(=O)(=O)[O-])cc7)c7ccc4[nH]7)C=C6)C=C5)cc3)sc2-c2ccc(OC)cc2)cc1
REMARK SMILES IDX 16 1 15 2 14 3 12 4 13 5 11 7 10 8 9 10 7 11 8 12 83 13
REMARK SMILES IDX 82 14 6 15 3 16 4 17 93 18 5 19 92 20 2 21 1 22 84 23 85 24
REMARK SMILES IDX 91 25 86 26 90 27 87 28 88 29 89 30 17 31 18 32 19 33 20 34
REMARK SMILES IDX 21 36 22 37 23 38 81 39 24 40 80 41 25 42 26 43 27 44 74 45
REMARK SMILES IDX 28 46 79 47 73 48 75 49 29 50 78 51 72 52 71 53 30 55 60 56
REMARK SMILES IDX 41 57 59 58 42 59 45 60 58 61 76 62 43 63 44 64 57 66 77 67
REMARK SMILES IDX 46 68 31 69 32 70 40 71 33 72 39 73 34 74 35 75 36 76 37 77
REMARK SMILES IDX 38 78 61 79 62 80 70 81 63 82 69 83 64 84 65 85 66 86 67 87
REMARK SMILES IDX 68 88 47 89 48 90 56 91 49 92 55 93 50 94 51 95 52 96 53 97
REMARK SMILES IDX 54 98
REMARK H PARENT 14 6 10 9 19 35 75 54 45 65
REMARK Flexibility Score: inf
ROOT
ATOM      1  C   UNL A   1      33.629  28.210  27.179  1.00  0.00     0.023 C 
ENDROOT
BRANCH   1   2
ATOM      2  C   UNL A   1      32.444  27.990  26.243  1.00  0.00     0.116 C 
BRANCH   2   3
ATOM      3  N   UNL A   1      31.624  26.874  26.671  1.00  0.00    -0.355 N 
ATOM      4  C   UNL A   1      30.577  26.288  26.010  1.00  0.00     0.239 C 
ATOM      5  O   UNL A   1      29.959  25.383  26.573  1.00  0.00    -0.273 OA
ATOM      6  H   UNL A   1      31.847  26.488  27.547  1.00  0.00     0.163 HD
BRANCH   4   7
ATOM      7  C   UNL A   1      30.228  26.729  24.584  1.00  0.00     0.215 C 
BRANCH   7   8
ATOM      8  N   UNL A   1      31.180  26.218  23.613  1.00  0.00    -0.352 N 
ATOM      9  H   UNL A   1      31.367  26.783  22.829  1.00  0.00     0.163 HD
BRANCH   8  10
ATOM     10  C   UNL A   1      31.832  25.039  23.691  1.00  0.00     0.184 A 
ATOM     11  C   UNL A   1      33.494  23.661  24.203  1.00  0.00     0.091 A 
ATOM     12  N   UNL A   1      33.071  24.977  24.120  1.00  0.00    -0.220 NA
ATOM     13  C   UNL A   1      32.529  22.709  23.911  1.00  0.00     0.064 A 
ATOM     14  S   UNL A   1      31.146  23.508  23.294  1.00  0.00    -0.096 S 
BRANCH  11  15
ATOM     15  C   UNL A   1      34.859  23.333  24.588  1.00  0.00     0.002 A 
ATOM     16  C   UNL A   1      37.482  22.649  25.331  1.00  0.00     0.118 A 
ATOM     17  C   UNL A   1      36.991  22.300  24.072  1.00  0.00     0.047 A 
ATOM     18  C   UNL A   1      36.667  23.363  26.211  1.00  0.00     0.047 A 
ATOM     19  C   UNL A   1      35.688  22.634  23.702  1.00  0.00     0.014 A 
ATOM     20  C   UNL A   1      35.360  23.712  25.837  1.00  0.00     0.014 A 
BRANCH  16  21
ATOM     21  O   UNL A   1      38.774  22.265  25.563  1.00  0.00    -0.497 OA
ATOM     22  C   UNL A   1      39.428  22.893  26.658  1.00  0.00     0.278 C 
ENDBRANCH  16  21
ENDBRANCH  11  15
BRANCH  13  23
ATOM     23  C   UNL A   1      32.529  21.255  24.076  1.00  0.00    -0.006 A 
ATOM     24  C   UNL A   1      32.285  20.392  23.003  1.00  0.00     0.013 A 
ATOM     25  C   UNL A   1      32.785  20.701  25.339  1.00  0.00     0.013 A 
ATOM     26  C   UNL A   1      32.312  19.006  23.193  1.00  0.00     0.047 A 
ATOM     27  C   UNL A   1      32.812  19.315  25.527  1.00  0.00     0.047 A 
ATOM     28  C   UNL A   1      32.585  18.461  24.449  1.00  0.00     0.118 A 
BRANCH  28  29
ATOM     29  O   UNL A   1      32.600  17.095  24.492  1.00  0.00    -0.497 OA
ATOM     30  C   UNL A   1      33.087  16.500  25.690  1.00  0.00     0.278 C 
ENDBRANCH  28  29
ENDBRANCH  13  23
ENDBRANCH   8  10
ENDBRANCH   7   8
ENDBRANCH   4   7
ENDBRANCH   2   3
ENDBRANCH   1   2
BRANCH   1  31
ATOM     31  C   UNL A   1      34.286  29.588  27.041  1.00  0.00     0.023 C 
BRANCH  31  32
ATOM     32  C   UNL A   1      35.620  29.747  27.766  1.00  0.00     0.116 C 
BRANCH  32  33
ATOM     33  N   UNL A   1      35.476  30.196  29.142  1.00  0.00    -0.352 N 
ATOM     34  C   UNL A   1      36.449  30.335  30.103  1.00  0.00     0.251 C 
ATOM     35  H   UNL A   1      34.562  30.429  29.421  1.00  0.00     0.163 HD
ATOM     36  O   UNL A   1      36.137  30.610  31.258  1.00  0.00    -0.269 OA
BRANCH  34  37
ATOM     37  C   UNL A   1      37.866  30.113  29.743  1.00  0.00     0.039 A 
ATOM     38  C   UNL A   1      38.785  29.837  30.758  1.00  0.00     0.014 A 
ATOM     39  C   UNL A   1      38.281  30.149  28.409  1.00  0.00     0.014 A 
ATOM     40  C   UNL A   1      40.106  29.526  30.428  1.00  0.00     0.010 A 
ATOM     41  C   UNL A   1      39.579  29.773  28.079  1.00  0.00     0.010 A 
ATOM     42  C   UNL A   1      40.505  29.455  29.084  1.00  0.00    -0.014 A 
BRANCH  42  43
ATOM     43  C   UNL A   1      41.880  29.035  28.708  1.00  0.00     0.031 A 
ATOM     44  C   UNL A   1      42.999  30.039  28.678  1.00  0.00     0.074 A 
ATOM     45  C   UNL A   1      42.106  27.762  28.327  1.00  0.00     0.049 A 
ATOM     46  N   UNL A   1      44.246  29.871  28.321  1.00  0.00    -0.248 NA
ATOM     47  C   UNL A   1      42.667  31.415  29.080  1.00  0.00     0.031 C 
ATOM     48  C   UNL A   1      41.096  26.701  28.270  1.00  0.00     0.029 A 
ATOM     49  N   UNL A   1      43.257  27.145  27.905  1.00  0.00    -0.354 N 
ATOM     50  C   UNL A   1      44.844  31.121  28.437  1.00  0.00     0.074 A 
ATOM     51  C   UNL A   1      43.810  32.046  28.851  1.00  0.00     0.031 C 
ATOM     52  C   UNL A   1      41.679  25.561  27.865  1.00  0.00     0.029 A 
ATOM     53  C   UNL A   1      43.090  25.815  27.596  1.00  0.00     0.049 A 
ATOM     54  H   UNL A   1      44.121  27.611  27.831  1.00  0.00     0.167 HD
ATOM     55  C   UNL A   1      46.138  31.466  28.234  1.00  0.00     0.031 A 
ATOM     56  C   UNL A   1      43.972  24.903  27.141  1.00  0.00     0.031 A 
ATOM     57  C   UNL A   1      47.166  30.544  27.830  1.00  0.00     0.049 A 
ATOM     58  C   UNL A   1      45.402  25.310  26.918  1.00  0.00     0.074 A 
ATOM     59  C   UNL A   1      48.517  30.787  27.653  1.00  0.00     0.029 A 
ATOM     60  N   UNL A   1      46.958  29.205  27.537  1.00  0.00    -0.354 N 
ATOM     61  N   UNL A   1      45.962  26.483  27.095  1.00  0.00    -0.248 NA
ATOM     62  C   UNL A   1      46.322  24.266  26.445  1.00  0.00     0.031 C 
ATOM     63  C   UNL A   1      49.119  29.603  27.207  1.00  0.00     0.029 A 
ATOM     64  C   UNL A   1      48.152  28.612  27.160  1.00  0.00     0.049 A 
ATOM     65  H   UNL A   1      46.091  28.743  27.591  1.00  0.00     0.167 HD
ATOM     66  C   UNL A   1      47.305  26.313  26.780  1.00  0.00     0.074 A 
ATOM     67  C   UNL A   1      47.476  24.921  26.413  1.00  0.00     0.031 C 
ATOM     68  C   UNL A   1      48.307  27.226  26.795  1.00  0.00     0.031 A 
BRANCH  55  69
ATOM     69  C   UNL A   1      46.509  32.912  28.441  1.00  0.00    -0.014 A 
ATOM     70  C   UNL A   1      46.418  33.844  27.391  1.00  0.00     0.010 A 
ATOM     71  C   UNL A   1      46.931  33.351  29.709  1.00  0.00     0.010 A 
ATOM     72  C   UNL A   1      46.792  35.174  27.590  1.00  0.00     0.020 A 
ATOM     73  C   UNL A   1      47.278  34.688  29.921  1.00  0.00     0.020 A 
ATOM     74  C   UNL A   1      47.227  35.587  28.853  1.00  0.00     0.054 A 
BRANCH  74  75
ATOM     75  S   UNL A   1      47.701  37.322  29.086  1.00  0.00     0.124 S 
ATOM     76  O   UNL A   1      47.433  37.885  27.764  1.00  0.00    -0.237 OA
ATOM     77  O   UNL A   1      46.803  37.762  30.149  1.00  0.00    -0.237 OA
ATOM     78  O   UNL A   1      49.112  37.249  29.456  1.00  0.00    -0.744 OA
ENDBRANCH  74  75
ENDBRANCH  55  69
BRANCH  56  79
ATOM     79  C   UNL A   1      43.526  23.506  26.891  1.00  0.00    -0.014 A 
ATOM     80  C   UNL A   1      43.199  22.661  27.965  1.00  0.00     0.010 A 
ATOM     81  C   UNL A   1      43.403  23.020  25.576  1.00  0.00     0.010 A 
ATOM     82  C   UNL A   1      42.766  21.353  27.732  1.00  0.00     0.020 A 
ATOM     83  C   UNL A   1      42.945  21.720  25.338  1.00  0.00     0.020 A 
ATOM     84  C   UNL A   1      42.638  20.891  26.419  1.00  0.00     0.054 A 
BRANCH  84  85
ATOM     85  S   UNL A   1      42.013  19.211  26.138  1.00  0.00     0.124 S 
ATOM     86  O   UNL A   1      42.373  18.541  27.383  1.00  0.00    -0.237 OA
ATOM     87  O   UNL A   1      40.584  19.437  25.931  1.00  0.00    -0.237 OA
ATOM     88  O   UNL A   1      42.744  18.769  24.953  1.00  0.00    -0.744 OA
ENDBRANCH  84  85
ENDBRANCH  56  79
BRANCH  68  89
ATOM     89  C   UNL A   1      49.687  26.747  26.435  1.00  0.00    -0.014 A 
ATOM     90  C   UNL A   1      50.537  26.180  27.400  1.00  0.00     0.010 A 
ATOM     91  C   UNL A   1      50.119  26.816  25.097  1.00  0.00     0.010 A 
ATOM     92  C   UNL A   1      51.805  25.717  27.039  1.00  0.00     0.020 A 
ATOM     93  C   UNL A   1      51.375  26.331  24.727  1.00  0.00     0.020 A 
ATOM     94  C   UNL A   1      52.217  25.796  25.705  1.00  0.00     0.054 A 
BRANCH  94  95
ATOM     95  S   UNL A   1      53.849  25.147  25.252  1.00  0.00     0.124 S 
ATOM     96  O   UNL A   1      54.238  26.037  24.163  1.00  0.00    -0.237 OA
ATOM     97  O   UNL A   1      54.610  25.299  26.490  1.00  0.00    -0.237 OA
ATOM     98  O   UNL A   1      53.576  23.765  24.862  1.00  0.00    -0.744 OA
ENDBRANCH  94  95
ENDBRANCH  68  89
ENDBRANCH  42  43
ENDBRANCH  34  37
ENDBRANCH  32  33
ENDBRANCH  31  32
ENDBRANCH   1  31
TORSDOF 20
ENDMDL
MODEL 2
REMARK VINA RESULT:     -11.4      6.246     11.985
REMARK SMILES COc1ccc(-c2nc(NCC(=O)NCCCCNC(=O)c3ccc(-c4c5nc(c(-c6ccc(S(=O)(=O)[O-])cc6)c6ccc([nH]6)c(-c6ccc(S(=O)(=O)[O-])cc6)c6nc(c(-c7ccc(S(=O)(=O)[O-])cc7)c7ccc4[nH]7)C=C6)C=C5)cc3)sc2-c2ccc(OC)cc2)cc1
REMARK SMILES IDX 16 1 15 2 14 3 12 4 13 5 11 7 10 8 9 10 7 11 8 12 83 13
REMARK SMILES IDX 82 14 6 15 3 16 4 17 93 18 5 19 92 20 2 21 1 22 84 23 85 24
REMARK SMILES IDX 91 25 86 26 90 27 87 28 88 29 89 30 17 31 18 32 19 33 20 34
REMARK SMILES IDX 21 36 22 37 23 38 81 39 24 40 80 41 25 42 26 43 27 44 74 45
REMARK SMILES IDX 28 46 79 47 73 48 75 49 29 50 78 51 72 52 71 53 30 55 60 56
REMARK SMILES IDX 41 57 59 58 42 59 45 60 58 61 76 62 43 63 44 64 57 66 77 67
REMARK SMILES IDX 46 68 31 69 32 70 40 71 33 72 39 73 34 74 35 75 36 76 37 77
REMARK SMILES IDX 38 78 61 79 62 80 70 81 63 82 69 83 64 84 65 85 66 86 67 87
REMARK SMILES IDX 68 88 47 89 48 90 56 91 49 92 55 93 50 94 51 95 52 96 53 97
REMARK SMILES IDX 54 98
REMARK H PARENT 14 6 10 9 19 35 75 54 45 65
REMARK Flexibility Score: inf
ROOT
ATOM      1  C   UNL A   1      37.340  22.614  25.227  1.00  0.00     0.023 C 
ENDROOT
BRANCH   1   2
ATOM      2  C   UNL A   1      35.967  22.125  24.770  1.00  0.00     0.116 C 
BRANCH   2   3
ATOM      3  N   UNL A   1      35.459  22.913  23.665  1.00  0.00    -0.355 N 
ATOM      4  C   UNL A   1      34.199  22.907  23.128  1.00  0.00     0.239 C 
ATOM      5  O   UNL A   1      33.977  23.610  22.140  1.00  0.00    -0.273 OA
ATOM      6  H   UNL A   1      36.100  23.531  23.247  1.00  0.00     0.163 HD
BRANCH   4   7
ATOM      7  C   UNL A   1      33.090  22.076  23.784  1.00  0.00     0.215 C 
BRANCH   7   8
ATOM      8  N   UNL A   1      32.404  22.820  24.827  1.00  0.00    -0.352 N 
ATOM      9  H   UNL A   1      32.181  22.332  25.652  1.00  0.00     0.163 HD
BRANCH   8  10
ATOM     10  C   UNL A   1      32.047  24.119  24.764  1.00  0.00     0.184 A 
ATOM     11  C   UNL A   1      32.171  26.290  25.211  1.00  0.00     0.091 A 
ATOM     12  N   UNL A   1      32.635  25.021  25.516  1.00  0.00    -0.220 NA
ATOM     13  C   UNL A   1      31.277  26.356  24.153  1.00  0.00     0.064 A 
ATOM     14  S   UNL A   1      30.845  24.761  23.706  1.00  0.00    -0.096 S 
BRANCH  11  15
ATOM     15  C   UNL A   1      32.622  27.454  25.959  1.00  0.00     0.002 A 
ATOM     16  C   UNL A   1      33.515  29.671  27.438  1.00  0.00     0.118 A 
ATOM     17  C   UNL A   1      34.432  28.819  26.821  1.00  0.00     0.047 A 
ATOM     18  C   UNL A   1      32.148  29.428  27.293  1.00  0.00     0.047 A 
ATOM     19  C   UNL A   1      33.991  27.715  26.091  1.00  0.00     0.014 A 
ATOM     20  C   UNL A   1      31.702  28.327  26.548  1.00  0.00     0.014 A 
BRANCH  16  21
ATOM     21  O   UNL A   1      34.078  30.716  28.117  1.00  0.00    -0.497 OA
ATOM     22  C   UNL A   1      35.239  31.293  27.533  1.00  0.00     0.278 C 
ENDBRANCH  16  21
ENDBRANCH  11  15
BRANCH  13  23
ATOM     23  C   UNL A   1      30.733  27.500  23.421  1.00  0.00    -0.006 A 
ATOM     24  C   UNL A   1      31.555  28.370  22.697  1.00  0.00     0.013 A 
ATOM     25  C   UNL A   1      29.350  27.738  23.436  1.00  0.00     0.013 A 
ATOM     26  C   UNL A   1      30.998  29.442  21.993  1.00  0.00     0.047 A 
ATOM     27  C   UNL A   1      28.796  28.811  22.730  1.00  0.00     0.047 A 
ATOM     28  C   UNL A   1      29.620  29.663  21.997  1.00  0.00     0.118 A 
BRANCH  28  29
ATOM     29  O   UNL A   1      29.206  30.734  21.253  1.00  0.00    -0.497 OA
ATOM     30  C   UNL A   1      27.807  30.847  21.022  1.00  0.00     0.278 C 
ENDBRANCH  28  29
ENDBRANCH  13  23
ENDBRANCH   8  10
ENDBRANCH   7   8
ENDBRANCH   4   7
ENDBRANCH   2   3
ENDBRANCH   1   2
BRANCH   1  31
ATOM     31  C   UNL A   1      37.298  23.888  26.077  1.00  0.00     0.023 C 
BRANCH  31  32
ATOM     32  C   UNL A   1      38.591  24.216  26.820  1.00  0.00     0.116 C 
BRANCH  32  33
ATOM     33  N   UNL A   1      39.703  24.513  25.931  1.00  0.00    -0.352 N 
ATOM     34  C   UNL A   1      40.663  25.489  26.057  1.00  0.00     0.251 C 
ATOM     35  H   UNL A   1      39.778  23.940  25.134  1.00  0.00     0.163 HD
ATOM     36  O   UNL A   1      41.465  25.685  25.148  1.00  0.00    -0.269 OA
BRANCH  34  37
ATOM     37  C   UNL A   1      40.696  26.325  27.277  1.00  0.00     0.039 A 
ATOM     38  C   UNL A   1      41.585  27.401  27.334  1.00  0.00     0.014 A 
ATOM     39  C   UNL A   1      39.834  26.067  28.346  1.00  0.00     0.014 A 
ATOM     40  C   UNL A   1      41.560  28.260  28.434  1.00  0.00     0.010 A 
ATOM     41  C   UNL A   1      39.764  26.962  29.409  1.00  0.00     0.010 A 
ATOM     42  C   UNL A   1      40.624  28.070  29.464  1.00  0.00    -0.014 A 
BRANCH  42  43
ATOM     43  C   UNL A   1      40.518  29.026  30.597  1.00  0.00     0.031 A 
ATOM     44  C   UNL A   1      41.414  28.884  31.796  1.00  0.00     0.074 A 
ATOM     45  C   UNL A   1      39.566  29.980  30.575  1.00  0.00     0.049 A 
ATOM     46  N   UNL A   1      41.428  29.584  32.901  1.00  0.00    -0.248 NA
ATOM     47  C   UNL A   1      42.408  27.800  31.758  1.00  0.00     0.031 C 
ATOM     48  C   UNL A   1      38.605  30.196  29.489  1.00  0.00     0.029 A 
ATOM     49  N   UNL A   1      39.243  30.943  31.498  1.00  0.00    -0.354 N 
ATOM     50  C   UNL A   1      42.416  29.016  33.696  1.00  0.00     0.074 A 
ATOM     51  C   UNL A   1      42.946  27.885  32.966  1.00  0.00     0.031 C 
ATOM     52  C   UNL A   1      37.821  31.241  29.799  1.00  0.00     0.029 A 
ATOM     53  C   UNL A   1      38.194  31.745  31.116  1.00  0.00     0.049 A 
ATOM     54  H   UNL A   1      39.719  31.049  32.353  1.00  0.00     0.167 HD
ATOM     55  C   UNL A   1      42.855  29.409  34.916  1.00  0.00     0.031 A 
ATOM     56  C   UNL A   1      37.593  32.769  31.755  1.00  0.00     0.031 A 
ATOM     57  C   UNL A   1      42.333  30.540  35.637  1.00  0.00     0.049 A 
ATOM     58  C   UNL A   1      38.095  33.185  33.110  1.00  0.00     0.074 A 
ATOM     59  C   UNL A   1      42.751  31.052  36.853  1.00  0.00     0.029 A 
ATOM     60  N   UNL A   1      41.278  31.333  35.211  1.00  0.00    -0.354 N 
ATOM     61  N   UNL A   1      39.074  32.675  33.818  1.00  0.00    -0.248 NA
ATOM     62  C   UNL A   1      37.418  34.323  33.747  1.00  0.00     0.031 C 
ATOM     63  C   UNL A   1      41.917  32.126  37.185  1.00  0.00     0.029 A 
ATOM     64  C   UNL A   1      41.016  32.316  36.149  1.00  0.00     0.049 A 
ATOM     65  H   UNL A   1      40.789  31.214  34.365  1.00  0.00     0.167 HD
ATOM     66  C   UNL A   1      39.148  33.445  34.973  1.00  0.00     0.074 A 
ATOM     67  C   UNL A   1      38.122  34.463  34.863  1.00  0.00     0.031 C 
ATOM     68  C   UNL A   1      39.990  33.321  36.028  1.00  0.00     0.031 A 
BRANCH  55  69
ATOM     69  C   UNL A   1      43.956  28.599  35.548  1.00  0.00    -0.014 A 
ATOM     70  C   UNL A   1      45.300  29.008  35.467  1.00  0.00     0.010 A 
ATOM     71  C   UNL A   1      43.643  27.423  36.254  1.00  0.00     0.010 A 
ATOM     72  C   UNL A   1      46.313  28.232  36.034  1.00  0.00     0.020 A 
ATOM     73  C   UNL A   1      44.650  26.658  36.849  1.00  0.00     0.020 A 
ATOM     74  C   UNL A   1      45.983  27.057  36.715  1.00  0.00     0.054 A 
BRANCH  74  75
ATOM     75  S   UNL A   1      47.317  26.071  37.446  1.00  0.00     0.124 S 
ATOM     76  O   UNL A   1      47.149  26.348  38.871  1.00  0.00    -0.237 OA
ATOM     77  O   UNL A   1      46.982  24.713  37.027  1.00  0.00    -0.237 OA
ATOM     78  O   UNL A   1      48.527  26.624  36.844  1.00  0.00    -0.744 OA
ENDBRANCH  74  75
ENDBRANCH  55  69
BRANCH  56  79
ATOM     79  C   UNL A   1      36.465  33.487  31.104  1.00  0.00    -0.014 A 
ATOM     80  C   UNL A   1      35.287  33.759  31.820  1.00  0.00     0.010 A 
ATOM     81  C   UNL A   1      36.572  33.924  29.770  1.00  0.00     0.010 A 
ATOM     82  C   UNL A   1      34.231  34.446  31.214  1.00  0.00     0.020 A 
ATOM     83  C   UNL A   1      35.528  34.634  29.169  1.00  0.00     0.020 A 
ATOM     84  C   UNL A   1      34.360  34.883  29.892  1.00  0.00     0.054 A 
BRANCH  84  85
ATOM     85  S   UNL A   1      33.003  35.829  29.147  1.00  0.00     0.124 S 
ATOM     86  O   UNL A   1      32.221  36.211  30.318  1.00  0.00    -0.237 OA
ATOM     87  O   UNL A   1      33.709  36.917  28.475  1.00  0.00    -0.237 OA
ATOM     88  O   UNL A   1      32.365  34.864  28.254  1.00  0.00    -0.744 OA
ENDBRANCH  84  85
ENDBRANCH  56  79
BRANCH  68  89
ATOM     89  C   UNL A   1      39.863  34.331  37.138  1.00  0.00    -0.014 A 
ATOM     90  C   UNL A   1      40.542  35.560  37.086  1.00  0.00     0.010 A 
ATOM     91  C   UNL A   1      39.008  34.064  38.223  1.00  0.00     0.010 A 
ATOM     92  C   UNL A   1      40.389  36.494  38.115  1.00  0.00     0.020 A 
ATOM     93  C   UNL A   1      38.833  35.005  39.240  1.00  0.00     0.020 A 
ATOM     94  C   UNL A   1      39.536  36.210  39.186  1.00  0.00     0.054 A 
BRANCH  94  95
ATOM     95  S   UNL A   1      39.319  37.457  40.486  1.00  0.00     0.124 S 
ATOM     96  O   UNL A   1      40.606  38.146  40.462  1.00  0.00    -0.237 OA
ATOM     97  O   UNL A   1      38.182  38.234  39.999  1.00  0.00    -0.237 OA
ATOM     98  O   UNL A   1      39.057  36.664  41.685  1.00  0.00    -0.744 OA
ENDBRANCH  94  95
ENDBRANCH  68  89
ENDBRANCH  42  43
ENDBRANCH  34  37
ENDBRANCH  32  33
ENDBRANCH  31  32
ENDBRANCH   1  31
TORSDOF 20
ENDMDL
MODEL 3
REMARK VINA RESULT:     -11.1      6.312     11.513
REMARK SMILES COc1ccc(-c2nc(NCC(=O)NCCCCNC(=O)c3ccc(-c4c5nc(c(-c6ccc(S(=O)(=O)[O-])cc6)c6ccc([nH]6)c(-c6ccc(S(=O)(=O)[O-])cc6)c6nc(c(-c7ccc(S(=O)(=O)[O-])cc7)c7ccc4[nH]7)C=C6)C=C5)cc3)sc2-c2ccc(OC)cc2)cc1
REMARK SMILES IDX 16 1 15 2 14 3 12 4 13 5 11 7 10 8 9 10 7 11 8 12 83 13
REMARK SMILES IDX 82 14 6 15 3 16 4 17 93 18 5 19 92 20 2 21 1 22 84 23 85 24
REMARK SMILES IDX 91 25 86 26 90 27 87 28 88 29 89 30 17 31 18 32 19 33 20 34
REMARK SMILES IDX 21 36 22 37 23 38 81 39 24 40 80 41 25 42 26 43 27 44 74 45
REMARK SMILES IDX 28 46 79 47 73 48 75 49 29 50 78 51 72 52 71 53 30 55 60 56
REMARK SMILES IDX 41 57 59 58 42 59 45 60 58 61 76 62 43 63 44 64 57 66 77 67
REMARK SMILES IDX 46 68 31 69 32 70 40 71 33 72 39 73 34 74 35 75 36 76 37 77
REMARK SMILES IDX 38 78 61 79 62 80 70 81 63 82 69 83 64 84 65 85 66 86 67 87
REMARK SMILES IDX 68 88 47 89 48 90 56 91 49 92 55 93 50 94 51 95 52 96 53 97
REMARK SMILES IDX 54 98
REMARK H PARENT 14 6 10 9 19 35 75 54 45 65
REMARK Flexibility Score: inf
ROOT
ATOM      1  C   UNL A   1      37.395  22.685  25.026  1.00  0.00     0.023 C 
ENDROOT
BRANCH   1   2
ATOM      2  C   UNL A   1      36.040  22.261  24.465  1.00  0.00     0.116 C 
BRANCH   2   3
ATOM      3  N   UNL A   1      35.530  23.226  23.510  1.00  0.00    -0.355 N 
ATOM      4  C   UNL A   1      34.290  23.273  22.932  1.00  0.00     0.239 C 
ATOM      5  O   UNL A   1      34.067  24.143  22.087  1.00  0.00    -0.273 OA
ATOM      6  H   UNL A   1      36.155  23.938  23.244  1.00  0.00     0.163 HD
BRANCH   4   7
ATOM      7  C   UNL A   1      33.201  22.287  23.372  1.00  0.00     0.215 C 
BRANCH   7   8
ATOM      8  N   UNL A   1      32.359  22.846  24.416  1.00  0.00    -0.352 N 
ATOM      9  H   UNL A   1      32.132  22.256  25.171  1.00  0.00     0.163 HD
BRANCH   8  10
ATOM     10  C   UNL A   1      31.863  24.100  24.444  1.00  0.00     0.184 A 
ATOM     11  C   UNL A   1      31.807  26.257  24.963  1.00  0.00     0.091 A 
ATOM     12  N   UNL A   1      32.432  25.038  25.166  1.00  0.00    -0.220 NA
ATOM     13  C   UNL A   1      30.802  26.256  24.007  1.00  0.00     0.064 A 
ATOM     14  S   UNL A   1      30.494  24.637  23.544  1.00  0.00    -0.096 S 
BRANCH  11  15
ATOM     15  C   UNL A   1      32.212  27.441  25.706  1.00  0.00     0.002 A 
ATOM     16  C   UNL A   1      33.037  29.703  27.155  1.00  0.00     0.118 A 
ATOM     17  C   UNL A   1      33.766  29.272  26.046  1.00  0.00     0.047 A 
ATOM     18  C   UNL A   1      31.879  29.017  27.524  1.00  0.00     0.047 A 
ATOM     19  C   UNL A   1      33.361  28.146  25.328  1.00  0.00     0.014 A 
ATOM     20  C   UNL A   1      31.462  27.893  26.796  1.00  0.00     0.014 A 
BRANCH  16  21
ATOM     21  O   UNL A   1      33.539  30.820  27.765  1.00  0.00    -0.497 OA
ATOM     22  C   UNL A   1      34.954  30.958  27.757  1.00  0.00     0.278 C 
ENDBRANCH  16  21
ENDBRANCH  11  15
BRANCH  13  23
ATOM     23  C   UNL A   1      30.065  27.355  23.383  1.00  0.00    -0.006 A 
ATOM     24  C   UNL A   1      28.681  27.491  23.528  1.00  0.00     0.013 A 
ATOM     25  C   UNL A   1      30.757  28.307  22.619  1.00  0.00     0.013 A 
ATOM     26  C   UNL A   1      28.012  28.566  22.933  1.00  0.00     0.047 A 
ATOM     27  C   UNL A   1      30.086  29.382  22.026  1.00  0.00     0.047 A 
ATOM     28  C   UNL A   1      28.709  29.520  22.190  1.00  0.00     0.118 A 
BRANCH  28  29
ATOM     29  O   UNL A   1      27.939  30.527  21.680  1.00  0.00    -0.497 OA
ATOM     30  C   UNL A   1      28.086  31.809  22.280  1.00  0.00     0.278 C 
ENDBRANCH  28  29
ENDBRANCH  13  23
ENDBRANCH   8  10
ENDBRANCH   7   8
ENDBRANCH   4   7
ENDBRANCH   2   3
ENDBRANCH   1   2
BRANCH   1  31
ATOM     31  C   UNL A   1      37.326  23.869  25.997  1.00  0.00     0.023 C 
BRANCH  31  32
ATOM     32  C   UNL A   1      38.635  24.205  26.705  1.00  0.00     0.116 C 
BRANCH  32  33
ATOM     33  N   UNL A   1      39.687  24.632  25.796  1.00  0.00    -0.352 N 
ATOM     34  C   UNL A   1      40.606  25.640  25.962  1.00  0.00     0.251 C 
ATOM     35  H   UNL A   1      39.747  24.133  24.949  1.00  0.00     0.163 HD
ATOM     36  O   UNL A   1      41.351  25.952  25.037  1.00  0.00    -0.269 OA
BRANCH  34  37
ATOM     37  C   UNL A   1      40.661  26.371  27.247  1.00  0.00     0.039 A 
ATOM     38  C   UNL A   1      41.537  27.452  27.370  1.00  0.00     0.014 A 
ATOM     39  C   UNL A   1      39.833  26.010  28.313  1.00  0.00     0.014 A 
ATOM     40  C   UNL A   1      41.531  28.215  28.540  1.00  0.00     0.010 A 
ATOM     41  C   UNL A   1      39.781  26.811  29.449  1.00  0.00     0.010 A 
ATOM     42  C   UNL A   1      40.627  27.924  29.574  1.00  0.00    -0.014 A 
BRANCH  42  43
ATOM     43  C   UNL A   1      40.539  28.779  30.787  1.00  0.00     0.031 A 
ATOM     44  C   UNL A   1      39.521  29.884  30.865  1.00  0.00     0.074 A 
ATOM     45  C   UNL A   1      41.422  28.604  31.789  1.00  0.00     0.049 A 
ATOM     46  N   UNL A   1      39.334  30.765  31.813  1.00  0.00    -0.248 NA
ATOM     47  C   UNL A   1      38.612  30.030  29.717  1.00  0.00     0.031 C 
ATOM     48  C   UNL A   1      42.486  27.596  31.817  1.00  0.00     0.029 A 
ATOM     49  N   UNL A   1      41.573  29.275  32.977  1.00  0.00    -0.354 N 
ATOM     50  C   UNL A   1      38.300  31.582  31.370  1.00  0.00     0.074 A 
ATOM     51  C   UNL A   1      37.933  31.120  30.049  1.00  0.00     0.031 C 
ATOM     52  C   UNL A   1      43.159  27.699  32.975  1.00  0.00     0.029 A 
ATOM     53  C   UNL A   1      42.604  28.801  33.753  1.00  0.00     0.049 A 
ATOM     54  H   UNL A   1      40.995  30.025  33.248  1.00  0.00     0.167 HD
ATOM     55  C   UNL A   1      37.698  32.612  32.012  1.00  0.00     0.031 A 
ATOM     56  C   UNL A   1      43.058  29.211  34.954  1.00  0.00     0.031 A 
ATOM     57  C   UNL A   1      38.058  33.065  33.329  1.00  0.00     0.049 A 
ATOM     58  C   UNL A   1      42.377  30.359  35.645  1.00  0.00     0.074 A 
ATOM     59  C   UNL A   1      37.470  34.064  34.086  1.00  0.00     0.029 A 
ATOM     60  N   UNL A   1      39.101  32.552  34.086  1.00  0.00    -0.354 N 
ATOM     61  N   UNL A   1      41.359  31.078  35.238  1.00  0.00    -0.248 NA
ATOM     62  C   UNL A   1      42.900  30.745  36.963  1.00  0.00     0.031 C 
ATOM     63  C   UNL A   1      38.188  34.187  35.281  1.00  0.00     0.029 A 
ATOM     64  C   UNL A   1      39.188  33.228  35.291  1.00  0.00     0.049 A 
ATOM     65  H   UNL A   1      39.692  31.816  33.807  1.00  0.00     0.167 HD
ATOM     66  C   UNL A   1      41.102  31.984  36.261  1.00  0.00     0.074 A 
ATOM     67  C   UNL A   1      42.064  31.715  37.310  1.00  0.00     0.031 C 
ATOM     68  C   UNL A   1      40.153  32.951  36.326  1.00  0.00     0.031 A 
BRANCH  55  69
ATOM     69  C   UNL A   1      36.586  33.324  31.285  1.00  0.00    -0.014 A 
ATOM     70  C   UNL A   1      35.333  33.524  31.891  1.00  0.00     0.010 A 
ATOM     71  C   UNL A   1      36.805  33.820  29.987  1.00  0.00     0.010 A 
ATOM     72  C   UNL A   1      34.303  34.161  31.195  1.00  0.00     0.020 A 
ATOM     73  C   UNL A   1      35.786  34.484  29.297  1.00  0.00     0.020 A 
ATOM     74  C   UNL A   1      34.534  34.631  29.899  1.00  0.00     0.054 A 
BRANCH  74  75
ATOM     75  S   UNL A   1      33.181  35.457  29.019  1.00  0.00     0.124 S 
ATOM     76  O   UNL A   1      32.377  35.976  30.125  1.00  0.00    -0.237 OA
ATOM     77  O   UNL A   1      33.879  36.465  28.226  1.00  0.00    -0.237 OA
ATOM     78  O   UNL A   1      32.559  34.383  28.249  1.00  0.00    -0.744 OA
ENDBRANCH  74  75
ENDBRANCH  55  69
BRANCH  56  79
ATOM     79  C   UNL A   1      44.205  28.507  35.589  1.00  0.00    -0.014 A 
ATOM     80  C   UNL A   1      43.986  27.392  36.416  1.00  0.00     0.010 A 
ATOM     81  C   UNL A   1      45.525  28.934  35.352  1.00  0.00     0.010 A 
ATOM     82  C   UNL A   1      45.063  26.720  37.001  1.00  0.00     0.020 A 
ATOM     83  C   UNL A   1      46.606  28.249  35.915  1.00  0.00     0.020 A 
ATOM     84  C   UNL A   1      46.367  27.152  36.744  1.00  0.00     0.054 A 
BRANCH  84  85
ATOM     85  S   UNL A   1      47.753  26.226  37.463  1.00  0.00     0.124 S 
ATOM     86  O   UNL A   1      47.604  24.919  36.832  1.00  0.00    -0.237 OA
ATOM     87  O   UNL A   1      48.910  27.008  37.036  1.00  0.00    -0.237 OA
ATOM     88  O   UNL A   1      47.480  26.265  38.898  1.00  0.00    -0.744 OA
ENDBRANCH  84  85
ENDBRANCH  56  79
BRANCH  68  89
ATOM     89  C   UNL A   1      40.085  33.771  37.586  1.00  0.00    -0.014 A 
ATOM     90  C   UNL A   1      40.675  35.044  37.660  1.00  0.00     0.010 A 
ATOM     91  C   UNL A   1      39.370  33.280  38.695  1.00  0.00     0.010 A 
ATOM     92  C   UNL A   1      40.577  35.801  38.831  1.00  0.00     0.020 A 
ATOM     93  C   UNL A   1      39.247  34.044  39.857  1.00  0.00     0.020 A 
ATOM     94  C   UNL A   1      39.864  35.295  39.923  1.00  0.00     0.054 A 
BRANCH  94  95
ATOM     95  S   UNL A   1      39.711  36.314  41.416  1.00  0.00     0.124 S 
ATOM     96  O   UNL A   1      40.504  37.488  41.064  1.00  0.00    -0.237 OA
ATOM     97  O   UNL A   1      38.270  36.535  41.508  1.00  0.00    -0.237 OA
ATOM     98  O   UNL A   1      40.275  35.473  42.469  1.00  0.00    -0.744 OA
ENDBRANCH  94  95
ENDBRANCH  68  89
ENDBRANCH  42  43
ENDBRANCH  34  37
ENDBRANCH  32  33
ENDBRANCH  31  32
ENDBRANCH   1  31
TORSDOF 20
ENDMDL
