MODEL 1
REMARK VINA RESULT:     -13.6      0.000      0.000
REMARK SMILES Cc1ccccc1/[NH+]=C1\S[C@@H](CC(=O)Nc2ccc(C(=O)NCCCCNC(=O)c3ccc(-c4c5nc(c(-c6ccc(S(=O)(=O)[O-])cc6)c6ccc([nH]6)c(-c6ccc(S(=O)(=O)[O-])cc6)c6nc(c(-c7ccc(S(=O)(=O)[O-])cc7)c7ccc4[nH]7)C=C6)C=C5)cc3)cc2)C(=O)N1C
REMARK SMILES IDX 24 1 23 2 22 3 20 4 21 5 19 7 16 8 17 9 91 10 18 11 90 12
REMARK SMILES IDX 15 13 13 14 14 15 12 17 11 18 8 19 9 20 10 22 94 23 92 24
REMARK SMILES IDX 95 25 93 26 7 27 1 28 2 29 3 30 4 31 6 32 5 33 25 34 26 35
REMARK SMILES IDX 27 36 28 37 29 39 30 40 31 41 89 42 32 43 88 44 33 45 34 46
REMARK SMILES IDX 35 47 82 48 36 49 87 50 81 51 83 52 37 53 86 54 80 55 79 56
REMARK SMILES IDX 38 58 68 59 49 60 67 61 50 62 53 63 66 64 84 65 51 66 52 67
REMARK SMILES IDX 65 69 85 70 54 71 39 72 40 73 48 74 41 75 47 76 42 77 43 78
REMARK SMILES IDX 44 79 45 80 46 81 69 82 70 83 78 84 71 85 77 86 72 87 73 88
REMARK SMILES IDX 74 89 75 90 76 91 55 92 56 93 64 94 57 95 63 96 58 97 59 98
REMARK SMILES IDX 60 99 61 100 62 101
REMARK H PARENT 22 6 15 16 8 21 27 38 83 57 53 68
REMARK Flexibility Score: inf
ROOT
ATOM      1  C   UNL A   1      39.243  20.211  25.696  1.00  0.00     0.023 C 
ENDROOT
BRANCH   1   2
ATOM      2  C   UNL A   1      37.763  20.192  25.036  1.00  0.00     0.116 C 
BRANCH   2   3
ATOM      3  N   UNL A   1      37.460  21.226  24.023  1.00  0.00    -0.352 N 
ATOM      4  C   UNL A   1      36.616  22.316  24.019  1.00  0.00     0.251 C 
ATOM      5  O   UNL A   1      36.865  23.272  23.284  1.00  0.00    -0.269 OA
ATOM      6  H   UNL A   1      37.960  21.114  23.184  1.00  0.00     0.163 HD
BRANCH   4   7
ATOM      7  C   UNL A   1      35.372  22.373  24.832  1.00  0.00     0.039 A 
ATOM      8  C   UNL A   1      32.978  22.480  26.307  1.00  0.00     0.041 A 
ATOM      9  C   UNL A   1      33.999  23.391  26.506  1.00  0.00     0.027 A 
ATOM     10  C   UNL A   1      33.221  21.382  25.500  1.00  0.00     0.027 A 
ATOM     11  C   UNL A   1      35.166  23.360  25.773  1.00  0.00     0.016 A 
ATOM     12  C   UNL A   1      34.410  21.343  24.742  1.00  0.00     0.016 A 
BRANCH   8  13
ATOM     13  N   UNL A   1      31.754  22.693  26.953  1.00  0.00    -0.326 N 
ATOM     14  C   UNL A   1      30.727  23.492  26.483  1.00  0.00     0.226 C 
ATOM     15  O   UNL A   1      29.829  23.871  27.235  1.00  0.00    -0.275 OA
ATOM     16  H   UNL A   1      31.611  22.234  27.812  1.00  0.00     0.169 HD
BRANCH  14  17
ATOM     17  C   UNL A   1      30.621  23.691  24.975  1.00  0.00     0.128 C 
BRANCH  17  18
ATOM     18  C   UNL A   1      31.105  25.012  24.414  1.00  0.00     0.183 C 
ATOM     19  N   UNL A   1      30.958  28.047  22.452  1.00  0.00    -0.234 N 
ATOM     20  C   UNL A   1      30.786  26.803  22.708  1.00  0.00     0.319 C 
ATOM     21  H   UNL A   1      31.683  28.244  21.816  1.00  0.00     0.313 HD
ATOM     22  S   UNL A   1      29.682  25.952  23.733  1.00  0.00    -0.022 SA
ATOM     23  N   UNL A   1      31.673  25.878  22.256  1.00  0.00    -0.193 N 
ATOM     24  C   UNL A   1      32.088  25.019  23.248  1.00  0.00     0.324 C 
ATOM     25  C   UNL A   1      32.302  25.931  20.955  1.00  0.00     0.301 C 
ATOM     26  O   UNL A   1      33.152  24.412  23.239  1.00  0.00    -0.245 OA
BRANCH  19  27
ATOM     27  C   UNL A   1      30.274  29.174  22.937  1.00  0.00     0.128 A 
ATOM     28  C   UNL A   1      31.578  29.669  25.122  1.00  0.00     0.049 C 
ATOM     29  C   UNL A   1      30.516  29.938  24.098  1.00  0.00    -0.004 A 
ATOM     30  C   UNL A   1      29.725  31.078  24.359  1.00  0.00     0.008 A 
ATOM     31  C   UNL A   1      28.783  31.535  23.445  1.00  0.00     0.001 A 
ATOM     32  C   UNL A   1      29.322  29.676  22.025  1.00  0.00     0.052 A 
ATOM     33  C   UNL A   1      28.592  30.841  22.264  1.00  0.00     0.004 A 
ENDBRANCH  19  27
ENDBRANCH  17  18
ENDBRANCH  14  17
ENDBRANCH   8  13
ENDBRANCH   4   7
ENDBRANCH   2   3
ENDBRANCH   1   2
BRANCH   1  34
ATOM     34  C   UNL A   1      40.067  21.346  26.654  1.00  0.00     0.023 C 
BRANCH  34  35
ATOM     35  C   UNL A   1      41.503  22.009  26.246  1.00  0.00     0.116 C 
BRANCH  35  36
ATOM     36  N   UNL A   1      42.150  23.450  26.731  1.00  0.00    -0.352 N 
ATOM     37  C   UNL A   1      41.978  24.809  27.313  1.00  0.00     0.251 C 
ATOM     38  H   UNL A   1      43.114  23.372  26.546  1.00  0.00     0.163 HD
ATOM     39  O   UNL A   1      43.015  25.201  27.887  1.00  0.00    -0.269 OA
BRANCH  37  40
ATOM     40  C   UNL A   1      40.757  25.864  27.498  1.00  0.00     0.039 A 
ATOM     41  C   UNL A   1      40.608  27.040  26.726  1.00  0.00     0.014 A 
ATOM     42  C   UNL A   1      39.742  25.757  28.438  1.00  0.00     0.014 A 
ATOM     43  C   UNL A   1      40.095  28.238  27.332  1.00  0.00     0.010 A 
ATOM     44  C   UNL A   1      39.286  26.935  29.089  1.00  0.00     0.010 A 
ATOM     45  C   UNL A   1      39.637  28.211  28.650  1.00  0.00    -0.014 A 
BRANCH  45  46
ATOM     46  C   UNL A   1      39.557  29.395  29.579  1.00  0.00     0.031 A 
ATOM     47  C   UNL A   1      38.593  30.459  29.343  1.00  0.00     0.074 A 
ATOM     48  C   UNL A   1      40.200  29.579  30.767  1.00  0.00     0.049 A 
ATOM     49  N   UNL A   1      38.854  31.723  29.346  1.00  0.00    -0.248 NA
ATOM     50  C   UNL A   1      37.190  30.134  29.180  1.00  0.00     0.031 C 
ATOM     51  C   UNL A   1      40.231  30.680  31.753  1.00  0.00     0.029 A 
ATOM     52  N   UNL A   1      41.133  28.751  31.323  1.00  0.00    -0.354 N 
ATOM     53  C   UNL A   1      37.645  32.343  29.576  1.00  0.00     0.074 A 
ATOM     54  C   UNL A   1      36.646  31.346  29.258  1.00  0.00     0.031 C 
ATOM     55  C   UNL A   1      41.410  30.648  32.419  1.00  0.00     0.029 A 
ATOM     56  C   UNL A   1      42.144  29.515  31.913  1.00  0.00     0.049 A 
ATOM     57  H   UNL A   1      41.099  27.767  31.310  1.00  0.00     0.167 HD
ATOM     58  C   UNL A   1      37.580  33.526  30.259  1.00  0.00     0.031 A 
ATOM     59  C   UNL A   1      43.382  29.446  31.335  1.00  0.00     0.031 A 
ATOM     60  C   UNL A   1      38.902  33.953  30.752  1.00  0.00     0.049 A 
ATOM     61  C   UNL A   1      43.650  30.737  30.595  1.00  0.00     0.074 A 
ATOM     62  C   UNL A   1      39.453  34.053  32.022  1.00  0.00     0.029 A 
ATOM     63  N   UNL A   1      39.980  34.029  29.868  1.00  0.00    -0.354 N 
ATOM     64  N   UNL A   1      42.701  31.610  30.379  1.00  0.00    -0.248 NA
ATOM     65  C   UNL A   1      44.946  31.241  30.142  1.00  0.00     0.031 C 
ATOM     66  C   UNL A   1      40.872  34.023  31.892  1.00  0.00     0.029 A 
ATOM     67  C   UNL A   1      41.185  33.941  30.545  1.00  0.00     0.049 A 
ATOM     68  H   UNL A   1      39.896  34.130  28.892  1.00  0.00     0.167 HD
ATOM     69  C   UNL A   1      43.216  32.782  29.927  1.00  0.00     0.074 A 
ATOM     70  C   UNL A   1      44.627  32.490  29.739  1.00  0.00     0.031 C 
ATOM     71  C   UNL A   1      42.452  33.910  29.813  1.00  0.00     0.031 A 
BRANCH  58  72
ATOM     72  C   UNL A   1      36.257  34.098  30.744  1.00  0.00    -0.014 A 
ATOM     73  C   UNL A   1      35.159  34.241  29.874  1.00  0.00     0.010 A 
ATOM     74  C   UNL A   1      36.030  34.506  32.076  1.00  0.00     0.010 A 
ATOM     75  C   UNL A   1      33.946  34.820  30.291  1.00  0.00     0.020 A 
ATOM     76  C   UNL A   1      34.856  35.145  32.493  1.00  0.00     0.020 A 
ATOM     77  C   UNL A   1      33.808  35.286  31.597  1.00  0.00     0.054 A 
BRANCH  77  78
ATOM     78  S   UNL A   1      32.232  35.995  32.138  1.00  0.00     0.124 S 
ATOM     79  O   UNL A   1      31.633  36.438  30.882  1.00  0.00    -0.237 OA
ATOM     80  O   UNL A   1      31.584  34.854  32.777  1.00  0.00    -0.237 OA
ATOM     81  O   UNL A   1      32.626  37.070  33.047  1.00  0.00    -0.744 OA
ENDBRANCH  77  78
ENDBRANCH  58  72
BRANCH  59  82
ATOM     82  C   UNL A   1      43.693  27.984  31.027  1.00  0.00    -0.014 A 
ATOM     83  C   UNL A   1      43.963  27.795  29.647  1.00  0.00     0.010 A 
ATOM     84  C   UNL A   1      44.500  27.229  31.862  1.00  0.00     0.010 A 
ATOM     85  C   UNL A   1      45.291  27.597  29.224  1.00  0.00     0.020 A 
ATOM     86  C   UNL A   1      45.760  26.814  31.359  1.00  0.00     0.020 A 
ATOM     87  C   UNL A   1      46.271  27.305  30.157  1.00  0.00     0.054 A 
BRANCH  87  88
ATOM     88  S   UNL A   1      48.118  27.758  29.677  1.00  0.00     0.124 S 
ATOM     89  O   UNL A   1      48.508  26.747  28.746  1.00  0.00    -0.237 OA
ATOM     90  O   UNL A   1      47.993  29.064  29.036  1.00  0.00    -0.237 OA
ATOM     91  O   UNL A   1      49.007  27.628  30.798  1.00  0.00    -0.744 OA
ENDBRANCH  87  88
ENDBRANCH  59  82
BRANCH  71  92
ATOM     92  C   UNL A   1      42.880  35.159  29.102  1.00  0.00    -0.014 A 
ATOM     93  C   UNL A   1      42.451  35.495  27.811  1.00  0.00     0.010 A 
ATOM     94  C   UNL A   1      43.634  36.124  29.811  1.00  0.00     0.010 A 
ATOM     95  C   UNL A   1      42.832  36.702  27.219  1.00  0.00     0.020 A 
ATOM     96  C   UNL A   1      43.974  37.354  29.250  1.00  0.00     0.020 A 
ATOM     97  C   UNL A   1      43.599  37.619  27.940  1.00  0.00     0.054 A 
BRANCH  97  98
ATOM     98  S   UNL A   1      44.068  39.180  27.161  1.00  0.00     0.124 S 
ATOM     99  O   UNL A   1      44.297  40.035  28.323  1.00  0.00    -0.237 OA
ATOM    100  O   UNL A   1      45.265  38.817  26.405  1.00  0.00    -0.237 OA
ATOM    101  O   UNL A   1      42.906  39.526  26.348  1.00  0.00    -0.744 OA
ENDBRANCH  97  98
ENDBRANCH  71  92
ENDBRANCH  45  46
ENDBRANCH  37  40
ENDBRANCH  35  36
ENDBRANCH  34  35
ENDBRANCH   1  34
TORSDOF 18
ENDMDL
MODEL 2
REMARK VINA RESULT:     -13.5      4.379     11.210
REMARK SMILES Cc1ccccc1/[NH+]=C1\S[C@@H](CC(=O)Nc2ccc(C(=O)NCCCCNC(=O)c3ccc(-c4c5nc(c(-c6ccc(S(=O)(=O)[O-])cc6)c6ccc([nH]6)c(-c6ccc(S(=O)(=O)[O-])cc6)c6nc(c(-c7ccc(S(=O)(=O)[O-])cc7)c7ccc4[nH]7)C=C6)C=C5)cc3)cc2)C(=O)N1C
REMARK SMILES IDX 24 1 23 2 22 3 20 4 21 5 19 7 16 8 17 9 91 10 18 11 90 12
REMARK SMILES IDX 15 13 13 14 14 15 12 17 11 18 8 19 9 20 10 22 94 23 92 24
REMARK SMILES IDX 95 25 93 26 7 27 1 28 2 29 3 30 4 31 6 32 5 33 25 34 26 35
REMARK SMILES IDX 27 36 28 37 29 39 30 40 31 41 89 42 32 43 88 44 33 45 34 46
REMARK SMILES IDX 35 47 82 48 36 49 87 50 81 51 83 52 37 53 86 54 80 55 79 56
REMARK SMILES IDX 38 58 68 59 49 60 67 61 50 62 53 63 66 64 84 65 51 66 52 67
REMARK SMILES IDX 65 69 85 70 54 71 39 72 40 73 48 74 41 75 47 76 42 77 43 78
REMARK SMILES IDX 44 79 45 80 46 81 69 82 70 83 78 84 71 85 77 86 72 87 73 88
REMARK SMILES IDX 74 89 75 90 76 91 55 92 56 93 64 94 57 95 63 96 58 97 59 98
REMARK SMILES IDX 60 99 61 100 62 101
REMARK H PARENT 22 6 15 16 8 21 27 38 83 57 53 68
REMARK Flexibility Score: inf
ROOT
ATOM      1  C   UNL A   1      33.322  28.083  26.381  1.00  0.00     0.023 C 
ENDROOT
BRANCH   1   2
ATOM      2  C   UNL A   1      33.272  26.555  25.845  1.00  0.00     0.116 C 
BRANCH   2   3
ATOM      3  N   UNL A   1      32.061  25.766  26.159  1.00  0.00    -0.352 N 
ATOM      4  C   UNL A   1      31.871  24.467  26.579  1.00  0.00     0.251 C 
ATOM      5  O   UNL A   1      30.855  24.177  27.212  1.00  0.00    -0.269 OA
ATOM      6  H   UNL A   1      31.223  26.269  26.046  1.00  0.00     0.163 HD
BRANCH   4   7
ATOM      7  C   UNL A   1      32.821  23.370  26.255  1.00  0.00     0.039 A 
ATOM      8  C   UNL A   1      34.670  21.326  25.685  1.00  0.00     0.041 A 
ATOM      9  C   UNL A   1      34.033  22.035  24.683  1.00  0.00     0.027 A 
ATOM     10  C   UNL A   1      34.242  21.501  26.990  1.00  0.00     0.027 A 
ATOM     11  C   UNL A   1      33.143  23.051  24.952  1.00  0.00     0.016 A 
ATOM     12  C   UNL A   1      33.335  22.543  27.276  1.00  0.00     0.016 A 
BRANCH   8  13
ATOM     13  N   UNL A   1      35.698  20.443  25.334  1.00  0.00    -0.326 N 
ATOM     14  C   UNL A   1      37.037  20.775  25.218  1.00  0.00     0.226 C 
ATOM     15  O   UNL A   1      37.819  20.039  24.616  1.00  0.00    -0.275 OA
ATOM     16  H   UNL A   1      35.449  19.508  25.155  1.00  0.00     0.169 HD
BRANCH  14  17
ATOM     17  C   UNL A   1      37.547  21.947  26.050  1.00  0.00     0.128 C 
BRANCH  17  18
ATOM     18  C   UNL A   1      38.990  22.363  25.848  1.00  0.00     0.183 C 
ATOM     19  N   UNL A   1      42.575  22.275  26.319  1.00  0.00    -0.234 N 
ATOM     20  C   UNL A   1      41.341  22.221  26.665  1.00  0.00     0.319 C 
ATOM     21  H   UNL A   1      43.046  23.097  26.584  1.00  0.00     0.313 HD
ATOM     22  S   UNL A   1      40.106  21.031  26.443  1.00  0.00    -0.022 SA
ATOM     23  N   UNL A   1      40.728  23.311  27.193  1.00  0.00    -0.193 N 
ATOM     24  C   UNL A   1      39.528  23.589  26.578  1.00  0.00     0.324 C 
ATOM     25  C   UNL A   1      41.360  24.224  28.120  1.00  0.00     0.301 C 
ATOM     26  O   UNL A   1      39.008  24.698  26.541  1.00  0.00    -0.245 OA
BRANCH  19  27
ATOM     27  C   UNL A   1      43.361  21.342  25.621  1.00  0.00     0.128 A 
ATOM     28  C   UNL A   1      45.087  22.889  24.460  1.00  0.00     0.049 C 
ATOM     29  C   UNL A   1      44.489  21.557  24.802  1.00  0.00    -0.004 A 
ATOM     30  C   UNL A   1      45.163  20.450  24.241  1.00  0.00     0.008 A 
ATOM     31  C   UNL A   1      44.812  19.144  24.562  1.00  0.00     0.001 A 
ATOM     32  C   UNL A   1      43.043  20.006  25.938  1.00  0.00     0.052 A 
ATOM     33  C   UNL A   1      43.757  18.920  25.429  1.00  0.00     0.004 A 
ENDBRANCH  19  27
ENDBRANCH  17  18
ENDBRANCH  14  17
ENDBRANCH   8  13
ENDBRANCH   4   7
ENDBRANCH   2   3
ENDBRANCH   1   2
BRANCH   1  34
ATOM     34  C   UNL A   1      32.126  29.266  26.615  1.00  0.00     0.023 C 
BRANCH  34  35
ATOM     35  C   UNL A   1      32.443  30.804  27.067  1.00  0.00     0.116 C 
BRANCH  35  36
ATOM     36  N   UNL A   1      33.710  31.378  27.957  1.00  0.00    -0.352 N 
ATOM     37  C   UNL A   1      35.124  31.265  28.407  1.00  0.00     0.251 C 
ATOM     38  H   UNL A   1      33.363  32.182  28.406  1.00  0.00     0.163 HD
ATOM     39  O   UNL A   1      35.604  32.378  28.707  1.00  0.00    -0.269 OA
BRANCH  37  40
ATOM     40  C   UNL A   1      36.240  30.088  28.498  1.00  0.00     0.039 A 
ATOM     41  C   UNL A   1      36.622  29.457  29.704  1.00  0.00     0.014 A 
ATOM     42  C   UNL A   1      36.963  29.586  27.425  1.00  0.00     0.014 A 
ATOM     43  C   UNL A   1      37.991  29.068  29.911  1.00  0.00     0.010 A 
ATOM     44  C   UNL A   1      38.336  29.271  27.612  1.00  0.00     0.010 A 
ATOM     45  C   UNL A   1      38.919  29.211  28.878  1.00  0.00    -0.014 A 
BRANCH  45  46
ATOM     46  C   UNL A   1      40.410  29.348  29.047  1.00  0.00     0.031 A 
ATOM     47  C   UNL A   1      41.322  28.466  28.333  1.00  0.00     0.074 A 
ATOM     48  C   UNL A   1      41.097  30.323  29.707  1.00  0.00     0.049 A 
ATOM     49  N   UNL A   1      42.313  27.827  28.858  1.00  0.00    -0.248 NA
ATOM     50  C   UNL A   1      41.212  28.332  26.894  1.00  0.00     0.031 C 
ATOM     51  C   UNL A   1      42.533  30.566  29.966  1.00  0.00     0.029 A 
ATOM     52  N   UNL A   1      40.559  31.343  30.438  1.00  0.00    -0.354 N 
ATOM     53  C   UNL A   1      43.157  27.541  27.808  1.00  0.00     0.074 A 
ATOM     54  C   UNL A   1      42.343  27.685  26.620  1.00  0.00     0.031 C 
ATOM     55  C   UNL A   1      42.664  31.283  31.107  1.00  0.00     0.029 A 
ATOM     56  C   UNL A   1      41.331  31.553  31.585  1.00  0.00     0.049 A 
ATOM     57  H   UNL A   1      39.753  31.852  30.195  1.00  0.00     0.167 HD
ATOM     58  C   UNL A   1      44.511  27.475  27.992  1.00  0.00     0.031 A 
ATOM     59  C   UNL A   1      40.741  31.256  32.783  1.00  0.00     0.031 A 
ATOM     60  C   UNL A   1      44.898  27.821  29.372  1.00  0.00     0.049 A 
ATOM     61  C   UNL A   1      41.347  29.981  33.325  1.00  0.00     0.074 A 
ATOM     62  C   UNL A   1      45.578  28.898  29.924  1.00  0.00     0.029 A 
ATOM     63  N   UNL A   1      44.288  27.172  30.447  1.00  0.00    -0.354 N 
ATOM     64  N   UNL A   1      42.110  29.219  32.586  1.00  0.00    -0.248 NA
ATOM     65  C   UNL A   1      41.284  29.491  34.702  1.00  0.00     0.031 C 
ATOM     66  C   UNL A   1      45.233  28.978  31.305  1.00  0.00     0.029 A 
ATOM     67  C   UNL A   1      44.375  27.932  31.601  1.00  0.00     0.049 A 
ATOM     68  H   UNL A   1      43.852  26.290  30.392  1.00  0.00     0.167 HD
ATOM     69  C   UNL A   1      42.732  28.279  33.341  1.00  0.00     0.074 A 
ATOM     70  C   UNL A   1      42.142  28.449  34.659  1.00  0.00     0.031 C 
ATOM     71  C   UNL A   1      43.727  27.489  32.836  1.00  0.00     0.031 A 
BRANCH  58  72
ATOM     72  C   UNL A   1      45.476  27.415  26.818  1.00  0.00    -0.014 A 
ATOM     73  C   UNL A   1      45.785  28.564  26.066  1.00  0.00     0.010 A 
ATOM     74  C   UNL A   1      46.131  26.231  26.413  1.00  0.00     0.010 A 
ATOM     75  C   UNL A   1      46.632  28.515  24.943  1.00  0.00     0.020 A 
ATOM     76  C   UNL A   1      46.922  26.150  25.260  1.00  0.00     0.020 A 
ATOM     77  C   UNL A   1      47.182  27.302  24.535  1.00  0.00     0.054 A 
BRANCH  77  78
ATOM     78  S   UNL A   1      48.300  27.253  23.112  1.00  0.00     0.124 S 
ATOM     79  O   UNL A   1      48.318  25.833  22.767  1.00  0.00    -0.237 OA
ATOM     80  O   UNL A   1      47.623  28.125  22.158  1.00  0.00    -0.237 OA
ATOM     81  O   UNL A   1      49.560  27.775  23.640  1.00  0.00    -0.744 OA
ENDBRANCH  77  78
ENDBRANCH  58  72
BRANCH  59  82
ATOM     82  C   UNL A   1      39.321  31.815  32.777  1.00  0.00    -0.014 A 
ATOM     83  C   UNL A   1      38.378  30.828  33.160  1.00  0.00     0.010 A 
ATOM     84  C   UNL A   1      39.043  33.077  33.278  1.00  0.00     0.010 A 
ATOM     85  C   UNL A   1      37.805  30.880  34.445  1.00  0.00     0.020 A 
ATOM     86  C   UNL A   1      38.257  33.157  34.456  1.00  0.00     0.020 A 
ATOM     87  C   UNL A   1      37.940  32.025  35.209  1.00  0.00     0.054 A 
BRANCH  87  88
ATOM     88  S   UNL A   1      37.807  31.816  37.155  1.00  0.00     0.124 S 
ATOM     89  O   UNL A   1      39.128  32.073  37.636  1.00  0.00    -0.237 OA
ATOM     90  O   UNL A   1      36.874  32.867  37.548  1.00  0.00    -0.237 OA
ATOM     91  O   UNL A   1      37.508  30.461  37.525  1.00  0.00    -0.744 OA
ENDBRANCH  87  88
ENDBRANCH  59  82
BRANCH  71  92
ATOM     92  C   UNL A   1      44.286  26.280  33.525  1.00  0.00    -0.014 A 
ATOM     93  C   UNL A   1      43.505  25.178  33.898  1.00  0.00     0.010 A 
ATOM     94  C   UNL A   1      45.688  26.170  33.682  1.00  0.00     0.010 A 
ATOM     95  C   UNL A   1      44.089  24.050  34.482  1.00  0.00     0.020 A 
ATOM     96  C   UNL A   1      46.285  25.029  34.213  1.00  0.00     0.020 A 
ATOM     97  C   UNL A   1      45.474  23.988  34.644  1.00  0.00     0.054 A 
BRANCH  97  98
ATOM     98  S   UNL A   1      46.209  22.515  35.389  1.00  0.00     0.124 S 
ATOM     99  O   UNL A   1      45.392  21.451  34.811  1.00  0.00    -0.237 OA
ATOM    100  O   UNL A   1      47.591  22.569  34.918  1.00  0.00    -0.237 OA
ATOM    101  O   UNL A   1      46.038  22.728  36.823  1.00  0.00    -0.744 OA
ENDBRANCH  97  98
ENDBRANCH  71  92
ENDBRANCH  45  46
ENDBRANCH  37  40
ENDBRANCH  35  36
ENDBRANCH  34  35
ENDBRANCH   1  34
TORSDOF 18
ENDMDL
MODEL 3
REMARK VINA RESULT:     -13.1      2.954      4.278
REMARK SMILES Cc1ccccc1/[NH+]=C1\S[C@@H](CC(=O)Nc2ccc(C(=O)NCCCCNC(=O)c3ccc(-c4c5nc(c(-c6ccc(S(=O)(=O)[O-])cc6)c6ccc([nH]6)c(-c6ccc(S(=O)(=O)[O-])cc6)c6nc(c(-c7ccc(S(=O)(=O)[O-])cc7)c7ccc4[nH]7)C=C6)C=C5)cc3)cc2)C(=O)N1C
REMARK SMILES IDX 24 1 23 2 22 3 20 4 21 5 19 7 16 8 17 9 91 10 18 11 90 12
REMARK SMILES IDX 15 13 13 14 14 15 12 17 11 18 8 19 9 20 10 22 94 23 92 24
REMARK SMILES IDX 95 25 93 26 7 27 1 28 2 29 3 30 4 31 6 32 5 33 25 34 26 35
REMARK SMILES IDX 27 36 28 37 29 39 30 40 31 41 89 42 32 43 88 44 33 45 34 46
REMARK SMILES IDX 35 47 82 48 36 49 87 50 81 51 83 52 37 53 86 54 80 55 79 56
REMARK SMILES IDX 38 58 68 59 49 60 67 61 50 62 53 63 66 64 84 65 51 66 52 67
REMARK SMILES IDX 65 69 85 70 54 71 39 72 40 73 48 74 41 75 47 76 42 77 43 78
REMARK SMILES IDX 44 79 45 80 46 81 69 82 70 83 78 84 71 85 77 86 72 87 73 88
REMARK SMILES IDX 74 89 75 90 76 91 55 92 56 93 64 94 57 95 63 96 58 97 59 98
REMARK SMILES IDX 60 99 61 100 62 101
REMARK H PARENT 22 6 15 16 8 21 27 38 83 57 53 68
REMARK Flexibility Score: inf
ROOT
ATOM      1  C   UNL A   1      37.524  20.762  24.778  1.00  0.00     0.023 C 
ENDROOT
BRANCH   1   2
ATOM      2  C   UNL A   1      36.047  20.926  25.425  1.00  0.00     0.116 C 
BRANCH   2   3
ATOM      3  N   UNL A   1      35.077  19.837  25.186  1.00  0.00    -0.352 N 
ATOM      4  C   UNL A   1      33.851  19.794  24.558  1.00  0.00     0.251 C 
ATOM      5  O   UNL A   1      33.454  18.732  24.077  1.00  0.00    -0.269 OA
ATOM      6  H   UNL A   1      35.364  18.968  25.547  1.00  0.00     0.163 HD
BRANCH   4   7
ATOM      7  C   UNL A   1      32.946  20.972  24.479  1.00  0.00     0.039 A 
ATOM      8  C   UNL A   1      31.294  23.244  24.330  1.00  0.00     0.041 A 
ATOM      9  C   UNL A   1      31.131  22.287  25.313  1.00  0.00     0.027 A 
ATOM     10  C   UNL A   1      32.166  22.978  23.288  1.00  0.00     0.027 A 
ATOM     11  C   UNL A   1      31.948  21.182  25.409  1.00  0.00     0.016 A 
ATOM     12  C   UNL A   1      33.011  21.852  23.378  1.00  0.00     0.016 A 
BRANCH   8  13
ATOM     13  N   UNL A   1      30.551  24.428  24.414  1.00  0.00    -0.326 N 
ATOM     14  C   UNL A   1      30.522  25.282  25.502  1.00  0.00     0.226 C 
ATOM     15  O   UNL A   1      29.626  26.118  25.624  1.00  0.00    -0.275 OA
ATOM     16  H   UNL A   1      30.003  24.674  23.634  1.00  0.00     0.169 HD
BRANCH  14  17
ATOM     17  C   UNL A   1      31.747  25.310  26.410  1.00  0.00     0.128 C 
BRANCH  17  18
ATOM     18  C   UNL A   1      32.780  26.388  26.147  1.00  0.00     0.183 C 
ATOM     19  N   UNL A   1      34.152  29.733  26.078  1.00  0.00    -0.234 N 
ATOM     20  C   UNL A   1      33.252  28.828  25.955  1.00  0.00     0.319 C 
ATOM     21  H   UNL A   1      34.497  30.094  25.230  1.00  0.00     0.313 HD
ATOM     22  S   UNL A   1      32.352  27.897  27.102  1.00  0.00    -0.022 SA
ATOM     23  N   UNL A   1      32.960  28.310  24.734  1.00  0.00    -0.193 N 
ATOM     24  C   UNL A   1      32.952  26.934  24.734  1.00  0.00     0.324 C 
ATOM     25  C   UNL A   1      32.905  29.091  23.517  1.00  0.00     0.301 C 
ATOM     26  O   UNL A   1      33.153  26.239  23.745  1.00  0.00    -0.245 OA
BRANCH  19  27
ATOM     27  C   UNL A   1      34.722  30.292  27.234  1.00  0.00     0.128 A 
ATOM     28  C   UNL A   1      33.298  32.439  27.525  1.00  0.00     0.049 C 
ATOM     29  C   UNL A   1      34.372  31.472  27.923  1.00  0.00    -0.004 A 
ATOM     30  C   UNL A   1      35.056  31.812  29.111  1.00  0.00     0.008 A 
ATOM     31  C   UNL A   1      35.992  30.959  29.683  1.00  0.00     0.001 A 
ATOM     32  C   UNL A   1      35.663  29.443  27.851  1.00  0.00     0.052 A 
ATOM     33  C   UNL A   1      36.285  29.759  29.059  1.00  0.00     0.004 A 
ENDBRANCH  19  27
ENDBRANCH  17  18
ENDBRANCH  14  17
ENDBRANCH   8  13
ENDBRANCH   4   7
ENDBRANCH   2   3
ENDBRANCH   1   2
BRANCH   1  34
ATOM     34  C   UNL A   1      39.005  20.213  25.403  1.00  0.00     0.023 C 
BRANCH  34  35
ATOM     35  C   UNL A   1      39.977  21.110  26.362  1.00  0.00     0.116 C 
BRANCH  35  36
ATOM     36  N   UNL A   1      40.990  22.343  25.939  1.00  0.00    -0.352 N 
ATOM     37  C   UNL A   1      41.431  23.758  26.085  1.00  0.00     0.251 C 
ATOM     38  H   UNL A   1      41.595  21.957  25.265  1.00  0.00     0.163 HD
ATOM     39  O   UNL A   1      42.641  23.896  25.811  1.00  0.00    -0.269 OA
BRANCH  37  40
ATOM     40  C   UNL A   1      40.777  25.144  26.623  1.00  0.00     0.039 A 
ATOM     41  C   UNL A   1      40.982  26.401  26.008  1.00  0.00     0.014 A 
ATOM     42  C   UNL A   1      39.975  25.268  27.748  1.00  0.00     0.014 A 
ATOM     43  C   UNL A   1      41.094  27.587  26.814  1.00  0.00     0.010 A 
ATOM     44  C   UNL A   1      40.138  26.405  28.584  1.00  0.00     0.010 A 
ATOM     45  C   UNL A   1      40.889  27.514  28.193  1.00  0.00    -0.014 A 
BRANCH  45  46
ATOM     46  C   UNL A   1      41.440  28.471  29.217  1.00  0.00     0.031 A 
ATOM     47  C   UNL A   1      40.552  29.344  29.970  1.00  0.00     0.074 A 
ATOM     48  C   UNL A   1      42.718  28.565  29.680  1.00  0.00     0.049 A 
ATOM     49  N   UNL A   1      40.713  30.614  30.140  1.00  0.00    -0.248 NA
ATOM     50  C   UNL A   1      39.428  28.778  30.690  1.00  0.00     0.031 C 
ATOM     51  C   UNL A   1      43.392  29.455  30.651  1.00  0.00     0.029 A 
ATOM     52  N   UNL A   1      43.798  27.856  29.237  1.00  0.00    -0.354 N 
ATOM     53  C   UNL A   1      39.977  30.926  31.262  1.00  0.00     0.074 A 
ATOM     54  C   UNL A   1      39.057  29.822  31.427  1.00  0.00     0.031 C 
ATOM     55  C   UNL A   1      44.706  29.543  30.336  1.00  0.00     0.029 A 
ATOM     56  C   UNL A   1      44.919  28.690  29.193  1.00  0.00     0.049 A 
ATOM     57  H   UNL A   1      43.788  26.904  28.986  1.00  0.00     0.167 HD
ATOM     58  C   UNL A   1      40.371  31.930  32.104  1.00  0.00     0.031 A 
ATOM     59  C   UNL A   1      45.423  28.976  27.954  1.00  0.00     0.031 A 
ATOM     60  C   UNL A   1      41.659  32.519  31.697  1.00  0.00     0.049 A 
ATOM     61  C   UNL A   1      45.078  30.406  27.603  1.00  0.00     0.074 A 
ATOM     62  C   UNL A   1      42.930  32.499  32.256  1.00  0.00     0.029 A 
ATOM     63  N   UNL A   1      41.834  32.967  30.386  1.00  0.00    -0.354 N 
ATOM     64  N   UNL A   1      44.219  31.095  28.309  1.00  0.00    -0.248 NA
ATOM     65  C   UNL A   1      45.696  31.233  26.568  1.00  0.00     0.031 C 
ATOM     66  C   UNL A   1      43.872  32.779  31.224  1.00  0.00     0.029 A 
ATOM     67  C   UNL A   1      43.176  33.004  30.048  1.00  0.00     0.049 A 
ATOM     68  H   UNL A   1      41.099  33.223  29.781  1.00  0.00     0.167 HD
ATOM     69  C   UNL A   1      44.255  32.408  27.967  1.00  0.00     0.074 A 
ATOM     70  C   UNL A   1      45.158  32.444  26.829  1.00  0.00     0.031 C 
ATOM     71  C   UNL A   1      43.594  33.360  28.691  1.00  0.00     0.031 A 
BRANCH  58  72
ATOM     72  C   UNL A   1      39.729  32.128  33.468  1.00  0.00    -0.014 A 
ATOM     73  C   UNL A   1      39.937  31.209  34.514  1.00  0.00     0.010 A 
ATOM     74  C   UNL A   1      38.905  33.230  33.785  1.00  0.00     0.010 A 
ATOM     75  C   UNL A   1      39.305  31.346  35.765  1.00  0.00     0.020 A 
ATOM     76  C   UNL A   1      38.216  33.348  34.998  1.00  0.00     0.020 A 
ATOM     77  C   UNL A   1      38.433  32.408  35.993  1.00  0.00     0.054 A 
BRANCH  77  78
ATOM     78  S   UNL A   1      37.653  32.600  37.616  1.00  0.00     0.124 S 
ATOM     79  O   UNL A   1      38.673  33.316  38.378  1.00  0.00    -0.237 OA
ATOM     80  O   UNL A   1      36.453  33.365  37.294  1.00  0.00    -0.237 OA
ATOM     81  O   UNL A   1      37.410  31.225  38.052  1.00  0.00    -0.744 OA
ENDBRANCH  77  78
ENDBRANCH  58  72
BRANCH  59  82
ATOM     82  C   UNL A   1      45.473  27.686  27.140  1.00  0.00    -0.014 A 
ATOM     83  C   UNL A   1      45.416  27.953  25.749  1.00  0.00     0.010 A 
ATOM     84  C   UNL A   1      46.336  26.657  27.477  1.00  0.00     0.010 A 
ATOM     85  C   UNL A   1      46.587  27.840  24.976  1.00  0.00     0.020 A 
ATOM     86  C   UNL A   1      47.397  26.369  26.579  1.00  0.00     0.020 A 
ATOM     87  C   UNL A   1      47.698  27.205  25.503  1.00  0.00     0.054 A 
BRANCH  87  88
ATOM     88  S   UNL A   1      49.443  27.698  24.754  1.00  0.00     0.124 S 
ATOM     89  O   UNL A   1      50.289  26.584  25.046  1.00  0.00    -0.237 OA
ATOM     90  O   UNL A   1      49.179  27.817  23.324  1.00  0.00    -0.237 OA
ATOM     91  O   UNL A   1      50.017  28.822  25.440  1.00  0.00    -0.744 OA
ENDBRANCH  87  88
ENDBRANCH  59  82
BRANCH  71  92
ATOM     92  C   UNL A   1      43.386  34.777  28.244  1.00  0.00    -0.014 A 
ATOM     93  C   UNL A   1      42.899  35.119  26.976  1.00  0.00     0.010 A 
ATOM     94  C   UNL A   1      43.546  35.821  29.186  1.00  0.00     0.010 A 
ATOM     95  C   UNL A   1      42.666  36.454  26.633  1.00  0.00     0.020 A 
ATOM     96  C   UNL A   1      43.265  37.149  28.872  1.00  0.00     0.020 A 
ATOM     97  C   UNL A   1      42.859  37.460  27.581  1.00  0.00     0.054 A 
BRANCH  97  98
ATOM     98  S   UNL A   1      42.539  39.178  27.122  1.00  0.00     0.124 S 
ATOM     99  O   UNL A   1      42.335  39.801  28.426  1.00  0.00    -0.237 OA
ATOM    100  O   UNL A   1      43.766  39.562  26.428  1.00  0.00    -0.237 OA
ATOM    101  O   UNL A   1      41.352  39.095  26.274  1.00  0.00    -0.744 OA
ENDBRANCH  97  98
ENDBRANCH  71  92
ENDBRANCH  45  46
ENDBRANCH  37  40
ENDBRANCH  35  36
ENDBRANCH  34  35
ENDBRANCH   1  34
TORSDOF 18
ENDMDL
