MODEL 1
REMARK VINA RESULT:     -11.4      0.000      0.000
REMARK SMILES O=C(COc1ccccc1C[NH+]1CCC2(CC[NH2+]CC2)CC1)NCCCCNC(=O)c1ccc(-c2c3nc(c(-c4ccc(S(=O)(=O)[O-])cc4)c4ccc([nH]4)c(-c4ccc(S(=O)(=O)[O-])cc4)c4nc(c(-c5ccc(S(=O)(=O)[O-])cc5)c5ccc2[nH]5)C=C4)C=C3)cc1
REMARK SMILES IDX 25 1 24 2 23 3 1 4 2 5 3 7 4 8 5 9 6 10 10 11 7 12 9 13 8 14
REMARK SMILES IDX 11 15 12 16 13 17 22 18 14 20 21 21 15 22 16 23 20 24 17 25
REMARK SMILES IDX 19 26 18 27 26 30 27 31 28 32 29 33 30 35 31 36 32 37 90 38
REMARK SMILES IDX 33 39 89 40 34 41 35 42 36 43 83 44 37 45 88 46 82 47 84 48
REMARK SMILES IDX 38 49 87 50 81 51 80 52 39 54 69 55 50 56 68 57 51 58 54 59
REMARK SMILES IDX 67 60 85 61 52 62 53 63 66 65 86 66 55 67 40 68 41 69 49 70
REMARK SMILES IDX 42 71 48 72 43 73 44 74 45 75 46 76 47 77 70 78 71 79 79 80
REMARK SMILES IDX 72 81 78 82 73 83 74 84 75 85 76 86 77 87 56 88 57 89 65 90
REMARK SMILES IDX 58 91 64 92 59 93 60 94 61 95 62 96 63 97
REMARK H PARENT 23 6 12 19 18 28 18 29 28 34 84 53 54 64
REMARK Flexibility Score: inf
ROOT
ATOM      1  C   UNL A   1      35.907  32.914  28.002  1.00  0.00     0.023 C 
ENDROOT
BRANCH   1   2
ATOM      2  C   UNL A   1      34.505  32.316  28.013  1.00  0.00     0.116 C 
BRANCH   2   3
ATOM      3  N   UNL A   1      34.390  30.972  27.469  1.00  0.00    -0.353 N 
ATOM      4  O   UNL A   1      32.102  30.985  27.180  1.00  0.00    -0.271 OA
ATOM      5  C   UNL A   1      33.205  30.512  26.915  1.00  0.00     0.257 C 
ATOM      6  H   UNL A   1      35.172  30.375  27.496  1.00  0.00     0.163 HD
BRANCH   5   7
ATOM      7  C   UNL A   1      33.382  29.399  25.873  1.00  0.00     0.329 C 
BRANCH   7   8
ATOM      8  O   UNL A   1      32.367  28.392  26.008  1.00  0.00    -0.483 OA
BRANCH   8   9
ATOM      9  C   UNL A   1      31.605  28.268  24.872  1.00  0.00     0.128 A 
ATOM     10  C   UNL A   1      30.990  29.426  24.381  1.00  0.00     0.047 A 
ATOM     11  C   UNL A   1      31.312  27.018  24.303  1.00  0.00     0.048 A 
ATOM     12  C   UNL A   1      30.145  29.359  23.269  1.00  0.00     0.004 A 
ATOM     13  C   UNL A   1      30.554  26.992  23.117  1.00  0.00     0.013 A 
ATOM     14  C   UNL A   1      29.954  28.146  22.617  1.00  0.00     0.001 A 
BRANCH  11  15
ATOM     15  C   UNL A   1      31.697  25.699  24.930  1.00  0.00     0.302 C 
BRANCH  15  16
ATOM     16  N   UNL A   1      33.118  25.329  24.975  1.00  0.00    -0.331 N 
ATOM     17  C   UNL A   1      33.561  24.491  26.077  1.00  0.00     0.263 C 
ATOM     18  C   UNL A   1      33.737  24.948  23.718  1.00  0.00     0.263 C 
ATOM     19  H   UNL A   1      33.489  26.253  25.194  1.00  0.00     0.348 HD
ATOM     20  C   UNL A   1      33.425  22.989  25.863  1.00  0.00     0.069 C 
ATOM     21  C   UNL A   1      33.594  23.470  23.358  1.00  0.00     0.069 C 
ATOM     22  C   UNL A   1      33.934  22.476  24.495  1.00  0.00    -0.008 C 
ATOM     23  C   UNL A   1      35.463  22.236  24.522  1.00  0.00     0.069 C 
ATOM     24  C   UNL A   1      33.228  21.130  24.185  1.00  0.00     0.069 C 
ATOM     25  C   UNL A   1      35.875  21.012  25.346  1.00  0.00     0.261 C 
ATOM     26  C   UNL A   1      33.702  19.998  25.089  1.00  0.00     0.261 C 
ATOM     27  N   UNL A   1      35.143  19.807  24.958  1.00  0.00    -0.346 N 
ATOM     28  H   UNL A   1      35.433  19.034  25.557  1.00  0.00     0.346 HD
ATOM     29  H   UNL A   1      35.353  19.603  23.980  1.00  0.00     0.346 HD
ENDBRANCH  15  16
ENDBRANCH  11  15
ENDBRANCH   8   9
ENDBRANCH   7   8
ENDBRANCH   5   7
ENDBRANCH   2   3
ENDBRANCH   1   2
BRANCH   1  30
ATOM     30  C   UNL A   1      36.233  33.909  29.117  1.00  0.00     0.023 C 
BRANCH  30  31
ATOM     31  C   UNL A   1      37.099  33.391  30.263  1.00  0.00     0.116 C 
BRANCH  31  32
ATOM     32  N   UNL A   1      36.445  32.381  31.081  1.00  0.00    -0.352 N 
ATOM     33  C   UNL A   1      36.789  31.068  31.325  1.00  0.00     0.251 C 
ATOM     34  H   UNL A   1      35.624  32.683  31.533  1.00  0.00     0.163 HD
ATOM     35  O   UNL A   1      36.025  30.354  31.965  1.00  0.00    -0.269 OA
BRANCH  33  36
ATOM     36  C   UNL A   1      38.053  30.498  30.796  1.00  0.00     0.039 A 
ATOM     37  C   UNL A   1      38.173  30.298  29.416  1.00  0.00     0.014 A 
ATOM     38  C   UNL A   1      39.109  30.141  31.638  1.00  0.00     0.014 A 
ATOM     39  C   UNL A   1      39.377  29.828  28.879  1.00  0.00     0.010 A 
ATOM     40  C   UNL A   1      40.332  29.741  31.095  1.00  0.00     0.010 A 
ATOM     41  C   UNL A   1      40.485  29.589  29.708  1.00  0.00    -0.014 A 
BRANCH  41  42
ATOM     42  C   UNL A   1      41.810  29.217  29.138  1.00  0.00     0.031 A 
ATOM     43  C   UNL A   1      42.903  30.243  28.990  1.00  0.00     0.074 A 
ATOM     44  C   UNL A   1      42.017  27.959  28.694  1.00  0.00     0.049 A 
ATOM     45  N   UNL A   1      44.101  30.106  28.477  1.00  0.00    -0.248 NA
ATOM     46  C   UNL A   1      42.606  31.606  29.460  1.00  0.00     0.031 C 
ATOM     47  C   UNL A   1      41.035  26.872  28.745  1.00  0.00     0.029 A 
ATOM     48  N   UNL A   1      43.117  27.380  28.107  1.00  0.00    -0.354 N 
ATOM     49  C   UNL A   1      44.693  31.362  28.548  1.00  0.00     0.074 A 
ATOM     50  C   UNL A   1      43.707  32.259  29.112  1.00  0.00     0.031 C 
ATOM     51  C   UNL A   1      41.586  25.757  28.242  1.00  0.00     0.029 A 
ATOM     52  C   UNL A   1      42.941  26.053  27.789  1.00  0.00     0.049 A 
ATOM     53  H   UNL A   1      43.952  27.869  27.933  1.00  0.00     0.167 HD
ATOM     54  C   UNL A   1      45.946  31.735  28.191  1.00  0.00     0.031 A 
ATOM     55  C   UNL A   1      43.769  25.173  27.192  1.00  0.00     0.031 A 
ATOM     56  C   UNL A   1      46.930  30.843  27.632  1.00  0.00     0.049 A 
ATOM     57  C   UNL A   1      45.147  25.616  26.782  1.00  0.00     0.074 A 
ATOM     58  C   UNL A   1      48.245  31.117  27.294  1.00  0.00     0.029 A 
ATOM     59  N   UNL A   1      46.709  29.510  27.320  1.00  0.00    -0.354 N 
ATOM     60  N   UNL A   1      45.711  26.792  26.924  1.00  0.00    -0.248 NA
ATOM     61  C   UNL A   1      46.005  24.610  26.139  1.00  0.00     0.031 C 
ATOM     62  C   UNL A   1      48.798  29.969  26.720  1.00  0.00     0.029 A 
ATOM     63  C   UNL A   1      47.851  28.958  26.764  1.00  0.00     0.049 A 
ATOM     64  H   UNL A   1      45.863  29.027  27.471  1.00  0.00     0.167 HD
ATOM     65  C   UNL A   1      46.998  26.658  26.417  1.00  0.00     0.074 A 
ATOM     66  C   UNL A   1      47.135  25.285  25.977  1.00  0.00     0.031 C 
ATOM     67  C   UNL A   1      47.980  27.590  26.327  1.00  0.00     0.031 A 
BRANCH  54  68
ATOM     68  C   UNL A   1      46.326  33.182  28.381  1.00  0.00    -0.014 A 
ATOM     69  C   UNL A   1      46.924  33.630  29.573  1.00  0.00     0.010 A 
ATOM     70  C   UNL A   1      46.126  34.099  27.332  1.00  0.00     0.010 A 
ATOM     71  C   UNL A   1      47.272  34.975  29.730  1.00  0.00     0.020 A 
ATOM     72  C   UNL A   1      46.501  35.439  27.474  1.00  0.00     0.020 A 
ATOM     73  C   UNL A   1      47.055  35.872  28.679  1.00  0.00     0.054 A 
BRANCH  73  74
ATOM     74  S   UNL A   1      47.536  37.607  28.905  1.00  0.00     0.124 S 
ATOM     75  O   UNL A   1      47.299  37.800  30.334  1.00  0.00    -0.237 OA
ATOM     76  O   UNL A   1      48.938  37.606  28.496  1.00  0.00    -0.237 OA
ATOM     77  O   UNL A   1      46.632  38.337  28.020  1.00  0.00    -0.744 OA
ENDBRANCH  73  74
ENDBRANCH  54  68
BRANCH  55  78
ATOM     78  C   UNL A   1      43.322  23.770  26.959  1.00  0.00    -0.014 A 
ATOM     79  C   UNL A   1      43.157  22.884  28.038  1.00  0.00     0.010 A 
ATOM     80  C   UNL A   1      43.051  23.316  25.655  1.00  0.00     0.010 A 
ATOM     81  C   UNL A   1      42.746  21.566  27.816  1.00  0.00     0.020 A 
ATOM     82  C   UNL A   1      42.610  22.008  25.432  1.00  0.00     0.020 A 
ATOM     83  C   UNL A   1      42.472  21.137  26.515  1.00  0.00     0.054 A 
BRANCH  83  84
ATOM     84  S   UNL A   1      41.888  19.438  26.258  1.00  0.00     0.124 S 
ATOM     85  O   UNL A   1      42.328  18.778  27.483  1.00  0.00    -0.237 OA
ATOM     86  O   UNL A   1      40.446  19.618  26.117  1.00  0.00    -0.237 OA
ATOM     87  O   UNL A   1      42.578  19.021  25.039  1.00  0.00    -0.744 OA
ENDBRANCH  83  84
ENDBRANCH  55  78
BRANCH  67  88
ATOM     88  C   UNL A   1      49.309  27.152  25.765  1.00  0.00    -0.014 A 
ATOM     89  C   UNL A   1      49.658  27.402  24.426  1.00  0.00     0.010 A 
ATOM     90  C   UNL A   1      50.244  26.526  26.610  1.00  0.00     0.010 A 
ATOM     91  C   UNL A   1      50.906  27.006  23.935  1.00  0.00     0.020 A 
ATOM     92  C   UNL A   1      51.504  26.157  26.131  1.00  0.00     0.020 A 
ATOM     93  C   UNL A   1      51.822  26.387  24.792  1.00  0.00     0.054 A 
BRANCH  93  94
ATOM     94  S   UNL A   1      53.451  25.924  24.141  1.00  0.00     0.124 S 
ATOM     95  O   UNL A   1      54.290  27.021  24.615  1.00  0.00    -0.237 OA
ATOM     96  O   UNL A   1      53.692  24.630  24.774  1.00  0.00    -0.237 OA
ATOM     97  O   UNL A   1      53.246  25.877  22.695  1.00  0.00    -0.744 OA
ENDBRANCH  93  94
ENDBRANCH  67  88
ENDBRANCH  41  42
ENDBRANCH  33  36
ENDBRANCH  31  32
ENDBRANCH  30  31
ENDBRANCH   1  30
TORSDOF 18
ENDMDL
MODEL 2
REMARK VINA RESULT:     -11.3      6.206     11.885
REMARK SMILES O=C(COc1ccccc1C[NH+]1CCC2(CC[NH2+]CC2)CC1)NCCCCNC(=O)c1ccc(-c2c3nc(c(-c4ccc(S(=O)(=O)[O-])cc4)c4ccc([nH]4)c(-c4ccc(S(=O)(=O)[O-])cc4)c4nc(c(-c5ccc(S(=O)(=O)[O-])cc5)c5ccc2[nH]5)C=C4)C=C3)cc1
REMARK SMILES IDX 25 1 24 2 23 3 1 4 2 5 3 7 4 8 5 9 6 10 10 11 7 12 9 13 8 14
REMARK SMILES IDX 11 15 12 16 13 17 22 18 14 20 21 21 15 22 16 23 20 24 17 25
REMARK SMILES IDX 19 26 18 27 26 30 27 31 28 32 29 33 30 35 31 36 32 37 90 38
REMARK SMILES IDX 33 39 89 40 34 41 35 42 36 43 83 44 37 45 88 46 82 47 84 48
REMARK SMILES IDX 38 49 87 50 81 51 80 52 39 54 69 55 50 56 68 57 51 58 54 59
REMARK SMILES IDX 67 60 85 61 52 62 53 63 66 65 86 66 55 67 40 68 41 69 49 70
REMARK SMILES IDX 42 71 48 72 43 73 44 74 45 75 46 76 47 77 70 78 71 79 79 80
REMARK SMILES IDX 72 81 78 82 73 83 74 84 75 85 76 86 77 87 56 88 57 89 65 90
REMARK SMILES IDX 58 91 64 92 59 93 60 94 61 95 62 96 63 97
REMARK H PARENT 23 6 12 19 18 28 18 29 28 34 84 53 54 64
REMARK Flexibility Score: inf
ROOT
ATOM      1  C   UNL A   1      40.591  21.220  26.438  1.00  0.00     0.023 C 
ENDROOT
BRANCH   1   2
ATOM      2  C   UNL A   1      39.114  21.283  26.069  1.00  0.00     0.116 C 
BRANCH   2   3
ATOM      3  N   UNL A   1      38.508  22.604  26.124  1.00  0.00    -0.353 N 
ATOM      4  O   UNL A   1      37.346  22.460  24.138  1.00  0.00    -0.271 OA
ATOM      5  C   UNL A   1      37.513  22.985  25.236  1.00  0.00     0.257 C 
ATOM      6  H   UNL A   1      38.812  23.244  26.809  1.00  0.00     0.163 HD
BRANCH   5   7
ATOM      7  C   UNL A   1      36.575  24.078  25.765  1.00  0.00     0.329 C 
BRANCH   7   8
ATOM      8  O   UNL A   1      35.624  24.477  24.766  1.00  0.00    -0.483 OA
BRANCH   8   9
ATOM      9  C   UNL A   1      34.395  24.771  25.306  1.00  0.00     0.128 A 
ATOM     10  C   UNL A   1      34.062  26.124  25.447  1.00  0.00     0.047 A 
ATOM     11  C   UNL A   1      33.560  23.779  25.844  1.00  0.00     0.048 A 
ATOM     12  C   UNL A   1      32.858  26.495  26.051  1.00  0.00     0.004 A 
ATOM     13  C   UNL A   1      32.302  24.170  26.342  1.00  0.00     0.013 A 
ATOM     14  C   UNL A   1      31.962  25.516  26.469  1.00  0.00     0.001 A 
BRANCH  11  15
ATOM     15  C   UNL A   1      33.963  22.331  25.991  1.00  0.00     0.302 C 
BRANCH  15  16
ATOM     16  N   UNL A   1      34.187  21.536  24.777  1.00  0.00    -0.331 N 
ATOM     17  C   UNL A   1      35.085  20.397  24.874  1.00  0.00     0.263 C 
ATOM     18  C   UNL A   1      33.023  21.243  23.960  1.00  0.00     0.263 C 
ATOM     19  H   UNL A   1      34.718  22.234  24.257  1.00  0.00     0.348 HD
ATOM     20  C   UNL A   1      34.448  19.088  25.323  1.00  0.00     0.069 C 
ATOM     21  C   UNL A   1      32.254  19.989  24.370  1.00  0.00     0.069 C 
ATOM     22  C   UNL A   1      33.122  18.730  24.611  1.00  0.00    -0.008 C 
ATOM     23  C   UNL A   1      33.386  18.025  23.258  1.00  0.00     0.069 C 
ATOM     24  C   UNL A   1      32.323  17.762  25.525  1.00  0.00     0.069 C 
ATOM     25  C   UNL A   1      33.911  16.593  23.407  1.00  0.00     0.261 C 
ATOM     26  C   UNL A   1      32.962  16.380  25.614  1.00  0.00     0.261 C 
ATOM     27  N   UNL A   1      33.072  15.781  24.288  1.00  0.00    -0.346 N 
ATOM     28  H   UNL A   1      33.484  14.852  24.375  1.00  0.00     0.346 HD
ATOM     29  H   UNL A   1      32.138  15.724  23.881  1.00  0.00     0.346 HD
ENDBRANCH  15  16
ENDBRANCH  11  15
ENDBRANCH   8   9
ENDBRANCH   7   8
ENDBRANCH   5   7
ENDBRANCH   2   3
ENDBRANCH   1   2
BRANCH   1  30
ATOM     30  C   UNL A   1      41.038  22.089  27.615  1.00  0.00     0.023 C 
BRANCH  30  31
ATOM     31  C   UNL A   1      42.077  23.166  27.312  1.00  0.00     0.116 C 
BRANCH  31  32
ATOM     32  N   UNL A   1      41.730  24.016  26.184  1.00  0.00    -0.352 N 
ATOM     33  C   UNL A   1      41.310  25.329  26.150  1.00  0.00     0.251 C 
ATOM     34  H   UNL A   1      41.807  23.584  25.302  1.00  0.00     0.163 HD
ATOM     35  O   UNL A   1      40.958  25.822  25.082  1.00  0.00    -0.269 OA
BRANCH  33  36
ATOM     36  C   UNL A   1      41.243  26.143  27.389  1.00  0.00     0.039 A 
ATOM     37  C   UNL A   1      42.257  27.074  27.636  1.00  0.00     0.014 A 
ATOM     38  C   UNL A   1      40.210  25.988  28.316  1.00  0.00     0.014 A 
ATOM     39  C   UNL A   1      42.187  27.905  28.759  1.00  0.00     0.010 A 
ATOM     40  C   UNL A   1      40.103  26.866  29.397  1.00  0.00     0.010 A 
ATOM     41  C   UNL A   1      41.084  27.843  29.627  1.00  0.00    -0.014 A 
BRANCH  41  42
ATOM     42  C   UNL A   1      40.929  28.809  30.750  1.00  0.00     0.031 A 
ATOM     43  C   UNL A   1      41.795  28.710  31.979  1.00  0.00     0.074 A 
ATOM     44  C   UNL A   1      39.962  29.749  30.694  1.00  0.00     0.049 A 
ATOM     45  N   UNL A   1      41.770  29.437  33.068  1.00  0.00    -0.248 NA
ATOM     46  C   UNL A   1      42.809  27.643  31.996  1.00  0.00     0.031 C 
ATOM     47  C   UNL A   1      39.029  29.937  29.580  1.00  0.00     0.029 A 
ATOM     48  N   UNL A   1      39.596  30.720  31.595  1.00  0.00    -0.354 N 
ATOM     49  C   UNL A   1      42.748  28.909  33.904  1.00  0.00     0.074 A 
ATOM     50  C   UNL A   1      43.318  27.772  33.214  1.00  0.00     0.031 C 
ATOM     51  C   UNL A   1      38.223  30.976  29.850  1.00  0.00     0.029 A 
ATOM     52  C   UNL A   1      38.545  31.501  31.173  1.00  0.00     0.049 A 
ATOM     53  H   UNL A   1      40.046  30.845  32.462  1.00  0.00     0.167 HD
ATOM     54  C   UNL A   1      43.147  29.338  35.126  1.00  0.00     0.031 A 
ATOM     55  C   UNL A   1      37.903  32.518  31.781  1.00  0.00     0.031 A 
ATOM     56  C   UNL A   1      42.582  30.472  35.812  1.00  0.00     0.049 A 
ATOM     57  C   UNL A   1      38.347  32.959  33.149  1.00  0.00     0.074 A 
ATOM     58  C   UNL A   1      42.962  31.016  37.028  1.00  0.00     0.029 A 
ATOM     59  N   UNL A   1      41.516  31.229  35.353  1.00  0.00    -0.354 N 
ATOM     60  N   UNL A   1      39.322  32.490  33.890  1.00  0.00    -0.248 NA
ATOM     61  C   UNL A   1      37.611  34.077  33.759  1.00  0.00     0.031 C 
ATOM     62  C   UNL A   1      42.086  32.062  37.331  1.00  0.00     0.029 A 
ATOM     63  C   UNL A   1      41.204  32.216  36.274  1.00  0.00     0.049 A 
ATOM     64  H   UNL A   1      41.050  31.088  34.496  1.00  0.00     0.167 HD
ATOM     65  C   UNL A   1      39.335  33.274  35.039  1.00  0.00     0.074 A 
ATOM     66  C   UNL A   1      38.281  34.255  34.889  1.00  0.00     0.031 C 
ATOM     67  C   UNL A   1      40.151  33.189  36.119  1.00  0.00     0.031 A 
BRANCH  54  68
ATOM     68  C   UNL A   1      44.245  28.566  35.814  1.00  0.00    -0.014 A 
ATOM     69  C   UNL A   1      43.953  27.487  36.669  1.00  0.00     0.010 A 
ATOM     70  C   UNL A   1      45.591  28.894  35.564  1.00  0.00     0.010 A 
ATOM     71  C   UNL A   1      44.985  26.781  37.296  1.00  0.00     0.020 A 
ATOM     72  C   UNL A   1      46.626  28.170  36.165  1.00  0.00     0.020 A 
ATOM     73  C   UNL A   1      46.314  27.129  37.042  1.00  0.00     0.054 A 
BRANCH  73  74
ATOM     74  S   UNL A   1      47.631  26.182  37.854  1.00  0.00     0.124 S 
ATOM     75  O   UNL A   1      48.052  25.277  36.787  1.00  0.00    -0.237 OA
ATOM     76  O   UNL A   1      48.595  27.217  38.215  1.00  0.00    -0.237 OA
ATOM     77  O   UNL A   1      46.956  25.543  38.981  1.00  0.00    -0.744 OA
ENDBRANCH  73  74
ENDBRANCH  54  68
BRANCH  55  78
ATOM     78  C   UNL A   1      36.774  33.204  31.091  1.00  0.00    -0.014 A 
ATOM     79  C   UNL A   1      36.977  33.856  29.862  1.00  0.00     0.010 A 
ATOM     80  C   UNL A   1      35.485  33.201  31.656  1.00  0.00     0.010 A 
ATOM     81  C   UNL A   1      35.920  34.507  29.221  1.00  0.00     0.020 A 
ATOM     82  C   UNL A   1      34.418  33.824  31.003  1.00  0.00     0.020 A 
ATOM     83  C   UNL A   1      34.645  34.484  29.793  1.00  0.00     0.054 A 
BRANCH  83  84
ATOM     84  S   UNL A   1      33.276  35.290  28.916  1.00  0.00     0.124 S 
ATOM     85  O   UNL A   1      32.720  34.185  28.141  1.00  0.00    -0.237 OA
ATOM     86  O   UNL A   1      32.444  35.778  30.012  1.00  0.00    -0.237 OA
ATOM     87  O   UNL A   1      33.939  36.332  28.134  1.00  0.00    -0.744 OA
ENDBRANCH  83  84
ENDBRANCH  55  78
BRANCH  67  88
ATOM     88  C   UNL A   1      39.966  34.207  37.215  1.00  0.00    -0.014 A 
ATOM     89  C   UNL A   1      40.583  35.469  37.156  1.00  0.00     0.010 A 
ATOM     90  C   UNL A   1      39.116  33.912  38.298  1.00  0.00     0.010 A 
ATOM     91  C   UNL A   1      40.378  36.406  38.174  1.00  0.00     0.020 A 
ATOM     92  C   UNL A   1      38.884  34.856  39.301  1.00  0.00     0.020 A 
ATOM     93  C   UNL A   1      39.528  36.093  39.240  1.00  0.00     0.054 A 
BRANCH  93  94
ATOM     94  S   UNL A   1      39.243  37.342  40.525  1.00  0.00     0.124 S 
ATOM     95  O   UNL A   1      40.545  37.998  40.605  1.00  0.00    -0.237 OA
ATOM     96  O   UNL A   1      38.167  38.149  39.953  1.00  0.00    -0.237 OA
ATOM     97  O   UNL A   1      38.868  36.555  41.697  1.00  0.00    -0.744 OA
ENDBRANCH  93  94
ENDBRANCH  67  88
ENDBRANCH  41  42
ENDBRANCH  33  36
ENDBRANCH  31  32
ENDBRANCH  30  31
ENDBRANCH   1  30
TORSDOF 18
ENDMDL
MODEL 3
REMARK VINA RESULT:     -11.0      6.099     12.137
REMARK SMILES O=C(COc1ccccc1C[NH+]1CCC2(CC[NH2+]CC2)CC1)NCCCCNC(=O)c1ccc(-c2c3nc(c(-c4ccc(S(=O)(=O)[O-])cc4)c4ccc([nH]4)c(-c4ccc(S(=O)(=O)[O-])cc4)c4nc(c(-c5ccc(S(=O)(=O)[O-])cc5)c5ccc2[nH]5)C=C4)C=C3)cc1
REMARK SMILES IDX 25 1 24 2 23 3 1 4 2 5 3 7 4 8 5 9 6 10 10 11 7 12 9 13 8 14
REMARK SMILES IDX 11 15 12 16 13 17 22 18 14 20 21 21 15 22 16 23 20 24 17 25
REMARK SMILES IDX 19 26 18 27 26 30 27 31 28 32 29 33 30 35 31 36 32 37 90 38
REMARK SMILES IDX 33 39 89 40 34 41 35 42 36 43 83 44 37 45 88 46 82 47 84 48
REMARK SMILES IDX 38 49 87 50 81 51 80 52 39 54 69 55 50 56 68 57 51 58 54 59
REMARK SMILES IDX 67 60 85 61 52 62 53 63 66 65 86 66 55 67 40 68 41 69 49 70
REMARK SMILES IDX 42 71 48 72 43 73 44 74 45 75 46 76 47 77 70 78 71 79 79 80
REMARK SMILES IDX 72 81 78 82 73 83 74 84 75 85 76 86 77 87 56 88 57 89 65 90
REMARK SMILES IDX 58 91 64 92 59 93 60 94 61 95 62 96 63 97
REMARK H PARENT 23 6 12 19 18 28 18 29 28 34 84 53 54 64
REMARK Flexibility Score: inf
ROOT
ATOM      1  C   UNL A   1      40.875  21.171  26.424  1.00  0.00     0.023 C 
ENDROOT
BRANCH   1   2
ATOM      2  C   UNL A   1      39.376  21.108  26.153  1.00  0.00     0.116 C 
BRANCH   2   3
ATOM      3  N   UNL A   1      38.715  22.391  25.976  1.00  0.00    -0.353 N 
ATOM      4  O   UNL A   1      37.228  21.715  24.349  1.00  0.00    -0.271 OA
ATOM      5  C   UNL A   1      37.558  22.514  25.222  1.00  0.00     0.257 C 
ATOM      6  H   UNL A   1      39.099  23.192  26.401  1.00  0.00     0.163 HD
BRANCH   5   7
ATOM      7  C   UNL A   1      36.668  23.701  25.616  1.00  0.00     0.329 C 
BRANCH   7   8
ATOM      8  O   UNL A   1      35.450  23.714  24.854  1.00  0.00    -0.483 OA
BRANCH   8   9
ATOM      9  C   UNL A   1      34.342  23.523  25.644  1.00  0.00     0.128 A 
ATOM     10  C   UNL A   1      34.499  22.741  26.794  1.00  0.00     0.047 A 
ATOM     11  C   UNL A   1      33.064  23.952  25.252  1.00  0.00     0.048 A 
ATOM     12  C   UNL A   1      33.399  22.449  27.605  1.00  0.00     0.004 A 
ATOM     13  C   UNL A   1      31.994  23.746  26.143  1.00  0.00     0.013 A 
ATOM     14  C   UNL A   1      32.151  22.981  27.297  1.00  0.00     0.001 A 
BRANCH  11  15
ATOM     15  C   UNL A   1      32.757  24.550  23.899  1.00  0.00     0.302 C 
BRANCH  15  16
ATOM     16  N   UNL A   1      32.882  26.003  23.728  1.00  0.00    -0.331 N 
ATOM     17  C   UNL A   1      32.372  26.583  22.496  1.00  0.00     0.263 C 
ATOM     18  C   UNL A   1      32.579  26.829  24.884  1.00  0.00     0.263 C 
ATOM     19  H   UNL A   1      33.896  26.039  23.624  1.00  0.00     0.348 HD
ATOM     20  C   UNL A   1      30.894  26.954  22.501  1.00  0.00     0.069 C 
ATOM     21  C   UNL A   1      31.105  27.199  25.036  1.00  0.00     0.069 C 
ATOM     22  C   UNL A   1      30.420  27.728  23.753  1.00  0.00    -0.008 C 
ATOM     23  C   UNL A   1      30.699  29.244  23.612  1.00  0.00     0.069 C 
ATOM     24  C   UNL A   1      28.889  27.520  23.905  1.00  0.00     0.069 C 
ATOM     25  C   UNL A   1      29.785  29.943  22.602  1.00  0.00     0.261 C 
ATOM     26  C   UNL A   1      28.090  28.241  22.824  1.00  0.00     0.261 C 
ATOM     27  N   UNL A   1      28.369  29.673  22.852  1.00  0.00    -0.346 N 
ATOM     28  H   UNL A   1      27.811  30.136  22.134  1.00  0.00     0.346 HD
ATOM     29  H   UNL A   1      28.132  30.030  23.778  1.00  0.00     0.346 HD
ENDBRANCH  15  16
ENDBRANCH  11  15
ENDBRANCH   8   9
ENDBRANCH   7   8
ENDBRANCH   5   7
ENDBRANCH   2   3
ENDBRANCH   1   2
BRANCH   1  30
ATOM     30  C   UNL A   1      41.327  22.112  27.542  1.00  0.00     0.023 C 
BRANCH  30  31
ATOM     31  C   UNL A   1      42.374  23.160  27.170  1.00  0.00     0.116 C 
BRANCH  31  32
ATOM     32  N   UNL A   1      41.983  24.011  26.058  1.00  0.00    -0.352 N 
ATOM     33  C   UNL A   1      41.511  25.307  26.047  1.00  0.00     0.251 C 
ATOM     34  H   UNL A   1      42.068  23.596  25.169  1.00  0.00     0.163 HD
ATOM     35  O   UNL A   1      41.130  25.801  24.990  1.00  0.00    -0.269 OA
BRANCH  33  36
ATOM     36  C   UNL A   1      41.423  26.099  27.299  1.00  0.00     0.039 A 
ATOM     37  C   UNL A   1      42.394  27.076  27.543  1.00  0.00     0.014 A 
ATOM     38  C   UNL A   1      40.414  25.879  28.239  1.00  0.00     0.014 A 
ATOM     39  C   UNL A   1      42.300  27.887  28.680  1.00  0.00     0.010 A 
ATOM     40  C   UNL A   1      40.281  26.736  29.335  1.00  0.00     0.010 A 
ATOM     41  C   UNL A   1      41.216  27.758  29.564  1.00  0.00    -0.014 A 
BRANCH  41  42
ATOM     42  C   UNL A   1      41.031  28.700  30.703  1.00  0.00     0.031 A 
ATOM     43  C   UNL A   1      41.888  28.596  31.938  1.00  0.00     0.074 A 
ATOM     44  C   UNL A   1      40.045  29.620  30.655  1.00  0.00     0.049 A 
ATOM     45  N   UNL A   1      41.838  29.302  33.040  1.00  0.00    -0.248 NA
ATOM     46  C   UNL A   1      42.923  27.550  31.944  1.00  0.00     0.031 C 
ATOM     47  C   UNL A   1      39.119  29.811  29.535  1.00  0.00     0.029 A 
ATOM     48  N   UNL A   1      39.651  30.567  31.571  1.00  0.00    -0.354 N 
ATOM     49  C   UNL A   1      42.819  28.778  33.874  1.00  0.00     0.074 A 
ATOM     50  C   UNL A   1      43.419  27.666  33.169  1.00  0.00     0.031 C 
ATOM     51  C   UNL A   1      38.289  30.827  29.817  1.00  0.00     0.029 A 
ATOM     52  C   UNL A   1      38.588  31.334  31.153  1.00  0.00     0.049 A 
ATOM     53  H   UNL A   1      40.090  30.685  32.444  1.00  0.00     0.167 HD
ATOM     54  C   UNL A   1      43.198  29.192  35.108  1.00  0.00     0.031 A 
ATOM     55  C   UNL A   1      37.920  32.326  31.773  1.00  0.00     0.031 A 
ATOM     56  C   UNL A   1      42.604  30.301  35.810  1.00  0.00     0.049 A 
ATOM     57  C   UNL A   1      38.343  32.751  33.153  1.00  0.00     0.074 A 
ATOM     58  C   UNL A   1      42.962  30.831  37.039  1.00  0.00     0.029 A 
ATOM     59  N   UNL A   1      41.527  31.045  35.354  1.00  0.00    -0.354 N 
ATOM     60  N   UNL A   1      39.321  32.288  33.895  1.00  0.00    -0.248 NA
ATOM     61  C   UNL A   1      37.578  33.841  33.777  1.00  0.00     0.031 C 
ATOM     62  C   UNL A   1      42.061  31.853  37.353  1.00  0.00     0.029 A 
ATOM     63  C   UNL A   1      41.186  32.007  36.291  1.00  0.00     0.049 A 
ATOM     64  H   UNL A   1      41.071  30.910  34.491  1.00  0.00     0.167 HD
ATOM     65  C   UNL A   1      39.307  33.051  35.058  1.00  0.00     0.074 A 
ATOM     66  C   UNL A   1      38.234  34.013  34.916  1.00  0.00     0.031 C 
ATOM     67  C   UNL A   1      40.115  32.962  36.144  1.00  0.00     0.031 A 
BRANCH  54  68
ATOM     68  C   UNL A   1      44.305  28.430  35.792  1.00  0.00    -0.014 A 
ATOM     69  C   UNL A   1      44.026  27.373  36.677  1.00  0.00     0.010 A 
ATOM     70  C   UNL A   1      45.648  28.744  35.508  1.00  0.00     0.010 A 
ATOM     71  C   UNL A   1      45.065  26.676  37.300  1.00  0.00     0.020 A 
ATOM     72  C   UNL A   1      46.691  28.028  36.105  1.00  0.00     0.020 A 
ATOM     73  C   UNL A   1      46.392  27.011  37.012  1.00  0.00     0.054 A 
BRANCH  73  74
ATOM     74  S   UNL A   1      47.719  26.074  37.820  1.00  0.00     0.124 S 
ATOM     75  O   UNL A   1      47.859  26.785  39.088  1.00  0.00    -0.237 OA
ATOM     76  O   UNL A   1      47.153  24.731  37.913  1.00  0.00    -0.237 OA
ATOM     77  O   UNL A   1      48.849  26.209  36.903  1.00  0.00    -0.744 OA
ENDBRANCH  73  74
ENDBRANCH  54  68
BRANCH  55  78
ATOM     78  C   UNL A   1      36.783  33.002  31.086  1.00  0.00    -0.014 A 
ATOM     79  C   UNL A   1      35.468  32.844  31.557  1.00  0.00     0.010 A 
ATOM     80  C   UNL A   1      37.011  33.814  29.960  1.00  0.00     0.010 A 
ATOM     81  C   UNL A   1      34.401  33.470  30.906  1.00  0.00     0.020 A 
ATOM     82  C   UNL A   1      35.951  34.468  29.325  1.00  0.00     0.020 A 
ATOM     83  C   UNL A   1      34.650  34.282  29.796  1.00  0.00     0.054 A 
BRANCH  83  84
ATOM     84  S   UNL A   1      33.255  35.128  29.000  1.00  0.00     0.124 S 
ATOM     85  O   UNL A   1      33.922  36.230  28.314  1.00  0.00    -0.237 OA
ATOM     86  O   UNL A   1      32.705  34.084  28.139  1.00  0.00    -0.237 OA
ATOM     87  O   UNL A   1      32.403  35.512  30.123  1.00  0.00    -0.744 OA
ENDBRANCH  83  84
ENDBRANCH  55  78
BRANCH  67  88
ATOM     88  C   UNL A   1      39.899  33.956  37.257  1.00  0.00    -0.014 A 
ATOM     89  C   UNL A   1      40.252  35.308  37.112  1.00  0.00     0.010 A 
ATOM     90  C   UNL A   1      39.283  33.535  38.451  1.00  0.00     0.010 A 
ATOM     91  C   UNL A   1      40.021  36.216  38.150  1.00  0.00     0.020 A 
ATOM     92  C   UNL A   1      39.022  34.444  39.479  1.00  0.00     0.020 A 
ATOM     93  C   UNL A   1      39.406  35.777  39.327  1.00  0.00     0.054 A 
BRANCH  93  94
ATOM     94  S   UNL A   1      39.077  36.984  40.641  1.00  0.00     0.124 S 
ATOM     95  O   UNL A   1      38.364  36.175  41.626  1.00  0.00    -0.237 OA
ATOM     96  O   UNL A   1      40.420  37.409  41.030  1.00  0.00    -0.237 OA
ATOM     97  O   UNL A   1      38.273  38.009  39.978  1.00  0.00    -0.744 OA
ENDBRANCH  93  94
ENDBRANCH  67  88
ENDBRANCH  41  42
ENDBRANCH  33  36
ENDBRANCH  31  32
ENDBRANCH  30  31
ENDBRANCH   1  30
TORSDOF 18
ENDMDL
