MODEL 1
REMARK VINA RESULT:     -10.8      0.000      0.000
REMARK SMILES C[C@@H](C(=O)NCCCCNC(=O)c1ccc(-c2c3nc(c(-c4ccc(S(=O)(=O)[O-])cc4)c4ccc([nH]4)c(-c4ccc(S(=O)(=O)[O-])cc4)c4nc(c(-c5ccc(S(=O)(=O)[O-])cc5)c5ccc2[nH]5)C=C4)C=C3)cc1)[C@H](C)[N@@H+]1C[C@H]2C[NH2+]C[C@@H]2[C@@H]1C
REMARK SMILES IDX 8 1 7 2 6 3 5 4 3 5 4 6 2 8 1 9 73 10 74 11 75 12 76 13
REMARK SMILES IDX 82 14 77 16 81 17 83 18 78 19 80 20 79 21 9 24 10 25 11 26
REMARK SMILES IDX 12 28 13 29 14 30 72 31 15 32 71 33 16 34 17 35 18 36 65 37
REMARK SMILES IDX 19 38 70 39 64 40 66 41 20 42 69 43 63 44 62 45 21 47 51 48
REMARK SMILES IDX 32 49 50 50 33 51 36 52 49 53 67 54 34 55 35 56 48 58 68 59
REMARK SMILES IDX 37 60 22 61 23 62 31 63 24 64 30 65 25 66 26 67 27 68 28 69
REMARK SMILES IDX 29 70 52 71 53 72 61 73 54 74 60 75 55 76 56 77 57 78 58 79
REMARK SMILES IDX 59 80 38 81 39 82 47 83 40 84 46 85 41 86 42 87 43 88 44 89
REMARK SMILES IDX 45 90
REMARK H PARENT 5 7 75 15 79 22 79 23 10 27 66 46 36 57
REMARK Flexibility Score: inf
ROOT
ATOM      1  C   UNL A   1      33.726  28.346  25.825  1.00  0.00     0.023 C 
ENDROOT
BRANCH   1   2
ATOM      2  C   UNL A   1      33.002  29.232  24.814  1.00  0.00     0.023 C 
BRANCH   2   3
ATOM      3  C   UNL A   1      33.360  28.984  23.346  1.00  0.00     0.116 C 
BRANCH   3   4
ATOM      4  N   UNL A   1      32.233  28.497  22.577  1.00  0.00    -0.356 N 
ATOM      5  C   UNL A   1      31.732  27.233  22.434  1.00  0.00     0.228 C 
ATOM      6  O   UNL A   1      30.726  27.121  21.732  1.00  0.00    -0.275 OA
ATOM      7  H   UNL A   1      31.748  29.190  22.074  1.00  0.00     0.163 HD
BRANCH   5   8
ATOM      8  C   UNL A   1      32.407  26.039  23.139  1.00  0.00     0.133 C 
ATOM      9  C   UNL A   1      33.001  25.099  22.094  1.00  0.00     0.024 C 
BRANCH   8  10
ATOM     10  C   UNL A   1      31.414  25.340  24.140  1.00  0.00     0.193 C 
ATOM     11  C   UNL A   1      30.532  26.403  24.823  1.00  0.00     0.076 C 
BRANCH  10  12
ATOM     12  N   UNL A   1      31.951  24.356  25.083  1.00  0.00    -0.329 N 
ATOM     13  C   UNL A   1      33.242  24.716  25.718  1.00  0.00     0.272 C 
ATOM     14  C   UNL A   1      31.762  22.892  25.041  1.00  0.00     0.190 C 
ATOM     15  H   UNL A   1      31.108  24.526  25.630  1.00  0.00     0.348 HD
ATOM     16  C   UNL A   1      33.910  23.377  25.875  1.00  0.00     0.114 C 
ATOM     17  C   UNL A   1      32.732  22.480  26.132  1.00  0.00     0.116 C 
ATOM     18  C   UNL A   1      31.971  22.211  23.697  1.00  0.00     0.076 C 
ATOM     19  C   UNL A   1      34.803  22.991  27.021  1.00  0.00     0.270 C 
ATOM     20  C   UNL A   1      33.415  21.153  26.304  1.00  0.00     0.271 C 
ATOM     21  N   UNL A   1      34.633  21.508  27.089  1.00  0.00    -0.345 N 
ATOM     22  H   UNL A   1      34.519  21.215  28.060  1.00  0.00     0.346 HD
ATOM     23  H   UNL A   1      35.454  21.037  26.708  1.00  0.00     0.346 HD
ENDBRANCH  10  12
ENDBRANCH   8  10
ENDBRANCH   5   8
ENDBRANCH   3   4
ENDBRANCH   2   3
ENDBRANCH   1   2
BRANCH   1  24
ATOM     24  C   UNL A   1      33.379  28.615  27.281  1.00  0.00     0.116 C 
BRANCH  24  25
ATOM     25  N   UNL A   1      33.389  30.033  27.617  1.00  0.00    -0.352 N 
ATOM     26  C   UNL A   1      34.415  30.774  28.156  1.00  0.00     0.251 C 
ATOM     27  H   UNL A   1      32.556  30.524  27.434  1.00  0.00     0.163 HD
ATOM     28  O   UNL A   1      34.234  31.941  28.489  1.00  0.00    -0.269 OA
BRANCH  26  29
ATOM     29  C   UNL A   1      35.724  30.126  28.365  1.00  0.00     0.039 A 
ATOM     30  C   UNL A   1      36.648  30.100  27.318  1.00  0.00     0.014 A 
ATOM     31  C   UNL A   1      36.059  29.622  29.625  1.00  0.00     0.014 A 
ATOM     32  C   UNL A   1      37.945  29.646  27.558  1.00  0.00     0.010 A 
ATOM     33  C   UNL A   1      37.369  29.237  29.878  1.00  0.00     0.010 A 
ATOM     34  C   UNL A   1      38.327  29.253  28.850  1.00  0.00    -0.014 A 
BRANCH  34  35
ATOM     35  C   UNL A   1      39.721  28.869  29.179  1.00  0.00     0.031 A 
ATOM     36  C   UNL A   1      40.667  29.904  29.717  1.00  0.00     0.074 A 
ATOM     37  C   UNL A   1      40.168  27.638  28.867  1.00  0.00     0.049 A 
ATOM     38  N   UNL A   1      41.961  29.829  29.889  1.00  0.00    -0.248 NA
ATOM     39  C   UNL A   1      40.083  31.209  30.066  1.00  0.00     0.031 C 
ATOM     40  C   UNL A   1      39.359  26.560  28.292  1.00  0.00     0.029 A 
ATOM     41  N   UNL A   1      41.427  27.098  28.958  1.00  0.00    -0.354 N 
ATOM     42  C   UNL A   1      42.354  31.089  30.321  1.00  0.00     0.074 A 
ATOM     43  C   UNL A   1      41.166  31.914  30.358  1.00  0.00     0.031 C 
ATOM     44  C   UNL A   1      40.142  25.490  28.078  1.00  0.00     0.029 A 
ATOM     45  C   UNL A   1      41.512  25.818  28.462  1.00  0.00     0.049 A 
ATOM     46  H   UNL A   1      42.194  27.580  29.341  1.00  0.00     0.167 HD
ATOM     47  C   UNL A   1      43.593  31.520  30.659  1.00  0.00     0.031 A 
ATOM     48  C   UNL A   1      42.576  25.006  28.309  1.00  0.00     0.031 A 
ATOM     49  C   UNL A   1      44.765  30.689  30.645  1.00  0.00     0.049 A 
ATOM     50  C   UNL A   1      43.935  25.485  28.734  1.00  0.00     0.074 A 
ATOM     51  C   UNL A   1      46.051  31.008  31.044  1.00  0.00     0.029 A 
ATOM     52  N   UNL A   1      44.794  29.374  30.207  1.00  0.00    -0.354 N 
ATOM     53  N   UNL A   1      44.280  26.659  29.205  1.00  0.00    -0.248 NA
ATOM     54  C   UNL A   1      45.044  24.528  28.619  1.00  0.00     0.031 C 
ATOM     55  C   UNL A   1      46.865  29.892  30.817  1.00  0.00     0.029 A 
ATOM     56  C   UNL A   1      46.078  28.868  30.314  1.00  0.00     0.049 A 
ATOM     57  H   UNL A   1      44.016  28.872  29.872  1.00  0.00     0.167 HD
ATOM     58  C   UNL A   1      45.643  26.578  29.461  1.00  0.00     0.074 A 
ATOM     59  C   UNL A   1      46.058  25.237  29.099  1.00  0.00     0.031 C 
ATOM     60  C   UNL A   1      46.473  27.529  29.955  1.00  0.00     0.031 A 
BRANCH  47  61
ATOM     61  C   UNL A   1      43.729  32.967  31.047  1.00  0.00    -0.014 A 
ATOM     62  C   UNL A   1      43.917  33.968  30.076  1.00  0.00     0.010 A 
ATOM     63  C   UNL A   1      43.692  33.327  32.406  1.00  0.00     0.010 A 
ATOM     64  C   UNL A   1      44.136  35.293  30.461  1.00  0.00     0.020 A 
ATOM     65  C   UNL A   1      43.883  34.657  32.794  1.00  0.00     0.020 A 
ATOM     66  C   UNL A   1      44.133  35.625  31.819  1.00  0.00     0.054 A 
BRANCH  66  67
ATOM     67  S   UNL A   1      44.451  37.345  32.301  1.00  0.00     0.124 S 
ATOM     68  O   UNL A   1      45.811  37.261  32.826  1.00  0.00    -0.237 OA
ATOM     69  O   UNL A   1      44.309  38.068  31.040  1.00  0.00    -0.237 OA
ATOM     70  O   UNL A   1      43.415  37.622  33.293  1.00  0.00    -0.744 OA
ENDBRANCH  66  67
ENDBRANCH  47  61
BRANCH  48  71
ATOM     71  C   UNL A   1      42.377  23.651  27.730  1.00  0.00    -0.014 A 
ATOM     72  C   UNL A   1      42.594  23.428  26.359  1.00  0.00     0.010 A 
ATOM     73  C   UNL A   1      42.046  22.564  28.559  1.00  0.00     0.010 A 
ATOM     74  C   UNL A   1      42.491  22.139  25.828  1.00  0.00     0.020 A 
ATOM     75  C   UNL A   1      41.962  21.272  28.035  1.00  0.00     0.020 A 
ATOM     76  C   UNL A   1      42.184  21.067  26.671  1.00  0.00     0.054 A 
BRANCH  76  77
ATOM     77  S   UNL A   1      42.161  19.388  25.983  1.00  0.00     0.124 S 
ATOM     78  O   UNL A   1      42.707  18.601  27.084  1.00  0.00    -0.237 OA
ATOM     79  O   UNL A   1      40.743  19.181  25.698  1.00  0.00    -0.237 OA
ATOM     80  O   UNL A   1      43.015  19.492  24.802  1.00  0.00    -0.744 OA
ENDBRANCH  76  77
ENDBRANCH  48  71
BRANCH  60  81
ATOM     81  C   UNL A   1      47.913  27.154  30.168  1.00  0.00    -0.014 A 
ATOM     82  C   UNL A   1      48.885  27.427  29.191  1.00  0.00     0.010 A 
ATOM     83  C   UNL A   1      48.309  26.606  31.402  1.00  0.00     0.010 A 
ATOM     84  C   UNL A   1      50.232  27.149  29.441  1.00  0.00     0.020 A 
ATOM     85  C   UNL A   1      49.656  26.346  31.663  1.00  0.00     0.020 A 
ATOM     86  C   UNL A   1      50.609  26.613  30.677  1.00  0.00     0.054 A 
BRANCH  86  87
ATOM     87  S   UNL A   1      52.371  26.334  31.011  1.00  0.00     0.124 S 
ATOM     88  O   UNL A   1      52.343  25.082  31.761  1.00  0.00    -0.237 OA
ATOM     89  O   UNL A   1      52.944  26.251  29.669  1.00  0.00    -0.237 OA
ATOM     90  O   UNL A   1      52.766  27.513  31.778  1.00  0.00    -0.744 OA
ENDBRANCH  86  87
ENDBRANCH  60  81
ENDBRANCH  34  35
ENDBRANCH  26  29
ENDBRANCH  24  25
ENDBRANCH   1  24
TORSDOF 16
ENDMDL
MODEL 2
REMARK VINA RESULT:     -10.4      1.417      2.074
REMARK SMILES C[C@@H](C(=O)NCCCCNC(=O)c1ccc(-c2c3nc(c(-c4ccc(S(=O)(=O)[O-])cc4)c4ccc([nH]4)c(-c4ccc(S(=O)(=O)[O-])cc4)c4nc(c(-c5ccc(S(=O)(=O)[O-])cc5)c5ccc2[nH]5)C=C4)C=C3)cc1)[C@H](C)[N@@H+]1C[C@H]2C[NH2+]C[C@@H]2[C@@H]1C
REMARK SMILES IDX 8 1 7 2 6 3 5 4 3 5 4 6 2 8 1 9 73 10 74 11 75 12 76 13
REMARK SMILES IDX 82 14 77 16 81 17 83 18 78 19 80 20 79 21 9 24 10 25 11 26
REMARK SMILES IDX 12 28 13 29 14 30 72 31 15 32 71 33 16 34 17 35 18 36 65 37
REMARK SMILES IDX 19 38 70 39 64 40 66 41 20 42 69 43 63 44 62 45 21 47 51 48
REMARK SMILES IDX 32 49 50 50 33 51 36 52 49 53 67 54 34 55 35 56 48 58 68 59
REMARK SMILES IDX 37 60 22 61 23 62 31 63 24 64 30 65 25 66 26 67 27 68 28 69
REMARK SMILES IDX 29 70 52 71 53 72 61 73 54 74 60 75 55 76 56 77 57 78 58 79
REMARK SMILES IDX 59 80 38 81 39 82 47 83 40 84 46 85 41 86 42 87 43 88 44 89
REMARK SMILES IDX 45 90
REMARK H PARENT 5 7 75 15 79 22 79 23 10 27 66 46 36 57
REMARK Flexibility Score: inf
ROOT
ATOM      1  C   UNL A   1      32.325  28.130  27.477  1.00  0.00     0.023 C 
ENDROOT
BRANCH   1   2
ATOM      2  C   UNL A   1      31.409  28.034  26.260  1.00  0.00     0.023 C 
BRANCH   2   3
ATOM      3  C   UNL A   1      30.927  26.624  25.908  1.00  0.00     0.116 C 
BRANCH   3   4
ATOM      4  N   UNL A   1      31.414  25.625  26.838  1.00  0.00    -0.356 N 
ATOM      5  C   UNL A   1      31.515  24.268  26.716  1.00  0.00     0.228 C 
ATOM      6  O   UNL A   1      32.008  23.668  27.672  1.00  0.00    -0.275 OA
ATOM      7  H   UNL A   1      31.725  25.984  27.701  1.00  0.00     0.163 HD
BRANCH   5   8
ATOM      8  C   UNL A   1      31.039  23.560  25.431  1.00  0.00     0.133 C 
ATOM      9  C   UNL A   1      30.489  22.181  25.781  1.00  0.00     0.024 C 
BRANCH   8  10
ATOM     10  C   UNL A   1      32.177  23.540  24.343  1.00  0.00     0.193 C 
ATOM     11  C   UNL A   1      31.722  22.707  23.130  1.00  0.00     0.076 C 
BRANCH  10  12
ATOM     12  N   UNL A   1      33.544  23.224  24.769  1.00  0.00    -0.329 N 
ATOM     13  C   UNL A   1      34.621  23.945  24.050  1.00  0.00     0.272 C 
ATOM     14  C   UNL A   1      34.027  21.941  25.317  1.00  0.00     0.190 C 
ATOM     15  H   UNL A   1      33.269  23.596  25.678  1.00  0.00     0.348 HD
ATOM     16  C   UNL A   1      35.730  22.929  24.025  1.00  0.00     0.114 C 
ATOM     17  C   UNL A   1      35.517  22.218  25.332  1.00  0.00     0.116 C 
ATOM     18  C   UNL A   1      33.610  20.678  24.578  1.00  0.00     0.076 C 
ATOM     19  C   UNL A   1      37.195  23.251  24.124  1.00  0.00     0.270 C 
ATOM     20  C   UNL A   1      36.640  21.220  25.301  1.00  0.00     0.271 C 
ATOM     21  N   UNL A   1      37.768  22.009  24.726  1.00  0.00    -0.345 N 
ATOM     22  H   UNL A   1      38.432  22.254  25.461  1.00  0.00     0.346 HD
ATOM     23  H   UNL A   1      38.261  21.464  24.019  1.00  0.00     0.346 HD
ENDBRANCH  10  12
ENDBRANCH   8  10
ENDBRANCH   5   8
ENDBRANCH   3   4
ENDBRANCH   2   3
ENDBRANCH   1   2
BRANCH   1  24
ATOM     24  C   UNL A   1      33.631  28.873  27.243  1.00  0.00     0.116 C 
BRANCH  24  25
ATOM     25  N   UNL A   1      33.613  30.235  27.759  1.00  0.00    -0.352 N 
ATOM     26  C   UNL A   1      34.616  30.913  28.410  1.00  0.00     0.251 C 
ATOM     27  H   UNL A   1      32.776  30.735  27.622  1.00  0.00     0.163 HD
ATOM     28  O   UNL A   1      34.411  32.025  28.887  1.00  0.00    -0.269 OA
BRANCH  26  29
ATOM     29  C   UNL A   1      35.931  30.261  28.564  1.00  0.00     0.039 A 
ATOM     30  C   UNL A   1      36.851  30.326  27.515  1.00  0.00     0.014 A 
ATOM     31  C   UNL A   1      36.274  29.659  29.777  1.00  0.00     0.014 A 
ATOM     32  C   UNL A   1      38.152  29.863  27.714  1.00  0.00     0.010 A 
ATOM     33  C   UNL A   1      37.587  29.264  29.995  1.00  0.00     0.010 A 
ATOM     34  C   UNL A   1      38.541  29.371  28.969  1.00  0.00    -0.014 A 
BRANCH  34  35
ATOM     35  C   UNL A   1      39.939  28.972  29.262  1.00  0.00     0.031 A 
ATOM     36  C   UNL A   1      40.911  29.998  29.769  1.00  0.00     0.074 A 
ATOM     37  C   UNL A   1      40.363  27.734  28.944  1.00  0.00     0.049 A 
ATOM     38  N   UNL A   1      42.208  29.908  29.906  1.00  0.00    -0.248 NA
ATOM     39  C   UNL A   1      40.353  31.311  30.127  1.00  0.00     0.031 C 
ATOM     40  C   UNL A   1      39.526  26.663  28.397  1.00  0.00     0.029 A 
ATOM     41  N   UNL A   1      41.618  27.179  29.004  1.00  0.00    -0.354 N 
ATOM     42  C   UNL A   1      42.628  31.165  30.321  1.00  0.00     0.074 A 
ATOM     43  C   UNL A   1      41.451  32.005  30.387  1.00  0.00     0.031 C 
ATOM     44  C   UNL A   1      40.291  25.583  28.167  1.00  0.00     0.029 A 
ATOM     45  C   UNL A   1      41.674  25.896  28.512  1.00  0.00     0.049 A 
ATOM     46  H   UNL A   1      42.400  27.654  29.364  1.00  0.00     0.167 HD
ATOM     47  C   UNL A   1      43.880  31.583  30.624  1.00  0.00     0.031 A 
ATOM     48  C   UNL A   1      42.724  25.071  28.334  1.00  0.00     0.031 A 
ATOM     49  C   UNL A   1      45.042  30.738  30.583  1.00  0.00     0.049 A 
ATOM     50  C   UNL A   1      44.099  25.536  28.720  1.00  0.00     0.074 A 
ATOM     51  C   UNL A   1      46.341  31.044  30.945  1.00  0.00     0.029 A 
ATOM     52  N   UNL A   1      45.044  29.421  30.151  1.00  0.00    -0.354 N 
ATOM     53  N   UNL A   1      44.471  26.708  29.176  1.00  0.00    -0.248 NA
ATOM     54  C   UNL A   1      45.194  24.566  28.581  1.00  0.00     0.031 C 
ATOM     55  C   UNL A   1      47.136  29.918  30.702  1.00  0.00     0.029 A 
ATOM     56  C   UNL A   1      46.324  28.900  30.225  1.00  0.00     0.049 A 
ATOM     57  H   UNL A   1      44.251  28.927  29.838  1.00  0.00     0.167 HD
ATOM     58  C   UNL A   1      45.839  26.612  29.396  1.00  0.00     0.074 A 
ATOM     59  C   UNL A   1      46.229  25.265  29.030  1.00  0.00     0.031 C 
ATOM     60  C   UNL A   1      46.694  27.555  29.862  1.00  0.00     0.031 A 
BRANCH  47  61
ATOM     61  C   UNL A   1      44.044  33.031  31.001  1.00  0.00    -0.014 A 
ATOM     62  C   UNL A   1      44.018  33.439  32.348  1.00  0.00     0.010 A 
ATOM     63  C   UNL A   1      44.204  33.997  29.994  1.00  0.00     0.010 A 
ATOM     64  C   UNL A   1      44.077  34.796  32.674  1.00  0.00     0.020 A 
ATOM     65  C   UNL A   1      44.292  35.354  30.318  1.00  0.00     0.020 A 
ATOM     66  C   UNL A   1      44.199  35.746  31.655  1.00  0.00     0.054 A 
BRANCH  66  67
ATOM     67  S   UNL A   1      44.242  37.504  32.097  1.00  0.00     0.124 S 
ATOM     68  O   UNL A   1      43.835  38.137  30.845  1.00  0.00    -0.237 OA
ATOM     69  O   UNL A   1      43.274  37.591  33.188  1.00  0.00    -0.237 OA
ATOM     70  O   UNL A   1      45.633  37.728  32.485  1.00  0.00    -0.744 OA
ENDBRANCH  66  67
ENDBRANCH  47  61
BRANCH  48  71
ATOM     71  C   UNL A   1      42.494  23.716  27.768  1.00  0.00    -0.014 A 
ATOM     72  C   UNL A   1      42.535  23.513  26.377  1.00  0.00     0.010 A 
ATOM     73  C   UNL A   1      42.309  22.611  28.618  1.00  0.00     0.010 A 
ATOM     74  C   UNL A   1      42.404  22.227  25.847  1.00  0.00     0.020 A 
ATOM     75  C   UNL A   1      42.198  21.321  28.091  1.00  0.00     0.020 A 
ATOM     76  C   UNL A   1      42.245  21.138  26.708  1.00  0.00     0.054 A 
BRANCH  76  77
ATOM     77  S   UNL A   1      42.185  19.465  26.005  1.00  0.00     0.124 S 
ATOM     78  O   UNL A   1      40.780  19.344  25.628  1.00  0.00    -0.237 OA
ATOM     79  O   UNL A   1      43.133  19.553  24.895  1.00  0.00    -0.237 OA
ATOM     80  O   UNL A   1      42.615  18.615  27.112  1.00  0.00    -0.744 OA
ENDBRANCH  76  77
ENDBRANCH  48  71
BRANCH  60  81
ATOM     81  C   UNL A   1      48.134  27.164  30.039  1.00  0.00    -0.014 A 
ATOM     82  C   UNL A   1      49.116  27.589  29.128  1.00  0.00     0.010 A 
ATOM     83  C   UNL A   1      48.519  26.441  31.182  1.00  0.00     0.010 A 
ATOM     84  C   UNL A   1      50.462  27.288  29.354  1.00  0.00     0.020 A 
ATOM     85  C   UNL A   1      49.866  26.156  31.421  1.00  0.00     0.020 A 
ATOM     86  C   UNL A   1      50.828  26.575  30.501  1.00  0.00     0.054 A 
BRANCH  86  87
ATOM     87  S   UNL A   1      52.589  26.264  30.815  1.00  0.00     0.124 S 
ATOM     88  O   UNL A   1      53.092  25.989  29.472  1.00  0.00    -0.237 OA
ATOM     89  O   UNL A   1      53.038  27.521  31.409  1.00  0.00    -0.237 OA
ATOM     90  O   UNL A   1      52.579  25.121  31.725  1.00  0.00    -0.744 OA
ENDBRANCH  86  87
ENDBRANCH  60  81
ENDBRANCH  34  35
ENDBRANCH  26  29
ENDBRANCH  24  25
ENDBRANCH   1  24
TORSDOF 16
ENDMDL
MODEL 3
REMARK VINA RESULT:     -10.1      2.668      9.367
REMARK SMILES C[C@@H](C(=O)NCCCCNC(=O)c1ccc(-c2c3nc(c(-c4ccc(S(=O)(=O)[O-])cc4)c4ccc([nH]4)c(-c4ccc(S(=O)(=O)[O-])cc4)c4nc(c(-c5ccc(S(=O)(=O)[O-])cc5)c5ccc2[nH]5)C=C4)C=C3)cc1)[C@H](C)[N@@H+]1C[C@H]2C[NH2+]C[C@@H]2[C@@H]1C
REMARK SMILES IDX 8 1 7 2 6 3 5 4 3 5 4 6 2 8 1 9 73 10 74 11 75 12 76 13
REMARK SMILES IDX 82 14 77 16 81 17 83 18 78 19 80 20 79 21 9 24 10 25 11 26
REMARK SMILES IDX 12 28 13 29 14 30 72 31 15 32 71 33 16 34 17 35 18 36 65 37
REMARK SMILES IDX 19 38 70 39 64 40 66 41 20 42 69 43 63 44 62 45 21 47 51 48
REMARK SMILES IDX 32 49 50 50 33 51 36 52 49 53 67 54 34 55 35 56 48 58 68 59
REMARK SMILES IDX 37 60 22 61 23 62 31 63 24 64 30 65 25 66 26 67 27 68 28 69
REMARK SMILES IDX 29 70 52 71 53 72 61 73 54 74 60 75 55 76 56 77 57 78 58 79
REMARK SMILES IDX 59 80 38 81 39 82 47 83 40 84 46 85 41 86 42 87 43 88 44 89
REMARK SMILES IDX 45 90
REMARK H PARENT 5 7 75 15 79 22 79 23 10 27 66 46 36 57
REMARK Flexibility Score: inf
ROOT
ATOM      1  C   UNL A   1      36.852  23.762  24.703  1.00  0.00     0.023 C 
ENDROOT
BRANCH   1   2
ATOM      2  C   UNL A   1      36.459  22.843  23.549  1.00  0.00     0.023 C 
BRANCH   2   3
ATOM      3  C   UNL A   1      34.963  22.793  23.228  1.00  0.00     0.116 C 
BRANCH   3   4
ATOM      4  N   UNL A   1      34.228  21.946  24.146  1.00  0.00    -0.356 N 
ATOM      5  C   UNL A   1      33.199  22.237  24.998  1.00  0.00     0.228 C 
ATOM      6  O   UNL A   1      32.741  21.293  25.643  1.00  0.00    -0.275 OA
ATOM      7  H   UNL A   1      34.517  21.005  24.158  1.00  0.00     0.163 HD
BRANCH   5   8
ATOM      8  C   UNL A   1      32.660  23.678  25.111  1.00  0.00     0.133 C 
ATOM      9  C   UNL A   1      32.256  23.960  26.554  1.00  0.00     0.024 C 
BRANCH   8  10
ATOM     10  C   UNL A   1      31.516  23.935  24.060  1.00  0.00     0.193 C 
ATOM     11  C   UNL A   1      31.380  22.714  23.131  1.00  0.00     0.076 C 
BRANCH  10  12
ATOM     12  N   UNL A   1      31.511  25.207  23.332  1.00  0.00    -0.329 N 
ATOM     13  C   UNL A   1      32.828  25.875  23.201  1.00  0.00     0.272 C 
ATOM     14  C   UNL A   1      30.404  26.181  23.258  1.00  0.00     0.190 C 
ATOM     15  H   UNL A   1      31.189  24.664  22.532  1.00  0.00     0.348 HD
ATOM     16  C   UNL A   1      32.458  27.332  23.243  1.00  0.00     0.114 C 
ATOM     17  C   UNL A   1      31.118  27.323  22.561  1.00  0.00     0.116 C 
ATOM     18  C   UNL A   1      29.720  26.546  24.567  1.00  0.00     0.076 C 
ATOM     19  C   UNL A   1      33.151  28.419  22.469  1.00  0.00     0.270 C 
ATOM     20  C   UNL A   1      30.770  28.784  22.595  1.00  0.00     0.271 C 
ATOM     21  N   UNL A   1      32.076  29.442  22.297  1.00  0.00    -0.345 N 
ATOM     22  H   UNL A   1      32.078  29.791  21.339  1.00  0.00     0.346 HD
ATOM     23  H   UNL A   1      32.229  30.230  22.925  1.00  0.00     0.346 HD
ENDBRANCH  10  12
ENDBRANCH   8  10
ENDBRANCH   5   8
ENDBRANCH   3   4
ENDBRANCH   2   3
ENDBRANCH   1   2
BRANCH   1  24
ATOM     24  C   UNL A   1      36.971  23.079  26.057  1.00  0.00     0.116 C 
BRANCH  24  25
ATOM     25  N   UNL A   1      38.193  22.298  26.197  1.00  0.00    -0.352 N 
ATOM     26  C   UNL A   1      39.435  22.725  26.604  1.00  0.00     0.251 C 
ATOM     27  H   UNL A   1      38.120  21.343  25.972  1.00  0.00     0.163 HD
ATOM     28  O   UNL A   1      40.400  21.968  26.564  1.00  0.00    -0.269 OA
BRANCH  26  29
ATOM     29  C   UNL A   1      39.594  24.123  27.051  1.00  0.00     0.039 A 
ATOM     30  C   UNL A   1      39.252  24.464  28.360  1.00  0.00     0.014 A 
ATOM     31  C   UNL A   1      40.161  25.068  26.192  1.00  0.00     0.014 A 
ATOM     32  C   UNL A   1      39.558  25.737  28.842  1.00  0.00     0.010 A 
ATOM     33  C   UNL A   1      40.529  26.310  26.694  1.00  0.00     0.010 A 
ATOM     34  C   UNL A   1      40.239  26.653  28.025  1.00  0.00    -0.014 A 
BRANCH  34  35
ATOM     35  C   UNL A   1      40.686  27.976  28.524  1.00  0.00     0.031 A 
ATOM     36  C   UNL A   1      42.074  28.130  29.075  1.00  0.00     0.074 A 
ATOM     37  C   UNL A   1      39.806  28.993  28.610  1.00  0.00     0.049 A 
ATOM     38  N   UNL A   1      42.596  29.135  29.728  1.00  0.00    -0.248 NA
ATOM     39  C   UNL A   1      42.979  26.982  28.903  1.00  0.00     0.031 C 
ATOM     40  C   UNL A   1      38.413  28.951  28.157  1.00  0.00     0.029 A 
ATOM     41  N   UNL A   1      39.945  30.250  29.143  1.00  0.00    -0.354 N 
ATOM     42  C   UNL A   1      43.874  28.725  30.087  1.00  0.00     0.074 A 
ATOM     43  C   UNL A   1      44.036  27.371  29.602  1.00  0.00     0.031 C 
ATOM     44  C   UNL A   1      37.826  30.127  28.434  1.00  0.00     0.029 A 
ATOM     45  C   UNL A   1      38.786  30.988  29.119  1.00  0.00     0.049 A 
ATOM     46  H   UNL A   1      40.794  30.590  29.507  1.00  0.00     0.167 HD
ATOM     47  C   UNL A   1      44.828  29.413  30.757  1.00  0.00     0.031 A 
ATOM     48  C   UNL A   1      38.515  32.211  29.614  1.00  0.00     0.031 A 
ATOM     49  C   UNL A   1      44.671  30.767  31.213  1.00  0.00     0.049 A 
ATOM     50  C   UNL A   1      39.600  32.980  30.313  1.00  0.00     0.074 A 
ATOM     51  C   UNL A   1      45.604  31.580  31.832  1.00  0.00     0.029 A 
ATOM     52  N   UNL A   1      43.504  31.507  31.101  1.00  0.00    -0.354 N 
ATOM     53  N   UNL A   1      40.826  32.603  30.585  1.00  0.00    -0.248 NA
ATOM     54  C   UNL A   1      39.271  34.340  30.760  1.00  0.00     0.031 C 
ATOM     55  C   UNL A   1      44.989  32.804  32.123  1.00  0.00     0.029 A 
ATOM     56  C   UNL A   1      43.687  32.764  31.650  1.00  0.00     0.049 A 
ATOM     57  H   UNL A   1      42.669  31.186  30.691  1.00  0.00     0.167 HD
ATOM     58  C   UNL A   1      41.422  33.686  31.219  1.00  0.00     0.074 A 
ATOM     59  C   UNL A   1      40.425  34.735  31.284  1.00  0.00     0.031 C 
ATOM     60  C   UNL A   1      42.684  33.799  31.701  1.00  0.00     0.031 A 
BRANCH  47  61
ATOM     61  C   UNL A   1      46.114  28.689  31.051  1.00  0.00    -0.014 A 
ATOM     62  C   UNL A   1      47.219  28.788  30.186  1.00  0.00     0.010 A 
ATOM     63  C   UNL A   1      46.208  27.880  32.196  1.00  0.00     0.010 A 
ATOM     64  C   UNL A   1      48.371  28.035  30.424  1.00  0.00     0.020 A 
ATOM     65  C   UNL A   1      47.370  27.147  32.454  1.00  0.00     0.020 A 
ATOM     66  C   UNL A   1      48.433  27.207  31.549  1.00  0.00     0.054 A 
BRANCH  66  67
ATOM     67  S   UNL A   1      49.925  26.213  31.825  1.00  0.00     0.124 S 
ATOM     68  O   UNL A   1      49.793  25.861  33.236  1.00  0.00    -0.237 OA
ATOM     69  O   UNL A   1      49.758  25.108  30.884  1.00  0.00    -0.237 OA
ATOM     70  O   UNL A   1      51.015  27.134  31.511  1.00  0.00    -0.744 OA
ENDBRANCH  66  67
ENDBRANCH  47  61
BRANCH  48  71
ATOM     71  C   UNL A   1      37.149  32.775  29.448  1.00  0.00    -0.014 A 
ATOM     72  C   UNL A   1      36.295  32.900  30.558  1.00  0.00     0.010 A 
ATOM     73  C   UNL A   1      36.726  33.259  28.197  1.00  0.00     0.010 A 
ATOM     74  C   UNL A   1      35.044  33.508  30.420  1.00  0.00     0.020 A 
ATOM     75  C   UNL A   1      35.484  33.885  28.061  1.00  0.00     0.020 A 
ATOM     76  C   UNL A   1      34.650  34.004  29.175  1.00  0.00     0.054 A 
BRANCH  76  77
ATOM     77  S   UNL A   1      33.068  34.885  29.042  1.00  0.00     0.124 S 
ATOM     78  O   UNL A   1      32.351  34.075  28.062  1.00  0.00    -0.237 OA
ATOM     79  O   UNL A   1      32.555  34.824  30.410  1.00  0.00    -0.237 OA
ATOM     80  O   UNL A   1      33.457  36.219  28.592  1.00  0.00    -0.744 OA
ENDBRANCH  76  77
ENDBRANCH  48  71
BRANCH  60  81
ATOM     81  C   UNL A   1      43.080  35.113  32.314  1.00  0.00    -0.014 A 
ATOM     82  C   UNL A   1      43.712  36.108  31.549  1.00  0.00     0.010 A 
ATOM     83  C   UNL A   1      42.730  35.387  33.649  1.00  0.00     0.010 A 
ATOM     84  C   UNL A   1      43.996  37.355  32.113  1.00  0.00     0.020 A 
ATOM     85  C   UNL A   1      42.995  36.639  34.209  1.00  0.00     0.020 A 
ATOM     86  C   UNL A   1      43.633  37.613  33.439  1.00  0.00     0.054 A 
BRANCH  86  87
ATOM     87  S   UNL A   1      43.939  39.265  34.127  1.00  0.00     0.124 S 
ATOM     88  O   UNL A   1      44.061  38.981  35.554  1.00  0.00    -0.237 OA
ATOM     89  O   UNL A   1      45.174  39.669  33.458  1.00  0.00    -0.237 OA
ATOM     90  O   UNL A   1      42.752  40.024  33.739  1.00  0.00    -0.744 OA
ENDBRANCH  86  87
ENDBRANCH  60  81
ENDBRANCH  34  35
ENDBRANCH  26  29
ENDBRANCH  24  25
ENDBRANCH   1  24
TORSDOF 16
ENDMDL
