MODEL 1
REMARK VINA RESULT:     -11.5      0.000      0.000
REMARK SMILES O=C(Cc1csc(N2C(=O)C[C@H](Nc3cccc(F)c3)C2=O)n1)NCCCCNC(=O)c1ccc(-c2c3nc(c(-c4ccc(S(=O)(=O)[O-])cc4)c4ccc([nH]4)c(-c4ccc(S(=O)(=O)[O-])cc4)c4nc(c(-c5ccc(S(=O)(=O)[O-])cc5)c5ccc2[nH]5)C=C4)C=C3)cc1
REMARK SMILES IDX 26 1 25 2 24 3 1 4 2 5 3 7 4 8 5 9 23 10 6 11 7 12 8 13 9 14
REMARK SMILES IDX 21 15 10 16 11 17 12 18 22 19 13 20 14 22 15 23 20 24 16 25
REMARK SMILES IDX 18 26 17 27 19 28 27 29 28 30 29 31 30 32 31 34 32 35 33 36
REMARK SMILES IDX 91 37 34 38 90 39 35 40 36 41 37 42 84 43 38 44 89 45 83 46
REMARK SMILES IDX 85 47 39 48 88 49 82 50 81 51 40 53 70 54 51 55 69 56 52 57
REMARK SMILES IDX 55 58 68 59 86 60 53 61 54 62 67 64 87 65 56 66 41 67 42 68
REMARK SMILES IDX 50 69 43 70 49 71 44 72 45 73 46 74 47 75 48 76 71 77 72 78
REMARK SMILES IDX 80 79 73 80 79 81 74 82 75 83 76 84 77 85 78 86 57 87 58 88
REMARK SMILES IDX 66 89 59 90 65 91 60 92 61 93 62 94 63 95 64 96
REMARK H PARENT 24 6 13 21 29 33 85 52 55 63
REMARK Flexibility Score: inf
ROOT
ATOM      1  C   UNL A   1      33.948  31.446  27.810  1.00  0.00     0.023 C 
ENDROOT
BRANCH   1   2
ATOM      2  C   UNL A   1      32.808  31.143  26.838  1.00  0.00     0.116 C 
BRANCH   2   3
ATOM      3  N   UNL A   1      32.054  29.965  27.223  1.00  0.00    -0.356 N 
ATOM      4  O   UNL A   1      32.936  28.592  25.611  1.00  0.00    -0.275 OA
ATOM      5  C   UNL A   1      32.191  28.752  26.575  1.00  0.00     0.226 C 
ATOM      6  H   UNL A   1      31.419  30.032  27.973  1.00  0.00     0.163 HD
BRANCH   5   7
ATOM      7  C   UNL A   1      31.270  27.657  27.074  1.00  0.00     0.157 C 
BRANCH   7   8
ATOM      8  C   UNL A   1      31.143  26.496  26.142  1.00  0.00     0.063 A 
ATOM      9  C   UNL A   1      30.495  26.482  24.921  1.00  0.00     0.093 A 
ATOM     10  N   UNL A   1      31.812  25.315  26.438  1.00  0.00    -0.224 NA
ATOM     11  S   UNL A   1      30.800  25.009  24.108  1.00  0.00    -0.104 S 
ATOM     12  C   UNL A   1      31.764  24.475  25.426  1.00  0.00     0.199 A 
BRANCH  12  13
ATOM     13  N   UNL A   1      32.356  23.232  25.373  1.00  0.00    -0.223 N 
ATOM     14  C   UNL A   1      33.609  23.061  24.851  1.00  0.00     0.238 C 
ATOM     15  C   UNL A   1      31.748  22.055  25.733  1.00  0.00     0.258 C 
ATOM     16  O   UNL A   1      34.394  23.886  24.412  1.00  0.00    -0.274 OA
ATOM     17  C   UNL A   1      33.984  21.614  24.964  1.00  0.00     0.136 C 
ATOM     18  C   UNL A   1      32.735  20.924  25.481  1.00  0.00     0.179 C 
ATOM     19  O   UNL A   1      30.603  21.873  26.128  1.00  0.00    -0.272 OA
BRANCH  18  20
ATOM     20  N   UNL A   1      32.253  19.961  24.485  1.00  0.00    -0.373 N 
ATOM     21  H   UNL A   1      31.640  20.260  23.774  1.00  0.00     0.161 HD
BRANCH  20  22
ATOM     22  C   UNL A   1      32.654  18.636  24.534  1.00  0.00     0.038 A 
ATOM     23  C   UNL A   1      32.524  17.858  25.692  1.00  0.00     0.026 A 
ATOM     24  C   UNL A   1      33.292  18.069  23.426  1.00  0.00     0.065 A 
ATOM     25  C   UNL A   1      32.996  16.541  25.737  1.00  0.00     0.005 A 
ATOM     26  C   UNL A   1      33.779  16.766  23.483  1.00  0.00     0.125 A 
ATOM     27  C   UNL A   1      33.635  15.994  24.629  1.00  0.00     0.039 A 
ATOM     28  F   UNL A   1      34.412  16.253  22.419  1.00  0.00    -0.207 F 
ENDBRANCH  20  22
ENDBRANCH  18  20
ENDBRANCH  12  13
ENDBRANCH   7   8
ENDBRANCH   5   7
ENDBRANCH   2   3
ENDBRANCH   1   2
BRANCH   1  29
ATOM     29  C   UNL A   1      35.204  30.586  27.639  1.00  0.00     0.023 C 
BRANCH  29  30
ATOM     30  C   UNL A   1      35.598  29.737  28.845  1.00  0.00     0.116 C 
BRANCH  30  31
ATOM     31  N   UNL A   1      35.639  30.495  30.084  1.00  0.00    -0.352 N 
ATOM     32  C   UNL A   1      36.718  30.835  30.866  1.00  0.00     0.251 C 
ATOM     33  H   UNL A   1      34.767  30.811  30.412  1.00  0.00     0.163 HD
ATOM     34  O   UNL A   1      36.530  31.370  31.956  1.00  0.00    -0.269 OA
BRANCH  32  35
ATOM     35  C   UNL A   1      38.099  30.533  30.421  1.00  0.00     0.039 A 
ATOM     36  C   UNL A   1      38.980  29.933  31.327  1.00  0.00     0.014 A 
ATOM     37  C   UNL A   1      38.536  30.846  29.130  1.00  0.00     0.014 A 
ATOM     38  C   UNL A   1      40.271  29.585  30.918  1.00  0.00     0.010 A 
ATOM     39  C   UNL A   1      39.801  30.441  28.705  1.00  0.00     0.010 A 
ATOM     40  C   UNL A   1      40.680  29.800  29.592  1.00  0.00    -0.014 A 
BRANCH  40  41
ATOM     41  C   UNL A   1      42.014  29.348  29.113  1.00  0.00     0.031 A 
ATOM     42  C   UNL A   1      43.160  30.318  29.013  1.00  0.00     0.074 A 
ATOM     43  C   UNL A   1      42.178  28.075  28.700  1.00  0.00     0.049 A 
ATOM     44  N   UNL A   1      44.368  30.122  28.548  1.00  0.00    -0.248 NA
ATOM     45  C   UNL A   1      42.909  31.693  29.475  1.00  0.00     0.031 C 
ATOM     46  C   UNL A   1      41.140  27.042  28.707  1.00  0.00     0.029 A 
ATOM     47  N   UNL A   1      43.278  27.436  28.183  1.00  0.00    -0.354 N 
ATOM     48  C   UNL A   1      45.016  31.348  28.646  1.00  0.00     0.074 A 
ATOM     49  C   UNL A   1      44.053  32.291  29.174  1.00  0.00     0.031 C 
ATOM     50  C   UNL A   1      41.657  25.895  28.235  1.00  0.00     0.029 A 
ATOM     51  C   UNL A   1      43.049  26.119  27.856  1.00  0.00     0.049 A 
ATOM     52  H   UNL A   1      44.149  27.878  28.058  1.00  0.00     0.167 HD
ATOM     53  C   UNL A   1      46.299  31.660  28.340  1.00  0.00     0.031 A 
ATOM     54  C   UNL A   1      43.861  25.196  27.305  1.00  0.00     0.031 A 
ATOM     55  C   UNL A   1      47.261  30.722  27.824  1.00  0.00     0.049 A 
ATOM     56  C   UNL A   1      45.280  25.564  26.973  1.00  0.00     0.074 A 
ATOM     57  C   UNL A   1      48.597  30.935  27.528  1.00  0.00     0.029 A 
ATOM     58  N   UNL A   1      46.994  29.394  27.527  1.00  0.00    -0.354 N 
ATOM     59  N   UNL A   1      45.887  26.717  27.122  1.00  0.00    -0.248 NA
ATOM     60  C   UNL A   1      46.127  24.502  26.409  1.00  0.00     0.031 C 
ATOM     61  C   UNL A   1      49.127  29.746  27.014  1.00  0.00     0.029 A 
ATOM     62  C   UNL A   1      48.134  28.780  27.035  1.00  0.00     0.049 A 
ATOM     63  H   UNL A   1      46.122  28.954  27.646  1.00  0.00     0.167 HD
ATOM     64  C   UNL A   1      47.194  26.513  26.691  1.00  0.00     0.074 A 
ATOM     65  C   UNL A   1      47.292  25.124  26.289  1.00  0.00     0.031 C 
ATOM     66  C   UNL A   1      48.219  27.398  26.635  1.00  0.00     0.031 A 
BRANCH  53  67
ATOM     67  C   UNL A   1      46.734  33.086  28.553  1.00  0.00    -0.014 A 
ATOM     68  C   UNL A   1      47.544  33.439  29.648  1.00  0.00     0.010 A 
ATOM     69  C   UNL A   1      46.354  34.080  27.634  1.00  0.00     0.010 A 
ATOM     70  C   UNL A   1      47.924  34.769  29.846  1.00  0.00     0.020 A 
ATOM     71  C   UNL A   1      46.755  35.407  27.815  1.00  0.00     0.020 A 
ATOM     72  C   UNL A   1      47.521  35.745  28.931  1.00  0.00     0.054 A 
BRANCH  72  73
ATOM     73  S   UNL A   1      48.032  37.464  29.209  1.00  0.00     0.124 S 
ATOM     74  O   UNL A   1      48.723  37.366  30.493  1.00  0.00    -0.237 OA
ATOM     75  O   UNL A   1      48.887  37.736  28.056  1.00  0.00    -0.237 OA
ATOM     76  O   UNL A   1      46.772  38.201  29.235  1.00  0.00    -0.744 OA
ENDBRANCH  72  73
ENDBRANCH  53  67
BRANCH  54  77
ATOM     77  C   UNL A   1      43.348  23.824  27.045  1.00  0.00    -0.014 A 
ATOM     78  C   UNL A   1      43.055  23.409  25.734  1.00  0.00     0.010 A 
ATOM     79  C   UNL A   1      43.172  22.918  28.107  1.00  0.00     0.010 A 
ATOM     80  C   UNL A   1      42.585  22.116  25.491  1.00  0.00     0.020 A 
ATOM     81  C   UNL A   1      42.725  21.617  27.864  1.00  0.00     0.020 A 
ATOM     82  C   UNL A   1      42.425  21.226  26.557  1.00  0.00     0.054 A 
BRANCH  82  83
ATOM     83  S   UNL A   1      41.874  19.533  26.212  1.00  0.00     0.124 S 
ATOM     84  O   UNL A   1      42.279  18.829  27.425  1.00  0.00    -0.237 OA
ATOM     85  O   UNL A   1      40.434  19.699  26.026  1.00  0.00    -0.237 OA
ATOM     86  O   UNL A   1      42.612  19.176  25.002  1.00  0.00    -0.744 OA
ENDBRANCH  82  83
ENDBRANCH  54  77
BRANCH  66  87
ATOM     87  C   UNL A   1      49.549  26.889  26.149  1.00  0.00    -0.014 A 
ATOM     88  C   UNL A   1      49.921  27.002  24.797  1.00  0.00     0.010 A 
ATOM     89  C   UNL A   1      50.459  26.334  27.068  1.00  0.00     0.010 A 
ATOM     90  C   UNL A   1      51.170  26.545  24.369  1.00  0.00     0.020 A 
ATOM     91  C   UNL A   1      51.718  25.899  26.647  1.00  0.00     0.020 A 
ATOM     92  C   UNL A   1      52.061  25.994  25.297  1.00  0.00     0.054 A 
BRANCH  92  93
ATOM     93  S   UNL A   1      53.695  25.450  24.725  1.00  0.00     0.124 S 
ATOM     94  O   UNL A   1      53.529  24.001  24.671  1.00  0.00    -0.237 OA
ATOM     95  O   UNL A   1      53.823  26.118  23.432  1.00  0.00    -0.237 OA
ATOM     96  O   UNL A   1      54.603  25.936  25.763  1.00  0.00    -0.744 OA
ENDBRANCH  92  93
ENDBRANCH  66  87
ENDBRANCH  40  41
ENDBRANCH  32  35
ENDBRANCH  30  31
ENDBRANCH  29  30
ENDBRANCH   1  29
TORSDOF 18
ENDMDL
MODEL 2
REMARK VINA RESULT:     -11.5      4.921     10.846
REMARK SMILES O=C(Cc1csc(N2C(=O)C[C@H](Nc3cccc(F)c3)C2=O)n1)NCCCCNC(=O)c1ccc(-c2c3nc(c(-c4ccc(S(=O)(=O)[O-])cc4)c4ccc([nH]4)c(-c4ccc(S(=O)(=O)[O-])cc4)c4nc(c(-c5ccc(S(=O)(=O)[O-])cc5)c5ccc2[nH]5)C=C4)C=C3)cc1
REMARK SMILES IDX 26 1 25 2 24 3 1 4 2 5 3 7 4 8 5 9 23 10 6 11 7 12 8 13 9 14
REMARK SMILES IDX 21 15 10 16 11 17 12 18 22 19 13 20 14 22 15 23 20 24 16 25
REMARK SMILES IDX 18 26 17 27 19 28 27 29 28 30 29 31 30 32 31 34 32 35 33 36
REMARK SMILES IDX 91 37 34 38 90 39 35 40 36 41 37 42 84 43 38 44 89 45 83 46
REMARK SMILES IDX 85 47 39 48 88 49 82 50 81 51 40 53 70 54 51 55 69 56 52 57
REMARK SMILES IDX 55 58 68 59 86 60 53 61 54 62 67 64 87 65 56 66 41 67 42 68
REMARK SMILES IDX 50 69 43 70 49 71 44 72 45 73 46 74 47 75 48 76 71 77 72 78
REMARK SMILES IDX 80 79 73 80 79 81 74 82 75 83 76 84 77 85 78 86 57 87 58 88
REMARK SMILES IDX 66 89 59 90 65 91 60 92 61 93 62 94 63 95 64 96
REMARK H PARENT 24 6 13 21 29 33 85 52 55 63
REMARK Flexibility Score: inf
ROOT
ATOM      1  C   UNL A   1      35.745  22.376  23.881  1.00  0.00     0.023 C 
ENDROOT
BRANCH   1   2
ATOM      2  C   UNL A   1      34.469  22.548  23.056  1.00  0.00     0.116 C 
BRANCH   2   3
ATOM      3  N   UNL A   1      33.279  22.579  23.884  1.00  0.00    -0.356 N 
ATOM      4  O   UNL A   1      32.957  20.307  23.907  1.00  0.00    -0.275 OA
ATOM      5  C   UNL A   1      32.610  21.430  24.264  1.00  0.00     0.226 C 
ATOM      6  H   UNL A   1      32.932  23.450  24.184  1.00  0.00     0.163 HD
BRANCH   5   7
ATOM      7  C   UNL A   1      31.348  21.668  25.071  1.00  0.00     0.157 C 
BRANCH   7   8
ATOM      8  C   UNL A   1      31.091  23.105  25.390  1.00  0.00     0.063 A 
ATOM      9  C   UNL A   1      31.219  23.715  26.624  1.00  0.00     0.093 A 
ATOM     10  N   UNL A   1      30.787  23.982  24.356  1.00  0.00    -0.224 NA
ATOM     11  S   UNL A   1      31.038  25.408  26.466  1.00  0.00    -0.104 S 
ATOM     12  C   UNL A   1      30.793  25.230  24.775  1.00  0.00     0.199 A 
BRANCH  12  13
ATOM     13  N   UNL A   1      30.571  26.348  24.002  1.00  0.00    -0.223 N 
ATOM     14  C   UNL A   1      31.608  27.099  23.519  1.00  0.00     0.238 C 
ATOM     15  C   UNL A   1      29.336  26.873  23.715  1.00  0.00     0.258 C 
ATOM     16  O   UNL A   1      32.812  26.931  23.624  1.00  0.00    -0.274 OA
ATOM     17  C   UNL A   1      31.048  28.218  22.693  1.00  0.00     0.136 C 
ATOM     18  C   UNL A   1      29.544  28.123  22.872  1.00  0.00     0.179 C 
ATOM     19  O   UNL A   1      28.234  26.493  24.092  1.00  0.00    -0.272 OA
BRANCH  18  20
ATOM     20  N   UNL A   1      29.045  29.338  23.525  1.00  0.00    -0.373 N 
ATOM     21  H   UNL A   1      28.966  29.368  24.506  1.00  0.00     0.161 HD
BRANCH  20  22
ATOM     22  C   UNL A   1      28.685  30.445  22.772  1.00  0.00     0.038 A 
ATOM     23  C   UNL A   1      28.257  30.339  21.443  1.00  0.00     0.026 A 
ATOM     24  C   UNL A   1      28.834  31.724  23.318  1.00  0.00     0.065 A 
ATOM     25  C   UNL A   1      27.962  31.477  20.683  1.00  0.00     0.005 A 
ATOM     26  C   UNL A   1      28.560  32.854  22.551  1.00  0.00     0.125 A 
ATOM     27  C   UNL A   1      28.122  32.742  21.239  1.00  0.00     0.039 A 
ATOM     28  F   UNL A   1      28.737  34.070  23.086  1.00  0.00    -0.207 F 
ENDBRANCH  20  22
ENDBRANCH  18  20
ENDBRANCH  12  13
ENDBRANCH   7   8
ENDBRANCH   5   7
ENDBRANCH   2   3
ENDBRANCH   1   2
BRANCH   1  29
ATOM     29  C   UNL A   1      35.771  23.126  25.216  1.00  0.00     0.023 C 
BRANCH  29  30
ATOM     30  C   UNL A   1      37.077  23.843  25.551  1.00  0.00     0.116 C 
BRANCH  30  31
ATOM     31  N   UNL A   1      38.198  22.933  25.714  1.00  0.00    -0.352 N 
ATOM     32  C   UNL A   1      39.434  23.158  26.275  1.00  0.00     0.251 C 
ATOM     33  H   UNL A   1      38.052  22.022  25.372  1.00  0.00     0.163 HD
ATOM     34  O   UNL A   1      40.300  22.290  26.196  1.00  0.00    -0.269 OA
BRANCH  32  35
ATOM     35  C   UNL A   1      39.737  24.446  26.941  1.00  0.00     0.039 A 
ATOM     36  C   UNL A   1      39.274  24.653  28.245  1.00  0.00     0.014 A 
ATOM     37  C   UNL A   1      40.458  25.453  26.292  1.00  0.00     0.014 A 
ATOM     38  C   UNL A   1      39.594  25.835  28.920  1.00  0.00     0.010 A 
ATOM     39  C   UNL A   1      40.829  26.604  26.988  1.00  0.00     0.010 A 
ATOM     40  C   UNL A   1      40.406  26.804  28.311  1.00  0.00    -0.014 A 
BRANCH  40  41
ATOM     41  C   UNL A   1      40.837  28.024  29.047  1.00  0.00     0.031 A 
ATOM     42  C   UNL A   1      42.184  28.078  29.715  1.00  0.00     0.074 A 
ATOM     43  C   UNL A   1      39.985  29.061  29.174  1.00  0.00     0.049 A 
ATOM     44  N   UNL A   1      42.696  29.023  30.462  1.00  0.00    -0.248 NA
ATOM     45  C   UNL A   1      43.060  26.908  29.541  1.00  0.00     0.031 C 
ATOM     46  C   UNL A   1      38.635  29.124  28.609  1.00  0.00     0.029 A 
ATOM     47  N   UNL A   1      40.125  30.259  29.831  1.00  0.00    -0.354 N 
ATOM     48  C   UNL A   1      43.945  28.559  30.858  1.00  0.00     0.074 A 
ATOM     49  C   UNL A   1      44.093  27.229  30.305  1.00  0.00     0.031 C 
ATOM     50  C   UNL A   1      38.079  30.304  28.928  1.00  0.00     0.029 A 
ATOM     51  C   UNL A   1      39.014  31.066  29.750  1.00  0.00     0.049 A 
ATOM     52  H   UNL A   1      40.943  30.517  30.313  1.00  0.00     0.167 HD
ATOM     53  C   UNL A   1      44.890  29.185  31.601  1.00  0.00     0.031 A 
ATOM     54  C   UNL A   1      38.768  32.279  30.283  1.00  0.00     0.031 A 
ATOM     55  C   UNL A   1      44.749  30.510  32.144  1.00  0.00     0.049 A 
ATOM     56  C   UNL A   1      39.829  32.955  31.105  1.00  0.00     0.074 A 
ATOM     57  C   UNL A   1      45.670  31.246  32.870  1.00  0.00     0.029 A 
ATOM     58  N   UNL A   1      43.616  31.301  32.022  1.00  0.00    -0.354 N 
ATOM     59  N   UNL A   1      41.024  32.518  31.425  1.00  0.00    -0.248 NA
ATOM     60  C   UNL A   1      39.514  34.293  31.627  1.00  0.00     0.031 C 
ATOM     61  C   UNL A   1      45.080  32.465  33.221  1.00  0.00     0.029 A 
ATOM     62  C   UNL A   1      43.809  32.508  32.672  1.00  0.00     0.049 A 
ATOM     63  H   UNL A   1      42.796  31.041  31.544  1.00  0.00     0.167 HD
ATOM     64  C   UNL A   1      41.611  33.537  32.168  1.00  0.00     0.074 A 
ATOM     65  C   UNL A   1      40.646  34.616  32.237  1.00  0.00     0.031 C 
ATOM     66  C   UNL A   1      42.840  33.574  32.738  1.00  0.00     0.031 A 
BRANCH  53  67
ATOM     67  C   UNL A   1      46.165  28.432  31.875  1.00  0.00    -0.014 A 
ATOM     68  C   UNL A   1      46.244  27.500  32.927  1.00  0.00     0.010 A 
ATOM     69  C   UNL A   1      47.290  28.636  31.055  1.00  0.00     0.010 A 
ATOM     70  C   UNL A   1      47.440  26.824  33.183  1.00  0.00     0.020 A 
ATOM     71  C   UNL A   1      48.479  27.941  31.293  1.00  0.00     0.020 A 
ATOM     72  C   UNL A   1      48.551  27.054  32.368  1.00  0.00     0.054 A 
BRANCH  72  73
ATOM     73  S   UNL A   1      50.090  26.159  32.720  1.00  0.00     0.124 S 
ATOM     74  O   UNL A   1      49.607  25.041  33.526  1.00  0.00    -0.237 OA
ATOM     75  O   UNL A   1      50.571  25.809  31.385  1.00  0.00    -0.237 OA
ATOM     76  O   UNL A   1      50.904  27.137  33.435  1.00  0.00    -0.744 OA
ENDBRANCH  72  73
ENDBRANCH  53  67
BRANCH  54  77
ATOM     77  C   UNL A   1      37.455  32.938  30.042  1.00  0.00    -0.014 A 
ATOM     78  C   UNL A   1      37.219  33.639  28.847  1.00  0.00     0.010 A 
ATOM     79  C   UNL A   1      36.428  32.846  30.999  1.00  0.00     0.010 A 
ATOM     80  C   UNL A   1      35.981  34.247  28.619  1.00  0.00     0.020 A 
ATOM     81  C   UNL A   1      35.182  33.431  30.762  1.00  0.00     0.020 A 
ATOM     82  C   UNL A   1      34.969  34.137  29.577  1.00  0.00     0.054 A 
BRANCH  82  83
ATOM     83  S   UNL A   1      33.349  34.878  29.232  1.00  0.00     0.124 S 
ATOM     84  O   UNL A   1      32.727  34.877  30.552  1.00  0.00    -0.237 OA
ATOM     85  O   UNL A   1      33.709  36.192  28.702  1.00  0.00    -0.237 OA
ATOM     86  O   UNL A   1      32.758  33.964  28.257  1.00  0.00    -0.744 OA
ENDBRANCH  82  83
ENDBRANCH  54  77
BRANCH  66  87
ATOM     87  C   UNL A   1      43.228  34.832  33.467  1.00  0.00    -0.014 A 
ATOM     88  C   UNL A   1      42.995  34.976  34.846  1.00  0.00     0.010 A 
ATOM     89  C   UNL A   1      43.883  35.865  32.769  1.00  0.00     0.010 A 
ATOM     90  C   UNL A   1      43.385  36.142  35.510  1.00  0.00     0.020 A 
ATOM     91  C   UNL A   1      44.296  37.022  33.435  1.00  0.00     0.020 A 
ATOM     92  C   UNL A   1      44.031  37.159  34.799  1.00  0.00     0.054 A 
BRANCH  92  93
ATOM     93  S   UNL A   1      44.570  38.645  35.692  1.00  0.00     0.124 S 
ATOM     94  O   UNL A   1      43.947  39.709  34.911  1.00  0.00    -0.237 OA
ATOM     95  O   UNL A   1      44.016  38.437  37.027  1.00  0.00    -0.237 OA
ATOM     96  O   UNL A   1      46.029  38.585  35.613  1.00  0.00    -0.744 OA
ENDBRANCH  92  93
ENDBRANCH  66  87
ENDBRANCH  40  41
ENDBRANCH  32  35
ENDBRANCH  30  31
ENDBRANCH  29  30
ENDBRANCH   1  29
TORSDOF 18
ENDMDL
MODEL 3
REMARK VINA RESULT:     -11.3      5.393     12.980
REMARK SMILES O=C(Cc1csc(N2C(=O)C[C@H](Nc3cccc(F)c3)C2=O)n1)NCCCCNC(=O)c1ccc(-c2c3nc(c(-c4ccc(S(=O)(=O)[O-])cc4)c4ccc([nH]4)c(-c4ccc(S(=O)(=O)[O-])cc4)c4nc(c(-c5ccc(S(=O)(=O)[O-])cc5)c5ccc2[nH]5)C=C4)C=C3)cc1
REMARK SMILES IDX 26 1 25 2 24 3 1 4 2 5 3 7 4 8 5 9 23 10 6 11 7 12 8 13 9 14
REMARK SMILES IDX 21 15 10 16 11 17 12 18 22 19 13 20 14 22 15 23 20 24 16 25
REMARK SMILES IDX 18 26 17 27 19 28 27 29 28 30 29 31 30 32 31 34 32 35 33 36
REMARK SMILES IDX 91 37 34 38 90 39 35 40 36 41 37 42 84 43 38 44 89 45 83 46
REMARK SMILES IDX 85 47 39 48 88 49 82 50 81 51 40 53 70 54 51 55 69 56 52 57
REMARK SMILES IDX 55 58 68 59 86 60 53 61 54 62 67 64 87 65 56 66 41 67 42 68
REMARK SMILES IDX 50 69 43 70 49 71 44 72 45 73 46 74 47 75 48 76 71 77 72 78
REMARK SMILES IDX 80 79 73 80 79 81 74 82 75 83 76 84 77 85 78 86 57 87 58 88
REMARK SMILES IDX 66 89 59 90 65 91 60 92 61 93 62 94 63 95 64 96
REMARK H PARENT 24 6 13 21 29 33 85 52 55 63
REMARK Flexibility Score: inf
ROOT
ATOM      1  C   UNL A   1      42.705  20.643  26.463  1.00  0.00     0.023 C 
ENDROOT
BRANCH   1   2
ATOM      2  C   UNL A   1      43.771  20.302  25.422  1.00  0.00     0.116 C 
BRANCH   2   3
ATOM      3  N   UNL A   1      44.894  21.219  25.462  1.00  0.00    -0.356 N 
ATOM      4  O   UNL A   1      44.272  22.422  23.610  1.00  0.00    -0.275 OA
ATOM      5  C   UNL A   1      45.052  22.238  24.542  1.00  0.00     0.226 C 
ATOM      6  H   UNL A   1      45.569  21.111  26.170  1.00  0.00     0.163 HD
BRANCH   5   7
ATOM      7  C   UNL A   1      46.322  23.050  24.705  1.00  0.00     0.157 C 
BRANCH   7   8
ATOM      8  C   UNL A   1      46.262  24.061  25.804  1.00  0.00     0.063 A 
ATOM      9  C   UNL A   1      46.391  23.819  27.158  1.00  0.00     0.093 A 
ATOM     10  N   UNL A   1      46.168  25.408  25.478  1.00  0.00    -0.224 NA
ATOM     11  S   UNL A   1      46.480  25.296  28.015  1.00  0.00    -0.104 S 
ATOM     12  C   UNL A   1      46.332  26.166  26.541  1.00  0.00     0.199 A 
BRANCH  12  13
ATOM     13  N   UNL A   1      46.337  27.544  26.565  1.00  0.00    -0.223 N 
ATOM     14  C   UNL A   1      47.449  28.247  26.940  1.00  0.00     0.238 C 
ATOM     15  C   UNL A   1      45.246  28.338  26.317  1.00  0.00     0.258 C 
ATOM     16  O   UNL A   1      48.559  27.848  27.256  1.00  0.00    -0.274 OA
ATOM     17  C   UNL A   1      47.152  29.712  26.830  1.00  0.00     0.136 C 
ATOM     18  C   UNL A   1      45.676  29.788  26.487  1.00  0.00     0.179 C 
ATOM     19  O   UNL A   1      44.095  28.004  26.066  1.00  0.00    -0.272 OA
BRANCH  18  20
ATOM     20  N   UNL A   1      44.952  30.473  27.564  1.00  0.00    -0.373 N 
ATOM     21  H   UNL A   1      44.781  30.003  28.412  1.00  0.00     0.161 HD
BRANCH  20  22
ATOM     22  C   UNL A   1      44.508  31.775  27.398  1.00  0.00     0.038 A 
ATOM     23  C   UNL A   1      44.166  32.294  26.142  1.00  0.00     0.026 A 
ATOM     24  C   UNL A   1      44.479  32.637  28.499  1.00  0.00     0.065 A 
ATOM     25  C   UNL A   1      43.783  33.632  25.991  1.00  0.00     0.005 A 
ATOM     26  C   UNL A   1      44.118  33.972  28.340  1.00  0.00     0.125 A 
ATOM     27  C   UNL A   1      43.766  34.478  27.095  1.00  0.00     0.039 A 
ATOM     28  F   UNL A   1      44.125  34.787  29.404  1.00  0.00    -0.207 F 
ENDBRANCH  20  22
ENDBRANCH  18  20
ENDBRANCH  12  13
ENDBRANCH   7   8
ENDBRANCH   5   7
ENDBRANCH   2   3
ENDBRANCH   1   2
BRANCH   1  29
ATOM     29  C   UNL A   1      41.627  21.629  26.003  1.00  0.00     0.023 C 
BRANCH  29  30
ATOM     30  C   UNL A   1      40.329  21.617  26.807  1.00  0.00     0.116 C 
BRANCH  30  31
ATOM     31  N   UNL A   1      39.181  22.064  26.038  1.00  0.00    -0.352 N 
ATOM     32  C   UNL A   1      38.561  23.292  26.023  1.00  0.00     0.251 C 
ATOM     33  H   UNL A   1      38.787  21.389  25.440  1.00  0.00     0.163 HD
ATOM     34  O   UNL A   1      37.513  23.433  25.399  1.00  0.00    -0.269 OA
BRANCH  32  35
ATOM     35  C   UNL A   1      39.130  24.433  26.778  1.00  0.00     0.039 A 
ATOM     36  C   UNL A   1      40.026  25.288  26.129  1.00  0.00     0.014 A 
ATOM     37  C   UNL A   1      38.800  24.660  28.118  1.00  0.00     0.014 A 
ATOM     38  C   UNL A   1      40.535  26.406  26.798  1.00  0.00     0.010 A 
ATOM     39  C   UNL A   1      39.258  25.809  28.764  1.00  0.00     0.010 A 
ATOM     40  C   UNL A   1      40.125  26.697  28.109  1.00  0.00    -0.014 A 
BRANCH  40  41
ATOM     41  C   UNL A   1      40.579  27.933  28.803  1.00  0.00     0.031 A 
ATOM     42  C   UNL A   1      41.947  28.001  29.427  1.00  0.00     0.074 A 
ATOM     43  C   UNL A   1      39.732  28.974  28.931  1.00  0.00     0.049 A 
ATOM     44  N   UNL A   1      42.483  28.964  30.134  1.00  0.00    -0.248 NA
ATOM     45  C   UNL A   1      42.816  26.827  29.253  1.00  0.00     0.031 C 
ATOM     46  C   UNL A   1      38.366  29.026  28.408  1.00  0.00     0.029 A 
ATOM     47  N   UNL A   1      39.894  30.188  29.554  1.00  0.00    -0.354 N 
ATOM     48  C   UNL A   1      43.743  28.506  30.502  1.00  0.00     0.074 A 
ATOM     49  C   UNL A   1      43.873  27.164  29.977  1.00  0.00     0.031 C 
ATOM     50  C   UNL A   1      37.821  30.214  28.715  1.00  0.00     0.029 A 
ATOM     51  C   UNL A   1      38.781  30.994  29.489  1.00  0.00     0.049 A 
ATOM     52  H   UNL A   1      40.727  30.456  30.005  1.00  0.00     0.167 HD
ATOM     53  C   UNL A   1      44.711  29.149  31.200  1.00  0.00     0.031 A 
ATOM     54  C   UNL A   1      38.553  32.220  30.001  1.00  0.00     0.031 A 
ATOM     55  C   UNL A   1      44.588  30.487  31.716  1.00  0.00     0.049 A 
ATOM     56  C   UNL A   1      39.640  32.913  30.773  1.00  0.00     0.074 A 
ATOM     57  C   UNL A   1      45.532  31.238  32.395  1.00  0.00     0.029 A 
ATOM     58  N   UNL A   1      43.453  31.276  31.610  1.00  0.00    -0.354 N 
ATOM     59  N   UNL A   1      40.844  32.482  31.066  1.00  0.00    -0.248 NA
ATOM     60  C   UNL A   1      39.342  34.263  31.273  1.00  0.00     0.031 C 
ATOM     61  C   UNL A   1      44.954  32.466  32.735  1.00  0.00     0.029 A 
ATOM     62  C   UNL A   1      43.666  32.498  32.226  1.00  0.00     0.049 A 
ATOM     63  H   UNL A   1      42.617  31.006  31.164  1.00  0.00     0.167 HD
ATOM     64  C   UNL A   1      41.455  33.518  31.766  1.00  0.00     0.074 A 
ATOM     65  C   UNL A   1      40.494  34.599  31.840  1.00  0.00     0.031 C 
ATOM     66  C   UNL A   1      42.701  33.566  32.296  1.00  0.00     0.031 A 
BRANCH  53  67
ATOM     67  C   UNL A   1      45.994  28.401  31.452  1.00  0.00    -0.014 A 
ATOM     68  C   UNL A   1      46.146  27.588  32.590  1.00  0.00     0.010 A 
ATOM     69  C   UNL A   1      47.049  28.489  30.526  1.00  0.00     0.010 A 
ATOM     70  C   UNL A   1      47.349  26.915  32.823  1.00  0.00     0.020 A 
ATOM     71  C   UNL A   1      48.245  27.796  30.743  1.00  0.00     0.020 A 
ATOM     72  C   UNL A   1      48.393  27.030  31.900  1.00  0.00     0.054 A 
BRANCH  72  73
ATOM     73  S   UNL A   1      49.942  26.143  32.224  1.00  0.00     0.124 S 
ATOM     74  O   UNL A   1      50.939  27.180  31.968  1.00  0.00    -0.237 OA
ATOM     75  O   UNL A   1      49.798  25.743  33.621  1.00  0.00    -0.237 OA
ATOM     76  O   UNL A   1      49.921  25.047  31.259  1.00  0.00    -0.744 OA
ENDBRANCH  72  73
ENDBRANCH  53  67
BRANCH  54  77
ATOM     77  C   UNL A   1      37.234  32.874  29.786  1.00  0.00    -0.014 A 
ATOM     78  C   UNL A   1      36.237  32.811  30.775  1.00  0.00     0.010 A 
ATOM     79  C   UNL A   1      36.979  33.585  28.598  1.00  0.00     0.010 A 
ATOM     80  C   UNL A   1      35.003  33.437  30.575  1.00  0.00     0.020 A 
ATOM     81  C   UNL A   1      35.756  34.231  28.406  1.00  0.00     0.020 A 
ATOM     82  C   UNL A   1      34.771  34.145  29.392  1.00  0.00     0.054 A 
BRANCH  82  83
ATOM     83  S   UNL A   1      33.187  35.004  29.181  1.00  0.00     0.124 S 
ATOM     84  O   UNL A   1      32.527  34.181  28.173  1.00  0.00    -0.237 OA
ATOM     85  O   UNL A   1      32.613  34.945  30.523  1.00  0.00    -0.237 OA
ATOM     86  O   UNL A   1      33.582  36.341  28.740  1.00  0.00    -0.744 OA
ENDBRANCH  82  83
ENDBRANCH  54  77
BRANCH  66  87
ATOM     87  C   UNL A   1      43.113  34.841  32.982  1.00  0.00    -0.014 A 
ATOM     88  C   UNL A   1      42.725  35.113  34.306  1.00  0.00     0.010 A 
ATOM     89  C   UNL A   1      43.943  35.756  32.308  1.00  0.00     0.010 A 
ATOM     90  C   UNL A   1      43.138  36.291  34.934  1.00  0.00     0.020 A 
ATOM     91  C   UNL A   1      44.377  36.923  32.942  1.00  0.00     0.020 A 
ATOM     92  C   UNL A   1      43.960  37.190  34.247  1.00  0.00     0.054 A 
BRANCH  92  93
ATOM     93  S   UNL A   1      44.521  38.691  35.099  1.00  0.00     0.124 S 
ATOM     94  O   UNL A   1      43.693  39.719  34.478  1.00  0.00    -0.237 OA
ATOM     95  O   UNL A   1      44.219  38.399  36.498  1.00  0.00    -0.237 OA
ATOM     96  O   UNL A   1      45.946  38.758  34.778  1.00  0.00    -0.744 OA
ENDBRANCH  92  93
ENDBRANCH  66  87
ENDBRANCH  40  41
ENDBRANCH  32  35
ENDBRANCH  30  31
ENDBRANCH  29  30
ENDBRANCH   1  29
TORSDOF 18
ENDMDL
