MODEL 1
REMARK VINA RESULT:     -11.2      0.000      0.000
REMARK SMILES COC(=O)C[C@H](c1ccc(C(=O)NCCCCNC(=O)c2ccc(-c3c4nc(c(-c5ccc(S(=O)(=O)[O-])cc5)c5ccc([nH]5)c(-c5ccc(S(=O)(=O)[O-])cc5)c5nc(c(-c6ccc(S(=O)(=O)[O-])cc6)c6ccc3[nH]6)C=C5)C=C4)cc2)cc1)c1c(O)n[nH]c1C
REMARK SMILES IDX 15 1 14 2 13 3 11 4 12 5 10 7 7 8 8 9 82 10 9 11 81 12 6 13
REMARK SMILES IDX 5 14 3 15 4 16 2 17 1 18 83 19 84 20 88 21 86 22 87 23 89 24
REMARK SMILES IDX 85 26 16 28 17 29 18 30 19 31 20 33 21 34 22 35 80 36 23 37
REMARK SMILES IDX 79 38 24 39 25 40 26 41 73 42 27 43 78 44 72 45 74 46 28 47
REMARK SMILES IDX 77 48 71 49 70 50 29 52 59 53 40 54 58 55 41 56 44 57 57 58
REMARK SMILES IDX 75 59 42 60 43 61 56 63 76 64 45 65 30 66 31 67 39 68 32 69
REMARK SMILES IDX 38 70 33 71 34 72 35 73 36 74 37 75 60 76 61 77 69 78 62 79
REMARK SMILES IDX 68 80 63 81 64 82 65 83 66 84 67 85 46 86 47 87 55 88 48 89
REMARK SMILES IDX 54 90 49 91 50 92 51 93 52 94 53 95
REMARK H PARENT 13 6 87 25 85 27 18 32 74 51 44 62
REMARK Flexibility Score: inf
ROOT
ATOM      1  C   UNL A   1      31.821  28.858  25.382  1.00  0.00     0.023 C 
ENDROOT
BRANCH   1   2
ATOM      2  C   UNL A   1      31.483  28.272  24.010  1.00  0.00     0.116 C 
BRANCH   2   3
ATOM      3  N   UNL A   1      30.096  27.857  23.952  1.00  0.00    -0.352 N 
ATOM      4  C   UNL A   1      29.535  26.609  24.033  1.00  0.00     0.251 C 
ATOM      5  O   UNL A   1      28.308  26.508  24.045  1.00  0.00    -0.269 OA
ATOM      6  H   UNL A   1      29.450  28.591  23.835  1.00  0.00     0.163 HD
BRANCH   4   7
ATOM      7  C   UNL A   1      30.356  25.374  24.134  1.00  0.00     0.039 A 
ATOM      8  C   UNL A   1      31.721  22.920  24.447  1.00  0.00    -0.040 A 
ATOM      9  C   UNL A   1      31.173  23.583  25.557  1.00  0.00     0.005 A 
ATOM     10  C   UNL A   1      31.602  23.524  23.185  1.00  0.00     0.005 A 
ATOM     11  C   UNL A   1      30.493  24.795  25.400  1.00  0.00     0.014 A 
ATOM     12  C   UNL A   1      30.903  24.722  23.028  1.00  0.00     0.014 A 
BRANCH   8  13
ATOM     13  C   UNL A   1      32.382  21.555  24.541  1.00  0.00     0.068 C 
BRANCH  13  14
ATOM     14  C   UNL A   1      32.288  20.680  23.285  1.00  0.00     0.136 C 
BRANCH  14  15
ATOM     15  C   UNL A   1      32.268  19.215  23.636  1.00  0.00     0.306 C 
ATOM     16  O   UNL A   1      32.435  18.316  22.821  1.00  0.00    -0.252 OA
BRANCH  15  17
ATOM     17  O   UNL A   1      32.089  19.036  24.974  1.00  0.00    -0.469 OA
ATOM     18  C   UNL A   1      32.644  17.824  25.485  1.00  0.00     0.282 C 
ENDBRANCH  15  17
ENDBRANCH  14  15
ENDBRANCH  13  14
BRANCH  13  19
ATOM     19  C   UNL A   1      33.812  21.760  25.003  1.00  0.00     0.044 A 
ATOM     20  C   UNL A   1      34.294  21.322  26.252  1.00  0.00     0.234 A 
ATOM     21  C   UNL A   1      34.941  22.378  24.462  1.00  0.00     0.040 A 
ATOM     22  N   UNL A   1      35.559  21.598  26.511  1.00  0.00    -0.137 NA
ATOM     23  N   UNL A   1      35.935  22.255  25.404  1.00  0.00    -0.279 N 
ATOM     24  C   UNL A   1      35.224  23.099  23.194  1.00  0.00     0.066 C 
ATOM     25  H   UNL A   1      36.842  22.616  25.276  1.00  0.00     0.190 HD
BRANCH  20  26
ATOM     26  O   UNL A   1      33.657  20.669  27.220  1.00  0.00    -0.492 OA
ATOM     27  H   UNL A   1      33.612  21.036  28.080  1.00  0.00     0.295 HD
ENDBRANCH  20  26
ENDBRANCH  13  19
ENDBRANCH   8  13
ENDBRANCH   4   7
ENDBRANCH   2   3
ENDBRANCH   1   2
BRANCH   1  28
ATOM     28  C   UNL A   1      32.416  27.854  26.373  1.00  0.00     0.023 C 
BRANCH  28  29
ATOM     29  C   UNL A   1      33.585  28.379  27.195  1.00  0.00     0.116 C 
BRANCH  29  30
ATOM     30  N   UNL A   1      33.462  29.789  27.532  1.00  0.00    -0.352 N 
ATOM     31  C   UNL A   1      34.408  30.616  28.089  1.00  0.00     0.251 C 
ATOM     32  H   UNL A   1      32.591  30.203  27.336  1.00  0.00     0.163 HD
ATOM     33  O   UNL A   1      34.115  31.759  28.415  1.00  0.00    -0.269 OA
BRANCH  31  34
ATOM     34  C   UNL A   1      35.768  30.090  28.328  1.00  0.00     0.039 A 
ATOM     35  C   UNL A   1      36.697  30.138  27.288  1.00  0.00     0.014 A 
ATOM     36  C   UNL A   1      36.130  29.592  29.582  1.00  0.00     0.014 A 
ATOM     37  C   UNL A   1      38.014  29.742  27.525  1.00  0.00     0.010 A 
ATOM     38  C   UNL A   1      37.458  29.260  29.834  1.00  0.00     0.010 A 
ATOM     39  C   UNL A   1      38.411  29.331  28.808  1.00  0.00    -0.014 A 
BRANCH  39  40
ATOM     40  C   UNL A   1      39.822  28.973  29.094  1.00  0.00     0.031 A 
ATOM     41  C   UNL A   1      40.748  29.988  29.705  1.00  0.00     0.074 A 
ATOM     42  C   UNL A   1      40.282  27.755  28.746  1.00  0.00     0.049 A 
ATOM     43  N   UNL A   1      42.019  29.875  29.991  1.00  0.00    -0.248 NA
ATOM     44  C   UNL A   1      40.177  31.310  30.013  1.00  0.00     0.031 C 
ATOM     45  C   UNL A   1      39.494  26.702  28.101  1.00  0.00     0.029 A 
ATOM     46  N   UNL A   1      41.529  27.198  28.883  1.00  0.00    -0.354 N 
ATOM     47  C   UNL A   1      42.405  31.111  30.495  1.00  0.00     0.074 A 
ATOM     48  C   UNL A   1      41.244  31.974  30.431  1.00  0.00     0.031 C 
ATOM     49  C   UNL A   1      40.268  25.619  27.922  1.00  0.00     0.029 A 
ATOM     50  C   UNL A   1      41.612  25.910  28.409  1.00  0.00     0.049 A 
ATOM     51  H   UNL A   1      42.291  27.676  29.281  1.00  0.00     0.167 HD
ATOM     52  C   UNL A   1      43.609  31.490  30.985  1.00  0.00     0.031 A 
ATOM     53  C   UNL A   1      42.656  25.058  28.371  1.00  0.00     0.031 A 
ATOM     54  C   UNL A   1      44.755  30.624  31.062  1.00  0.00     0.049 A 
ATOM     55  C   UNL A   1      43.979  25.497  28.933  1.00  0.00     0.074 A 
ATOM     56  C   UNL A   1      46.003  30.894  31.595  1.00  0.00     0.029 A 
ATOM     57  N   UNL A   1      44.793  29.320  30.591  1.00  0.00    -0.354 N 
ATOM     58  N   UNL A   1      44.305  26.649  29.468  1.00  0.00    -0.248 NA
ATOM     59  C   UNL A   1      45.072  24.514  28.899  1.00  0.00     0.031 C 
ATOM     60  C   UNL A   1      46.809  29.765  31.409  1.00  0.00     0.029 A 
ATOM     61  C   UNL A   1      46.048  28.777  30.806  1.00  0.00     0.049 A 
ATOM     62  H   UNL A   1      44.039  28.850  30.168  1.00  0.00     0.167 HD
ATOM     63  C   UNL A   1      45.634  26.522  29.857  1.00  0.00     0.074 A 
ATOM     64  C   UNL A   1      46.045  25.177  29.510  1.00  0.00     0.031 C 
ATOM     65  C   UNL A   1      46.440  27.436  30.452  1.00  0.00     0.031 A 
BRANCH  52  66
ATOM     66  C   UNL A   1      43.742  32.906  31.478  1.00  0.00    -0.014 A 
ATOM     67  C   UNL A   1      43.438  33.241  32.811  1.00  0.00     0.010 A 
ATOM     68  C   UNL A   1      44.202  33.910  30.608  1.00  0.00     0.010 A 
ATOM     69  C   UNL A   1      43.549  34.562  33.251  1.00  0.00     0.020 A 
ATOM     70  C   UNL A   1      44.341  35.228  31.052  1.00  0.00     0.020 A 
ATOM     71  C   UNL A   1      43.996  35.549  32.367  1.00  0.00     0.054 A 
BRANCH  71  72
ATOM     72  S   UNL A   1      44.145  37.253  32.970  1.00  0.00     0.124 S 
ATOM     73  O   UNL A   1      43.079  37.313  33.966  1.00  0.00    -0.237 OA
ATOM     74  O   UNL A   1      45.504  37.288  33.502  1.00  0.00    -0.237 OA
ATOM     75  O   UNL A   1      43.927  38.063  31.774  1.00  0.00    -0.744 OA
ENDBRANCH  71  72
ENDBRANCH  52  66
BRANCH  53  76
ATOM     76  C   UNL A   1      42.479  23.695  27.804  1.00  0.00    -0.014 A 
ATOM     77  C   UNL A   1      42.865  23.418  26.481  1.00  0.00     0.010 A 
ATOM     78  C   UNL A   1      41.939  22.660  28.589  1.00  0.00     0.010 A 
ATOM     79  C   UNL A   1      42.699  22.138  25.946  1.00  0.00     0.020 A 
ATOM     80  C   UNL A   1      41.794  21.372  28.066  1.00  0.00     0.020 A 
ATOM     81  C   UNL A   1      42.165  21.122  26.744  1.00  0.00     0.054 A 
BRANCH  81  82
ATOM     82  S   UNL A   1      42.010  19.453  26.048  1.00  0.00     0.124 S 
ATOM     83  O   UNL A   1      42.541  18.625  27.126  1.00  0.00    -0.237 OA
ATOM     84  O   UNL A   1      40.573  19.340  25.811  1.00  0.00    -0.237 OA
ATOM     85  O   UNL A   1      42.830  19.510  24.840  1.00  0.00    -0.744 OA
ENDBRANCH  81  82
ENDBRANCH  53  76
BRANCH  65  86
ATOM     86  C   UNL A   1      47.840  27.003  30.792  1.00  0.00    -0.014 A 
ATOM     87  C   UNL A   1      48.914  27.268  29.926  1.00  0.00     0.010 A 
ATOM     88  C   UNL A   1      48.089  26.368  32.022  1.00  0.00     0.010 A 
ATOM     89  C   UNL A   1      50.211  26.876  30.269  1.00  0.00     0.020 A 
ATOM     90  C   UNL A   1      49.387  25.997  32.381  1.00  0.00     0.020 A 
ATOM     91  C   UNL A   1      50.438  26.240  31.495  1.00  0.00     0.054 A 
BRANCH  91  92
ATOM     92  S   UNL A   1      52.135  25.777  31.938  1.00  0.00     0.124 S 
ATOM     93  O   UNL A   1      52.441  26.731  33.000  1.00  0.00    -0.237 OA
ATOM     94  O   UNL A   1      51.989  24.387  32.363  1.00  0.00    -0.237 OA
ATOM     95  O   UNL A   1      52.880  25.966  30.695  1.00  0.00    -0.744 OA
ENDBRANCH  91  92
ENDBRANCH  65  86
ENDBRANCH  39  40
ENDBRANCH  31  34
ENDBRANCH  29  30
ENDBRANCH  28  29
ENDBRANCH   1  28
TORSDOF 20
ENDMDL
MODEL 2
REMARK VINA RESULT:     -10.6      2.469      3.089
REMARK SMILES COC(=O)C[C@H](c1ccc(C(=O)NCCCCNC(=O)c2ccc(-c3c4nc(c(-c5ccc(S(=O)(=O)[O-])cc5)c5ccc([nH]5)c(-c5ccc(S(=O)(=O)[O-])cc5)c5nc(c(-c6ccc(S(=O)(=O)[O-])cc6)c6ccc3[nH]6)C=C5)C=C4)cc2)cc1)c1c(O)n[nH]c1C
REMARK SMILES IDX 15 1 14 2 13 3 11 4 12 5 10 7 7 8 8 9 82 10 9 11 81 12 6 13
REMARK SMILES IDX 5 14 3 15 4 16 2 17 1 18 83 19 84 20 88 21 86 22 87 23 89 24
REMARK SMILES IDX 85 26 16 28 17 29 18 30 19 31 20 33 21 34 22 35 80 36 23 37
REMARK SMILES IDX 79 38 24 39 25 40 26 41 73 42 27 43 78 44 72 45 74 46 28 47
REMARK SMILES IDX 77 48 71 49 70 50 29 52 59 53 40 54 58 55 41 56 44 57 57 58
REMARK SMILES IDX 75 59 42 60 43 61 56 63 76 64 45 65 30 66 31 67 39 68 32 69
REMARK SMILES IDX 38 70 33 71 34 72 35 73 36 74 37 75 60 76 61 77 69 78 62 79
REMARK SMILES IDX 68 80 63 81 64 82 65 83 66 84 67 85 46 86 47 87 55 88 48 89
REMARK SMILES IDX 54 90 49 91 50 92 51 93 52 94 53 95
REMARK H PARENT 13 6 87 25 85 27 18 32 74 51 44 62
REMARK Flexibility Score: inf
ROOT
ATOM      1  C   UNL A   1      32.771  29.332  24.687  1.00  0.00     0.023 C 
ENDROOT
BRANCH   1   2
ATOM      2  C   UNL A   1      31.282  29.651  24.834  1.00  0.00     0.116 C 
BRANCH   2   3
ATOM      3  N   UNL A   1      30.650  29.779  23.536  1.00  0.00    -0.352 N 
ATOM      4  C   UNL A   1      30.230  28.819  22.652  1.00  0.00     0.251 C 
ATOM      5  O   UNL A   1      29.633  29.169  21.634  1.00  0.00    -0.269 OA
ATOM      6  H   UNL A   1      30.497  30.704  23.240  1.00  0.00     0.163 HD
BRANCH   4   7
ATOM      7  C   UNL A   1      30.446  27.368  22.892  1.00  0.00     0.039 A 
ATOM      8  C   UNL A   1      31.098  24.666  23.404  1.00  0.00    -0.040 A 
ATOM      9  C   UNL A   1      31.839  25.421  22.481  1.00  0.00     0.005 A 
ATOM     10  C   UNL A   1      30.005  25.279  24.039  1.00  0.00     0.005 A 
ATOM     11  C   UNL A   1      31.519  26.760  22.233  1.00  0.00     0.014 A 
ATOM     12  C   UNL A   1      29.702  26.621  23.807  1.00  0.00     0.014 A 
BRANCH   8  13
ATOM     13  C   UNL A   1      31.458  23.241  23.789  1.00  0.00     0.068 C 
BRANCH  13  14
ATOM     14  C   UNL A   1      32.482  22.545  22.885  1.00  0.00     0.136 C 
BRANCH  14  15
ATOM     15  C   UNL A   1      32.110  21.105  22.639  1.00  0.00     0.306 C 
ATOM     16  O   UNL A   1      31.756  20.668  21.551  1.00  0.00    -0.252 OA
BRANCH  15  17
ATOM     17  O   UNL A   1      32.266  20.361  23.769  1.00  0.00    -0.469 OA
ATOM     18  C   UNL A   1      32.400  18.959  23.536  1.00  0.00     0.282 C 
ENDBRANCH  15  17
ENDBRANCH  14  15
ENDBRANCH  13  14
BRANCH  13  19
ATOM     19  C   UNL A   1      31.872  23.242  25.247  1.00  0.00     0.044 A 
ATOM     20  C   UNL A   1      31.096  22.671  26.274  1.00  0.00     0.234 A 
ATOM     21  C   UNL A   1      32.958  23.753  25.960  1.00  0.00     0.040 A 
ATOM     22  N   UNL A   1      31.589  22.775  27.495  1.00  0.00    -0.137 NA
ATOM     23  N   UNL A   1      32.728  23.451  27.281  1.00  0.00    -0.279 N 
ATOM     24  C   UNL A   1      34.181  24.513  25.590  1.00  0.00     0.066 C 
ATOM     25  H   UNL A   1      33.343  23.707  28.006  1.00  0.00     0.190 HD
BRANCH  20  26
ATOM     26  O   UNL A   1      29.928  22.039  26.198  1.00  0.00    -0.492 OA
ATOM     27  H   UNL A   1      29.300  22.132  26.886  1.00  0.00     0.295 HD
ENDBRANCH  20  26
ENDBRANCH  13  19
ENDBRANCH   8  13
ENDBRANCH   4   7
ENDBRANCH   2   3
ENDBRANCH   1   2
BRANCH   1  28
ATOM     28  C   UNL A   1      33.270  28.202  25.590  1.00  0.00     0.023 C 
BRANCH  28  29
ATOM     29  C   UNL A   1      33.896  28.656  26.901  1.00  0.00     0.116 C 
BRANCH  29  30
ATOM     30  N   UNL A   1      33.704  30.073  27.167  1.00  0.00    -0.352 N 
ATOM     31  C   UNL A   1      34.514  30.921  27.885  1.00  0.00     0.251 C 
ATOM     32  H   UNL A   1      32.892  30.476  26.785  1.00  0.00     0.163 HD
ATOM     33  O   UNL A   1      34.159  32.070  28.113  1.00  0.00    -0.269 OA
BRANCH  31  34
ATOM     34  C   UNL A   1      35.797  30.411  28.412  1.00  0.00     0.039 A 
ATOM     35  C   UNL A   1      36.982  30.806  27.789  1.00  0.00     0.014 A 
ATOM     36  C   UNL A   1      35.827  29.582  29.536  1.00  0.00     0.014 A 
ATOM     37  C   UNL A   1      38.207  30.418  28.335  1.00  0.00     0.010 A 
ATOM     38  C   UNL A   1      37.048  29.253  30.117  1.00  0.00     0.010 A 
ATOM     39  C   UNL A   1      38.248  29.666  29.521  1.00  0.00    -0.014 A 
BRANCH  39  40
ATOM     40  C   UNL A   1      39.541  29.305  30.152  1.00  0.00     0.031 A 
ATOM     41  C   UNL A   1      40.055  30.096  31.323  1.00  0.00     0.074 A 
ATOM     42  C   UNL A   1      40.279  28.304  29.631  1.00  0.00     0.049 A 
ATOM     43  N   UNL A   1      41.178  29.957  31.980  1.00  0.00    -0.248 NA
ATOM     44  C   UNL A   1      39.210  31.202  31.801  1.00  0.00     0.031 C 
ATOM     45  C   UNL A   1      39.910  27.497  28.465  1.00  0.00     0.029 A 
ATOM     46  N   UNL A   1      41.496  27.799  30.012  1.00  0.00    -0.354 N 
ATOM     47  C   UNL A   1      41.182  30.965  32.936  1.00  0.00     0.074 A 
ATOM     48  C   UNL A   1      39.973  31.737  32.743  1.00  0.00     0.031 C 
ATOM     49  C   UNL A   1      40.868  26.581  28.243  1.00  0.00     0.029 A 
ATOM     50  C   UNL A   1      41.931  26.757  29.228  1.00  0.00     0.049 A 
ATOM     51  H   UNL A   1      42.010  28.151  30.774  1.00  0.00     0.167 HD
ATOM     52  C   UNL A   1      42.098  31.215  33.902  1.00  0.00     0.031 A 
ATOM     53  C   UNL A   1      43.060  26.024  29.294  1.00  0.00     0.031 A 
ATOM     54  C   UNL A   1      43.291  30.435  34.101  1.00  0.00     0.049 A 
ATOM     55  C   UNL A   1      44.055  26.311  30.383  1.00  0.00     0.074 A 
ATOM     56  C   UNL A   1      44.252  30.569  35.087  1.00  0.00     0.029 A 
ATOM     57  N   UNL A   1      43.684  29.374  33.300  1.00  0.00    -0.354 N 
ATOM     58  N   UNL A   1      44.009  27.226  31.320  1.00  0.00    -0.248 NA
ATOM     59  C   UNL A   1      45.250  25.457  30.429  1.00  0.00     0.031 C 
ATOM     60  C   UNL A   1      45.249  29.615  34.856  1.00  0.00     0.029 A 
ATOM     61  C   UNL A   1      44.883  28.855  33.758  1.00  0.00     0.049 A 
ATOM     62  H   UNL A   1      43.184  29.039  32.520  1.00  0.00     0.167 HD
ATOM     63  C   UNL A   1      45.154  27.042  32.086  1.00  0.00     0.074 A 
ATOM     64  C   UNL A   1      45.866  25.920  31.509  1.00  0.00     0.031 C 
ATOM     65  C   UNL A   1      45.578  27.738  33.170  1.00  0.00     0.031 A 
BRANCH  52  66
ATOM     66  C   UNL A   1      41.840  32.382  34.817  1.00  0.00    -0.014 A 
ATOM     67  C   UNL A   1      41.021  32.245  35.953  1.00  0.00     0.010 A 
ATOM     68  C   UNL A   1      42.444  33.624  34.555  1.00  0.00     0.010 A 
ATOM     69  C   UNL A   1      40.776  33.340  36.785  1.00  0.00     0.020 A 
ATOM     70  C   UNL A   1      42.223  34.716  35.399  1.00  0.00     0.020 A 
ATOM     71  C   UNL A   1      41.375  34.571  36.500  1.00  0.00     0.054 A 
BRANCH  71  72
ATOM     72  S   UNL A   1      41.051  35.972  37.605  1.00  0.00     0.124 S 
ATOM     73  O   UNL A   1      40.838  35.302  38.885  1.00  0.00    -0.237 OA
ATOM     74  O   UNL A   1      42.280  36.754  37.502  1.00  0.00    -0.237 OA
ATOM     75  O   UNL A   1      39.865  36.601  37.026  1.00  0.00    -0.744 OA
ENDBRANCH  71  72
ENDBRANCH  52  66
BRANCH  53  76
ATOM     76  C   UNL A   1      43.291  24.929  28.314  1.00  0.00    -0.014 A 
ATOM     77  C   UNL A   1      42.729  23.657  28.520  1.00  0.00     0.010 A 
ATOM     78  C   UNL A   1      44.061  25.158  27.159  1.00  0.00     0.010 A 
ATOM     79  C   UNL A   1      42.947  22.628  27.600  1.00  0.00     0.020 A 
ATOM     80  C   UNL A   1      44.260  24.137  26.223  1.00  0.00     0.020 A 
ATOM     81  C   UNL A   1      43.710  22.876  26.456  1.00  0.00     0.054 A 
BRANCH  81  82
ATOM     82  S   UNL A   1      43.934  21.541  25.246  1.00  0.00     0.124 S 
ATOM     83  O   UNL A   1      43.821  22.258  23.980  1.00  0.00    -0.237 OA
ATOM     84  O   UNL A   1      45.265  21.036  25.573  1.00  0.00    -0.237 OA
ATOM     85  O   UNL A   1      42.837  20.623  25.547  1.00  0.00    -0.744 OA
ENDBRANCH  81  82
ENDBRANCH  53  76
BRANCH  65  86
ATOM     86  C   UNL A   1      46.857  27.287  33.822  1.00  0.00    -0.014 A 
ATOM     87  C   UNL A   1      48.096  27.833  33.447  1.00  0.00     0.010 A 
ATOM     88  C   UNL A   1      46.807  26.341  34.862  1.00  0.00     0.010 A 
ATOM     89  C   UNL A   1      49.270  27.415  34.080  1.00  0.00     0.020 A 
ATOM     90  C   UNL A   1      47.975  25.940  35.514  1.00  0.00     0.020 A 
ATOM     91  C   UNL A   1      49.202  26.469  35.109  1.00  0.00     0.054 A 
BRANCH  91  92
ATOM     92  S   UNL A   1      50.735  25.973  35.943  1.00  0.00     0.124 S 
ATOM     93  O   UNL A   1      50.923  27.060  36.900  1.00  0.00    -0.237 OA
ATOM     94  O   UNL A   1      50.382  24.679  36.522  1.00  0.00    -0.237 OA
ATOM     95  O   UNL A   1      51.715  25.918  34.861  1.00  0.00    -0.744 OA
ENDBRANCH  91  92
ENDBRANCH  65  86
ENDBRANCH  39  40
ENDBRANCH  31  34
ENDBRANCH  29  30
ENDBRANCH  28  29
ENDBRANCH   1  28
TORSDOF 20
ENDMDL
MODEL 3
REMARK VINA RESULT:     -10.4      1.050      8.139
REMARK SMILES COC(=O)C[C@H](c1ccc(C(=O)NCCCCNC(=O)c2ccc(-c3c4nc(c(-c5ccc(S(=O)(=O)[O-])cc5)c5ccc([nH]5)c(-c5ccc(S(=O)(=O)[O-])cc5)c5nc(c(-c6ccc(S(=O)(=O)[O-])cc6)c6ccc3[nH]6)C=C5)C=C4)cc2)cc1)c1c(O)n[nH]c1C
REMARK SMILES IDX 15 1 14 2 13 3 11 4 12 5 10 7 7 8 8 9 82 10 9 11 81 12 6 13
REMARK SMILES IDX 5 14 3 15 4 16 2 17 1 18 83 19 84 20 88 21 86 22 87 23 89 24
REMARK SMILES IDX 85 26 16 28 17 29 18 30 19 31 20 33 21 34 22 35 80 36 23 37
REMARK SMILES IDX 79 38 24 39 25 40 26 41 73 42 27 43 78 44 72 45 74 46 28 47
REMARK SMILES IDX 77 48 71 49 70 50 29 52 59 53 40 54 58 55 41 56 44 57 57 58
REMARK SMILES IDX 75 59 42 60 43 61 56 63 76 64 45 65 30 66 31 67 39 68 32 69
REMARK SMILES IDX 38 70 33 71 34 72 35 73 36 74 37 75 60 76 61 77 69 78 62 79
REMARK SMILES IDX 68 80 63 81 64 82 65 83 66 84 67 85 46 86 47 87 55 88 48 89
REMARK SMILES IDX 54 90 49 91 50 92 51 93 52 94 53 95
REMARK H PARENT 13 6 87 25 85 27 18 32 74 51 44 62
REMARK Flexibility Score: inf
ROOT
ATOM      1  C   UNL A   1      32.940  29.385  25.021  1.00  0.00     0.023 C 
ENDROOT
BRANCH   1   2
ATOM      2  C   UNL A   1      31.419  29.264  25.123  1.00  0.00     0.116 C 
BRANCH   2   3
ATOM      3  N   UNL A   1      30.824  29.092  23.813  1.00  0.00    -0.352 N 
ATOM      4  C   UNL A   1      30.630  27.960  23.065  1.00  0.00     0.251 C 
ATOM      5  O   UNL A   1      30.017  28.049  22.001  1.00  0.00    -0.269 OA
ATOM      6  H   UNL A   1      30.509  29.923  23.390  1.00  0.00     0.163 HD
BRANCH   4   7
ATOM      7  C   UNL A   1      31.110  26.624  23.505  1.00  0.00     0.039 A 
ATOM      8  C   UNL A   1      31.790  23.996  24.288  1.00  0.00    -0.040 A 
ATOM      9  C   UNL A   1      30.672  24.642  24.839  1.00  0.00     0.005 A 
ATOM     10  C   UNL A   1      32.578  24.701  23.365  1.00  0.00     0.005 A 
ATOM     11  C   UNL A   1      30.333  25.941  24.447  1.00  0.00     0.014 A 
ATOM     12  C   UNL A   1      32.225  25.988  22.958  1.00  0.00     0.014 A 
BRANCH   8  13
ATOM     13  C   UNL A   1      32.151  22.553  24.600  1.00  0.00     0.068 C 
BRANCH  13  14
ATOM     14  C   UNL A   1      32.543  21.689  23.396  1.00  0.00     0.136 C 
BRANCH  14  15
ATOM     15  C   UNL A   1      32.249  20.232  23.645  1.00  0.00     0.306 C 
ATOM     16  O   UNL A   1      32.152  19.394  22.758  1.00  0.00    -0.252 OA
BRANCH  15  17
ATOM     17  O   UNL A   1      32.153  19.975  24.979  1.00  0.00    -0.469 OA
ATOM     18  C   UNL A   1      32.705  18.720  25.378  1.00  0.00     0.282 C 
ENDBRANCH  15  17
ENDBRANCH  14  15
ENDBRANCH  13  14
BRANCH  13  19
ATOM     19  C   UNL A   1      33.211  22.560  25.683  1.00  0.00     0.044 A 
ATOM     20  C   UNL A   1      32.913  22.578  27.060  1.00  0.00     0.234 A 
ATOM     21  C   UNL A   1      34.607  22.585  25.693  1.00  0.00     0.040 A 
ATOM     22  N   UNL A   1      33.952  22.604  27.875  1.00  0.00    -0.137 NA
ATOM     23  N   UNL A   1      34.982  22.618  27.015  1.00  0.00    -0.279 N 
ATOM     24  C   UNL A   1      35.654  22.611  24.638  1.00  0.00     0.066 C 
ATOM     25  H   UNL A   1      35.922  22.648  27.306  1.00  0.00     0.190 HD
BRANCH  20  26
ATOM     26  O   UNL A   1      31.730  22.576  27.668  1.00  0.00    -0.492 OA
ATOM     27  H   UNL A   1      31.294  23.385  27.845  1.00  0.00     0.295 HD
ENDBRANCH  20  26
ENDBRANCH  13  19
ENDBRANCH   8  13
ENDBRANCH   4   7
ENDBRANCH   2   3
ENDBRANCH   1   2
BRANCH   1  28
ATOM     28  C   UNL A   1      33.711  28.174  25.553  1.00  0.00     0.023 C 
BRANCH  28  29
ATOM     29  C   UNL A   1      34.144  28.277  27.009  1.00  0.00     0.116 C 
BRANCH  29  30
ATOM     30  N   UNL A   1      33.908  29.592  27.586  1.00  0.00    -0.352 N 
ATOM     31  C   UNL A   1      34.789  30.385  28.281  1.00  0.00     0.251 C 
ATOM     32  H   UNL A   1      33.003  29.959  27.463  1.00  0.00     0.163 HD
ATOM     33  O   UNL A   1      34.406  31.425  28.801  1.00  0.00    -0.269 OA
BRANCH  31  34
ATOM     34  C   UNL A   1      36.191  29.941  28.429  1.00  0.00     0.039 A 
ATOM     35  C   UNL A   1      37.055  30.080  27.342  1.00  0.00     0.014 A 
ATOM     36  C   UNL A   1      36.653  29.431  29.644  1.00  0.00     0.014 A 
ATOM     37  C   UNL A   1      38.406  29.763  27.494  1.00  0.00     0.010 A 
ATOM     38  C   UNL A   1      38.011  29.179  29.814  1.00  0.00     0.010 A 
ATOM     39  C   UNL A   1      38.899  29.341  28.741  1.00  0.00    -0.014 A 
BRANCH  39  40
ATOM     40  C   UNL A   1      40.343  29.067  28.938  1.00  0.00     0.031 A 
ATOM     41  C   UNL A   1      40.909  27.718  28.590  1.00  0.00     0.074 A 
ATOM     42  C   UNL A   1      41.130  30.014  29.488  1.00  0.00     0.049 A 
ATOM     43  N   UNL A   1      42.134  27.279  28.729  1.00  0.00    -0.248 NA
ATOM     44  C   UNL A   1      39.973  26.726  28.037  1.00  0.00     0.031 C 
ATOM     45  C   UNL A   1      40.686  31.343  29.915  1.00  0.00     0.029 A 
ATOM     46  N   UNL A   1      42.469  30.000  29.788  1.00  0.00    -0.354 N 
ATOM     47  C   UNL A   1      42.112  25.959  28.298  1.00  0.00     0.074 A 
ATOM     48  C   UNL A   1      40.744  25.653  27.938  1.00  0.00     0.031 C 
ATOM     49  C   UNL A   1      41.739  32.025  30.395  1.00  0.00     0.029 A 
ATOM     50  C   UNL A   1      42.922  31.173  30.342  1.00  0.00     0.049 A 
ATOM     51  H   UNL A   1      43.049  29.222  29.622  1.00  0.00     0.167 HD
ATOM     52  C   UNL A   1      43.141  25.084  28.191  1.00  0.00     0.031 A 
ATOM     53  C   UNL A   1      44.154  31.524  30.760  1.00  0.00     0.031 A 
ATOM     54  C   UNL A   1      44.502  25.396  28.535  1.00  0.00     0.049 A 
ATOM     55  C   UNL A   1      45.282  30.541  30.620  1.00  0.00     0.074 A 
ATOM     56  C   UNL A   1      45.626  24.600  28.408  1.00  0.00     0.029 A 
ATOM     57  N   UNL A   1      44.924  26.603  29.072  1.00  0.00    -0.354 N 
ATOM     58  N   UNL A   1      45.255  29.319  30.146  1.00  0.00    -0.248 NA
ATOM     59  C   UNL A   1      46.611  30.990  31.058  1.00  0.00     0.031 C 
ATOM     60  C   UNL A   1      46.723  25.311  28.908  1.00  0.00     0.029 A 
ATOM     61  C   UNL A   1      46.289  26.567  29.299  1.00  0.00     0.049 A 
ATOM     62  H   UNL A   1      44.340  27.372  29.264  1.00  0.00     0.167 HD
ATOM     63  C   UNL A   1      46.566  28.860  30.205  1.00  0.00     0.074 A 
ATOM     64  C   UNL A   1      47.363  29.942  30.747  1.00  0.00     0.031 C 
ATOM     65  C   UNL A   1      47.066  27.653  29.841  1.00  0.00     0.031 A 
BRANCH  52  66
ATOM     66  C   UNL A   1      42.826  23.703  27.679  1.00  0.00    -0.014 A 
ATOM     67  C   UNL A   1      42.878  23.412  26.304  1.00  0.00     0.010 A 
ATOM     68  C   UNL A   1      42.501  22.678  28.585  1.00  0.00     0.010 A 
ATOM     69  C   UNL A   1      42.567  22.131  25.840  1.00  0.00     0.020 A 
ATOM     70  C   UNL A   1      42.216  21.388  28.128  1.00  0.00     0.020 A 
ATOM     71  C   UNL A   1      42.233  21.128  26.755  1.00  0.00     0.054 A 
BRANCH  71  72
ATOM     72  S   UNL A   1      41.848  19.470  26.127  1.00  0.00     0.124 S 
ATOM     73  O   UNL A   1      42.156  18.633  27.283  1.00  0.00    -0.237 OA
ATOM     74  O   UNL A   1      40.432  19.576  25.787  1.00  0.00    -0.237 OA
ATOM     75  O   UNL A   1      42.750  19.315  24.987  1.00  0.00    -0.744 OA
ENDBRANCH  71  72
ENDBRANCH  52  66
BRANCH  53  76
ATOM     76  C   UNL A   1      44.386  32.880  31.326  1.00  0.00    -0.014 A 
ATOM     77  C   UNL A   1      44.754  33.948  30.488  1.00  0.00     0.010 A 
ATOM     78  C   UNL A   1      44.225  33.115  32.703  1.00  0.00     0.010 A 
ATOM     79  C   UNL A   1      44.972  35.222  31.019  1.00  0.00     0.020 A 
ATOM     80  C   UNL A   1      44.419  34.394  33.234  1.00  0.00     0.020 A 
ATOM     81  C   UNL A   1      44.802  35.437  32.389  1.00  0.00     0.054 A 
BRANCH  81  82
ATOM     82  S   UNL A   1      45.037  37.112  33.048  1.00  0.00     0.124 S 
ATOM     83  O   UNL A   1      46.140  37.607  32.232  1.00  0.00    -0.237 OA
ATOM     84  O   UNL A   1      43.738  37.735  32.804  1.00  0.00    -0.237 OA
ATOM     85  O   UNL A   1      45.353  36.882  34.457  1.00  0.00    -0.744 OA
ENDBRANCH  81  82
ENDBRANCH  53  76
BRANCH  65  86
ATOM     86  C   UNL A   1      48.549  27.449  29.989  1.00  0.00    -0.014 A 
ATOM     87  C   UNL A   1      49.090  26.853  31.141  1.00  0.00     0.010 A 
ATOM     88  C   UNL A   1      49.407  27.811  28.934  1.00  0.00     0.010 A 
ATOM     89  C   UNL A   1      50.469  26.653  31.251  1.00  0.00     0.020 A 
ATOM     90  C   UNL A   1      50.782  27.589  29.029  1.00  0.00     0.020 A 
ATOM     91  C   UNL A   1      51.306  27.025  30.193  1.00  0.00     0.054 A 
BRANCH  91  92
ATOM     92  S   UNL A   1      53.088  26.717  30.340  1.00  0.00     0.124 S 
ATOM     93  O   UNL A   1      53.130  25.649  31.335  1.00  0.00    -0.237 OA
ATOM     94  O   UNL A   1      53.461  26.328  28.983  1.00  0.00    -0.237 OA
ATOM     95  O   UNL A   1      53.625  28.002  30.782  1.00  0.00    -0.744 OA
ENDBRANCH  91  92
ENDBRANCH  65  86
ENDBRANCH  39  40
ENDBRANCH  31  34
ENDBRANCH  29  30
ENDBRANCH  28  29
ENDBRANCH   1  28
TORSDOF 20
ENDMDL
