MODEL 1
REMARK VINA RESULT:     -11.9      0.000      0.000
REMARK SMILES O=C(NCCCCNC(=O)c1cccc(Br)c1O[C@@H]1CCOC2(CCC2)C1)c1ccc(-c2c3nc(c(-c4ccc(S(=O)(=O)[O-])cc4)c4ccc([nH]4)c(-c4ccc(S(=O)(=O)[O-])cc4)c4nc(c(-c5ccc(S(=O)(=O)[O-])cc5)c5ccc2[nH]5)C=C4)C=C3)cc1
REMARK SMILES IDX 5 1 4 2 3 3 1 4 2 5 28 7 29 8 87 9 30 10 86 11 31 12 32 13
REMARK SMILES IDX 33 14 80 15 34 16 85 17 79 18 81 19 35 20 84 21 78 22 77 23
REMARK SMILES IDX 36 25 66 26 47 27 65 28 48 29 51 30 64 31 82 32 49 33 50 34
REMARK SMILES IDX 63 36 83 37 52 38 37 39 38 40 46 41 39 42 45 43 40 44 41 45
REMARK SMILES IDX 42 46 43 47 44 48 67 49 68 50 76 51 69 52 75 53 70 54 71 55
REMARK SMILES IDX 72 56 73 57 74 58 53 59 54 60 62 61 55 62 61 63 56 64 57 65
REMARK SMILES IDX 58 66 59 67 60 68 6 69 7 70 8 71 9 72 10 74 11 75 12 76
REMARK SMILES IDX 17 77 13 78 15 79 14 80 16 81 18 82 19 83 20 84 27 85 21 86
REMARK SMILES IDX 23 87 22 88 24 89 26 90 25 91
REMARK H PARENT 3 6 81 24 51 35 8 73
REMARK Flexibility Score: inf
ROOT
ATOM      1  C   UNL A   1      40.114  22.542  27.536  1.00  0.00     0.023 C 
ENDROOT
BRANCH   1   2
ATOM      2  C   UNL A   1      41.497  23.149  27.334  1.00  0.00     0.116 C 
BRANCH   2   3
ATOM      3  N   UNL A   1      41.579  23.998  26.156  1.00  0.00    -0.352 N 
ATOM      4  O   UNL A   1      41.400  25.894  24.948  1.00  0.00    -0.269 OA
ATOM      5  C   UNL A   1      41.441  25.365  26.056  1.00  0.00     0.251 C 
ATOM      6  H   UNL A   1      41.761  23.529  25.310  1.00  0.00     0.163 HD
BRANCH   5   7
ATOM      7  C   UNL A   1      41.311  26.190  27.279  1.00  0.00     0.039 A 
ATOM      8  C   UNL A   1      40.122  26.196  28.013  1.00  0.00     0.014 A 
ATOM      9  C   UNL A   1      42.393  26.970  27.698  1.00  0.00     0.014 A 
ATOM     10  C   UNL A   1      39.964  27.093  29.064  1.00  0.00     0.010 A 
ATOM     11  C   UNL A   1      42.260  27.806  28.812  1.00  0.00     0.010 A 
ATOM     12  C   UNL A   1      41.033  27.900  29.486  1.00  0.00    -0.014 A 
BRANCH  12  13
ATOM     13  C   UNL A   1      40.859  28.781  30.670  1.00  0.00     0.031 A 
ATOM     14  C   UNL A   1      41.748  28.656  31.879  1.00  0.00     0.074 A 
ATOM     15  C   UNL A   1      39.897  29.725  30.635  1.00  0.00     0.049 A 
ATOM     16  N   UNL A   1      41.739  29.365  32.980  1.00  0.00    -0.248 NA
ATOM     17  C   UNL A   1      42.773  27.602  31.854  1.00  0.00     0.031 C 
ATOM     18  C   UNL A   1      38.968  29.942  29.522  1.00  0.00     0.029 A 
ATOM     19  N   UNL A   1      39.551  30.691  31.546  1.00  0.00    -0.354 N 
ATOM     20  C   UNL A   1      42.740  28.834  33.786  1.00  0.00     0.074 A 
ATOM     21  C   UNL A   1      43.322  27.728  33.056  1.00  0.00     0.031 C 
ATOM     22  C   UNL A   1      38.192  31.000  29.795  1.00  0.00     0.029 A 
ATOM     23  C   UNL A   1      38.521  31.498  31.125  1.00  0.00     0.049 A 
ATOM     24  H   UNL A   1      39.997  30.796  32.418  1.00  0.00     0.167 HD
ATOM     25  C   UNL A   1      43.140  29.235  35.018  1.00  0.00     0.031 A 
ATOM     26  C   UNL A   1      37.893  32.516  31.743  1.00  0.00     0.031 A 
ATOM     27  C   UNL A   1      42.556  30.337  35.741  1.00  0.00     0.049 A 
ATOM     28  C   UNL A   1      38.335  32.920  33.119  1.00  0.00     0.074 A 
ATOM     29  C   UNL A   1      42.912  30.837  36.982  1.00  0.00     0.029 A 
ATOM     30  N   UNL A   1      41.493  31.107  35.293  1.00  0.00    -0.354 N 
ATOM     31  N   UNL A   1      39.306  32.423  33.848  1.00  0.00    -0.248 NA
ATOM     32  C   UNL A   1      37.600  34.020  33.755  1.00  0.00     0.031 C 
ATOM     33  C   UNL A   1      42.032  31.874  37.307  1.00  0.00     0.029 A 
ATOM     34  C   UNL A   1      41.164  32.060  36.243  1.00  0.00     0.049 A 
ATOM     35  H   UNL A   1      41.038  30.993  34.427  1.00  0.00     0.167 HD
ATOM     36  C   UNL A   1      39.309  33.164  35.024  1.00  0.00     0.074 A 
ATOM     37  C   UNL A   1      38.258  34.154  34.898  1.00  0.00     0.031 C 
ATOM     38  C   UNL A   1      40.112  33.036  36.108  1.00  0.00     0.031 A 
BRANCH  25  39
ATOM     39  C   UNL A   1      44.249  28.461  35.684  1.00  0.00    -0.014 A 
ATOM     40  C   UNL A   1      45.595  28.845  35.543  1.00  0.00     0.010 A 
ATOM     41  C   UNL A   1      43.935  27.370  36.516  1.00  0.00     0.010 A 
ATOM     42  C   UNL A   1      46.607  28.130  36.191  1.00  0.00     0.020 A 
ATOM     43  C   UNL A   1      44.942  26.668  37.186  1.00  0.00     0.020 A 
ATOM     44  C   UNL A   1      46.274  27.043  37.006  1.00  0.00     0.054 A 
BRANCH  44  45
ATOM     45  S   UNL A   1      47.607  26.149  37.852  1.00  0.00     0.124 S 
ATOM     46  O   UNL A   1      47.681  24.914  37.074  1.00  0.00    -0.237 OA
ATOM     47  O   UNL A   1      48.745  27.051  37.704  1.00  0.00    -0.237 OA
ATOM     48  O   UNL A   1      47.110  25.995  39.217  1.00  0.00    -0.744 OA
ENDBRANCH  44  45
ENDBRANCH  25  39
BRANCH  26  49
ATOM     49  C   UNL A   1      36.767  33.209  31.060  1.00  0.00    -0.014 A 
ATOM     50  C   UNL A   1      36.978  33.915  29.864  1.00  0.00     0.010 A 
ATOM     51  C   UNL A   1      35.467  33.137  31.595  1.00  0.00     0.010 A 
ATOM     52  C   UNL A   1      35.910  34.549  29.222  1.00  0.00     0.020 A 
ATOM     53  C   UNL A   1      34.393  33.744  30.940  1.00  0.00     0.020 A 
ATOM     54  C   UNL A   1      34.624  34.457  29.762  1.00  0.00     0.054 A 
BRANCH  54  55
ATOM     55  S   UNL A   1      33.244  35.240  28.884  1.00  0.00     0.124 S 
ATOM     56  O   UNL A   1      33.922  36.292  28.132  1.00  0.00    -0.237 OA
ATOM     57  O   UNL A   1      32.709  34.137  28.089  1.00  0.00    -0.237 OA
ATOM     58  O   UNL A   1      32.372  35.702  29.961  1.00  0.00    -0.744 OA
ENDBRANCH  54  55
ENDBRANCH  26  49
BRANCH  38  59
ATOM     59  C   UNL A   1      39.902  34.009  37.238  1.00  0.00    -0.014 A 
ATOM     60  C   UNL A   1      40.583  35.239  37.274  1.00  0.00     0.010 A 
ATOM     61  C   UNL A   1      38.978  33.704  38.253  1.00  0.00     0.010 A 
ATOM     62  C   UNL A   1      40.367  36.132  38.327  1.00  0.00     0.020 A 
ATOM     63  C   UNL A   1      38.740  34.606  39.292  1.00  0.00     0.020 A 
ATOM     64  C   UNL A   1      39.447  35.810  39.330  1.00  0.00     0.054 A 
BRANCH  64  65
ATOM     65  S   UNL A   1      39.154  37.003  40.664  1.00  0.00     0.124 S 
ATOM     66  O   UNL A   1      40.498  37.516  40.914  1.00  0.00    -0.237 OA
ATOM     67  O   UNL A   1      38.225  37.949  40.051  1.00  0.00    -0.237 OA
ATOM     68  O   UNL A   1      38.588  36.191  41.738  1.00  0.00    -0.744 OA
ENDBRANCH  64  65
ENDBRANCH  38  59
ENDBRANCH  12  13
ENDBRANCH   5   7
ENDBRANCH   2   3
ENDBRANCH   1   2
BRANCH   1  69
ATOM     69  C   UNL A   1      39.402  22.101  26.260  1.00  0.00     0.023 C 
BRANCH  69  70
ATOM     70  C   UNL A   1      38.014  22.697  26.038  1.00  0.00     0.116 C 
BRANCH  70  71
ATOM     71  N   UNL A   1      37.697  22.950  24.638  1.00  0.00    -0.352 N 
ATOM     72  C   UNL A   1      36.523  22.713  23.953  1.00  0.00     0.255 C 
ATOM     73  H   UNL A   1      38.424  23.349  24.106  1.00  0.00     0.163 HD
ATOM     74  O   UNL A   1      36.399  23.048  22.782  1.00  0.00    -0.269 OA
BRANCH  72  75
ATOM     75  C   UNL A   1      35.409  22.076  24.682  1.00  0.00     0.083 A 
ATOM     76  C   UNL A   1      35.353  20.687  24.684  1.00  0.00     0.018 A 
ATOM     77  C   UNL A   1      34.383  22.857  25.260  1.00  0.00     0.146 A 
ATOM     78  C   UNL A   1      34.224  20.068  25.168  1.00  0.00     0.002 A 
ATOM     79  C   UNL A   1      33.091  22.319  25.704  1.00  0.00     0.060 A 
ATOM     80  C   UNL A   1      33.132  20.835  25.621  1.00  0.00     0.019 A 
ATOM     81  Br  UNL A   1      31.191  23.863  26.559  1.00  0.00    -0.047 Br
BRANCH  77  82
ATOM     82  O   UNL A   1      34.654  24.179  25.428  1.00  0.00    -0.488 OA
BRANCH  82  83
ATOM     83  C   UNL A   1      33.412  24.589  24.964  1.00  0.00     0.178 C 
ATOM     84  C   UNL A   1      33.655  24.833  23.048  1.00  0.00     0.074 C 
ATOM     85  C   UNL A   1      33.096  26.105  26.129  1.00  0.00     0.080 C 
ATOM     86  C   UNL A   1      33.571  26.630  22.357  1.00  0.00     0.165 C 
ATOM     87  C   UNL A   1      33.167  27.836  25.340  1.00  0.00     0.072 C 
ATOM     88  O   UNL A   1      33.255  28.007  23.536  1.00  0.00    -0.375 OA
ATOM     89  C   UNL A   1      32.032  28.772  25.922  1.00  0.00     0.036 C 
ATOM     90  C   UNL A   1      34.137  28.745  26.194  1.00  0.00     0.036 C 
ATOM     91  C   UNL A   1      33.100  29.862  26.091  1.00  0.00     0.006 C 
ENDBRANCH  82  83
ENDBRANCH  77  82
ENDBRANCH  72  75
ENDBRANCH  70  71
ENDBRANCH  69  70
ENDBRANCH   1  69
TORSDOF 16
ENDMDL
MODEL 2
REMARK VINA RESULT:     -11.9      1.384      3.430
REMARK SMILES O=C(NCCCCNC(=O)c1cccc(Br)c1O[C@@H]1CCOC2(CCC2)C1)c1ccc(-c2c3nc(c(-c4ccc(S(=O)(=O)[O-])cc4)c4ccc([nH]4)c(-c4ccc(S(=O)(=O)[O-])cc4)c4nc(c(-c5ccc(S(=O)(=O)[O-])cc5)c5ccc2[nH]5)C=C4)C=C3)cc1
REMARK SMILES IDX 5 1 4 2 3 3 1 4 2 5 28 7 29 8 87 9 30 10 86 11 31 12 32 13
REMARK SMILES IDX 33 14 80 15 34 16 85 17 79 18 81 19 35 20 84 21 78 22 77 23
REMARK SMILES IDX 36 25 66 26 47 27 65 28 48 29 51 30 64 31 82 32 49 33 50 34
REMARK SMILES IDX 63 36 83 37 52 38 37 39 38 40 46 41 39 42 45 43 40 44 41 45
REMARK SMILES IDX 42 46 43 47 44 48 67 49 68 50 76 51 69 52 75 53 70 54 71 55
REMARK SMILES IDX 72 56 73 57 74 58 53 59 54 60 62 61 55 62 61 63 56 64 57 65
REMARK SMILES IDX 58 66 59 67 60 68 6 69 7 70 8 71 9 72 10 74 11 75 12 76
REMARK SMILES IDX 17 77 13 78 15 79 14 80 16 81 18 82 19 83 20 84 27 85 21 86
REMARK SMILES IDX 23 87 22 88 24 89 26 90 25 91
REMARK H PARENT 3 6 81 24 51 35 8 73
REMARK Flexibility Score: inf
ROOT
ATOM      1  C   UNL A   1      39.376  22.241  26.661  1.00  0.00     0.023 C 
ENDROOT
BRANCH   1   2
ATOM      2  C   UNL A   1      40.484  23.155  27.168  1.00  0.00     0.116 C 
BRANCH   2   3
ATOM      3  N   UNL A   1      41.138  23.900  26.104  1.00  0.00    -0.352 N 
ATOM      4  O   UNL A   1      41.919  25.718  25.023  1.00  0.00    -0.269 OA
ATOM      5  C   UNL A   1      41.503  25.228  26.069  1.00  0.00     0.251 C 
ATOM      6  H   UNL A   1      41.351  23.383  25.295  1.00  0.00     0.163 HD
BRANCH   5   7
ATOM      7  C   UNL A   1      41.365  26.069  27.281  1.00  0.00     0.039 A 
ATOM      8  C   UNL A   1      40.312  25.865  28.175  1.00  0.00     0.014 A 
ATOM      9  C   UNL A   1      42.303  27.077  27.525  1.00  0.00     0.014 A 
ATOM     10  C   UNL A   1      40.108  26.762  29.219  1.00  0.00     0.010 A 
ATOM     11  C   UNL A   1      42.146  27.922  28.629  1.00  0.00     0.010 A 
ATOM     12  C   UNL A   1      41.028  27.793  29.467  1.00  0.00    -0.014 A 
BRANCH  12  13
ATOM     13  C   UNL A   1      40.830  28.678  30.646  1.00  0.00     0.031 A 
ATOM     14  C   UNL A   1      41.708  28.571  31.863  1.00  0.00     0.074 A 
ATOM     15  C   UNL A   1      39.856  29.610  30.596  1.00  0.00     0.049 A 
ATOM     16  N   UNL A   1      41.679  29.285  32.961  1.00  0.00    -0.248 NA
ATOM     17  C   UNL A   1      42.748  27.530  31.855  1.00  0.00     0.031 C 
ATOM     18  C   UNL A   1      38.935  29.808  29.473  1.00  0.00     0.029 A 
ATOM     19  N   UNL A   1      39.488  30.575  31.499  1.00  0.00    -0.354 N 
ATOM     20  C   UNL A   1      42.679  28.772  33.779  1.00  0.00     0.074 A 
ATOM     21  C   UNL A   1      43.282  27.670  33.061  1.00  0.00     0.031 C 
ATOM     22  C   UNL A   1      38.143  30.857  29.732  1.00  0.00     0.029 A 
ATOM     23  C   UNL A   1      38.452  31.367  31.063  1.00  0.00     0.049 A 
ATOM     24  H   UNL A   1      39.924  30.690  32.374  1.00  0.00     0.167 HD
ATOM     25  C   UNL A   1      43.061  29.185  35.013  1.00  0.00     0.031 A 
ATOM     26  C   UNL A   1      37.804  32.379  31.669  1.00  0.00     0.031 A 
ATOM     27  C   UNL A   1      42.455  30.282  35.725  1.00  0.00     0.049 A 
ATOM     28  C   UNL A   1      38.227  32.795  33.047  1.00  0.00     0.074 A 
ATOM     29  C   UNL A   1      42.793  30.793  36.967  1.00  0.00     0.029 A 
ATOM     30  N   UNL A   1      41.387  31.036  35.263  1.00  0.00    -0.354 N 
ATOM     31  N   UNL A   1      39.197  32.316  33.789  1.00  0.00    -0.248 NA
ATOM     32  C   UNL A   1      37.471  33.889  33.670  1.00  0.00     0.031 C 
ATOM     33  C   UNL A   1      41.895  31.820  37.278  1.00  0.00     0.029 A 
ATOM     34  C   UNL A   1      41.036  31.989  36.205  1.00  0.00     0.049 A 
ATOM     35  H   UNL A   1      40.943  30.911  34.392  1.00  0.00     0.167 HD
ATOM     36  C   UNL A   1      39.179  33.062  34.961  1.00  0.00     0.074 A 
ATOM     37  C   UNL A   1      38.116  34.037  34.820  1.00  0.00     0.031 C 
ATOM     38  C   UNL A   1      39.972  32.950  36.054  1.00  0.00     0.031 A 
BRANCH  25  39
ATOM     39  C   UNL A   1      44.174  28.429  35.694  1.00  0.00    -0.014 A 
ATOM     40  C   UNL A   1      43.914  27.276  36.458  1.00  0.00     0.010 A 
ATOM     41  C   UNL A   1      45.507  28.842  35.515  1.00  0.00     0.010 A 
ATOM     42  C   UNL A   1      44.963  26.573  37.058  1.00  0.00     0.020 A 
ATOM     43  C   UNL A   1      46.561  28.126  36.094  1.00  0.00     0.020 A 
ATOM     44  C   UNL A   1      46.280  27.005  36.876  1.00  0.00     0.054 A 
BRANCH  44  45
ATOM     45  S   UNL A   1      47.622  26.060  37.649  1.00  0.00     0.124 S 
ATOM     46  O   UNL A   1      48.789  26.532  36.906  1.00  0.00    -0.237 OA
ATOM     47  O   UNL A   1      47.554  26.486  39.043  1.00  0.00    -0.237 OA
ATOM     48  O   UNL A   1      47.253  24.668  37.406  1.00  0.00    -0.744 OA
ENDBRANCH  44  45
ENDBRANCH  25  39
BRANCH  26  49
ATOM     49  C   UNL A   1      36.677  33.053  30.972  1.00  0.00    -0.014 A 
ATOM     50  C   UNL A   1      35.350  32.853  31.390  1.00  0.00     0.010 A 
ATOM     51  C   UNL A   1      36.933  33.929  29.899  1.00  0.00     0.010 A 
ATOM     52  C   UNL A   1      34.299  33.504  30.738  1.00  0.00     0.020 A 
ATOM     53  C   UNL A   1      35.888  34.604  29.266  1.00  0.00     0.020 A 
ATOM     54  C   UNL A   1      34.574  34.378  29.682  1.00  0.00     0.054 A 
BRANCH  54  55
ATOM     55  S   UNL A   1      33.201  35.255  28.886  1.00  0.00     0.124 S 
ATOM     56  O   UNL A   1      32.418  35.697  30.036  1.00  0.00    -0.237 OA
ATOM     57  O   UNL A   1      33.887  36.310  28.144  1.00  0.00    -0.237 OA
ATOM     58  O   UNL A   1      32.574  34.229  28.058  1.00  0.00    -0.744 OA
ENDBRANCH  54  55
ENDBRANCH  26  49
BRANCH  38  59
ATOM     59  C   UNL A   1      39.738  33.926  37.176  1.00  0.00    -0.014 A 
ATOM     60  C   UNL A   1      38.992  33.565  38.312  1.00  0.00     0.010 A 
ATOM     61  C   UNL A   1      40.312  35.209  37.109  1.00  0.00     0.010 A 
ATOM     62  C   UNL A   1      38.795  34.483  39.346  1.00  0.00     0.020 A 
ATOM     63  C   UNL A   1      40.140  36.120  38.153  1.00  0.00     0.020 A 
ATOM     64  C   UNL A   1      39.370  35.756  39.261  1.00  0.00     0.054 A 
BRANCH  64  65
ATOM     65  S   UNL A   1      39.134  36.916  40.634  1.00  0.00     0.124 S 
ATOM     66  O   UNL A   1      38.319  37.958  40.016  1.00  0.00    -0.237 OA
ATOM     67  O   UNL A   1      38.455  36.096  41.635  1.00  0.00    -0.237 OA
ATOM     68  O   UNL A   1      40.494  37.317  40.986  1.00  0.00    -0.744 OA
ENDBRANCH  64  65
ENDBRANCH  38  59
ENDBRANCH  12  13
ENDBRANCH   5   7
ENDBRANCH   2   3
ENDBRANCH   1   2
BRANCH   1  69
ATOM     69  C   UNL A   1      38.248  22.939  25.907  1.00  0.00     0.023 C 
BRANCH  69  70
ATOM     70  C   UNL A   1      37.066  22.054  25.518  1.00  0.00     0.116 C 
BRANCH  70  71
ATOM     71  N   UNL A   1      36.107  21.842  26.596  1.00  0.00    -0.352 N 
ATOM     72  C   UNL A   1      34.887  22.449  26.809  1.00  0.00     0.255 C 
ATOM     73  H   UNL A   1      36.368  21.169  27.266  1.00  0.00     0.163 HD
ATOM     74  O   UNL A   1      34.167  22.106  27.738  1.00  0.00    -0.269 OA
BRANCH  72  75
ATOM     75  C   UNL A   1      34.457  23.499  25.865  1.00  0.00     0.083 A 
ATOM     76  C   UNL A   1      35.248  24.637  25.767  1.00  0.00     0.018 A 
ATOM     77  C   UNL A   1      33.231  23.390  25.172  1.00  0.00     0.146 A 
ATOM     78  C   UNL A   1      34.772  25.719  25.062  1.00  0.00     0.002 A 
ATOM     79  C   UNL A   1      32.573  24.508  24.484  1.00  0.00     0.060 A 
ATOM     80  C   UNL A   1      33.489  25.678  24.480  1.00  0.00     0.019 A 
ATOM     81  Br  UNL A   1      30.222  24.261  23.418  1.00  0.00    -0.047 Br
BRANCH  77  82
ATOM     82  O   UNL A   1      32.667  22.153  25.134  1.00  0.00    -0.488 OA
BRANCH  82  83
ATOM     83  C   UNL A   1      33.484  21.709  24.103  1.00  0.00     0.178 C 
ATOM     84  C   UNL A   1      32.398  21.901  22.498  1.00  0.00     0.074 C 
ATOM     85  C   UNL A   1      33.963  19.957  24.776  1.00  0.00     0.080 C 
ATOM     86  C   UNL A   1      31.823  20.291  21.608  1.00  0.00     0.165 C 
ATOM     87  C   UNL A   1      33.222  18.450  23.881  1.00  0.00     0.072 C 
ATOM     88  O   UNL A   1      32.336  18.671  22.313  1.00  0.00    -0.375 OA
ATOM     89  C   UNL A   1      34.289  17.288  23.746  1.00  0.00     0.036 C 
ATOM     90  C   UNL A   1      32.555  17.499  24.953  1.00  0.00     0.036 C 
ATOM     91  C   UNL A   1      33.205  16.317  24.237  1.00  0.00     0.006 C 
ENDBRANCH  82  83
ENDBRANCH  77  82
ENDBRANCH  72  75
ENDBRANCH  70  71
ENDBRANCH  69  70
ENDBRANCH   1  69
TORSDOF 16
ENDMDL
MODEL 3
REMARK VINA RESULT:     -11.8      6.413     11.894
REMARK SMILES O=C(NCCCCNC(=O)c1cccc(Br)c1O[C@@H]1CCOC2(CCC2)C1)c1ccc(-c2c3nc(c(-c4ccc(S(=O)(=O)[O-])cc4)c4ccc([nH]4)c(-c4ccc(S(=O)(=O)[O-])cc4)c4nc(c(-c5ccc(S(=O)(=O)[O-])cc5)c5ccc2[nH]5)C=C4)C=C3)cc1
REMARK SMILES IDX 5 1 4 2 3 3 1 4 2 5 28 7 29 8 87 9 30 10 86 11 31 12 32 13
REMARK SMILES IDX 33 14 80 15 34 16 85 17 79 18 81 19 35 20 84 21 78 22 77 23
REMARK SMILES IDX 36 25 66 26 47 27 65 28 48 29 51 30 64 31 82 32 49 33 50 34
REMARK SMILES IDX 63 36 83 37 52 38 37 39 38 40 46 41 39 42 45 43 40 44 41 45
REMARK SMILES IDX 42 46 43 47 44 48 67 49 68 50 76 51 69 52 75 53 70 54 71 55
REMARK SMILES IDX 72 56 73 57 74 58 53 59 54 60 62 61 55 62 61 63 56 64 57 65
REMARK SMILES IDX 58 66 59 67 60 68 6 69 7 70 8 71 9 72 10 74 11 75 12 76
REMARK SMILES IDX 17 77 13 78 15 79 14 80 16 81 18 82 19 83 20 84 27 85 21 86
REMARK SMILES IDX 23 87 22 88 24 89 26 90 25 91
REMARK H PARENT 3 6 81 24 51 35 8 73
REMARK Flexibility Score: inf
ROOT
ATOM      1  C   UNL A   1      34.880  30.399  27.516  1.00  0.00     0.023 C 
ENDROOT
BRANCH   1   2
ATOM      2  C   UNL A   1      35.676  31.341  28.411  1.00  0.00     0.116 C 
BRANCH   2   3
ATOM      3  N   UNL A   1      35.541  31.032  29.826  1.00  0.00    -0.352 N 
ATOM      4  O   UNL A   1      36.056  30.062  31.795  1.00  0.00    -0.269 OA
ATOM      5  C   UNL A   1      36.406  30.353  30.655  1.00  0.00     0.251 C 
ATOM      6  H   UNL A   1      34.714  31.353  30.251  1.00  0.00     0.163 HD
BRANCH   5   7
ATOM      7  C   UNL A   1      37.744  29.949  30.162  1.00  0.00     0.039 A 
ATOM      8  C   UNL A   1      38.723  29.492  31.047  1.00  0.00     0.014 A 
ATOM      9  C   UNL A   1      38.024  30.031  28.795  1.00  0.00     0.014 A 
ATOM     10  C   UNL A   1      40.018  29.268  30.590  1.00  0.00     0.010 A 
ATOM     11  C   UNL A   1      39.304  29.719  28.324  1.00  0.00     0.010 A 
ATOM     12  C   UNL A   1      40.322  29.366  29.223  1.00  0.00    -0.014 A 
BRANCH  12  13
ATOM     13  C   UNL A   1      41.694  29.032  28.755  1.00  0.00     0.031 A 
ATOM     14  C   UNL A   1      42.790  30.062  28.740  1.00  0.00     0.074 A 
ATOM     15  C   UNL A   1      41.951  27.767  28.365  1.00  0.00     0.049 A 
ATOM     16  N   UNL A   1      44.043  29.922  28.385  1.00  0.00    -0.248 NA
ATOM     17  C   UNL A   1      42.441  31.424  29.173  1.00  0.00     0.031 C 
ATOM     18  C   UNL A   1      40.969  26.679  28.329  1.00  0.00     0.029 A 
ATOM     19  N   UNL A   1      43.115  27.175  27.943  1.00  0.00    -0.354 N 
ATOM     20  C   UNL A   1      44.627  31.175  28.533  1.00  0.00     0.074 A 
ATOM     21  C   UNL A   1      43.585  32.071  28.989  1.00  0.00     0.031 C 
ATOM     22  C   UNL A   1      41.580  25.546  27.955  1.00  0.00     0.029 A 
ATOM     23  C   UNL A   1      42.978  25.836  27.662  1.00  0.00     0.049 A 
ATOM     24  H   UNL A   1      43.966  27.662  27.851  1.00  0.00     0.167 HD
ATOM     25  C   UNL A   1      45.913  31.543  28.313  1.00  0.00     0.031 A 
ATOM     26  C   UNL A   1      43.870  24.940  27.200  1.00  0.00     0.031 A 
ATOM     27  C   UNL A   1      46.946  30.648  27.858  1.00  0.00     0.049 A 
ATOM     28  C   UNL A   1      45.280  25.382  26.936  1.00  0.00     0.074 A 
ATOM     29  C   UNL A   1      48.285  30.922  27.634  1.00  0.00     0.029 A 
ATOM     30  N   UNL A   1      46.759  29.308  27.552  1.00  0.00    -0.354 N 
ATOM     31  N   UNL A   1      45.816  26.565  27.113  1.00  0.00    -0.248 NA
ATOM     32  C   UNL A   1      46.204  24.369  26.411  1.00  0.00     0.031 C 
ATOM     33  C   UNL A   1      48.895  29.762  27.144  1.00  0.00     0.029 A 
ATOM     34  C   UNL A   1      47.950  28.750  27.118  1.00  0.00     0.049 A 
ATOM     35  H   UNL A   1      45.904  28.825  27.632  1.00  0.00     0.167 HD
ATOM     36  C   UNL A   1      47.148  26.434  26.738  1.00  0.00     0.074 A 
ATOM     37  C   UNL A   1      47.338  25.053  26.344  1.00  0.00     0.031 C 
ATOM     38  C   UNL A   1      48.124  27.374  26.723  1.00  0.00     0.031 A 
BRANCH  25  39
ATOM     39  C   UNL A   1      46.278  32.990  28.535  1.00  0.00    -0.014 A 
ATOM     40  C   UNL A   1      46.013  33.968  27.559  1.00  0.00     0.010 A 
ATOM     41  C   UNL A   1      46.837  33.386  29.764  1.00  0.00     0.010 A 
ATOM     42  C   UNL A   1      46.334  35.308  27.796  1.00  0.00     0.020 A 
ATOM     43  C   UNL A   1      47.136  34.730  30.014  1.00  0.00     0.020 A 
ATOM     44  C   UNL A   1      46.897  35.680  29.021  1.00  0.00     0.054 A 
BRANCH  44  45
ATOM     45  S   UNL A   1      47.282  37.430  29.307  1.00  0.00     0.124 S 
ATOM     46  O   UNL A   1      46.765  37.634  30.659  1.00  0.00    -0.237 OA
ATOM     47  O   UNL A   1      48.736  37.464  29.182  1.00  0.00    -0.237 OA
ATOM     48  O   UNL A   1      46.552  38.125  28.250  1.00  0.00    -0.744 OA
ENDBRANCH  44  45
ENDBRANCH  25  39
BRANCH  26  49
ATOM     49  C   UNL A   1      43.441  23.539  26.946  1.00  0.00    -0.014 A 
ATOM     50  C   UNL A   1      43.162  22.669  28.013  1.00  0.00     0.010 A 
ATOM     51  C   UNL A   1      43.280  23.078  25.625  1.00  0.00     0.010 A 
ATOM     52  C   UNL A   1      42.743  21.358  27.764  1.00  0.00     0.020 A 
ATOM     53  C   UNL A   1      42.833  21.780  25.374  1.00  0.00     0.020 A 
ATOM     54  C   UNL A   1      42.579  20.923  26.446  1.00  0.00     0.054 A 
BRANCH  54  55
ATOM     55  S   UNL A   1      41.982  19.236  26.145  1.00  0.00     0.124 S 
ATOM     56  O   UNL A   1      42.308  18.572  27.403  1.00  0.00    -0.237 OA
ATOM     57  O   UNL A   1      40.559  19.446  25.889  1.00  0.00    -0.237 OA
ATOM     58  O   UNL A   1      42.757  18.801  24.987  1.00  0.00    -0.744 OA
ENDBRANCH  54  55
ENDBRANCH  26  49
BRANCH  38  59
ATOM     59  C   UNL A   1      49.497  26.932  26.291  1.00  0.00    -0.014 A 
ATOM     60  C   UNL A   1      50.328  26.192  27.150  1.00  0.00     0.010 A 
ATOM     61  C   UNL A   1      49.942  27.228  24.989  1.00  0.00     0.010 A 
ATOM     62  C   UNL A   1      51.595  25.785  26.726  1.00  0.00     0.020 A 
ATOM     63  C   UNL A   1      51.197  26.798  24.553  1.00  0.00     0.020 A 
ATOM     64  C   UNL A   1      52.023  26.090  25.430  1.00  0.00     0.054 A 
BRANCH  64  65
ATOM     65  S   UNL A   1      53.655  25.514  24.888  1.00  0.00     0.124 S 
ATOM     66  O   UNL A   1      53.598  25.750  23.448  1.00  0.00    -0.237 OA
ATOM     67  O   UNL A   1      54.565  26.382  25.632  1.00  0.00    -0.237 OA
ATOM     68  O   UNL A   1      53.677  24.109  25.289  1.00  0.00    -0.744 OA
ENDBRANCH  64  65
ENDBRANCH  38  59
ENDBRANCH  12  13
ENDBRANCH   5   7
ENDBRANCH   2   3
ENDBRANCH   1   2
BRANCH   1  69
ATOM     69  C   UNL A   1      33.440  30.822  27.239  1.00  0.00     0.023 C 
BRANCH  69  70
ATOM     70  C   UNL A   1      32.671  29.943  26.256  1.00  0.00     0.116 C 
BRANCH  70  71
ATOM     71  N   UNL A   1      33.256  29.897  24.922  1.00  0.00    -0.352 N 
ATOM     72  C   UNL A   1      33.566  28.801  24.142  1.00  0.00     0.255 C 
ATOM     73  H   UNL A   1      33.458  30.773  24.519  1.00  0.00     0.163 HD
ATOM     74  O   UNL A   1      33.997  28.939  23.005  1.00  0.00    -0.269 OA
BRANCH  72  75
ATOM     75  C   UNL A   1      33.329  27.458  24.705  1.00  0.00     0.083 A 
ATOM     76  C   UNL A   1      34.126  27.058  25.771  1.00  0.00     0.018 A 
ATOM     77  C   UNL A   1      32.399  26.578  24.108  1.00  0.00     0.146 A 
ATOM     78  C   UNL A   1      34.079  25.745  26.180  1.00  0.00     0.002 A 
ATOM     79  C   UNL A   1      32.335  25.137  24.383  1.00  0.00     0.060 A 
ATOM     80  C   UNL A   1      33.258  24.819  25.505  1.00  0.00     0.019 A 
ATOM     81  Br  UNL A   1      30.733  23.567  23.083  1.00  0.00    -0.047 Br
BRANCH  77  82
ATOM     82  O   UNL A   1      31.502  27.138  23.253  1.00  0.00    -0.488 OA
BRANCH  82  83
ATOM     83  C   UNL A   1      30.671  27.589  24.270  1.00  0.00     0.178 C 
ATOM     84  C   UNL A   1      29.251  26.260  24.371  1.00  0.00     0.074 C 
ATOM     85  C   UNL A   1      30.310  29.387  23.646  1.00  0.00     0.080 C 
ATOM     86  C   UNL A   1      27.481  26.800  23.829  1.00  0.00     0.165 C 
ATOM     87  C   UNL A   1      28.551  29.751  23.018  1.00  0.00     0.072 C 
ATOM     88  O   UNL A   1      27.230  28.531  23.261  1.00  0.00    -0.375 OA
ATOM     89  C   UNL A   1      28.065  31.182  23.488  1.00  0.00     0.036 C 
ATOM     90  C   UNL A   1      28.649  30.426  21.592  1.00  0.00     0.036 C 
ATOM     91  C   UNL A   1      27.591  31.428  22.048  1.00  0.00     0.006 C 
ENDBRANCH  82  83
ENDBRANCH  77  82
ENDBRANCH  72  75
ENDBRANCH  70  71
ENDBRANCH  69  70
ENDBRANCH   1  69
TORSDOF 16
ENDMDL
