MODEL 1
REMARK VINA RESULT:     -12.2      0.000      0.000
REMARK SMILES O=C(NCCCCNC(=O)[C@@H](Cc1ccccc1)N1C(=O)/C(=C/c2ccncc2)SC1=S)c1ccc(-c2c3nc(c(-c4ccc(S(=O)(=O)[O-])cc4)c4ccc([nH]4)c(-c4ccc(S(=O)(=O)[O-])cc4)c4nc(c(-c5ccc(S(=O)(=O)[O-])cc5)c5ccc2[nH]5)C=C4)C=C3)cc1
REMARK SMILES IDX 5 1 4 2 3 3 1 4 2 5 33 7 34 8 92 9 35 10 91 11 36 12 37 13
REMARK SMILES IDX 38 14 85 15 39 16 90 17 84 18 86 19 40 20 89 21 83 22 82 23
REMARK SMILES IDX 41 25 71 26 52 27 70 28 53 29 56 30 69 31 87 32 54 33 55 34
REMARK SMILES IDX 68 36 88 37 57 38 42 39 43 40 51 41 44 42 50 43 45 44 46 45
REMARK SMILES IDX 47 46 48 47 49 48 72 49 73 50 81 51 74 52 80 53 75 54 76 55
REMARK SMILES IDX 77 56 78 57 79 58 58 59 59 60 67 61 60 62 66 63 61 64 62 65
REMARK SMILES IDX 63 66 64 67 65 68 6 69 7 70 8 71 9 72 10 74 11 75 12 76
REMARK SMILES IDX 13 77 14 78 18 79 15 80 17 81 16 82 19 83 20 84 31 85 21 86
REMARK SMILES IDX 22 87 30 88 32 89 23 90 24 91 25 92 29 93 26 94 28 95 27 96
REMARK H PARENT 3 6 86 24 56 35 8 73
REMARK Flexibility Score: inf
ROOT
ATOM      1  C   UNL A   1      37.767  22.674  26.296  1.00  0.00     0.023 C 
ENDROOT
BRANCH   1   2
ATOM      2  C   UNL A   1      38.303  24.094  26.272  1.00  0.00     0.116 C 
BRANCH   2   3
ATOM      3  N   UNL A   1      39.711  24.170  25.886  1.00  0.00    -0.352 N 
ATOM      4  O   UNL A   1      41.778  25.083  25.728  1.00  0.00    -0.269 OA
ATOM      5  C   UNL A   1      40.682  25.066  26.276  1.00  0.00     0.251 C 
ATOM      6  H   UNL A   1      40.010  23.477  25.253  1.00  0.00     0.163 HD
BRANCH   5   7
ATOM      7  C   UNL A   1      40.356  26.027  27.345  1.00  0.00     0.039 A 
ATOM      8  C   UNL A   1      40.895  27.308  27.281  1.00  0.00     0.014 A 
ATOM      9  C   UNL A   1      39.620  25.622  28.461  1.00  0.00     0.014 A 
ATOM     10  C   UNL A   1      40.945  28.071  28.431  1.00  0.00     0.010 A 
ATOM     11  C   UNL A   1      39.514  26.481  29.559  1.00  0.00     0.010 A 
ATOM     12  C   UNL A   1      40.220  27.694  29.572  1.00  0.00    -0.014 A 
BRANCH  12  13
ATOM     13  C   UNL A   1      40.178  28.640  30.718  1.00  0.00     0.031 A 
ATOM     14  C   UNL A   1      41.182  28.578  31.837  1.00  0.00     0.074 A 
ATOM     15  C   UNL A   1      39.246  29.615  30.690  1.00  0.00     0.049 A 
ATOM     16  N   UNL A   1      41.271  29.343  32.896  1.00  0.00    -0.248 NA
ATOM     17  C   UNL A   1      42.209  27.524  31.774  1.00  0.00     0.031 C 
ATOM     18  C   UNL A   1      38.223  29.772  29.647  1.00  0.00     0.029 A 
ATOM     19  N   UNL A   1      39.031  30.684  31.518  1.00  0.00    -0.354 N 
ATOM     20  C   UNL A   1      42.326  28.837  33.648  1.00  0.00     0.074 A 
ATOM     21  C   UNL A   1      42.847  27.698  32.926  1.00  0.00     0.031 C 
ATOM     22  C   UNL A   1      37.567  30.923  29.838  1.00  0.00     0.029 A 
ATOM     23  C   UNL A   1      38.030  31.519  31.083  1.00  0.00     0.049 A 
ATOM     24  H   UNL A   1      39.544  30.839  32.345  1.00  0.00     0.167 HD
ATOM     25  C   UNL A   1      42.805  29.284  34.835  1.00  0.00     0.031 A 
ATOM     26  C   UNL A   1      37.505  32.626  31.635  1.00  0.00     0.031 A 
ATOM     27  C   UNL A   1      42.283  30.434  35.530  1.00  0.00     0.049 A 
ATOM     28  C   UNL A   1      38.042  33.085  32.953  1.00  0.00     0.074 A 
ATOM     29  C   UNL A   1      42.705  30.980  36.730  1.00  0.00     0.029 A 
ATOM     30  N   UNL A   1      41.226  31.218  35.086  1.00  0.00    -0.354 N 
ATOM     31  N   UNL A   1      39.027  32.579  33.656  1.00  0.00    -0.248 NA
ATOM     32  C   UNL A   1      37.388  34.247  33.563  1.00  0.00     0.031 C 
ATOM     33  C   UNL A   1      41.873  32.062  37.036  1.00  0.00     0.029 A 
ATOM     34  C   UNL A   1      40.968  32.228  35.998  1.00  0.00     0.049 A 
ATOM     35  H   UNL A   1      40.733  31.077  34.246  1.00  0.00     0.167 HD
ATOM     36  C   UNL A   1      39.112  33.362  34.798  1.00  0.00     0.074 A 
ATOM     37  C   UNL A   1      38.099  34.394  34.672  1.00  0.00     0.031 C 
ATOM     38  C   UNL A   1      39.945  33.233  35.859  1.00  0.00     0.031 A 
BRANCH  25  39
ATOM     39  C   UNL A   1      43.920  28.504  35.485  1.00  0.00    -0.014 A 
ATOM     40  C   UNL A   1      43.661  27.415  36.337  1.00  0.00     0.010 A 
ATOM     41  C   UNL A   1      45.257  28.839  35.195  1.00  0.00     0.010 A 
ATOM     42  C   UNL A   1      44.717  26.701  36.914  1.00  0.00     0.020 A 
ATOM     43  C   UNL A   1      46.315  28.112  35.750  1.00  0.00     0.020 A 
ATOM     44  C   UNL A   1      46.037  27.057  36.621  1.00  0.00     0.054 A 
BRANCH  44  45
ATOM     45  S   UNL A   1      47.388  26.103  37.371  1.00  0.00     0.124 S 
ATOM     46  O   UNL A   1      47.419  26.643  38.728  1.00  0.00    -0.237 OA
ATOM     47  O   UNL A   1      46.912  24.727  37.255  1.00  0.00    -0.237 OA
ATOM     48  O   UNL A   1      48.546  26.430  36.544  1.00  0.00    -0.744 OA
ENDBRANCH  44  45
ENDBRANCH  25  39
BRANCH  26  49
ATOM     49  C   UNL A   1      36.378  33.321  30.957  1.00  0.00    -0.014 A 
ATOM     50  C   UNL A   1      35.141  33.483  31.601  1.00  0.00     0.010 A 
ATOM     51  C   UNL A   1      36.564  33.882  29.678  1.00  0.00     0.010 A 
ATOM     52  C   UNL A   1      34.109  34.190  30.976  1.00  0.00     0.020 A 
ATOM     53  C   UNL A   1      35.549  34.620  29.067  1.00  0.00     0.020 A 
ATOM     54  C   UNL A   1      34.322  34.759  29.716  1.00  0.00     0.054 A 
BRANCH  54  55
ATOM     55  S   UNL A   1      32.996  35.734  28.954  1.00  0.00     0.124 S 
ATOM     56  O   UNL A   1      33.747  36.789  28.282  1.00  0.00    -0.237 OA
ATOM     57  O   UNL A   1      32.349  34.760  28.079  1.00  0.00    -0.237 OA
ATOM     58  O   UNL A   1      32.191  36.164  30.095  1.00  0.00    -0.744 OA
ENDBRANCH  54  55
ENDBRANCH  26  49
BRANCH  38  59
ATOM     59  C   UNL A   1      39.801  34.250  36.955  1.00  0.00    -0.014 A 
ATOM     60  C   UNL A   1      39.001  33.991  38.082  1.00  0.00     0.010 A 
ATOM     61  C   UNL A   1      40.494  35.470  36.865  1.00  0.00     0.010 A 
ATOM     62  C   UNL A   1      38.867  34.954  39.084  1.00  0.00     0.020 A 
ATOM     63  C   UNL A   1      40.384  36.423  37.879  1.00  0.00     0.020 A 
ATOM     64  C   UNL A   1      39.559  36.165  38.975  1.00  0.00     0.054 A 
BRANCH  64  65
ATOM     65  S   UNL A   1      39.396  37.385  40.305  1.00  0.00     0.124 S 
ATOM     66  O   UNL A   1      40.790  37.625  40.668  1.00  0.00    -0.237 OA
ATOM     67  O   UNL A   1      38.720  38.497  39.640  1.00  0.00    -0.237 OA
ATOM     68  O   UNL A   1      38.599  36.694  41.314  1.00  0.00    -0.744 OA
ENDBRANCH  64  65
ENDBRANCH  38  59
ENDBRANCH  12  13
ENDBRANCH   5   7
ENDBRANCH   2   3
ENDBRANCH   1   2
BRANCH   1  69
ATOM     69  C   UNL A   1      37.449  22.137  24.914  1.00  0.00     0.023 C 
BRANCH  69  70
ATOM     70  C   UNL A   1      36.309  21.127  24.899  1.00  0.00     0.116 C 
BRANCH  70  71
ATOM     71  N   UNL A   1      35.510  21.258  26.097  1.00  0.00    -0.354 N 
ATOM     72  C   UNL A   1      34.168  21.389  26.254  1.00  0.00     0.243 C 
ATOM     73  H   UNL A   1      36.023  21.250  26.937  1.00  0.00     0.163 HD
ATOM     74  O   UNL A   1      33.759  21.625  27.397  1.00  0.00    -0.273 OA
BRANCH  72  75
ATOM     75  C   UNL A   1      33.169  21.388  25.076  1.00  0.00     0.185 C 
BRANCH  75  76
ATOM     76  C   UNL A   1      32.293  20.089  25.210  1.00  0.00     0.071 C 
BRANCH  76  77
ATOM     77  C   UNL A   1      32.905  18.730  24.919  1.00  0.00    -0.045 A 
ATOM     78  C   UNL A   1      33.771  18.566  23.824  1.00  0.00     0.004 A 
ATOM     79  C   UNL A   1      32.609  17.602  25.700  1.00  0.00     0.004 A 
ATOM     80  C   UNL A   1      34.365  17.326  23.554  1.00  0.00     0.000 A 
ATOM     81  C   UNL A   1      33.217  16.367  25.439  1.00  0.00     0.000 A 
ATOM     82  C   UNL A   1      34.101  16.232  24.373  1.00  0.00     0.000 A 
ENDBRANCH  76  77
ENDBRANCH  75  76
BRANCH  75  83
ATOM     83  N   UNL A   1      32.437  22.638  24.748  1.00  0.00    -0.280 N 
ATOM     84  C   UNL A   1      33.176  23.718  24.272  1.00  0.00     0.266 C 
ATOM     85  C   UNL A   1      31.244  23.063  25.298  1.00  0.00     0.149 C 
ATOM     86  O   UNL A   1      34.390  23.759  24.112  1.00  0.00    -0.268 OA
ATOM     87  C   UNL A   1      32.316  24.924  24.112  1.00  0.00     0.081 C 
ATOM     88  S   UNL A   1      30.691  24.470  24.397  1.00  0.00    -0.054 SA
ATOM     89  S   UNL A   1      30.407  22.549  26.642  1.00  0.00    -0.052 S 
ATOM     90  C   UNL A   1      32.806  26.151  23.884  1.00  0.00     0.029 C 
BRANCH  90  91
ATOM     91  C   UNL A   1      32.013  27.381  23.735  1.00  0.00    -0.021 A 
ATOM     92  C   UNL A   1      31.864  28.316  24.761  1.00  0.00     0.028 A 
ATOM     93  C   UNL A   1      31.374  27.619  22.518  1.00  0.00     0.028 A 
ATOM     94  C   UNL A   1      31.024  29.398  24.557  1.00  0.00     0.111 A 
ATOM     95  C   UNL A   1      30.568  28.741  22.404  1.00  0.00     0.111 A 
ATOM     96  N   UNL A   1      30.372  29.632  23.399  1.00  0.00    -0.265 NA
ENDBRANCH  90  91
ENDBRANCH  75  83
ENDBRANCH  72  75
ENDBRANCH  70  71
ENDBRANCH  69  70
ENDBRANCH   1  69
TORSDOF 18
ENDMDL
MODEL 2
REMARK VINA RESULT:     -12.2      6.400     12.277
REMARK SMILES O=C(NCCCCNC(=O)[C@@H](Cc1ccccc1)N1C(=O)/C(=C/c2ccncc2)SC1=S)c1ccc(-c2c3nc(c(-c4ccc(S(=O)(=O)[O-])cc4)c4ccc([nH]4)c(-c4ccc(S(=O)(=O)[O-])cc4)c4nc(c(-c5ccc(S(=O)(=O)[O-])cc5)c5ccc2[nH]5)C=C4)C=C3)cc1
REMARK SMILES IDX 5 1 4 2 3 3 1 4 2 5 33 7 34 8 92 9 35 10 91 11 36 12 37 13
REMARK SMILES IDX 38 14 85 15 39 16 90 17 84 18 86 19 40 20 89 21 83 22 82 23
REMARK SMILES IDX 41 25 71 26 52 27 70 28 53 29 56 30 69 31 87 32 54 33 55 34
REMARK SMILES IDX 68 36 88 37 57 38 42 39 43 40 51 41 44 42 50 43 45 44 46 45
REMARK SMILES IDX 47 46 48 47 49 48 72 49 73 50 81 51 74 52 80 53 75 54 76 55
REMARK SMILES IDX 77 56 78 57 79 58 58 59 59 60 67 61 60 62 66 63 61 64 62 65
REMARK SMILES IDX 63 66 64 67 65 68 6 69 7 70 8 71 9 72 10 74 11 75 12 76
REMARK SMILES IDX 13 77 14 78 18 79 15 80 17 81 16 82 19 83 20 84 31 85 21 86
REMARK SMILES IDX 22 87 30 88 32 89 23 90 24 91 25 92 29 93 26 94 28 95 27 96
REMARK H PARENT 3 6 86 24 56 35 8 73
REMARK Flexibility Score: inf
ROOT
ATOM      1  C   UNL A   1      34.458  29.376  27.050  1.00  0.00     0.023 C 
ENDROOT
BRANCH   1   2
ATOM      2  C   UNL A   1      35.527  30.243  27.690  1.00  0.00     0.116 C 
BRANCH   2   3
ATOM      3  N   UNL A   1      35.512  30.189  29.152  1.00  0.00    -0.352 N 
ATOM      4  O   UNL A   1      36.198  29.560  31.216  1.00  0.00    -0.269 OA
ATOM      5  C   UNL A   1      36.445  29.668  30.020  1.00  0.00     0.251 C 
ATOM      6  H   UNL A   1      34.716  30.583  29.577  1.00  0.00     0.163 HD
BRANCH   5   7
ATOM      7  C   UNL A   1      37.734  29.213  29.470  1.00  0.00     0.039 A 
ATOM      8  C   UNL A   1      38.628  28.558  30.312  1.00  0.00     0.014 A 
ATOM      9  C   UNL A   1      38.101  29.539  28.163  1.00  0.00     0.014 A 
ATOM     10  C   UNL A   1      39.959  28.490  29.952  1.00  0.00     0.010 A 
ATOM     11  C   UNL A   1      39.410  29.292  27.738  1.00  0.00     0.010 A 
ATOM     12  C   UNL A   1      40.365  28.812  28.647  1.00  0.00    -0.014 A 
BRANCH  12  13
ATOM     13  C   UNL A   1      41.780  28.557  28.272  1.00  0.00     0.031 A 
ATOM     14  C   UNL A   1      42.831  29.630  28.360  1.00  0.00     0.074 A 
ATOM     15  C   UNL A   1      42.115  27.300  27.915  1.00  0.00     0.049 A 
ATOM     16  N   UNL A   1      44.106  29.548  28.072  1.00  0.00    -0.248 NA
ATOM     17  C   UNL A   1      42.407  30.965  28.814  1.00  0.00     0.031 C 
ATOM     18  C   UNL A   1      41.175  26.177  27.801  1.00  0.00     0.029 A 
ATOM     19  N   UNL A   1      43.330  26.734  27.634  1.00  0.00    -0.354 N 
ATOM     20  C   UNL A   1      44.626  30.824  28.261  1.00  0.00     0.074 A 
ATOM     21  C   UNL A   1      43.529  31.665  28.687  1.00  0.00     0.031 C 
ATOM     22  C   UNL A   1      41.856  25.047  27.583  1.00  0.00     0.029 A 
ATOM     23  C   UNL A   1      43.263  25.379  27.413  1.00  0.00     0.049 A 
ATOM     24  H   UNL A   1      44.170  27.247  27.594  1.00  0.00     0.167 HD
ATOM     25  C   UNL A   1      45.901  31.250  28.086  1.00  0.00     0.031 A 
ATOM     26  C   UNL A   1      44.216  24.494  27.071  1.00  0.00     0.031 A 
ATOM     27  C   UNL A   1      46.985  30.391  27.679  1.00  0.00     0.049 A 
ATOM     28  C   UNL A   1      45.610  24.996  26.868  1.00  0.00     0.074 A 
ATOM     29  C   UNL A   1      48.317  30.717  27.486  1.00  0.00     0.029 A 
ATOM     30  N   UNL A   1      46.864  29.035  27.404  1.00  0.00    -0.354 N 
ATOM     31  N   UNL A   1      46.075  26.212  27.033  1.00  0.00    -0.248 NA
ATOM     32  C   UNL A   1      46.603  24.017  26.414  1.00  0.00     0.031 C 
ATOM     33  C   UNL A   1      48.989  29.571  27.048  1.00  0.00     0.029 A 
ATOM     34  C   UNL A   1      48.090  28.517  27.022  1.00  0.00     0.049 A 
ATOM     35  H   UNL A   1      46.029  28.518  27.470  1.00  0.00     0.167 HD
ATOM     36  C   UNL A   1      47.420  26.146  26.701  1.00  0.00     0.074 A 
ATOM     37  C   UNL A   1      47.697  24.764  26.358  1.00  0.00     0.031 C 
ATOM     38  C   UNL A   1      48.339  27.141  26.672  1.00  0.00     0.031 A 
BRANCH  25  39
ATOM     39  C   UNL A   1      46.190  32.716  28.288  1.00  0.00    -0.014 A 
ATOM     40  C   UNL A   1      46.608  33.221  29.533  1.00  0.00     0.010 A 
ATOM     41  C   UNL A   1      46.089  33.597  27.195  1.00  0.00     0.010 A 
ATOM     42  C   UNL A   1      46.883  34.584  29.687  1.00  0.00     0.020 A 
ATOM     43  C   UNL A   1      46.387  34.956  27.338  1.00  0.00     0.020 A 
ATOM     44  C   UNL A   1      46.767  35.444  28.590  1.00  0.00     0.054 A 
BRANCH  44  45
ATOM     45  S   UNL A   1      47.145  37.206  28.814  1.00  0.00     0.124 S 
ATOM     46  O   UNL A   1      45.828  37.818  28.657  1.00  0.00    -0.237 OA
ATOM     47  O   UNL A   1      47.698  37.245  30.166  1.00  0.00    -0.237 OA
ATOM     48  O   UNL A   1      48.098  37.496  27.747  1.00  0.00    -0.744 OA
ENDBRANCH  44  45
ENDBRANCH  25  39
BRANCH  26  49
ATOM     49  C   UNL A   1      43.849  23.070  26.849  1.00  0.00    -0.014 A 
ATOM     50  C   UNL A   1      43.106  22.362  27.806  1.00  0.00     0.010 A 
ATOM     51  C   UNL A   1      44.193  22.435  25.640  1.00  0.00     0.010 A 
ATOM     52  C   UNL A   1      42.716  21.042  27.559  1.00  0.00     0.020 A 
ATOM     53  C   UNL A   1      43.774  21.130  25.374  1.00  0.00     0.020 A 
ATOM     54  C   UNL A   1      43.047  20.436  26.343  1.00  0.00     0.054 A 
BRANCH  54  55
ATOM     55  S   UNL A   1      42.471  18.749  26.012  1.00  0.00     0.124 S 
ATOM     56  O   UNL A   1      43.342  18.344  24.913  1.00  0.00    -0.237 OA
ATOM     57  O   UNL A   1      42.706  18.078  27.288  1.00  0.00    -0.237 OA
ATOM     58  O   UNL A   1      41.064  18.932  25.663  1.00  0.00    -0.744 OA
ENDBRANCH  54  55
ENDBRANCH  26  49
BRANCH  38  59
ATOM     59  C   UNL A   1      49.735  26.756  26.273  1.00  0.00    -0.014 A 
ATOM     60  C   UNL A   1      50.642  26.243  27.217  1.00  0.00     0.010 A 
ATOM     61  C   UNL A   1      50.134  26.889  24.932  1.00  0.00     0.010 A 
ATOM     62  C   UNL A   1      51.941  25.904  26.831  1.00  0.00     0.020 A 
ATOM     63  C   UNL A   1      51.423  26.525  24.538  1.00  0.00     0.020 A 
ATOM     64  C   UNL A   1      52.323  26.048  25.493  1.00  0.00     0.054 A 
BRANCH  64  65
ATOM     65  S   UNL A   1      54.003  25.570  25.009  1.00  0.00     0.124 S 
ATOM     66  O   UNL A   1      54.806  26.169  26.073  1.00  0.00    -0.237 OA
ATOM     67  O   UNL A   1      53.936  24.111  25.018  1.00  0.00    -0.237 OA
ATOM     68  O   UNL A   1      54.168  26.172  23.689  1.00  0.00    -0.744 OA
ENDBRANCH  64  65
ENDBRANCH  38  59
ENDBRANCH  12  13
ENDBRANCH   5   7
ENDBRANCH   2   3
ENDBRANCH   1   2
BRANCH   1  69
ATOM     69  C   UNL A   1      33.060  29.942  27.214  1.00  0.00     0.023 C 
BRANCH  69  70
ATOM     70  C   UNL A   1      32.306  30.095  25.899  1.00  0.00     0.116 C 
BRANCH  70  71
ATOM     71  N   UNL A   1      33.155  29.722  24.790  1.00  0.00    -0.354 N 
ATOM     72  C   UNL A   1      33.071  28.681  23.924  1.00  0.00     0.243 C 
ATOM     73  H   UNL A   1      33.920  30.322  24.637  1.00  0.00     0.163 HD
ATOM     74  O   UNL A   1      34.019  28.519  23.148  1.00  0.00    -0.273 OA
BRANCH  72  75
ATOM     75  C   UNL A   1      31.931  27.638  23.955  1.00  0.00     0.185 C 
BRANCH  75  76
ATOM     76  C   UNL A   1      31.146  27.766  22.599  1.00  0.00     0.071 C 
BRANCH  76  77
ATOM     77  C   UNL A   1      29.938  28.682  22.507  1.00  0.00    -0.045 A 
ATOM     78  C   UNL A   1      28.691  28.256  22.996  1.00  0.00     0.004 A 
ATOM     79  C   UNL A   1      30.014  29.951  21.912  1.00  0.00     0.004 A 
ATOM     80  C   UNL A   1      27.571  29.095  22.943  1.00  0.00     0.000 A 
ATOM     81  C   UNL A   1      28.897  30.796  21.876  1.00  0.00     0.000 A 
ATOM     82  C   UNL A   1      27.679  30.372  22.399  1.00  0.00     0.000 A 
ENDBRANCH  76  77
ENDBRANCH  75  76
BRANCH  75  83
ATOM     83  N   UNL A   1      32.228  26.256  24.410  1.00  0.00    -0.280 N 
ATOM     84  C   UNL A   1      32.911  25.416  23.534  1.00  0.00     0.266 C 
ATOM     85  C   UNL A   1      31.515  25.522  25.338  1.00  0.00     0.149 C 
ATOM     86  O   UNL A   1      33.283  25.691  22.399  1.00  0.00    -0.268 OA
ATOM     87  C   UNL A   1      33.016  24.038  24.089  1.00  0.00     0.081 C 
ATOM     88  S   UNL A   1      32.417  24.054  25.692  1.00  0.00    -0.054 SA
ATOM     89  S   UNL A   1      30.008  25.760  26.005  1.00  0.00    -0.052 S 
ATOM     90  C   UNL A   1      33.425  22.984  23.367  1.00  0.00     0.029 C 
BRANCH  90  91
ATOM     91  C   UNL A   1      33.534  21.600  23.851  1.00  0.00    -0.021 A 
ATOM     92  C   UNL A   1      34.632  21.135  24.578  1.00  0.00     0.028 A 
ATOM     93  C   UNL A   1      32.500  20.709  23.564  1.00  0.00     0.028 A 
ATOM     94  C   UNL A   1      34.687  19.792  24.913  1.00  0.00     0.111 A 
ATOM     95  C   UNL A   1      32.638  19.387  23.957  1.00  0.00     0.111 A 
ATOM     96  N   UNL A   1      33.713  18.907  24.618  1.00  0.00    -0.265 NA
ENDBRANCH  90  91
ENDBRANCH  75  83
ENDBRANCH  72  75
ENDBRANCH  70  71
ENDBRANCH  69  70
ENDBRANCH   1  69
TORSDOF 18
ENDMDL
MODEL 3
REMARK VINA RESULT:     -11.9      6.411     11.725
REMARK SMILES O=C(NCCCCNC(=O)[C@@H](Cc1ccccc1)N1C(=O)/C(=C/c2ccncc2)SC1=S)c1ccc(-c2c3nc(c(-c4ccc(S(=O)(=O)[O-])cc4)c4ccc([nH]4)c(-c4ccc(S(=O)(=O)[O-])cc4)c4nc(c(-c5ccc(S(=O)(=O)[O-])cc5)c5ccc2[nH]5)C=C4)C=C3)cc1
REMARK SMILES IDX 5 1 4 2 3 3 1 4 2 5 33 7 34 8 92 9 35 10 91 11 36 12 37 13
REMARK SMILES IDX 38 14 85 15 39 16 90 17 84 18 86 19 40 20 89 21 83 22 82 23
REMARK SMILES IDX 41 25 71 26 52 27 70 28 53 29 56 30 69 31 87 32 54 33 55 34
REMARK SMILES IDX 68 36 88 37 57 38 42 39 43 40 51 41 44 42 50 43 45 44 46 45
REMARK SMILES IDX 47 46 48 47 49 48 72 49 73 50 81 51 74 52 80 53 75 54 76 55
REMARK SMILES IDX 77 56 78 57 79 58 58 59 59 60 67 61 60 62 66 63 61 64 62 65
REMARK SMILES IDX 63 66 64 67 65 68 6 69 7 70 8 71 9 72 10 74 11 75 12 76
REMARK SMILES IDX 13 77 14 78 18 79 15 80 17 81 16 82 19 83 20 84 31 85 21 86
REMARK SMILES IDX 22 87 30 88 32 89 23 90 24 91 25 92 29 93 26 94 28 95 27 96
REMARK H PARENT 3 6 86 24 56 35 8 73
REMARK Flexibility Score: inf
ROOT
ATOM      1  C   UNL A   1      34.269  29.401  27.287  1.00  0.00     0.023 C 
ENDROOT
BRANCH   1   2
ATOM      2  C   UNL A   1      35.532  30.054  27.821  1.00  0.00     0.116 C 
BRANCH   2   3
ATOM      3  N   UNL A   1      35.569  30.122  29.282  1.00  0.00    -0.352 N 
ATOM      4  O   UNL A   1      36.334  29.672  31.365  1.00  0.00    -0.269 OA
ATOM      5  C   UNL A   1      36.537  29.681  30.157  1.00  0.00     0.251 C 
ATOM      6  H   UNL A   1      34.786  30.547  29.702  1.00  0.00     0.163 HD
BRANCH   5   7
ATOM      7  C   UNL A   1      37.809  29.188  29.600  1.00  0.00     0.039 A 
ATOM      8  C   UNL A   1      38.676  28.484  30.431  1.00  0.00     0.014 A 
ATOM      9  C   UNL A   1      38.191  29.525  28.300  1.00  0.00     0.014 A 
ATOM     10  C   UNL A   1      40.004  28.372  30.071  1.00  0.00     0.010 A 
ATOM     11  C   UNL A   1      39.491  29.237  27.872  1.00  0.00     0.010 A 
ATOM     12  C   UNL A   1      40.425  28.704  28.773  1.00  0.00    -0.014 A 
BRANCH  12  13
ATOM     13  C   UNL A   1      41.830  28.402  28.396  1.00  0.00     0.031 A 
ATOM     14  C   UNL A   1      42.243  27.050  27.881  1.00  0.00     0.074 A 
ATOM     15  C   UNL A   1      42.724  29.411  28.460  1.00  0.00     0.049 A 
ATOM     16  N   UNL A   1      43.431  26.647  27.509  1.00  0.00    -0.248 NA
ATOM     17  C   UNL A   1      41.203  26.012  27.781  1.00  0.00     0.031 C 
ATOM     18  C   UNL A   1      42.431  30.767  28.941  1.00  0.00     0.029 A 
ATOM     19  N   UNL A   1      44.037  29.479  28.078  1.00  0.00    -0.354 N 
ATOM     20  C   UNL A   1      43.296  25.303  27.177  1.00  0.00     0.074 A 
ATOM     21  C   UNL A   1      41.909  24.956  27.394  1.00  0.00     0.031 C 
ATOM     22  C   UNL A   1      43.491  31.554  28.724  1.00  0.00     0.029 A 
ATOM     23  C   UNL A   1      44.580  30.735  28.212  1.00  0.00     0.049 A 
ATOM     24  H   UNL A   1      44.544  28.705  27.740  1.00  0.00     0.167 HD
ATOM     25  C   UNL A   1      44.248  24.442  26.740  1.00  0.00     0.031 A 
ATOM     26  C   UNL A   1      45.827  31.184  27.989  1.00  0.00     0.031 A 
ATOM     27  C   UNL A   1      45.622  24.814  26.511  1.00  0.00     0.049 A 
ATOM     28  C   UNL A   1      46.860  30.208  27.524  1.00  0.00     0.074 A 
ATOM     29  C   UNL A   1      46.663  24.024  26.055  1.00  0.00     0.029 A 
ATOM     30  N   UNL A   1      46.147  26.082  26.719  1.00  0.00    -0.354 N 
ATOM     31  N   UNL A   1      46.714  28.936  27.236  1.00  0.00    -0.248 NA
ATOM     32  C   UNL A   1      48.227  30.716  27.371  1.00  0.00     0.031 C 
ATOM     33  C   UNL A   1      47.826  24.801  26.034  1.00  0.00     0.029 A 
ATOM     34  C   UNL A   1      47.500  26.091  26.421  1.00  0.00     0.049 A 
ATOM     35  H   UNL A   1      45.633  26.862  27.031  1.00  0.00     0.167 HD
ATOM     36  C   UNL A   1      47.974  28.489  26.868  1.00  0.00     0.074 A 
ATOM     37  C   UNL A   1      48.860  29.635  26.939  1.00  0.00     0.031 C 
ATOM     38  C   UNL A   1      48.364  27.241  26.514  1.00  0.00     0.031 A 
BRANCH  25  39
ATOM     39  C   UNL A   1      43.852  23.004  26.521  1.00  0.00    -0.014 A 
ATOM     40  C   UNL A   1      44.378  22.246  25.459  1.00  0.00     0.010 A 
ATOM     41  C   UNL A   1      42.973  22.383  27.430  1.00  0.00     0.010 A 
ATOM     42  C   UNL A   1      44.004  20.909  25.290  1.00  0.00     0.020 A 
ATOM     43  C   UNL A   1      42.616  21.040  27.279  1.00  0.00     0.020 A 
ATOM     44  C   UNL A   1      43.122  20.315  26.198  1.00  0.00     0.054 A 
BRANCH  44  45
ATOM     45  S   UNL A   1      42.665  18.574  25.964  1.00  0.00     0.124 S 
ATOM     46  O   UNL A   1      43.056  17.986  27.242  1.00  0.00    -0.237 OA
ATOM     47  O   UNL A   1      41.226  18.649  25.722  1.00  0.00    -0.237 OA
ATOM     48  O   UNL A   1      43.465  18.156  24.815  1.00  0.00    -0.744 OA
ENDBRANCH  44  45
ENDBRANCH  25  39
BRANCH  26  49
ATOM     49  C   UNL A   1      46.155  32.608  28.265  1.00  0.00    -0.014 A 
ATOM     50  C   UNL A   1      46.635  33.005  29.524  1.00  0.00     0.010 A 
ATOM     51  C   UNL A   1      46.045  33.568  27.240  1.00  0.00     0.010 A 
ATOM     52  C   UNL A   1      46.996  34.336  29.752  1.00  0.00     0.020 A 
ATOM     53  C   UNL A   1      46.439  34.890  27.453  1.00  0.00     0.020 A 
ATOM     54  C   UNL A   1      46.901  35.268  28.714  1.00  0.00     0.054 A 
BRANCH  54  55
ATOM     55  S   UNL A   1      47.442  36.974  29.009  1.00  0.00     0.124 S 
ATOM     56  O   UNL A   1      46.649  37.343  30.178  1.00  0.00    -0.237 OA
ATOM     57  O   UNL A   1      48.876  36.817  29.240  1.00  0.00    -0.237 OA
ATOM     58  O   UNL A   1      47.091  37.663  27.770  1.00  0.00    -0.744 OA
ENDBRANCH  54  55
ENDBRANCH  26  49
BRANCH  38  59
ATOM     59  C   UNL A   1      49.813  27.064  26.159  1.00  0.00    -0.014 A 
ATOM     60  C   UNL A   1      50.757  26.698  27.134  1.00  0.00     0.010 A 
ATOM     61  C   UNL A   1      50.228  27.246  24.829  1.00  0.00     0.010 A 
ATOM     62  C   UNL A   1      52.103  26.552  26.789  1.00  0.00     0.020 A 
ATOM     63  C   UNL A   1      51.568  27.073  24.476  1.00  0.00     0.020 A 
ATOM     64  C   UNL A   1      52.499  26.742  25.462  1.00  0.00     0.054 A 
BRANCH  64  65
ATOM     65  S   UNL A   1      54.245  26.515  25.032  1.00  0.00     0.124 S 
ATOM     66  O   UNL A   1      54.920  27.139  26.167  1.00  0.00    -0.237 OA
ATOM     67  O   UNL A   1      54.369  25.062  24.949  1.00  0.00    -0.237 OA
ATOM     68  O   UNL A   1      54.383  27.219  23.760  1.00  0.00    -0.744 OA
ENDBRANCH  64  65
ENDBRANCH  38  59
ENDBRANCH  12  13
ENDBRANCH   5   7
ENDBRANCH   2   3
ENDBRANCH   1   2
BRANCH   1  69
ATOM     69  C   UNL A   1      33.121  30.379  27.122  1.00  0.00     0.023 C 
BRANCH  69  70
ATOM     70  C   UNL A   1      32.298  30.145  25.862  1.00  0.00     0.116 C 
BRANCH  70  71
ATOM     71  N   UNL A   1      33.161  29.771  24.763  1.00  0.00    -0.354 N 
ATOM     72  C   UNL A   1      33.084  28.732  23.894  1.00  0.00     0.243 C 
ATOM     73  H   UNL A   1      33.930  30.368  24.623  1.00  0.00     0.163 HD
ATOM     74  O   UNL A   1      34.043  28.569  23.130  1.00  0.00    -0.273 OA
BRANCH  72  75
ATOM     75  C   UNL A   1      31.940  27.694  23.907  1.00  0.00     0.185 C 
BRANCH  75  76
ATOM     76  C   UNL A   1      31.166  27.837  22.546  1.00  0.00     0.071 C 
BRANCH  76  77
ATOM     77  C   UNL A   1      29.934  28.721  22.464  1.00  0.00    -0.045 A 
ATOM     78  C   UNL A   1      28.706  28.270  22.977  1.00  0.00     0.004 A 
ATOM     79  C   UNL A   1      29.970  29.987  21.857  1.00  0.00     0.004 A 
ATOM     80  C   UNL A   1      27.565  29.080  22.933  1.00  0.00     0.000 A 
ATOM     81  C   UNL A   1      28.832  30.803  21.831  1.00  0.00     0.000 A 
ATOM     82  C   UNL A   1      27.633  30.355  22.376  1.00  0.00     0.000 A 
ENDBRANCH  76  77
ENDBRANCH  75  76
BRANCH  75  83
ATOM     83  N   UNL A   1      32.228  26.307  24.352  1.00  0.00    -0.280 N 
ATOM     84  C   UNL A   1      32.898  25.466  23.467  1.00  0.00     0.266 C 
ATOM     85  C   UNL A   1      31.515  25.574  25.280  1.00  0.00     0.149 C 
ATOM     86  O   UNL A   1      33.265  25.744  22.331  1.00  0.00    -0.268 OA
ATOM     87  C   UNL A   1      32.995  24.084  24.014  1.00  0.00     0.081 C 
ATOM     88  S   UNL A   1      32.406  24.096  25.620  1.00  0.00    -0.054 SA
ATOM     89  S   UNL A   1      30.014  25.821  25.959  1.00  0.00    -0.052 S 
ATOM     90  C   UNL A   1      33.390  23.031  23.283  1.00  0.00     0.029 C 
BRANCH  90  91
ATOM     91  C   UNL A   1      33.490  21.643  23.758  1.00  0.00    -0.021 A 
ATOM     92  C   UNL A   1      32.475  20.702  23.568  1.00  0.00     0.028 A 
ATOM     93  C   UNL A   1      34.644  21.250  24.435  1.00  0.00     0.028 A 
ATOM     94  C   UNL A   1      32.621  19.444  24.131  1.00  0.00     0.111 A 
ATOM     95  C   UNL A   1      34.705  19.963  24.947  1.00  0.00     0.111 A 
ATOM     96  N   UNL A   1      33.715  19.054  24.817  1.00  0.00    -0.265 NA
ENDBRANCH  90  91
ENDBRANCH  75  83
ENDBRANCH  72  75
ENDBRANCH  70  71
ENDBRANCH  69  70
ENDBRANCH   1  69
TORSDOF 18
ENDMDL
