MODEL 1
REMARK VINA RESULT:      -9.4      0.000      0.000
REMARK SMILES CC(C)OCCS(=O)(=O)N[C@@H]1COC[C@@H]1C(=O)NCCCCNC(=O)c1ccc(-c2c3nc(c(-c4ccc(S(=O)(=O)[O-])cc4)c4ccc([nH]4)c(-c4ccc(S(=O)(=O)[O-])cc4)c4nc(c(-c5ccc(S(=O)(=O)[O-])cc5)c5ccc2[nH]5)C=C4)C=C3)cc1
REMARK SMILES IDX 19 1 18 2 16 3 17 4 15 6 11 7 12 8 13 9 14 10 10 11 7 13
REMARK SMILES IDX 8 14 9 15 6 16 5 17 4 18 2 19 1 20 3 21 20 22 21 23 22 24
REMARK SMILES IDX 23 25 24 26 25 28 26 29 27 30 85 31 28 32 84 33 29 34 30 35
REMARK SMILES IDX 31 36 78 37 32 38 83 39 77 40 79 41 33 42 82 43 76 44 75 45
REMARK SMILES IDX 34 47 64 48 45 49 63 50 46 51 49 52 62 53 80 54 47 55 48 56
REMARK SMILES IDX 61 58 81 59 50 60 35 61 36 62 44 63 37 64 43 65 38 66 39 67
REMARK SMILES IDX 40 68 41 69 42 70 65 71 66 72 74 73 67 74 73 75 68 76 69 77
REMARK SMILES IDX 70 78 71 79 72 80 51 81 52 82 60 83 53 84 59 85 54 86 55 87
REMARK SMILES IDX 56 88 57 89 58 90
REMARK H PARENT 18 5 10 12 23 27 79 46 49 57
REMARK Flexibility Score: inf
ROOT
ATOM      1  C   UNL A   1      33.207  29.182  26.239  1.00  0.00     0.116 C 
ENDROOT
BRANCH   1   2
ATOM      2  N   UNL A   1      33.410  29.304  24.819  1.00  0.00    -0.356 N 
ATOM      3  C   UNL A   1      32.597  28.885  23.817  1.00  0.00     0.227 C 
ATOM      4  O   UNL A   1      33.061  28.919  22.677  1.00  0.00    -0.275 OA
ATOM      5  H   UNL A   1      34.243  29.749  24.540  1.00  0.00     0.163 HD
BRANCH   3   6
ATOM      6  C   UNL A   1      31.164  28.452  24.124  1.00  0.00     0.124 C 
ATOM      7  C   UNL A   1      30.857  26.961  24.186  1.00  0.00     0.110 C 
ATOM      8  C   UNL A   1      31.020  26.596  22.712  1.00  0.00     0.181 C 
ATOM      9  O   UNL A   1      30.355  27.658  22.001  1.00  0.00    -0.379 OA
ATOM     10  C   UNL A   1      30.341  28.813  22.869  1.00  0.00     0.175 C 
BRANCH   7  11
ATOM     11  N   UNL A   1      31.523  26.007  25.112  1.00  0.00    -0.209 NA
ATOM     12  H   UNL A   1      32.478  25.915  24.763  1.00  0.00     0.141 HD
BRANCH  11  13
ATOM     13  S   UNL A   1      31.013  24.439  25.431  1.00  0.00     0.214 S 
ATOM     14  O   UNL A   1      30.631  23.819  24.186  1.00  0.00    -0.212 OA
ATOM     15  O   UNL A   1      30.037  24.628  26.490  1.00  0.00    -0.212 OA
BRANCH  13  16
ATOM     16  C   UNL A   1      32.280  23.480  26.259  1.00  0.00     0.182 C 
BRANCH  16  17
ATOM     17  C   UNL A   1      32.434  22.027  25.860  1.00  0.00     0.178 C 
BRANCH  17  18
ATOM     18  O   UNL A   1      33.549  21.742  25.014  1.00  0.00    -0.378 OA
BRANCH  18  19
ATOM     19  C   UNL A   1      34.320  20.575  25.288  1.00  0.00     0.112 C 
ATOM     20  C   UNL A   1      33.706  19.298  24.719  1.00  0.00     0.038 C 
ATOM     21  C   UNL A   1      35.788  20.842  24.973  1.00  0.00     0.038 C 
ENDBRANCH  18  19
ENDBRANCH  17  18
ENDBRANCH  16  17
ENDBRANCH  13  16
ENDBRANCH  11  13
ENDBRANCH   7  11
ENDBRANCH   3   6
ENDBRANCH   1   2
BRANCH   1  22
ATOM     22  C   UNL A   1      32.761  30.520  26.796  1.00  0.00     0.023 C 
BRANCH  22  23
ATOM     23  C   UNL A   1      33.671  31.173  27.813  1.00  0.00     0.023 C 
BRANCH  23  24
ATOM     24  C   UNL A   1      34.080  32.572  27.428  1.00  0.00     0.116 C 
BRANCH  24  25
ATOM     25  N   UNL A   1      33.240  33.609  28.018  1.00  0.00    -0.352 N 
ATOM     26  C   UNL A   1      33.381  34.194  29.254  1.00  0.00     0.251 C 
ATOM     27  H   UNL A   1      32.487  33.926  27.468  1.00  0.00     0.163 HD
ATOM     28  O   UNL A   1      32.547  34.981  29.682  1.00  0.00    -0.269 OA
BRANCH  26  29
ATOM     29  C   UNL A   1      34.547  33.798  30.067  1.00  0.00     0.039 A 
ATOM     30  C   UNL A   1      34.406  32.777  31.003  1.00  0.00     0.014 A 
ATOM     31  C   UNL A   1      35.801  34.346  29.787  1.00  0.00     0.014 A 
ATOM     32  C   UNL A   1      35.546  32.263  31.619  1.00  0.00     0.010 A 
ATOM     33  C   UNL A   1      36.937  33.734  30.285  1.00  0.00     0.010 A 
ATOM     34  C   UNL A   1      36.822  32.713  31.237  1.00  0.00    -0.014 A 
BRANCH  34  35
ATOM     35  C   UNL A   1      38.049  32.168  31.864  1.00  0.00     0.031 A 
ATOM     36  C   UNL A   1      38.468  32.657  33.226  1.00  0.00     0.074 A 
ATOM     37  C   UNL A   1      38.807  31.277  31.196  1.00  0.00     0.049 A 
ATOM     38  N   UNL A   1      39.499  32.301  33.948  1.00  0.00    -0.248 NA
ATOM     39  C   UNL A   1      37.646  33.714  33.841  1.00  0.00     0.031 C 
ATOM     40  C   UNL A   1      38.553  30.794  29.835  1.00  0.00     0.029 A 
ATOM     41  N   UNL A   1      39.945  30.614  31.576  1.00  0.00    -0.354 N 
ATOM     42  C   UNL A   1      39.455  33.103  35.082  1.00  0.00     0.074 A 
ATOM     43  C   UNL A   1      38.355  34.022  34.913  1.00  0.00     0.031 C 
ATOM     44  C   UNL A   1      39.484  29.882  29.513  1.00  0.00     0.029 A 
ATOM     45  C   UNL A   1      40.414  29.737  30.627  1.00  0.00     0.049 A 
ATOM     46  H   UNL A   1      40.386  30.755  32.445  1.00  0.00     0.167 HD
ATOM     47  C   UNL A   1      40.233  33.054  36.190  1.00  0.00     0.031 A 
ATOM     48  C   UNL A   1      41.470  28.902  30.658  1.00  0.00     0.031 A 
ATOM     49  C   UNL A   1      41.317  32.128  36.357  1.00  0.00     0.049 A 
ATOM     50  C   UNL A   1      42.298  28.827  31.910  1.00  0.00     0.074 A 
ATOM     51  C   UNL A   1      42.136  31.947  37.456  1.00  0.00     0.029 A 
ATOM     52  N   UNL A   1      41.734  31.224  35.391  1.00  0.00    -0.354 N 
ATOM     53  N   UNL A   1      42.190  29.531  33.013  1.00  0.00    -0.248 NA
ATOM     54  C   UNL A   1      43.371  27.826  31.934  1.00  0.00     0.031 C 
ATOM     55  C   UNL A   1      43.082  30.967  37.135  1.00  0.00     0.029 A 
ATOM     56  C   UNL A   1      42.812  30.493  35.860  1.00  0.00     0.049 A 
ATOM     57  H   UNL A   1      41.325  31.119  34.501  1.00  0.00     0.167 HD
ATOM     58  C   UNL A   1      43.167  29.042  33.872  1.00  0.00     0.074 A 
ATOM     59  C   UNL A   1      43.840  27.969  33.166  1.00  0.00     0.031 C 
ATOM     60  C   UNL A   1      43.479  29.442  35.132  1.00  0.00     0.031 A 
BRANCH  47  61
ATOM     61  C   UNL A   1      39.921  34.040  37.287  1.00  0.00    -0.014 A 
ATOM     62  C   UNL A   1      40.470  35.337  37.281  1.00  0.00     0.010 A 
ATOM     63  C   UNL A   1      39.092  33.657  38.357  1.00  0.00     0.010 A 
ATOM     64  C   UNL A   1      40.259  36.203  38.358  1.00  0.00     0.020 A 
ATOM     65  C   UNL A   1      38.848  34.535  39.418  1.00  0.00     0.020 A 
ATOM     66  C   UNL A   1      39.457  35.792  39.425  1.00  0.00     0.054 A 
BRANCH  66  67
ATOM     67  S   UNL A   1      39.215  36.926  40.818  1.00  0.00     0.124 S 
ATOM     68  O   UNL A   1      38.425  37.992  40.203  1.00  0.00    -0.237 OA
ATOM     69  O   UNL A   1      38.502  36.098  41.787  1.00  0.00    -0.237 OA
ATOM     70  O   UNL A   1      40.574  37.301  41.201  1.00  0.00    -0.744 OA
ENDBRANCH  66  67
ENDBRANCH  47  61
BRANCH  48  71
ATOM     71  C   UNL A   1      41.763  28.048  29.475  1.00  0.00    -0.014 A 
ATOM     72  C   UNL A   1      42.662  28.477  28.481  1.00  0.00     0.010 A 
ATOM     73  C   UNL A   1      41.187  26.769  29.368  1.00  0.00     0.010 A 
ATOM     74  C   UNL A   1      42.975  27.644  27.402  1.00  0.00     0.020 A 
ATOM     75  C   UNL A   1      41.519  25.923  28.307  1.00  0.00     0.020 A 
ATOM     76  C   UNL A   1      42.408  26.368  27.327  1.00  0.00     0.054 A 
BRANCH  76  77
ATOM     77  S   UNL A   1      42.898  25.271  25.966  1.00  0.00     0.124 S 
ATOM     78  O   UNL A   1      44.291  24.987  26.290  1.00  0.00    -0.237 OA
ATOM     79  O   UNL A   1      41.971  24.151  26.115  1.00  0.00    -0.237 OA
ATOM     80  O   UNL A   1      42.685  26.089  24.774  1.00  0.00    -0.744 OA
ENDBRANCH  76  77
ENDBRANCH  48  71
BRANCH  60  81
ATOM     81  C   UNL A   1      44.581  28.694  35.834  1.00  0.00    -0.014 A 
ATOM     82  C   UNL A   1      45.922  29.108  35.745  1.00  0.00     0.010 A 
ATOM     83  C   UNL A   1      44.261  27.570  36.617  1.00  0.00     0.010 A 
ATOM     84  C   UNL A   1      46.929  28.378  36.380  1.00  0.00     0.020 A 
ATOM     85  C   UNL A   1      45.261  26.857  37.282  1.00  0.00     0.020 A 
ATOM     86  C   UNL A   1      46.593  27.253  37.140  1.00  0.00     0.054 A 
BRANCH  86  87
ATOM     87  S   UNL A   1      47.916  26.323  37.957  1.00  0.00     0.124 S 
ATOM     88  O   UNL A   1      47.177  25.234  38.588  1.00  0.00    -0.237 OA
ATOM     89  O   UNL A   1      48.775  25.937  36.839  1.00  0.00    -0.237 OA
ATOM     90  O   UNL A   1      48.504  27.293  38.879  1.00  0.00    -0.744 OA
ENDBRANCH  86  87
ENDBRANCH  60  81
ENDBRANCH  34  35
ENDBRANCH  26  29
ENDBRANCH  24  25
ENDBRANCH  23  24
ENDBRANCH  22  23
ENDBRANCH   1  22
TORSDOF 20
ENDMDL
MODEL 2
REMARK VINA RESULT:      -9.2      2.267      3.186
REMARK SMILES CC(C)OCCS(=O)(=O)N[C@@H]1COC[C@@H]1C(=O)NCCCCNC(=O)c1ccc(-c2c3nc(c(-c4ccc(S(=O)(=O)[O-])cc4)c4ccc([nH]4)c(-c4ccc(S(=O)(=O)[O-])cc4)c4nc(c(-c5ccc(S(=O)(=O)[O-])cc5)c5ccc2[nH]5)C=C4)C=C3)cc1
REMARK SMILES IDX 19 1 18 2 16 3 17 4 15 6 11 7 12 8 13 9 14 10 10 11 7 13
REMARK SMILES IDX 8 14 9 15 6 16 5 17 4 18 2 19 1 20 3 21 20 22 21 23 22 24
REMARK SMILES IDX 23 25 24 26 25 28 26 29 27 30 85 31 28 32 84 33 29 34 30 35
REMARK SMILES IDX 31 36 78 37 32 38 83 39 77 40 79 41 33 42 82 43 76 44 75 45
REMARK SMILES IDX 34 47 64 48 45 49 63 50 46 51 49 52 62 53 80 54 47 55 48 56
REMARK SMILES IDX 61 58 81 59 50 60 35 61 36 62 44 63 37 64 43 65 38 66 39 67
REMARK SMILES IDX 40 68 41 69 42 70 65 71 66 72 74 73 67 74 73 75 68 76 69 77
REMARK SMILES IDX 70 78 71 79 72 80 51 81 52 82 60 83 53 84 59 85 54 86 55 87
REMARK SMILES IDX 56 88 57 89 58 90
REMARK H PARENT 18 5 10 12 23 27 79 46 49 57
REMARK Flexibility Score: inf
ROOT
ATOM      1  C   UNL A   1      33.683  26.936  23.604  1.00  0.00     0.116 C 
ENDROOT
BRANCH   1   2
ATOM      2  N   UNL A   1      32.718  27.114  22.549  1.00  0.00    -0.356 N 
ATOM      3  C   UNL A   1      31.371  27.232  22.656  1.00  0.00     0.227 C 
ATOM      4  O   UNL A   1      30.726  27.179  21.608  1.00  0.00    -0.275 OA
ATOM      5  H   UNL A   1      33.083  27.155  21.635  1.00  0.00     0.163 HD
BRANCH   3   6
ATOM      6  C   UNL A   1      30.730  27.472  24.022  1.00  0.00     0.124 C 
ATOM      7  C   UNL A   1      29.855  26.373  24.613  1.00  0.00     0.110 C 
ATOM      8  C   UNL A   1      28.667  26.437  23.658  1.00  0.00     0.181 C 
ATOM      9  O   UNL A   1      28.412  27.845  23.490  1.00  0.00    -0.379 OA
ATOM     10  C   UNL A   1      29.642  28.543  23.789  1.00  0.00     0.175 C 
BRANCH   7  11
ATOM     11  N   UNL A   1      30.323  24.989  24.889  1.00  0.00    -0.209 NA
ATOM     12  H   UNL A   1      29.508  24.394  24.734  1.00  0.00     0.141 HD
BRANCH  11  13
ATOM     13  S   UNL A   1      30.995  24.455  26.333  1.00  0.00     0.214 S 
ATOM     14  O   UNL A   1      30.005  23.684  27.042  1.00  0.00    -0.212 OA
ATOM     15  O   UNL A   1      31.529  25.677  26.909  1.00  0.00    -0.212 OA
BRANCH  13  16
ATOM     16  C   UNL A   1      32.480  23.491  26.062  1.00  0.00     0.182 C 
BRANCH  16  17
ATOM     17  C   UNL A   1      33.813  24.196  26.211  1.00  0.00     0.178 C 
BRANCH  17  18
ATOM     18  O   UNL A   1      34.712  24.038  25.112  1.00  0.00    -0.378 OA
BRANCH  18  19
ATOM     19  C   UNL A   1      35.102  22.717  24.746  1.00  0.00     0.112 C 
ATOM     20  C   UNL A   1      35.988  22.671  23.503  1.00  0.00     0.038 C 
ATOM     21  C   UNL A   1      35.594  21.966  25.980  1.00  0.00     0.038 C 
ENDBRANCH  18  19
ENDBRANCH  17  18
ENDBRANCH  16  17
ENDBRANCH  13  16
ENDBRANCH  11  13
ENDBRANCH   7  11
ENDBRANCH   3   6
ENDBRANCH   1   2
BRANCH   1  22
ATOM     22  C   UNL A   1      33.743  28.200  24.441  1.00  0.00     0.023 C 
BRANCH  22  23
ATOM     23  C   UNL A   1      33.820  28.021  25.941  1.00  0.00     0.023 C 
BRANCH  23  24
ATOM     24  C   UNL A   1      34.747  29.005  26.607  1.00  0.00     0.116 C 
BRANCH  24  25
ATOM     25  N   UNL A   1      34.135  30.306  26.859  1.00  0.00    -0.352 N 
ATOM     26  C   UNL A   1      34.518  31.242  27.789  1.00  0.00     0.251 C 
ATOM     27  H   UNL A   1      33.359  30.538  26.299  1.00  0.00     0.163 HD
ATOM     28  O   UNL A   1      33.857  32.255  27.979  1.00  0.00    -0.269 OA
BRANCH  26  29
ATOM     29  C   UNL A   1      35.725  30.957  28.587  1.00  0.00     0.039 A 
ATOM     30  C   UNL A   1      35.723  29.869  29.456  1.00  0.00     0.014 A 
ATOM     31  C   UNL A   1      36.894  31.686  28.354  1.00  0.00     0.014 A 
ATOM     32  C   UNL A   1      36.920  29.476  30.050  1.00  0.00     0.010 A 
ATOM     33  C   UNL A   1      38.102  31.202  28.824  1.00  0.00     0.010 A 
ATOM     34  C   UNL A   1      38.124  30.117  29.709  1.00  0.00    -0.014 A 
BRANCH  34  35
ATOM     35  C   UNL A   1      39.413  29.704  30.313  1.00  0.00     0.031 A 
ATOM     36  C   UNL A   1      39.932  30.429  31.527  1.00  0.00     0.074 A 
ATOM     37  C   UNL A   1      40.135  28.718  29.747  1.00  0.00     0.049 A 
ATOM     38  N   UNL A   1      41.028  30.217  32.208  1.00  0.00    -0.248 NA
ATOM     39  C   UNL A   1      39.136  31.569  32.017  1.00  0.00     0.031 C 
ATOM     40  C   UNL A   1      39.781  28.001  28.519  1.00  0.00     0.029 A 
ATOM     41  N   UNL A   1      41.318  28.145  30.137  1.00  0.00    -0.354 N 
ATOM     42  C   UNL A   1      41.058  31.205  33.185  1.00  0.00     0.074 A 
ATOM     43  C   UNL A   1      39.924  32.069  32.954  1.00  0.00     0.031 C 
ATOM     44  C   UNL A   1      40.705  27.055  28.281  1.00  0.00     0.029 A 
ATOM     45  C   UNL A   1      41.729  27.119  29.318  1.00  0.00     0.049 A 
ATOM     46  H   UNL A   1      41.826  28.440  30.926  1.00  0.00     0.167 HD
ATOM     47  C   UNL A   1      41.926  31.361  34.212  1.00  0.00     0.031 A 
ATOM     48  C   UNL A   1      42.805  26.314  29.402  1.00  0.00     0.031 A 
ATOM     49  C   UNL A   1      43.044  30.491  34.444  1.00  0.00     0.049 A 
ATOM     50  C   UNL A   1      43.736  26.470  30.572  1.00  0.00     0.074 A 
ATOM     51  C   UNL A   1      43.957  30.514  35.483  1.00  0.00     0.029 A 
ATOM     52  N   UNL A   1      43.403  29.435  33.617  1.00  0.00    -0.354 N 
ATOM     53  N   UNL A   1      43.702  27.355  31.541  1.00  0.00    -0.248 NA
ATOM     54  C   UNL A   1      44.833  25.500  30.677  1.00  0.00     0.031 C 
ATOM     55  C   UNL A   1      44.898  29.503  35.256  1.00  0.00     0.029 A 
ATOM     56  C   UNL A   1      44.535  28.809  34.112  1.00  0.00     0.049 A 
ATOM     57  H   UNL A   1      42.924  29.171  32.798  1.00  0.00     0.167 HD
ATOM     58  C   UNL A   1      44.760  27.035  32.384  1.00  0.00     0.074 A 
ATOM     59  C   UNL A   1      45.400  25.863  31.820  1.00  0.00     0.031 C 
ATOM     60  C   UNL A   1      45.165  27.654  33.523  1.00  0.00     0.031 A 
BRANCH  47  61
ATOM     61  C   UNL A   1      41.682  32.521  35.144  1.00  0.00    -0.014 A 
ATOM     62  C   UNL A   1      42.282  33.776  34.921  1.00  0.00     0.010 A 
ATOM     63  C   UNL A   1      40.867  32.349  36.276  1.00  0.00     0.010 A 
ATOM     64  C   UNL A   1      42.133  34.809  35.849  1.00  0.00     0.020 A 
ATOM     65  C   UNL A   1      40.684  33.393  37.188  1.00  0.00     0.020 A 
ATOM     66  C   UNL A   1      41.343  34.608  36.983  1.00  0.00     0.054 A 
BRANCH  66  67
ATOM     67  S   UNL A   1      41.181  35.959  38.182  1.00  0.00     0.124 S 
ATOM     68  O   UNL A   1      42.488  36.605  38.082  1.00  0.00    -0.237 OA
ATOM     69  O   UNL A   1      40.060  36.728  37.649  1.00  0.00    -0.237 OA
ATOM     70  O   UNL A   1      40.920  35.273  39.444  1.00  0.00    -0.744 OA
ENDBRANCH  66  67
ENDBRANCH  47  61
BRANCH  48  71
ATOM     71  C   UNL A   1      43.020  25.269  28.365  1.00  0.00    -0.014 A 
ATOM     72  C   UNL A   1      43.848  25.514  27.255  1.00  0.00     0.010 A 
ATOM     73  C   UNL A   1      42.443  23.994  28.518  1.00  0.00     0.010 A 
ATOM     74  C   UNL A   1      44.090  24.507  26.315  1.00  0.00     0.020 A 
ATOM     75  C   UNL A   1      42.705  22.977  27.597  1.00  0.00     0.020 A 
ATOM     76  C   UNL A   1      43.524  23.242  26.497  1.00  0.00     0.054 A 
BRANCH  76  77
ATOM     77  S   UNL A   1      43.925  21.925  25.314  1.00  0.00     0.124 S 
ATOM     78  O   UNL A   1      42.898  20.931  25.604  1.00  0.00    -0.237 OA
ATOM     79  O   UNL A   1      43.800  22.608  24.028  1.00  0.00    -0.237 OA
ATOM     80  O   UNL A   1      45.288  21.543  25.676  1.00  0.00    -0.744 OA
ENDBRANCH  76  77
ENDBRANCH  48  71
BRANCH  60  81
ATOM     81  C   UNL A   1      46.341  27.053  34.247  1.00  0.00    -0.014 A 
ATOM     82  C   UNL A   1      46.169  26.055  35.223  1.00  0.00     0.010 A 
ATOM     83  C   UNL A   1      47.641  27.480  33.924  1.00  0.00     0.010 A 
ATOM     84  C   UNL A   1      47.274  25.537  35.904  1.00  0.00     0.020 A 
ATOM     85  C   UNL A   1      48.751  26.940  34.578  1.00  0.00     0.020 A 
ATOM     86  C   UNL A   1      48.557  25.988  35.580  1.00  0.00     0.054 A 
BRANCH  86  87
ATOM     87  S   UNL A   1      49.976  25.299  36.474  1.00  0.00     0.124 S 
ATOM     88  O   UNL A   1      50.640  24.518  35.435  1.00  0.00    -0.237 OA
ATOM     89  O   UNL A   1      50.690  26.496  36.915  1.00  0.00    -0.237 OA
ATOM     90  O   UNL A   1      49.364  24.517  37.546  1.00  0.00    -0.744 OA
ENDBRANCH  86  87
ENDBRANCH  60  81
ENDBRANCH  34  35
ENDBRANCH  26  29
ENDBRANCH  24  25
ENDBRANCH  23  24
ENDBRANCH  22  23
ENDBRANCH   1  22
TORSDOF 20
ENDMDL
MODEL 3
REMARK VINA RESULT:      -9.2      5.113     11.864
REMARK SMILES CC(C)OCCS(=O)(=O)N[C@@H]1COC[C@@H]1C(=O)NCCCCNC(=O)c1ccc(-c2c3nc(c(-c4ccc(S(=O)(=O)[O-])cc4)c4ccc([nH]4)c(-c4ccc(S(=O)(=O)[O-])cc4)c4nc(c(-c5ccc(S(=O)(=O)[O-])cc5)c5ccc2[nH]5)C=C4)C=C3)cc1
REMARK SMILES IDX 19 1 18 2 16 3 17 4 15 6 11 7 12 8 13 9 14 10 10 11 7 13
REMARK SMILES IDX 8 14 9 15 6 16 5 17 4 18 2 19 1 20 3 21 20 22 21 23 22 24
REMARK SMILES IDX 23 25 24 26 25 28 26 29 27 30 85 31 28 32 84 33 29 34 30 35
REMARK SMILES IDX 31 36 78 37 32 38 83 39 77 40 79 41 33 42 82 43 76 44 75 45
REMARK SMILES IDX 34 47 64 48 45 49 63 50 46 51 49 52 62 53 80 54 47 55 48 56
REMARK SMILES IDX 61 58 81 59 50 60 35 61 36 62 44 63 37 64 43 65 38 66 39 67
REMARK SMILES IDX 40 68 41 69 42 70 65 71 66 72 74 73 67 74 73 75 68 76 69 77
REMARK SMILES IDX 70 78 71 79 72 80 51 81 52 82 60 83 53 84 59 85 54 86 55 87
REMARK SMILES IDX 56 88 57 89 58 90
REMARK H PARENT 18 5 10 12 23 27 79 46 49 57
REMARK Flexibility Score: inf
ROOT
ATOM      1  C   UNL A   1      44.417  24.510  27.000  1.00  0.00     0.116 C 
ENDROOT
BRANCH   1   2
ATOM      2  N   UNL A   1      44.892  25.221  25.841  1.00  0.00    -0.356 N 
ATOM      3  C   UNL A   1      45.316  26.507  25.761  1.00  0.00     0.227 C 
ATOM      4  O   UNL A   1      45.492  26.962  24.631  1.00  0.00    -0.275 OA
ATOM      5  H   UNL A   1      44.912  24.708  25.000  1.00  0.00     0.163 HD
BRANCH   3   6
ATOM      6  C   UNL A   1      45.601  27.299  27.036  1.00  0.00     0.124 C 
ATOM      7  C   UNL A   1      46.187  28.699  26.901  1.00  0.00     0.110 C 
ATOM      8  C   UNL A   1      47.583  28.354  26.389  1.00  0.00     0.181 C 
ATOM      9  O   UNL A   1      48.002  27.241  27.201  1.00  0.00    -0.379 OA
ATOM     10  C   UNL A   1      46.807  26.600  27.701  1.00  0.00     0.175 C 
BRANCH   7  11
ATOM     11  N   UNL A   1      45.537  29.810  26.156  1.00  0.00    -0.209 NA
ATOM     12  H   UNL A   1      46.259  30.525  26.056  1.00  0.00     0.141 HD
BRANCH  11  13
ATOM     13  S   UNL A   1      44.158  30.636  26.642  1.00  0.00     0.214 S 
ATOM     14  O   UNL A   1      43.037  29.731  26.582  1.00  0.00    -0.212 OA
ATOM     15  O   UNL A   1      44.188  31.827  25.810  1.00  0.00    -0.212 OA
BRANCH  13  16
ATOM     16  C   UNL A   1      44.335  31.324  28.286  1.00  0.00     0.182 C 
BRANCH  16  17
ATOM     17  C   UNL A   1      45.570  32.153  28.571  1.00  0.00     0.178 C 
BRANCH  17  18
ATOM     18  O   UNL A   1      46.630  31.460  29.233  1.00  0.00    -0.378 OA
BRANCH  18  19
ATOM     19  C   UNL A   1      47.869  32.141  29.414  1.00  0.00     0.112 C 
ATOM     20  C   UNL A   1      48.567  31.788  30.725  1.00  0.00     0.038 C 
ATOM     21  C   UNL A   1      48.698  32.048  28.137  1.00  0.00     0.038 C 
ENDBRANCH  18  19
ENDBRANCH  17  18
ENDBRANCH  16  17
ENDBRANCH  13  16
ENDBRANCH  11  13
ENDBRANCH   7  11
ENDBRANCH   3   6
ENDBRANCH   1   2
BRANCH   1  22
ATOM     22  C   UNL A   1      44.062  23.090  26.603  1.00  0.00     0.023 C 
BRANCH  22  23
ATOM     23  C   UNL A   1      42.752  22.894  25.873  1.00  0.00     0.023 C 
BRANCH  23  24
ATOM     24  C   UNL A   1      41.647  22.387  26.766  1.00  0.00     0.116 C 
BRANCH  24  25
ATOM     25  N   UNL A   1      40.380  22.188  26.071  1.00  0.00    -0.352 N 
ATOM     26  C   UNL A   1      39.297  23.034  26.054  1.00  0.00     0.251 C 
ATOM     27  H   UNL A   1      40.291  21.353  25.558  1.00  0.00     0.163 HD
ATOM     28  O   UNL A   1      38.245  22.707  25.519  1.00  0.00    -0.269 OA
BRANCH  26  29
ATOM     29  C   UNL A   1      39.431  24.329  26.747  1.00  0.00     0.039 A 
ATOM     30  C   UNL A   1      39.029  24.432  28.076  1.00  0.00     0.014 A 
ATOM     31  C   UNL A   1      40.089  25.386  26.113  1.00  0.00     0.014 A 
ATOM     32  C   UNL A   1      39.345  25.586  28.790  1.00  0.00     0.010 A 
ATOM     33  C   UNL A   1      40.532  26.460  26.865  1.00  0.00     0.010 A 
ATOM     34  C   UNL A   1      40.130  26.592  28.200  1.00  0.00    -0.014 A 
BRANCH  34  35
ATOM     35  C   UNL A   1      40.496  27.819  28.946  1.00  0.00     0.031 A 
ATOM     36  C   UNL A   1      41.843  27.909  29.615  1.00  0.00     0.074 A 
ATOM     37  C   UNL A   1      39.607  28.825  29.064  1.00  0.00     0.049 A 
ATOM     38  N   UNL A   1      42.356  28.895  30.305  1.00  0.00    -0.248 NA
ATOM     39  C   UNL A   1      42.712  26.722  29.533  1.00  0.00     0.031 C 
ATOM     40  C   UNL A   1      38.240  28.818  28.537  1.00  0.00     0.029 A 
ATOM     41  N   UNL A   1      39.726  30.052  29.663  1.00  0.00    -0.354 N 
ATOM     42  C   UNL A   1      43.590  28.435  30.750  1.00  0.00     0.074 A 
ATOM     43  C   UNL A   1      43.710  27.058  30.333  1.00  0.00     0.031 C 
ATOM     44  C   UNL A   1      37.663  30.002  28.799  1.00  0.00     0.029 A 
ATOM     45  C   UNL A   1      38.605  30.837  29.536  1.00  0.00     0.049 A 
ATOM     46  H   UNL A   1      40.537  30.343  30.139  1.00  0.00     0.167 HD
ATOM     47  C   UNL A   1      44.560  29.109  31.413  1.00  0.00     0.031 A 
ATOM     48  C   UNL A   1      38.367  32.094  29.958  1.00  0.00     0.031 A 
ATOM     49  C   UNL A   1      44.441  30.482  31.813  1.00  0.00     0.049 A 
ATOM     50  C   UNL A   1      39.469  32.844  30.653  1.00  0.00     0.074 A 
ATOM     51  C   UNL A   1      45.378  31.285  32.436  1.00  0.00     0.029 A 
ATOM     52  N   UNL A   1      43.304  31.259  31.629  1.00  0.00    -0.354 N 
ATOM     53  N   UNL A   1      40.667  32.425  30.990  1.00  0.00    -0.248 NA
ATOM     54  C   UNL A   1      39.199  34.245  30.997  1.00  0.00     0.031 C 
ATOM     55  C   UNL A   1      44.790  32.533  32.675  1.00  0.00     0.029 A 
ATOM     56  C   UNL A   1      43.510  32.527  32.142  1.00  0.00     0.049 A 
ATOM     57  H   UNL A   1      42.474  30.951  31.197  1.00  0.00     0.167 HD
ATOM     58  C   UNL A   1      41.303  33.518  31.567  1.00  0.00     0.074 A 
ATOM     59  C   UNL A   1      40.362  34.620  31.513  1.00  0.00     0.031 C 
ATOM     60  C   UNL A   1      42.551  33.604  32.093  1.00  0.00     0.031 A 
BRANCH  47  61
ATOM     61  C   UNL A   1      45.822  28.348  31.735  1.00  0.00    -0.014 A 
ATOM     62  C   UNL A   1      45.938  27.596  32.921  1.00  0.00     0.010 A 
ATOM     63  C   UNL A   1      46.918  28.408  30.857  1.00  0.00     0.010 A 
ATOM     64  C   UNL A   1      47.148  26.985  33.258  1.00  0.00     0.020 A 
ATOM     65  C   UNL A   1      48.120  27.766  31.173  1.00  0.00     0.020 A 
ATOM     66  C   UNL A   1      48.235  27.082  32.386  1.00  0.00     0.054 A 
BRANCH  66  67
ATOM     67  S   UNL A   1      49.800  26.296  32.856  1.00  0.00     0.124 S 
ATOM     68  O   UNL A   1      50.235  27.136  33.971  1.00  0.00    -0.237 OA
ATOM     69  O   UNL A   1      49.385  24.943  33.216  1.00  0.00    -0.237 OA
ATOM     70  O   UNL A   1      50.615  26.395  31.648  1.00  0.00    -0.744 OA
ENDBRANCH  66  67
ENDBRANCH  47  61
BRANCH  48  71
ATOM     71  C   UNL A   1      37.044  32.719  29.690  1.00  0.00    -0.014 A 
ATOM     72  C   UNL A   1      35.984  32.586  30.605  1.00  0.00     0.010 A 
ATOM     73  C   UNL A   1      36.856  33.506  28.539  1.00  0.00     0.010 A 
ATOM     74  C   UNL A   1      34.763  33.225  30.372  1.00  0.00     0.020 A 
ATOM     75  C   UNL A   1      35.647  34.169  28.317  1.00  0.00     0.020 A 
ATOM     76  C   UNL A   1      34.604  34.019  29.233  1.00  0.00     0.054 A 
BRANCH  76  77
ATOM     77  S   UNL A   1      33.040  34.911  28.998  1.00  0.00     0.124 S 
ATOM     78  O   UNL A   1      33.495  36.185  28.453  1.00  0.00    -0.237 OA
ATOM     79  O   UNL A   1      32.321  34.043  28.068  1.00  0.00    -0.237 OA
ATOM     80  O   UNL A   1      32.475  34.970  30.344  1.00  0.00    -0.744 OA
ENDBRANCH  76  77
ENDBRANCH  48  71
BRANCH  60  81
ATOM     81  C   UNL A   1      42.979  34.946  32.626  1.00  0.00    -0.014 A 
ATOM     82  C   UNL A   1      42.747  35.312  33.964  1.00  0.00     0.010 A 
ATOM     83  C   UNL A   1      43.646  35.845  31.775  1.00  0.00     0.010 A 
ATOM     84  C   UNL A   1      43.125  36.575  34.425  1.00  0.00     0.020 A 
ATOM     85  C   UNL A   1      44.056  37.096  32.241  1.00  0.00     0.020 A 
ATOM     86  C   UNL A   1      43.772  37.462  33.558  1.00  0.00     0.054 A 
BRANCH  86  87
ATOM     87  S   UNL A   1      44.255  39.094  34.179  1.00  0.00     0.124 S 
ATOM     88  O   UNL A   1      44.548  38.811  35.581  1.00  0.00    -0.237 OA
ATOM     89  O   UNL A   1      45.411  39.425  33.349  1.00  0.00    -0.237 OA
ATOM     90  O   UNL A   1      43.071  39.919  33.944  1.00  0.00    -0.744 OA
ENDBRANCH  86  87
ENDBRANCH  60  81
ENDBRANCH  34  35
ENDBRANCH  26  29
ENDBRANCH  24  25
ENDBRANCH  23  24
ENDBRANCH  22  23
ENDBRANCH   1  22
TORSDOF 20
ENDMDL
