MODEL 1
REMARK VINA RESULT:     -11.2      0.000      0.000
REMARK SMILES CCC(C)(C)NC(=O)[C@@H](C)Oc1ccc(C)nc1C(=O)NCCCCNC(=O)c1ccc(-c2c3nc(c(-c4ccc(S(=O)(=O)[O-])cc4)c4ccc([nH]4)c(-c4ccc(S(=O)(=O)[O-])cc4)c4nc(c(-c5ccc(S(=O)(=O)[O-])cc5)c5ccc2[nH]5)C=C4)C=C3)cc1
REMARK SMILES IDX 22 1 21 2 19 3 20 4 18 6 12 7 13 8 14 9 17 10 15 11 16 12
REMARK SMILES IDX 11 13 9 14 10 15 7 16 6 17 8 19 3 20 4 21 5 22 2 23 1 24
REMARK SMILES IDX 23 25 24 26 25 27 26 28 27 29 28 31 29 32 30 33 88 34 31 35
REMARK SMILES IDX 87 36 32 37 33 38 34 39 81 40 35 41 86 42 80 43 82 44 36 45
REMARK SMILES IDX 85 46 79 47 78 48 37 50 67 51 48 52 66 53 49 54 52 55 65 56
REMARK SMILES IDX 83 57 50 58 51 59 64 61 84 62 53 63 38 64 39 65 47 66 40 67
REMARK SMILES IDX 46 68 41 69 42 70 43 71 44 72 45 73 68 74 69 75 77 76 70 77
REMARK SMILES IDX 76 78 71 79 72 80 73 81 74 82 75 83 54 84 55 85 63 86 56 87
REMARK SMILES IDX 62 88 57 89 58 90 59 91 60 92 61 93
REMARK H PARENT 21 5 6 18 26 30 82 49 52 60
REMARK Flexibility Score: inf
ROOT
ATOM      1  C   UNL A   1      35.125  23.625  25.069  1.00  0.00     0.116 C 
ENDROOT
BRANCH   1   2
ATOM      2  N   UNL A   1      34.269  23.441  23.922  1.00  0.00    -0.351 N 
ATOM      3  C   UNL A   1      32.910  23.566  23.751  1.00  0.00     0.273 C 
ATOM      4  O   UNL A   1      32.481  23.146  22.670  1.00  0.00    -0.267 OA
ATOM      5  H   UNL A   1      34.750  23.178  23.105  1.00  0.00     0.163 HD
BRANCH   3   6
ATOM      6  C   UNL A   1      31.954  24.257  24.702  1.00  0.00     0.170 A 
ATOM      7  C   UNL A   1      31.848  25.622  25.000  1.00  0.00     0.151 A 
ATOM      8  C   UNL A   1      30.715  26.025  25.714  1.00  0.00     0.051 A 
ATOM      9  C   UNL A   1      29.942  25.081  26.387  1.00  0.00     0.027 A 
ATOM     10  N   UNL A   1      31.204  23.337  25.384  1.00  0.00    -0.244 NA
ATOM     11  C   UNL A   1      30.303  23.753  26.290  1.00  0.00     0.038 A 
ATOM     12  C   UNL A   1      29.779  22.722  27.242  1.00  0.00     0.067 C 
BRANCH   7  13
ATOM     13  O   UNL A   1      32.917  26.447  24.788  1.00  0.00    -0.478 OA
BRANCH  13  14
ATOM     14  C   UNL A   1      33.268  26.887  23.481  1.00  0.00     0.259 C 
ATOM     15  C   UNL A   1      34.029  28.230  23.567  1.00  0.00     0.064 C 
BRANCH  14  16
ATOM     16  C   UNL A   1      32.297  27.074  22.284  1.00  0.00     0.261 C 
ATOM     17  N   UNL A   1      31.601  28.229  22.081  1.00  0.00    -0.348 N 
ATOM     18  H   UNL A   1      31.936  28.768  21.329  1.00  0.00     0.164 HD
ATOM     19  O   UNL A   1      32.297  26.255  21.356  1.00  0.00    -0.271 OA
BRANCH  17  20
ATOM     20  C   UNL A   1      30.439  28.828  22.778  1.00  0.00     0.034 C 
ATOM     21  C   UNL A   1      30.949  29.374  24.134  1.00  0.00     0.034 C 
ATOM     22  C   UNL A   1      29.471  27.664  23.083  1.00  0.00     0.034 C 
BRANCH  20  23
ATOM     23  C   UNL A   1      29.634  29.952  22.086  1.00  0.00     0.024 C 
ATOM     24  C   UNL A   1      28.183  30.166  22.475  1.00  0.00     0.006 C 
ENDBRANCH  20  23
ENDBRANCH  17  20
ENDBRANCH  14  16
ENDBRANCH  13  14
ENDBRANCH   7  13
ENDBRANCH   3   6
ENDBRANCH   1   2
BRANCH   1  25
ATOM     25  C   UNL A   1      36.574  23.393  24.657  1.00  0.00     0.023 C 
BRANCH  25  26
ATOM     26  C   UNL A   1      37.534  22.953  25.756  1.00  0.00     0.023 C 
BRANCH  26  27
ATOM     27  C   UNL A   1      38.379  24.095  26.295  1.00  0.00     0.116 C 
BRANCH  27  28
ATOM     28  N   UNL A   1      39.819  23.855  26.215  1.00  0.00    -0.352 N 
ATOM     29  C   UNL A   1      40.825  24.586  26.807  1.00  0.00     0.251 C 
ATOM     30  H   UNL A   1      40.102  23.082  25.675  1.00  0.00     0.163 HD
ATOM     31  O   UNL A   1      42.005  24.304  26.632  1.00  0.00    -0.269 OA
BRANCH  29  32
ATOM     32  C   UNL A   1      40.429  25.767  27.593  1.00  0.00     0.039 A 
ATOM     33  C   UNL A   1      39.502  25.603  28.623  1.00  0.00     0.014 A 
ATOM     34  C   UNL A   1      41.127  26.965  27.435  1.00  0.00     0.014 A 
ATOM     35  C   UNL A   1      39.352  26.616  29.569  1.00  0.00     0.010 A 
ATOM     36  C   UNL A   1      41.049  27.926  28.430  1.00  0.00     0.010 A 
ATOM     37  C   UNL A   1      40.172  27.755  29.513  1.00  0.00    -0.014 A 
BRANCH  37  38
ATOM     38  C   UNL A   1      40.151  28.781  30.586  1.00  0.00     0.031 A 
ATOM     39  C   UNL A   1      41.067  28.634  31.767  1.00  0.00     0.074 A 
ATOM     40  C   UNL A   1      39.246  29.780  30.541  1.00  0.00     0.049 A 
ATOM     41  N   UNL A   1      41.124  29.353  32.857  1.00  0.00    -0.248 NA
ATOM     42  C   UNL A   1      42.015  27.509  31.737  1.00  0.00     0.031 C 
ATOM     43  C   UNL A   1      38.265  29.995  29.473  1.00  0.00     0.029 A 
ATOM     44  N   UNL A   1      38.998  30.800  31.424  1.00  0.00    -0.354 N 
ATOM     45  C   UNL A   1      42.092  28.751  33.651  1.00  0.00     0.074 A 
ATOM     46  C   UNL A   1      42.555  27.578  32.944  1.00  0.00     0.031 C 
ATOM     47  C   UNL A   1      37.546  31.096  29.749  1.00  0.00     0.029 A 
ATOM     48  C   UNL A   1      37.983  31.641  31.030  1.00  0.00     0.049 A 
ATOM     49  H   UNL A   1      39.500  30.919  32.263  1.00  0.00     0.167 HD
ATOM     50  C   UNL A   1      42.572  29.153  34.851  1.00  0.00     0.031 A 
ATOM     51  C   UNL A   1      37.461  32.725  31.635  1.00  0.00     0.031 A 
ATOM     52  C   UNL A   1      42.132  30.337  35.535  1.00  0.00     0.049 A 
ATOM     53  C   UNL A   1      38.020  33.159  32.963  1.00  0.00     0.074 A 
ATOM     54  C   UNL A   1      42.603  30.870  36.720  1.00  0.00     0.029 A 
ATOM     55  N   UNL A   1      41.123  31.176  35.088  1.00  0.00    -0.354 N 
ATOM     56  N   UNL A   1      38.983  32.614  33.667  1.00  0.00    -0.248 NA
ATOM     57  C   UNL A   1      37.428  34.357  33.573  1.00  0.00     0.031 C 
ATOM     58  C   UNL A   1      41.850  32.011  37.013  1.00  0.00     0.029 A 
ATOM     59  C   UNL A   1      40.942  32.214  35.984  1.00  0.00     0.049 A 
ATOM     60  H   UNL A   1      40.610  31.051  34.257  1.00  0.00     0.167 HD
ATOM     61  C   UNL A   1      39.126  33.416  34.794  1.00  0.00     0.074 A 
ATOM     62  C   UNL A   1      38.161  34.490  34.670  1.00  0.00     0.031 C 
ATOM     63  C   UNL A   1      39.979  33.276  35.838  1.00  0.00     0.031 A 
BRANCH  50  64
ATOM     64  C   UNL A   1      43.635  28.299  35.489  1.00  0.00    -0.014 A 
ATOM     65  C   UNL A   1      44.999  28.578  35.291  1.00  0.00     0.010 A 
ATOM     66  C   UNL A   1      43.266  27.216  36.305  1.00  0.00     0.010 A 
ATOM     67  C   UNL A   1      45.978  27.757  35.858  1.00  0.00     0.020 A 
ATOM     68  C   UNL A   1      44.243  26.410  36.898  1.00  0.00     0.020 A 
ATOM     69  C   UNL A   1      45.592  26.675  36.654  1.00  0.00     0.054 A 
BRANCH  69  70
ATOM     70  S   UNL A   1      46.883  25.634  37.388  1.00  0.00     0.124 S 
ATOM     71  O   UNL A   1      46.146  24.408  37.684  1.00  0.00    -0.237 OA
ATOM     72  O   UNL A   1      47.864  25.531  36.311  1.00  0.00    -0.237 OA
ATOM     73  O   UNL A   1      47.320  26.396  38.555  1.00  0.00    -0.744 OA
ENDBRANCH  69  70
ENDBRANCH  50  64
BRANCH  51  74
ATOM     74  C   UNL A   1      36.364  33.489  30.981  1.00  0.00    -0.014 A 
ATOM     75  C   UNL A   1      35.158  33.724  31.665  1.00  0.00     0.010 A 
ATOM     76  C   UNL A   1      36.521  33.996  29.678  1.00  0.00     0.010 A 
ATOM     77  C   UNL A   1      34.122  34.436  31.053  1.00  0.00     0.020 A 
ATOM     78  C   UNL A   1      35.496  34.730  29.071  1.00  0.00     0.020 A 
ATOM     79  C   UNL A   1      34.298  34.934  29.760  1.00  0.00     0.054 A 
BRANCH  79  80
ATOM     80  S   UNL A   1      32.959  35.900  29.004  1.00  0.00     0.124 S 
ATOM     81  O   UNL A   1      32.201  36.333  30.173  1.00  0.00    -0.237 OA
ATOM     82  O   UNL A   1      33.687  36.951  28.298  1.00  0.00    -0.237 OA
ATOM     83  O   UNL A   1      32.286  34.932  28.141  1.00  0.00    -0.744 OA
ENDBRANCH  79  80
ENDBRANCH  51  74
BRANCH  63  84
ATOM     84  C   UNL A   1      39.931  34.319  36.918  1.00  0.00    -0.014 A 
ATOM     85  C   UNL A   1      40.628  35.533  36.784  1.00  0.00     0.010 A 
ATOM     86  C   UNL A   1      39.112  34.115  38.043  1.00  0.00     0.010 A 
ATOM     87  C   UNL A   1      40.518  36.520  37.767  1.00  0.00     0.020 A 
ATOM     88  C   UNL A   1      38.982  35.109  39.016  1.00  0.00     0.020 A 
ATOM     89  C   UNL A   1      39.692  36.303  38.875  1.00  0.00     0.054 A 
BRANCH  89  90
ATOM     90  S   UNL A   1      39.513  37.627  40.100  1.00  0.00     0.124 S 
ATOM     91  O   UNL A   1      40.849  38.219  40.107  1.00  0.00    -0.237 OA
ATOM     92  O   UNL A   1      38.459  38.459  39.525  1.00  0.00    -0.237 OA
ATOM     93  O   UNL A   1      39.139  36.918  41.322  1.00  0.00    -0.744 OA
ENDBRANCH  89  90
ENDBRANCH  63  84
ENDBRANCH  37  38
ENDBRANCH  29  32
ENDBRANCH  27  28
ENDBRANCH  26  27
ENDBRANCH  25  26
ENDBRANCH   1  25
TORSDOF 19
ENDMDL
MODEL 2
REMARK VINA RESULT:     -11.0      6.342      8.294
REMARK SMILES CCC(C)(C)NC(=O)[C@@H](C)Oc1ccc(C)nc1C(=O)NCCCCNC(=O)c1ccc(-c2c3nc(c(-c4ccc(S(=O)(=O)[O-])cc4)c4ccc([nH]4)c(-c4ccc(S(=O)(=O)[O-])cc4)c4nc(c(-c5ccc(S(=O)(=O)[O-])cc5)c5ccc2[nH]5)C=C4)C=C3)cc1
REMARK SMILES IDX 22 1 21 2 19 3 20 4 18 6 12 7 13 8 14 9 17 10 15 11 16 12
REMARK SMILES IDX 11 13 9 14 10 15 7 16 6 17 8 19 3 20 4 21 5 22 2 23 1 24
REMARK SMILES IDX 23 25 24 26 25 27 26 28 27 29 28 31 29 32 30 33 88 34 31 35
REMARK SMILES IDX 87 36 32 37 33 38 34 39 81 40 35 41 86 42 80 43 82 44 36 45
REMARK SMILES IDX 85 46 79 47 78 48 37 50 67 51 48 52 66 53 49 54 52 55 65 56
REMARK SMILES IDX 83 57 50 58 51 59 64 61 84 62 53 63 38 64 39 65 47 66 40 67
REMARK SMILES IDX 46 68 41 69 42 70 43 71 44 72 45 73 68 74 69 75 77 76 70 77
REMARK SMILES IDX 76 78 71 79 72 80 73 81 74 82 75 83 54 84 55 85 63 86 56 87
REMARK SMILES IDX 62 88 57 89 58 90 59 91 60 92 61 93
REMARK H PARENT 21 5 6 18 26 30 82 49 52 60
REMARK Flexibility Score: inf
ROOT
ATOM      1  C   UNL A   1      36.570  23.617  25.818  1.00  0.00     0.116 C 
ENDROOT
BRANCH   1   2
ATOM      2  N   UNL A   1      36.018  23.843  24.505  1.00  0.00    -0.351 N 
ATOM      3  C   UNL A   1      34.918  23.326  23.860  1.00  0.00     0.273 C 
ATOM      4  O   UNL A   1      34.844  23.600  22.657  1.00  0.00    -0.267 OA
ATOM      5  H   UNL A   1      36.525  24.493  23.966  1.00  0.00     0.163 HD
BRANCH   3   6
ATOM      6  C   UNL A   1      33.777  22.575  24.515  1.00  0.00     0.170 A 
ATOM      7  C   UNL A   1      32.780  23.065  25.369  1.00  0.00     0.151 A 
ATOM      8  C   UNL A   1      31.697  22.219  25.625  1.00  0.00     0.051 A 
ATOM      9  C   UNL A   1      31.792  20.858  25.340  1.00  0.00     0.027 A 
ATOM     10  N   UNL A   1      33.873  21.234  24.257  1.00  0.00    -0.244 NA
ATOM     11  C   UNL A   1      32.957  20.392  24.765  1.00  0.00     0.038 A 
ATOM     12  C   UNL A   1      33.301  18.934  24.753  1.00  0.00     0.067 C 
BRANCH   7  13
ATOM     13  O   UNL A   1      32.997  24.217  26.071  1.00  0.00    -0.478 OA
BRANCH  13  14
ATOM     14  C   UNL A   1      32.733  25.495  25.503  1.00  0.00     0.259 C 
ATOM     15  C   UNL A   1      33.872  26.475  25.866  1.00  0.00     0.064 C 
BRANCH  14  16
ATOM     16  C   UNL A   1      31.437  26.331  25.689  1.00  0.00     0.261 C 
ATOM     17  N   UNL A   1      30.667  26.729  24.636  1.00  0.00    -0.348 N 
ATOM     18  H   UNL A   1      29.817  26.239  24.557  1.00  0.00     0.164 HD
ATOM     19  O   UNL A   1      30.949  26.469  26.818  1.00  0.00    -0.271 OA
BRANCH  17  20
ATOM     20  C   UNL A   1      30.866  27.758  23.590  1.00  0.00     0.034 C 
ATOM     21  C   UNL A   1      29.469  28.316  23.224  1.00  0.00     0.034 C 
ATOM     22  C   UNL A   1      31.406  27.014  22.348  1.00  0.00     0.034 C 
BRANCH  20  23
ATOM     23  C   UNL A   1      31.798  28.959  23.871  1.00  0.00     0.024 C 
ATOM     24  C   UNL A   1      33.198  28.960  23.284  1.00  0.00     0.006 C 
ENDBRANCH  20  23
ENDBRANCH  17  20
ENDBRANCH  14  16
ENDBRANCH  13  14
ENDBRANCH   7  13
ENDBRANCH   3   6
ENDBRANCH   1   2
BRANCH   1  25
ATOM     25  C   UNL A   1      38.040  23.237  25.687  1.00  0.00     0.023 C 
BRANCH  25  26
ATOM     26  C   UNL A   1      38.361  21.746  25.680  1.00  0.00     0.023 C 
BRANCH  26  27
ATOM     27  C   UNL A   1      39.524  21.388  26.591  1.00  0.00     0.116 C 
BRANCH  27  28
ATOM     28  N   UNL A   1      40.199  20.144  26.227  1.00  0.00    -0.352 N 
ATOM     29  C   UNL A   1      41.551  19.941  26.064  1.00  0.00     0.251 C 
ATOM     30  H   UNL A   1      39.621  19.361  26.081  1.00  0.00     0.163 HD
ATOM     31  O   UNL A   1      41.995  18.852  25.718  1.00  0.00    -0.269 OA
BRANCH  29  32
ATOM     32  C   UNL A   1      42.436  21.104  26.245  1.00  0.00     0.039 A 
ATOM     33  C   UNL A   1      42.725  21.902  25.138  1.00  0.00     0.014 A 
ATOM     34  C   UNL A   1      42.797  21.500  27.534  1.00  0.00     0.014 A 
ATOM     35  C   UNL A   1      43.287  23.161  25.337  1.00  0.00     0.010 A 
ATOM     36  C   UNL A   1      43.263  22.790  27.735  1.00  0.00     0.010 A 
ATOM     37  C   UNL A   1      43.499  23.638  26.642  1.00  0.00    -0.014 A 
BRANCH  37  38
ATOM     38  C   UNL A   1      43.950  25.028  26.897  1.00  0.00     0.031 A 
ATOM     39  C   UNL A   1      45.397  25.383  26.703  1.00  0.00     0.074 A 
ATOM     40  C   UNL A   1      43.084  25.935  27.391  1.00  0.00     0.049 A 
ATOM     41  N   UNL A   1      46.013  26.503  26.977  1.00  0.00    -0.248 NA
ATOM     42  C   UNL A   1      46.274  24.328  26.168  1.00  0.00     0.031 C 
ATOM     43  C   UNL A   1      41.666  25.693  27.676  1.00  0.00     0.029 A 
ATOM     44  N   UNL A   1      43.271  27.245  27.752  1.00  0.00    -0.354 N 
ATOM     45  C   UNL A   1      47.349  26.278  26.675  1.00  0.00     0.074 A 
ATOM     46  C   UNL A   1      47.465  24.900  26.251  1.00  0.00     0.031 C 
ATOM     47  C   UNL A   1      41.108  26.826  28.135  1.00  0.00     0.029 A 
ATOM     48  C   UNL A   1      42.133  27.861  28.219  1.00  0.00     0.049 A 
ATOM     49  H   UNL A   1      44.141  27.702  27.685  1.00  0.00     0.167 HD
ATOM     50  C   UNL A   1      48.386  27.147  26.720  1.00  0.00     0.031 A 
ATOM     51  C   UNL A   1      41.939  29.116  28.668  1.00  0.00     0.031 A 
ATOM     52  C   UNL A   1      48.260  28.524  27.111  1.00  0.00     0.049 A 
ATOM     53  C   UNL A   1      43.104  30.068  28.699  1.00  0.00     0.074 A 
ATOM     54  C   UNL A   1      49.234  29.505  27.125  1.00  0.00     0.029 A 
ATOM     55  N   UNL A   1      47.085  29.114  27.549  1.00  0.00    -0.354 N 
ATOM     56  N   UNL A   1      44.349  29.855  28.344  1.00  0.00    -0.248 NA
ATOM     57  C   UNL A   1      42.836  31.430  29.180  1.00  0.00     0.031 C 
ATOM     58  C   UNL A   1      48.656  30.683  27.611  1.00  0.00     0.029 A 
ATOM     59  C   UNL A   1      47.312  30.445  27.854  1.00  0.00     0.049 A 
ATOM     60  H   UNL A   1      46.218  28.656  27.631  1.00  0.00     0.167 HD
ATOM     61  C   UNL A   1      45.009  31.063  28.541  1.00  0.00     0.074 A 
ATOM     62  C   UNL A   1      44.023  32.005  29.031  1.00  0.00     0.031 C 
ATOM     63  C   UNL A   1      46.314  31.365  28.336  1.00  0.00     0.031 A 
BRANCH  50  64
ATOM     64  C   UNL A   1      49.742  26.624  26.329  1.00  0.00    -0.014 A 
ATOM     65  C   UNL A   1      50.549  25.945  27.258  1.00  0.00     0.010 A 
ATOM     66  C   UNL A   1      50.207  26.802  25.015  1.00  0.00     0.010 A 
ATOM     67  C   UNL A   1      51.821  25.496  26.894  1.00  0.00     0.020 A 
ATOM     68  C   UNL A   1      51.468  26.329  24.639  1.00  0.00     0.020 A 
ATOM     69  C   UNL A   1      52.274  25.696  25.587  1.00  0.00     0.054 A 
BRANCH  69  70
ATOM     70  S   UNL A   1      53.924  25.091  25.138  1.00  0.00     0.124 S 
ATOM     71  O   UNL A   1      54.220  25.885  23.948  1.00  0.00    -0.237 OA
ATOM     72  O   UNL A   1      54.717  25.414  26.321  1.00  0.00    -0.237 OA
ATOM     73  O   UNL A   1      53.717  23.664  24.900  1.00  0.00    -0.744 OA
ENDBRANCH  69  70
ENDBRANCH  50  64
BRANCH  51  74
ATOM     74  C   UNL A   1      40.585  29.552  29.104  1.00  0.00    -0.014 A 
ATOM     75  C   UNL A   1      40.336  29.850  30.456  1.00  0.00     0.010 A 
ATOM     76  C   UNL A   1      39.539  29.684  28.172  1.00  0.00     0.010 A 
ATOM     77  C   UNL A   1      39.064  30.254  30.871  1.00  0.00     0.020 A 
ATOM     78  C   UNL A   1      38.271  30.111  28.579  1.00  0.00     0.020 A 
ATOM     79  C   UNL A   1      38.040  30.382  29.930  1.00  0.00     0.054 A 
BRANCH  79  80
ATOM     80  S   UNL A   1      36.410  30.958  30.483  1.00  0.00     0.124 S 
ATOM     81  O   UNL A   1      36.674  32.357  30.804  1.00  0.00    -0.237 OA
ATOM     82  O   UNL A   1      35.575  30.726  29.307  1.00  0.00    -0.237 OA
ATOM     83  O   UNL A   1      36.114  30.097  31.626  1.00  0.00    -0.744 OA
ENDBRANCH  79  80
ENDBRANCH  51  74
BRANCH  63  84
ATOM     84  C   UNL A   1      46.751  32.776  28.612  1.00  0.00    -0.014 A 
ATOM     85  C   UNL A   1      47.297  33.135  29.856  1.00  0.00     0.010 A 
ATOM     86  C   UNL A   1      46.690  33.735  27.584  1.00  0.00     0.010 A 
ATOM     87  C   UNL A   1      47.761  34.434  30.073  1.00  0.00     0.020 A 
ATOM     88  C   UNL A   1      47.175  35.029  27.790  1.00  0.00     0.020 A 
ATOM     89  C   UNL A   1      47.700  35.372  29.037  1.00  0.00     0.054 A 
BRANCH  89  90
ATOM     90  S   UNL A   1      48.373  37.032  29.323  1.00  0.00     0.124 S 
ATOM     91  O   UNL A   1      49.812  36.796  29.236  1.00  0.00    -0.237 OA
ATOM     92  O   UNL A   1      47.795  37.807  28.228  1.00  0.00    -0.237 OA
ATOM     93  O   UNL A   1      47.877  37.381  30.652  1.00  0.00    -0.744 OA
ENDBRANCH  89  90
ENDBRANCH  63  84
ENDBRANCH  37  38
ENDBRANCH  29  32
ENDBRANCH  27  28
ENDBRANCH  26  27
ENDBRANCH  25  26
ENDBRANCH   1  25
TORSDOF 19
ENDMDL
MODEL 3
REMARK VINA RESULT:     -10.8      6.509     10.684
REMARK SMILES CCC(C)(C)NC(=O)[C@@H](C)Oc1ccc(C)nc1C(=O)NCCCCNC(=O)c1ccc(-c2c3nc(c(-c4ccc(S(=O)(=O)[O-])cc4)c4ccc([nH]4)c(-c4ccc(S(=O)(=O)[O-])cc4)c4nc(c(-c5ccc(S(=O)(=O)[O-])cc5)c5ccc2[nH]5)C=C4)C=C3)cc1
REMARK SMILES IDX 22 1 21 2 19 3 20 4 18 6 12 7 13 8 14 9 17 10 15 11 16 12
REMARK SMILES IDX 11 13 9 14 10 15 7 16 6 17 8 19 3 20 4 21 5 22 2 23 1 24
REMARK SMILES IDX 23 25 24 26 25 27 26 28 27 29 28 31 29 32 30 33 88 34 31 35
REMARK SMILES IDX 87 36 32 37 33 38 34 39 81 40 35 41 86 42 80 43 82 44 36 45
REMARK SMILES IDX 85 46 79 47 78 48 37 50 67 51 48 52 66 53 49 54 52 55 65 56
REMARK SMILES IDX 83 57 50 58 51 59 64 61 84 62 53 63 38 64 39 65 47 66 40 67
REMARK SMILES IDX 46 68 41 69 42 70 43 71 44 72 45 73 68 74 69 75 77 76 70 77
REMARK SMILES IDX 76 78 71 79 72 80 73 81 74 82 75 83 54 84 55 85 63 86 56 87
REMARK SMILES IDX 62 88 57 89 58 90 59 91 60 92 61 93
REMARK H PARENT 21 5 6 18 26 30 82 49 52 60
REMARK Flexibility Score: inf
ROOT
ATOM      1  C   UNL A   1      36.949  22.131  25.050  1.00  0.00     0.116 C 
ENDROOT
BRANCH   1   2
ATOM      2  N   UNL A   1      36.092  22.161  26.209  1.00  0.00    -0.351 N 
ATOM      3  C   UNL A   1      34.753  21.894  26.379  1.00  0.00     0.273 C 
ATOM      4  O   UNL A   1      34.296  22.203  27.485  1.00  0.00    -0.267 OA
ATOM      5  H   UNL A   1      36.553  22.421  27.039  1.00  0.00     0.163 HD
BRANCH   3   6
ATOM      6  C   UNL A   1      33.860  21.169  25.392  1.00  0.00     0.170 A 
ATOM      7  C   UNL A   1      33.117  21.699  24.329  1.00  0.00     0.151 A 
ATOM      8  C   UNL A   1      32.584  20.785  23.415  1.00  0.00     0.051 A 
ATOM      9  C   UNL A   1      32.497  19.435  23.749  1.00  0.00     0.027 A 
ATOM     10  N   UNL A   1      33.752  19.845  25.723  1.00  0.00    -0.244 NA
ATOM     11  C   UNL A   1      32.987  19.033  24.974  1.00  0.00     0.038 A 
ATOM     12  C   UNL A   1      32.624  17.708  25.572  1.00  0.00     0.067 C 
BRANCH   7  13
ATOM     13  O   UNL A   1      32.764  23.019  24.341  1.00  0.00    -0.478 OA
BRANCH  13  14
ATOM     14  C   UNL A   1      31.551  23.459  24.941  1.00  0.00     0.259 C 
ATOM     15  C   UNL A   1      30.633  24.089  23.868  1.00  0.00     0.064 C 
BRANCH  14  16
ATOM     16  C   UNL A   1      31.424  24.413  26.160  1.00  0.00     0.261 C 
ATOM     17  N   UNL A   1      31.481  25.769  26.036  1.00  0.00    -0.348 N 
ATOM     18  H   UNL A   1      30.612  26.216  26.151  1.00  0.00     0.164 HD
ATOM     19  O   UNL A   1      31.045  23.971  27.252  1.00  0.00    -0.271 OA
BRANCH  17  20
ATOM     20  C   UNL A   1      32.601  26.699  25.759  1.00  0.00     0.034 C 
ATOM     21  C   UNL A   1      32.343  27.326  24.368  1.00  0.00     0.034 C 
ATOM     22  C   UNL A   1      33.870  25.825  25.645  1.00  0.00     0.034 C 
BRANCH  20  23
ATOM     23  C   UNL A   1      32.898  27.847  26.750  1.00  0.00     0.024 C 
ATOM     24  C   UNL A   1      31.775  28.375  27.626  1.00  0.00     0.006 C 
ENDBRANCH  20  23
ENDBRANCH  17  20
ENDBRANCH  14  16
ENDBRANCH  13  14
ENDBRANCH   7  13
ENDBRANCH   3   6
ENDBRANCH   1   2
BRANCH   1  25
ATOM     25  C   UNL A   1      37.792  20.862  25.080  1.00  0.00     0.023 C 
BRANCH  25  26
ATOM     26  C   UNL A   1      39.277  21.036  25.382  1.00  0.00     0.023 C 
BRANCH  26  27
ATOM     27  C   UNL A   1      39.777  20.084  26.456  1.00  0.00     0.116 C 
BRANCH  27  28
ATOM     28  N   UNL A   1      41.026  19.407  26.111  1.00  0.00    -0.352 N 
ATOM     29  C   UNL A   1      42.298  19.934  26.134  1.00  0.00     0.251 C 
ATOM     30  H   UNL A   1      40.949  18.467  25.830  1.00  0.00     0.163 HD
ATOM     31  O   UNL A   1      43.268  19.272  25.784  1.00  0.00    -0.269 OA
BRANCH  29  32
ATOM     32  C   UNL A   1      42.438  21.349  26.520  1.00  0.00     0.039 A 
ATOM     33  C   UNL A   1      42.731  21.652  27.850  1.00  0.00     0.014 A 
ATOM     34  C   UNL A   1      42.478  22.331  25.530  1.00  0.00     0.014 A 
ATOM     35  C   UNL A   1      43.173  22.934  28.172  1.00  0.00     0.010 A 
ATOM     36  C   UNL A   1      43.012  23.574  25.836  1.00  0.00     0.010 A 
ATOM     37  C   UNL A   1      43.378  23.882  27.155  1.00  0.00    -0.014 A 
BRANCH  37  38
ATOM     38  C   UNL A   1      43.993  25.202  27.438  1.00  0.00     0.031 A 
ATOM     39  C   UNL A   1      43.147  26.304  28.012  1.00  0.00     0.074 A 
ATOM     40  C   UNL A   1      45.275  25.435  27.091  1.00  0.00     0.049 A 
ATOM     41  N   UNL A   1      43.460  27.555  28.226  1.00  0.00    -0.248 NA
ATOM     42  C   UNL A   1      41.756  25.964  28.353  1.00  0.00     0.031 C 
ATOM     43  C   UNL A   1      46.181  24.462  26.473  1.00  0.00     0.029 A 
ATOM     44  N   UNL A   1      46.037  26.570  27.198  1.00  0.00    -0.354 N 
ATOM     45  C   UNL A   1      42.300  28.155  28.698  1.00  0.00     0.074 A 
ATOM     46  C   UNL A   1      41.263  27.147  28.687  1.00  0.00     0.031 C 
ATOM     47  C   UNL A   1      47.383  25.033  26.289  1.00  0.00     0.029 A 
ATOM     48  C   UNL A   1      47.324  26.421  26.733  1.00  0.00     0.049 A 
ATOM     49  H   UNL A   1      45.696  27.414  27.573  1.00  0.00     0.167 HD
ATOM     50  C   UNL A   1      42.119  29.425  29.128  1.00  0.00     0.031 A 
ATOM     51  C   UNL A   1      48.338  27.305  26.667  1.00  0.00     0.031 A 
ATOM     52  C   UNL A   1      43.160  30.414  29.168  1.00  0.00     0.049 A 
ATOM     53  C   UNL A   1      48.116  28.708  27.163  1.00  0.00     0.074 A 
ATOM     54  C   UNL A   1      43.098  31.708  29.650  1.00  0.00     0.029 A 
ATOM     55  N   UNL A   1      44.455  30.213  28.714  1.00  0.00    -0.354 N 
ATOM     56  N   UNL A   1      47.029  29.238  27.669  1.00  0.00    -0.248 NA
ATOM     57  C   UNL A   1      49.258  29.628  27.085  1.00  0.00     0.031 C 
ATOM     58  C   UNL A   1      44.347  32.306  29.451  1.00  0.00     0.029 A 
ATOM     59  C   UNL A   1      45.198  31.367  28.888  1.00  0.00     0.049 A 
ATOM     60  H   UNL A   1      44.794  29.375  28.325  1.00  0.00     0.167 HD
ATOM     61  C   UNL A   1      47.362  30.549  27.990  1.00  0.00     0.074 A 
ATOM     62  C   UNL A   1      48.756  30.726  27.634  1.00  0.00     0.031 C 
ATOM     63  C   UNL A   1      46.586  31.519  28.531  1.00  0.00     0.031 A 
BRANCH  50  64
ATOM     64  C   UNL A   1      40.739  29.804  29.595  1.00  0.00    -0.014 A 
ATOM     65  C   UNL A   1      40.426  29.841  30.966  1.00  0.00     0.010 A 
ATOM     66  C   UNL A   1      39.750  30.140  28.655  1.00  0.00     0.010 A 
ATOM     67  C   UNL A   1      39.132  30.159  31.387  1.00  0.00     0.020 A 
ATOM     68  C   UNL A   1      38.462  30.488  29.074  1.00  0.00     0.020 A 
ATOM     69  C   UNL A   1      38.157  30.475  30.437  1.00  0.00     0.054 A 
BRANCH  69  70
ATOM     70  S   UNL A   1      36.490  30.897  31.011  1.00  0.00     0.124 S 
ATOM     71  O   UNL A   1      36.646  32.302  31.378  1.00  0.00    -0.237 OA
ATOM     72  O   UNL A   1      35.669  30.644  29.831  1.00  0.00    -0.237 OA
ATOM     73  O   UNL A   1      36.267  29.982  32.130  1.00  0.00    -0.744 OA
ENDBRANCH  69  70
ENDBRANCH  50  64
BRANCH  51  74
ATOM     74  C   UNL A   1      49.661  26.884  26.132  1.00  0.00    -0.014 A 
ATOM     75  C   UNL A   1      50.641  26.361  26.995  1.00  0.00     0.010 A 
ATOM     76  C   UNL A   1      49.947  26.992  24.759  1.00  0.00     0.010 A 
ATOM     77  C   UNL A   1      51.888  25.970  26.498  1.00  0.00     0.020 A 
ATOM     78  C   UNL A   1      51.185  26.579  24.254  1.00  0.00     0.020 A 
ATOM     79  C   UNL A   1      52.151  26.081  25.131  1.00  0.00     0.054 A 
BRANCH  79  80
ATOM     80  S   UNL A   1      53.758  25.518  24.500  1.00  0.00     0.124 S 
ATOM     81  O   UNL A   1      53.643  24.070  24.626  1.00  0.00    -0.237 OA
ATOM     82  O   UNL A   1      53.761  26.036  23.135  1.00  0.00    -0.237 OA
ATOM     83  O   UNL A   1      54.719  26.154  25.401  1.00  0.00    -0.744 OA
ENDBRANCH  79  80
ENDBRANCH  51  74
BRANCH  63  84
ATOM     84  C   UNL A   1      47.226  32.853  28.798  1.00  0.00    -0.014 A 
ATOM     85  C   UNL A   1      47.178  33.883  27.844  1.00  0.00     0.010 A 
ATOM     86  C   UNL A   1      47.810  33.102  30.053  1.00  0.00     0.010 A 
ATOM     87  C   UNL A   1      47.719  35.138  28.134  1.00  0.00     0.020 A 
ATOM     88  C   UNL A   1      48.331  34.363  30.356  1.00  0.00     0.020 A 
ATOM     89  C   UNL A   1      48.288  35.371  29.391  1.00  0.00     0.054 A 
BRANCH  89  90
ATOM     90  S   UNL A   1      48.920  37.028  29.768  1.00  0.00     0.124 S 
ATOM     91  O   UNL A   1      49.461  37.448  28.478  1.00  0.00    -0.237 OA
ATOM     92  O   UNL A   1      47.722  37.737  30.210  1.00  0.00    -0.237 OA
ATOM     93  O   UNL A   1      49.914  36.789  30.812  1.00  0.00    -0.744 OA
ENDBRANCH  89  90
ENDBRANCH  63  84
ENDBRANCH  37  38
ENDBRANCH  29  32
ENDBRANCH  27  28
ENDBRANCH  26  27
ENDBRANCH  25  26
ENDBRANCH   1  25
TORSDOF 19
ENDMDL
