MODEL 1
REMARK VINA RESULT:     -11.6      0.000      0.000
REMARK SMILES O=C(NCCCCNC(=O)c1ccccc1Nc1nc(Cl)nc(Nc2ccc(N3CCOCC3=O)cc2)n1)c1ccc(-c2c3nc(c(-c4ccc(S(=O)(=O)[O-])cc4)c4ccc([nH]4)c(-c4ccc(S(=O)(=O)[O-])cc4)c4nc(c(-c5ccc(S(=O)(=O)[O-])cc5)c5ccc2[nH]5)C=C4)C=C3)cc1
REMARK SMILES IDX 6 1 5 2 4 3 3 4 1 5 2 6 39 8 40 9 98 10 41 11 97 12 42 13
REMARK SMILES IDX 43 14 44 15 91 16 45 17 96 18 90 19 92 20 46 21 95 22 89 23
REMARK SMILES IDX 88 24 47 26 77 27 58 28 76 29 59 30 62 31 75 32 93 33 60 34
REMARK SMILES IDX 61 35 74 37 94 38 63 39 48 40 49 41 57 42 50 43 56 44 51 45
REMARK SMILES IDX 52 46 53 47 54 48 55 49 78 50 79 51 87 52 80 53 86 54 81 55
REMARK SMILES IDX 82 56 83 57 84 58 85 59 64 60 65 61 73 62 66 63 72 64 67 65
REMARK SMILES IDX 68 66 69 67 70 68 71 69 7 70 8 71 9 72 10 74 11 75 12 76
REMARK SMILES IDX 16 77 13 78 15 79 14 80 17 81 18 83 19 84 38 85 20 86 23 87
REMARK SMILES IDX 21 88 22 89 24 90 25 92 26 93 37 94 27 95 36 96 28 97 29 98
REMARK SMILES IDX 30 99 34 100 31 101 33 102 35 103 32 104
REMARK H PARENT 3 7 92 25 62 36 8 73 17 82 24 91
REMARK Flexibility Score: inf
ROOT
ATOM      1  C   UNL A   1      37.910  30.474  33.613  1.00  0.00     0.023 C 
ENDROOT
BRANCH   1   2
ATOM      2  C   UNL A   1      36.929  30.614  32.449  1.00  0.00     0.023 C 
BRANCH   2   3
ATOM      3  C   UNL A   1      37.552  30.622  31.059  1.00  0.00     0.116 C 
BRANCH   3   4
ATOM      4  N   UNL A   1      36.723  29.962  30.063  1.00  0.00    -0.352 N 
ATOM      5  O   UNL A   1      36.222  28.969  28.104  1.00  0.00    -0.269 OA
ATOM      6  C   UNL A   1      37.088  29.335  28.895  1.00  0.00     0.251 C 
ATOM      7  H   UNL A   1      35.756  29.967  30.252  1.00  0.00     0.163 HD
BRANCH   6   8
ATOM      8  C   UNL A   1      38.518  29.125  28.579  1.00  0.00     0.039 A 
ATOM      9  C   UNL A   1      39.412  28.683  29.557  1.00  0.00     0.014 A 
ATOM     10  C   UNL A   1      38.969  29.366  27.278  1.00  0.00     0.014 A 
ATOM     11  C   UNL A   1      40.773  28.624  29.277  1.00  0.00     0.010 A 
ATOM     12  C   UNL A   1      40.327  29.226  26.976  1.00  0.00     0.010 A 
ATOM     13  C   UNL A   1      41.246  28.885  27.980  1.00  0.00    -0.014 A 
BRANCH  13  14
ATOM     14  C   UNL A   1      42.693  28.733  27.682  1.00  0.00     0.031 A 
ATOM     15  C   UNL A   1      43.653  29.876  27.867  1.00  0.00     0.074 A 
ATOM     16  C   UNL A   1      43.140  27.542  27.238  1.00  0.00     0.049 A 
ATOM     17  N   UNL A   1      44.944  29.907  27.651  1.00  0.00    -0.248 NA
ATOM     18  C   UNL A   1      43.094  31.148  28.350  1.00  0.00     0.031 C 
ATOM     19  C   UNL A   1      42.302  26.364  27.002  1.00  0.00     0.029 A 
ATOM     20  N   UNL A   1      44.404  27.123  26.909  1.00  0.00    -0.354 N 
ATOM     21  C   UNL A   1      45.350  31.204  27.946  1.00  0.00     0.074 A 
ATOM     22  C   UNL A   1      44.162  31.935  28.338  1.00  0.00     0.031 C 
ATOM     23  C   UNL A   1      43.076  25.349  26.591  1.00  0.00     0.029 A 
ATOM     24  C   UNL A   1      44.454  25.819  26.479  1.00  0.00     0.049 A 
ATOM     25  H   UNL A   1      45.199  27.700  26.975  1.00  0.00     0.167 HD
ATOM     26  C   UNL A   1      46.596  31.736  27.894  1.00  0.00     0.031 A 
ATOM     27  C   UNL A   1      45.482  25.083  26.019  1.00  0.00     0.031 A 
ATOM     28  C   UNL A   1      47.772  31.004  27.498  1.00  0.00     0.049 A 
ATOM     29  C   UNL A   1      46.849  25.696  25.954  1.00  0.00     0.074 A 
ATOM     30  C   UNL A   1      49.085  31.441  27.458  1.00  0.00     0.029 A 
ATOM     31  N   UNL A   1      47.777  29.687  27.060  1.00  0.00    -0.354 N 
ATOM     32  N   UNL A   1      47.220  26.909  26.290  1.00  0.00    -0.248 NA
ATOM     33  C   UNL A   1      47.935  24.844  25.455  1.00  0.00     0.031 C 
ATOM     34  C   UNL A   1      49.876  30.406  26.944  1.00  0.00     0.029 A 
ATOM     35  C   UNL A   1      49.065  29.305  26.718  1.00  0.00     0.049 A 
ATOM     36  H   UNL A   1      46.983  29.108  27.000  1.00  0.00     0.167 HD
ATOM     37  C   UNL A   1      48.588  26.963  26.050  1.00  0.00     0.074 A 
ATOM     38  C   UNL A   1      48.979  25.656  25.561  1.00  0.00     0.031 C 
ATOM     39  C   UNL A   1      49.439  28.005  26.220  1.00  0.00     0.031 A 
BRANCH  26  40
ATOM     40  C   UNL A   1      46.744  33.195  28.240  1.00  0.00    -0.014 A 
ATOM     41  C   UNL A   1      46.614  34.196  27.260  1.00  0.00     0.010 A 
ATOM     42  C   UNL A   1      46.993  33.572  29.572  1.00  0.00     0.010 A 
ATOM     43  C   UNL A   1      46.785  35.543  27.597  1.00  0.00     0.020 A 
ATOM     44  C   UNL A   1      47.138  34.919  29.918  1.00  0.00     0.020 A 
ATOM     45  C   UNL A   1      47.056  35.895  28.922  1.00  0.00     0.054 A 
BRANCH  45  46
ATOM     46  S   UNL A   1      47.284  37.648  29.332  1.00  0.00     0.124 S 
ATOM     47  O   UNL A   1      47.797  37.572  30.698  1.00  0.00    -0.237 OA
ATOM     48  O   UNL A   1      48.246  38.092  28.326  1.00  0.00    -0.237 OA
ATOM     49  O   UNL A   1      45.943  38.213  29.200  1.00  0.00    -0.744 OA
ENDBRANCH  45  46
ENDBRANCH  26  40
BRANCH  27  50
ATOM     50  C   UNL A   1      45.228  23.690  25.565  1.00  0.00    -0.014 A 
ATOM     51  C   UNL A   1      44.925  23.414  24.222  1.00  0.00     0.010 A 
ATOM     52  C   UNL A   1      45.366  22.621  26.471  1.00  0.00     0.010 A 
ATOM     53  C   UNL A   1      44.768  22.093  23.792  1.00  0.00     0.020 A 
ATOM     54  C   UNL A   1      45.236  21.300  26.040  1.00  0.00     0.020 A 
ATOM     55  C   UNL A   1      44.932  21.044  24.702  1.00  0.00     0.054 A 
BRANCH  55  56
ATOM     56  S   UNL A   1      44.814  19.336  24.103  1.00  0.00     0.124 S 
ATOM     57  O   UNL A   1      44.598  19.531  22.673  1.00  0.00    -0.237 OA
ATOM     58  O   UNL A   1      46.111  18.778  24.477  1.00  0.00    -0.237 OA
ATOM     59  O   UNL A   1      43.675  18.794  24.841  1.00  0.00    -0.744 OA
ENDBRANCH  55  56
ENDBRANCH  27  50
BRANCH  39  60
ATOM     60  C   UNL A   1      50.888  27.770  25.889  1.00  0.00    -0.014 A 
ATOM     61  C   UNL A   1      51.783  27.281  26.857  1.00  0.00     0.010 A 
ATOM     62  C   UNL A   1      51.344  27.985  24.576  1.00  0.00     0.010 A 
ATOM     63  C   UNL A   1      53.118  27.033  26.522  1.00  0.00     0.020 A 
ATOM     64  C   UNL A   1      52.671  27.716  24.231  1.00  0.00     0.020 A 
ATOM     65  C   UNL A   1      53.553  27.252  25.211  1.00  0.00     0.054 A 
BRANCH  65  66
ATOM     66  S   UNL A   1      55.274  26.871  24.786  1.00  0.00     0.124 S 
ATOM     67  O   UNL A   1      55.996  27.405  25.937  1.00  0.00    -0.237 OA
ATOM     68  O   UNL A   1      55.262  25.414  24.670  1.00  0.00    -0.237 OA
ATOM     69  O   UNL A   1      55.488  27.587  23.530  1.00  0.00    -0.744 OA
ENDBRANCH  65  66
ENDBRANCH  39  60
ENDBRANCH  13  14
ENDBRANCH   6   8
ENDBRANCH   3   4
ENDBRANCH   2   3
ENDBRANCH   1   2
BRANCH   1  70
ATOM     70  C   UNL A   1      39.027  31.513  33.664  1.00  0.00     0.116 C 
BRANCH  70  71
ATOM     71  N   UNL A   1      38.617  32.769  34.271  1.00  0.00    -0.352 N 
ATOM     72  C   UNL A   1      38.360  33.973  33.663  1.00  0.00     0.253 C 
ATOM     73  H   UNL A   1      38.510  32.755  35.249  1.00  0.00     0.163 HD
ATOM     74  O   UNL A   1      38.028  34.950  34.326  1.00  0.00    -0.269 OA
BRANCH  72  75
ATOM     75  C   UNL A   1      38.518  34.113  32.201  1.00  0.00     0.063 A 
ATOM     76  C   UNL A   1      39.826  34.289  31.728  1.00  0.00     0.016 A 
ATOM     77  C   UNL A   1      37.422  34.078  31.318  1.00  0.00     0.054 A 
ATOM     78  C   UNL A   1      40.068  34.372  30.359  1.00  0.00     0.001 A 
ATOM     79  C   UNL A   1      37.701  34.112  29.942  1.00  0.00     0.027 A 
ATOM     80  C   UNL A   1      39.006  34.266  29.466  1.00  0.00     0.002 A 
BRANCH  77  81
ATOM     81  N   UNL A   1      36.100  33.994  31.784  1.00  0.00    -0.323 N 
ATOM     82  H   UNL A   1      35.994  33.546  32.654  1.00  0.00     0.170 HD
BRANCH  81  83
ATOM     83  C   UNL A   1      34.919  34.447  31.208  1.00  0.00     0.233 A 
ATOM     84  N   UNL A   1      34.013  35.050  31.959  1.00  0.00    -0.182 NA
ATOM     85  N   UNL A   1      34.783  34.236  29.903  1.00  0.00    -0.176 NA
ATOM     86  C   UNL A   1      32.950  35.453  31.287  1.00  0.00     0.228 A 
ATOM     87  C   UNL A   1      33.632  34.615  29.354  1.00  0.00     0.233 A 
ATOM     88  Cl  UNL A   1      31.741  36.242  32.200  1.00  0.00    -0.041 Cl
ATOM     89  N   UNL A   1      32.683  35.261  30.009  1.00  0.00    -0.182 NA
BRANCH  87  90
ATOM     90  N   UNL A   1      33.408  34.165  28.055  1.00  0.00    -0.324 N 
ATOM     91  H   UNL A   1      33.566  34.825  27.341  1.00  0.00     0.170 HD
BRANCH  90  92
ATOM     92  C   UNL A   1      32.991  32.902  27.631  1.00  0.00     0.041 A 
ATOM     93  C   UNL A   1      31.762  32.762  26.979  1.00  0.00     0.028 A 
ATOM     94  C   UNL A   1      33.815  31.781  27.746  1.00  0.00     0.028 A 
ATOM     95  C   UNL A   1      31.375  31.531  26.433  1.00  0.00     0.028 A 
ATOM     96  C   UNL A   1      33.405  30.538  27.256  1.00  0.00     0.028 A 
ATOM     97  C   UNL A   1      32.192  30.404  26.574  1.00  0.00     0.044 A 
BRANCH  97  98
ATOM     98  N   UNL A   1      31.820  29.158  25.988  1.00  0.00    -0.308 N 
ATOM     99  C   UNL A   1      32.128  28.980  24.564  1.00  0.00     0.154 C 
ATOM    100  C   UNL A   1      31.496  28.056  26.788  1.00  0.00     0.253 C 
ATOM    101  C   UNL A   1      31.463  27.753  23.953  1.00  0.00     0.183 C 
ATOM    102  C   UNL A   1      31.249  26.738  26.034  1.00  0.00     0.260 C 
ATOM    103  O   UNL A   1      31.303  28.105  28.003  1.00  0.00    -0.272 OA
ATOM    104  O   UNL A   1      31.787  26.603  24.728  1.00  0.00    -0.370 OA
ENDBRANCH  97  98
ENDBRANCH  90  92
ENDBRANCH  87  90
ENDBRANCH  81  83
ENDBRANCH  77  81
ENDBRANCH  72  75
ENDBRANCH  70  71
ENDBRANCH   1  70
TORSDOF 19
ENDMDL
MODEL 2
REMARK VINA RESULT:     -11.1      0.556      7.689
REMARK SMILES O=C(NCCCCNC(=O)c1ccccc1Nc1nc(Cl)nc(Nc2ccc(N3CCOCC3=O)cc2)n1)c1ccc(-c2c3nc(c(-c4ccc(S(=O)(=O)[O-])cc4)c4ccc([nH]4)c(-c4ccc(S(=O)(=O)[O-])cc4)c4nc(c(-c5ccc(S(=O)(=O)[O-])cc5)c5ccc2[nH]5)C=C4)C=C3)cc1
REMARK SMILES IDX 6 1 5 2 4 3 3 4 1 5 2 6 39 8 40 9 98 10 41 11 97 12 42 13
REMARK SMILES IDX 43 14 44 15 91 16 45 17 96 18 90 19 92 20 46 21 95 22 89 23
REMARK SMILES IDX 88 24 47 26 77 27 58 28 76 29 59 30 62 31 75 32 93 33 60 34
REMARK SMILES IDX 61 35 74 37 94 38 63 39 48 40 49 41 57 42 50 43 56 44 51 45
REMARK SMILES IDX 52 46 53 47 54 48 55 49 78 50 79 51 87 52 80 53 86 54 81 55
REMARK SMILES IDX 82 56 83 57 84 58 85 59 64 60 65 61 73 62 66 63 72 64 67 65
REMARK SMILES IDX 68 66 69 67 70 68 71 69 7 70 8 71 9 72 10 74 11 75 12 76
REMARK SMILES IDX 16 77 13 78 15 79 14 80 17 81 18 83 19 84 38 85 20 86 23 87
REMARK SMILES IDX 21 88 22 89 24 90 25 92 26 93 37 94 27 95 36 96 28 97 29 98
REMARK SMILES IDX 30 99 34 100 31 101 33 102 35 103 32 104
REMARK H PARENT 3 7 92 25 62 36 8 73 17 82 24 91
REMARK Flexibility Score: inf
ROOT
ATOM      1  C   UNL A   1      38.084  30.456  34.097  1.00  0.00     0.023 C 
ENDROOT
BRANCH   1   2
ATOM      2  C   UNL A   1      37.274  30.337  32.806  1.00  0.00     0.023 C 
BRANCH   2   3
ATOM      3  C   UNL A   1      37.879  29.447  31.728  1.00  0.00     0.116 C 
BRANCH   3   4
ATOM      4  N   UNL A   1      37.026  29.318  30.556  1.00  0.00    -0.352 N 
ATOM      5  O   UNL A   1      36.500  29.255  28.367  1.00  0.00    -0.269 OA
ATOM      6  C   UNL A   1      37.371  29.198  29.231  1.00  0.00     0.251 C 
ATOM      7  H   UNL A   1      36.059  29.318  30.740  1.00  0.00     0.163 HD
BRANCH   6   8
ATOM      8  C   UNL A   1      38.789  29.028  28.844  1.00  0.00     0.039 A 
ATOM      9  C   UNL A   1      39.726  28.528  29.752  1.00  0.00     0.014 A 
ATOM     10  C   UNL A   1      39.185  29.365  27.546  1.00  0.00     0.014 A 
ATOM     11  C   UNL A   1      41.075  28.505  29.413  1.00  0.00     0.010 A 
ATOM     12  C   UNL A   1      40.531  29.262  27.180  1.00  0.00     0.010 A 
ATOM     13  C   UNL A   1      41.492  28.863  28.121  1.00  0.00    -0.014 A 
BRANCH  13  14
ATOM     14  C   UNL A   1      42.927  28.749  27.754  1.00  0.00     0.031 A 
ATOM     15  C   UNL A   1      43.483  27.485  27.158  1.00  0.00     0.074 A 
ATOM     16  C   UNL A   1      43.735  29.807  27.964  1.00  0.00     0.049 A 
ATOM     17  N   UNL A   1      44.711  27.224  26.785  1.00  0.00    -0.248 NA
ATOM     18  C   UNL A   1      42.546  26.368  26.962  1.00  0.00     0.031 C 
ATOM     19  C   UNL A   1      43.315  31.082  28.552  1.00  0.00     0.029 A 
ATOM     20  N   UNL A   1      45.070  29.984  27.707  1.00  0.00    -0.354 N 
ATOM     21  C   UNL A   1      44.702  25.909  26.334  1.00  0.00     0.074 A 
ATOM     22  C   UNL A   1      43.349  25.419  26.498  1.00  0.00     0.031 C 
ATOM     23  C   UNL A   1      44.363  31.916  28.587  1.00  0.00     0.029 A 
ATOM     24  C   UNL A   1      45.541  31.219  28.080  1.00  0.00     0.049 A 
ATOM     25  H   UNL A   1      45.637  29.292  27.295  1.00  0.00     0.167 HD
ATOM     26  C   UNL A   1      45.726  25.177  25.829  1.00  0.00     0.031 A 
ATOM     27  C   UNL A   1      46.784  31.734  28.047  1.00  0.00     0.031 A 
ATOM     28  C   UNL A   1      47.071  25.669  25.673  1.00  0.00     0.049 A 
ATOM     29  C   UNL A   1      47.905  30.902  27.500  1.00  0.00     0.074 A 
ATOM     30  C   UNL A   1      48.167  25.021  25.130  1.00  0.00     0.029 A 
ATOM     31  N   UNL A   1      47.509  26.924  26.073  1.00  0.00    -0.354 N 
ATOM     32  N   UNL A   1      47.864  29.678  27.028  1.00  0.00    -0.248 NA
ATOM     33  C   UNL A   1      49.238  31.517  27.477  1.00  0.00     0.031 C 
ATOM     34  C   UNL A   1      49.279  25.864  25.250  1.00  0.00     0.029 A 
ATOM     35  C   UNL A   1      48.864  27.059  25.817  1.00  0.00     0.049 A 
ATOM     36  H   UNL A   1      46.940  27.618  26.479  1.00  0.00     0.167 HD
ATOM     37  C   UNL A   1      49.165  29.380  26.642  1.00  0.00     0.074 A 
ATOM     38  C   UNL A   1      49.964  30.557  26.918  1.00  0.00     0.031 C 
ATOM     39  C   UNL A   1      49.650  28.232  26.108  1.00  0.00     0.031 A 
BRANCH  26  40
ATOM     40  C   UNL A   1      45.438  23.749  25.444  1.00  0.00    -0.014 A 
ATOM     41  C   UNL A   1      45.574  22.700  26.371  1.00  0.00     0.010 A 
ATOM     42  C   UNL A   1      44.999  23.456  24.140  1.00  0.00     0.010 A 
ATOM     43  C   UNL A   1      45.329  21.378  25.984  1.00  0.00     0.020 A 
ATOM     44  C   UNL A   1      44.728  22.139  23.757  1.00  0.00     0.020 A 
ATOM     45  C   UNL A   1      44.917  21.105  24.676  1.00  0.00     0.054 A 
BRANCH  45  46
ATOM     46  S   UNL A   1      44.617  19.382  24.196  1.00  0.00     0.124 S 
ATOM     47  O   UNL A   1      45.736  18.693  24.836  1.00  0.00    -0.237 OA
ATOM     48  O   UNL A   1      43.303  19.110  24.773  1.00  0.00    -0.237 OA
ATOM     49  O   UNL A   1      44.658  19.415  22.736  1.00  0.00    -0.744 OA
ENDBRANCH  45  46
ENDBRANCH  26  40
BRANCH  27  50
ATOM     50  C   UNL A   1      47.013  33.104  28.575  1.00  0.00    -0.014 A 
ATOM     51  C   UNL A   1      46.900  34.226  27.737  1.00  0.00     0.010 A 
ATOM     52  C   UNL A   1      47.271  33.294  29.945  1.00  0.00     0.010 A 
ATOM     53  C   UNL A   1      47.038  35.514  28.262  1.00  0.00     0.020 A 
ATOM     54  C   UNL A   1      47.384  34.580  30.479  1.00  0.00     0.020 A 
ATOM     55  C   UNL A   1      47.271  35.683  29.631  1.00  0.00     0.054 A 
BRANCH  55  56
ATOM     56  S   UNL A   1      47.356  37.365  30.306  1.00  0.00     0.124 S 
ATOM     57  O   UNL A   1      48.747  37.723  30.054  1.00  0.00    -0.237 OA
ATOM     58  O   UNL A   1      46.363  38.078  29.505  1.00  0.00    -0.237 OA
ATOM     59  O   UNL A   1      46.999  37.187  31.712  1.00  0.00    -0.744 OA
ENDBRANCH  55  56
ENDBRANCH  27  50
BRANCH  39  60
ATOM     60  C   UNL A   1      51.116  28.196  25.770  1.00  0.00    -0.014 A 
ATOM     61  C   UNL A   1      51.579  28.589  24.502  1.00  0.00     0.010 A 
ATOM     62  C   UNL A   1      52.047  27.821  26.756  1.00  0.00     0.010 A 
ATOM     63  C   UNL A   1      52.947  28.586  24.218  1.00  0.00     0.020 A 
ATOM     64  C   UNL A   1      53.417  27.840  26.483  1.00  0.00     0.020 A 
ATOM     65  C   UNL A   1      53.858  28.211  25.211  1.00  0.00     0.054 A 
BRANCH  65  66
ATOM     66  S   UNL A   1      55.632  28.267  24.836  1.00  0.00     0.124 S 
ATOM     67  O   UNL A   1      55.773  29.590  24.236  1.00  0.00    -0.237 OA
ATOM     68  O   UNL A   1      56.244  28.104  26.153  1.00  0.00    -0.237 OA
ATOM     69  O   UNL A   1      55.828  27.144  23.923  1.00  0.00    -0.744 OA
ENDBRANCH  65  66
ENDBRANCH  39  60
ENDBRANCH  13  14
ENDBRANCH   6   8
ENDBRANCH   3   4
ENDBRANCH   2   3
ENDBRANCH   1   2
BRANCH   1  70
ATOM     70  C   UNL A   1      39.063  31.625  34.158  1.00  0.00     0.116 C 
BRANCH  70  71
ATOM     71  N   UNL A   1      38.441  32.876  34.562  1.00  0.00    -0.352 N 
ATOM     72  C   UNL A   1      38.147  33.976  33.795  1.00  0.00     0.253 C 
ATOM     73  H   UNL A   1      38.199  32.944  35.514  1.00  0.00     0.163 HD
ATOM     74  O   UNL A   1      37.623  34.966  34.296  1.00  0.00    -0.269 OA
BRANCH  72  75
ATOM     75  C   UNL A   1      38.493  33.992  32.360  1.00  0.00     0.063 A 
ATOM     76  C   UNL A   1      39.826  34.288  32.042  1.00  0.00     0.016 A 
ATOM     77  C   UNL A   1      37.545  33.730  31.352  1.00  0.00     0.054 A 
ATOM     78  C   UNL A   1      40.249  34.268  30.716  1.00  0.00     0.001 A 
ATOM     79  C   UNL A   1      38.011  33.666  30.029  1.00  0.00     0.027 A 
ATOM     80  C   UNL A   1      39.344  33.940  29.711  1.00  0.00     0.002 A 
BRANCH  77  81
ATOM     81  N   UNL A   1      36.188  33.523  31.651  1.00  0.00    -0.323 N 
ATOM     82  H   UNL A   1      36.016  32.876  32.373  1.00  0.00     0.170 HD
BRANCH  81  83
ATOM     83  C   UNL A   1      35.052  34.089  31.085  1.00  0.00     0.233 A 
ATOM     84  N   UNL A   1      34.224  34.791  31.841  1.00  0.00    -0.182 NA
ATOM     85  N   UNL A   1      34.876  33.879  29.785  1.00  0.00    -0.176 NA
ATOM     86  C   UNL A   1      33.199  35.294  31.178  1.00  0.00     0.228 A 
ATOM     87  C   UNL A   1      33.763  34.369  29.246  1.00  0.00     0.233 A 
ATOM     88  Cl  UNL A   1      32.091  36.214  32.097  1.00  0.00    -0.041 Cl
ATOM     89  N   UNL A   1      32.895  35.117  29.906  1.00  0.00    -0.182 NA
BRANCH  87  90
ATOM     90  N   UNL A   1      33.475  33.931  27.956  1.00  0.00    -0.324 N 
ATOM     91  H   UNL A   1      33.638  34.584  27.237  1.00  0.00     0.170 HD
BRANCH  90  92
ATOM     92  C   UNL A   1      32.988  32.688  27.547  1.00  0.00     0.041 A 
ATOM     93  C   UNL A   1      31.751  32.608  26.900  1.00  0.00     0.028 A 
ATOM     94  C   UNL A   1      33.750  31.525  27.673  1.00  0.00     0.028 A 
ATOM     95  C   UNL A   1      31.296  31.394  26.369  1.00  0.00     0.028 A 
ATOM     96  C   UNL A   1      33.271  30.301  27.197  1.00  0.00     0.028 A 
ATOM     97  C   UNL A   1      32.050  30.226  26.520  1.00  0.00     0.044 A 
BRANCH  97  98
ATOM     98  N   UNL A   1      31.609  28.996  25.949  1.00  0.00    -0.308 N 
ATOM     99  C   UNL A   1      31.707  28.872  24.490  1.00  0.00     0.154 C 
ATOM    100  C   UNL A   1      31.417  27.862  26.746  1.00  0.00     0.253 C 
ATOM    101  C   UNL A   1      30.972  27.657  23.938  1.00  0.00     0.183 C 
ATOM    102  C   UNL A   1      31.075  26.567  25.989  1.00  0.00     0.260 C 
ATOM    103  O   UNL A   1      31.404  27.865  27.978  1.00  0.00    -0.272 OA
ATOM    104  O   UNL A   1      31.417  26.486  24.614  1.00  0.00    -0.370 OA
ENDBRANCH  97  98
ENDBRANCH  90  92
ENDBRANCH  87  90
ENDBRANCH  81  83
ENDBRANCH  77  81
ENDBRANCH  72  75
ENDBRANCH  70  71
ENDBRANCH   1  70
TORSDOF 19
ENDMDL
MODEL 3
REMARK VINA RESULT:     -10.7      5.904      9.843
REMARK SMILES O=C(NCCCCNC(=O)c1ccccc1Nc1nc(Cl)nc(Nc2ccc(N3CCOCC3=O)cc2)n1)c1ccc(-c2c3nc(c(-c4ccc(S(=O)(=O)[O-])cc4)c4ccc([nH]4)c(-c4ccc(S(=O)(=O)[O-])cc4)c4nc(c(-c5ccc(S(=O)(=O)[O-])cc5)c5ccc2[nH]5)C=C4)C=C3)cc1
REMARK SMILES IDX 6 1 5 2 4 3 3 4 1 5 2 6 39 8 40 9 98 10 41 11 97 12 42 13
REMARK SMILES IDX 43 14 44 15 91 16 45 17 96 18 90 19 92 20 46 21 95 22 89 23
REMARK SMILES IDX 88 24 47 26 77 27 58 28 76 29 59 30 62 31 75 32 93 33 60 34
REMARK SMILES IDX 61 35 74 37 94 38 63 39 48 40 49 41 57 42 50 43 56 44 51 45
REMARK SMILES IDX 52 46 53 47 54 48 55 49 78 50 79 51 87 52 80 53 86 54 81 55
REMARK SMILES IDX 82 56 83 57 84 58 85 59 64 60 65 61 73 62 66 63 72 64 67 65
REMARK SMILES IDX 68 66 69 67 70 68 71 69 7 70 8 71 9 72 10 74 11 75 12 76
REMARK SMILES IDX 16 77 13 78 15 79 14 80 17 81 18 83 19 84 38 85 20 86 23 87
REMARK SMILES IDX 21 88 22 89 24 90 25 92 26 93 37 94 27 95 36 96 28 97 29 98
REMARK SMILES IDX 30 99 34 100 31 101 33 102 35 103 32 104
REMARK H PARENT 3 7 92 25 62 36 8 73 17 82 24 91
REMARK Flexibility Score: inf
ROOT
ATOM      1  C   UNL A   1      35.861  29.398  27.566  1.00  0.00     0.023 C 
ENDROOT
BRANCH   1   2
ATOM      2  C   UNL A   1      34.798  30.415  27.981  1.00  0.00     0.023 C 
BRANCH   2   3
ATOM      3  C   UNL A   1      35.148  31.875  27.723  1.00  0.00     0.116 C 
BRANCH   3   4
ATOM      4  N   UNL A   1      34.368  32.796  28.536  1.00  0.00    -0.352 N 
ATOM      5  O   UNL A   1      33.750  33.919  30.388  1.00  0.00    -0.269 OA
ATOM      6  C   UNL A   1      34.610  33.262  29.807  1.00  0.00     0.251 C 
ATOM      7  H   UNL A   1      33.546  33.135  28.114  1.00  0.00     0.163 HD
BRANCH   6   8
ATOM      8  C   UNL A   1      35.888  32.951  30.483  1.00  0.00     0.039 A 
ATOM      9  C   UNL A   1      36.010  31.831  31.309  1.00  0.00     0.014 A 
ATOM     10  C   UNL A   1      36.987  33.791  30.278  1.00  0.00     0.014 A 
ATOM     11  C   UNL A   1      37.176  31.633  32.041  1.00  0.00     0.010 A 
ATOM     12  C   UNL A   1      38.187  33.543  30.952  1.00  0.00     0.010 A 
ATOM     13  C   UNL A   1      38.282  32.481  31.864  1.00  0.00    -0.014 A 
BRANCH  13  14
ATOM     14  C   UNL A   1      39.546  32.201  32.593  1.00  0.00     0.031 A 
ATOM     15  C   UNL A   1      39.848  32.857  33.912  1.00  0.00     0.074 A 
ATOM     16  C   UNL A   1      40.429  31.340  32.050  1.00  0.00     0.049 A 
ATOM     17  N   UNL A   1      40.905  32.721  34.673  1.00  0.00    -0.248 NA
ATOM     18  C   UNL A   1      38.842  33.789  34.443  1.00  0.00     0.031 C 
ATOM     19  C   UNL A   1      40.254  30.655  30.766  1.00  0.00     0.029 A 
ATOM     20  N   UNL A   1      41.642  30.892  32.504  1.00  0.00    -0.354 N 
ATOM     21  C   UNL A   1      40.706  33.566  35.759  1.00  0.00     0.074 A 
ATOM     22  C   UNL A   1      39.434  34.226  35.547  1.00  0.00     0.031 C 
ATOM     23  C   UNL A   1      41.308  29.855  30.549  1.00  0.00     0.029 A 
ATOM     24  C   UNL A   1      42.257  30.013  31.646  1.00  0.00     0.049 A 
ATOM     25  H   UNL A   1      42.035  31.172  33.362  1.00  0.00     0.167 HD
ATOM     26  C   UNL A   1      41.507  33.773  36.832  1.00  0.00     0.031 A 
ATOM     27  C   UNL A   1      43.462  29.417  31.711  1.00  0.00     0.031 A 
ATOM     28  C   UNL A   1      42.775  33.117  37.033  1.00  0.00     0.049 A 
ATOM     29  C   UNL A   1      44.341  29.673  32.899  1.00  0.00     0.074 A 
ATOM     30  C   UNL A   1      43.638  33.225  38.110  1.00  0.00     0.029 A 
ATOM     31  N   UNL A   1      43.367  32.241  36.135  1.00  0.00    -0.354 N 
ATOM     32  N   UNL A   1      44.109  30.435  33.941  1.00  0.00    -0.248 NA
ATOM     33  C   UNL A   1      45.639  28.989  32.923  1.00  0.00     0.031 C 
ATOM     34  C   UNL A   1      44.777  32.457  37.837  1.00  0.00     0.029 A 
ATOM     35  C   UNL A   1      44.597  31.826  36.617  1.00  0.00     0.049 A 
ATOM     36  H   UNL A   1      42.971  31.957  35.279  1.00  0.00     0.167 HD
ATOM     37  C   UNL A   1      45.230  30.314  34.753  1.00  0.00     0.074 A 
ATOM     38  C   UNL A   1      46.129  29.392  34.089  1.00  0.00     0.031 C 
ATOM     39  C   UNL A   1      45.489  30.916  35.940  1.00  0.00     0.031 A 
BRANCH  26  40
ATOM     40  C   UNL A   1      41.054  34.783  37.855  1.00  0.00    -0.014 A 
ATOM     41  C   UNL A   1      41.403  36.141  37.747  1.00  0.00     0.010 A 
ATOM     42  C   UNL A   1      40.244  34.369  38.929  1.00  0.00     0.010 A 
ATOM     43  C   UNL A   1      40.995  37.056  38.724  1.00  0.00     0.020 A 
ATOM     44  C   UNL A   1      39.813  35.285  39.893  1.00  0.00     0.020 A 
ATOM     45  C   UNL A   1      40.212  36.620  39.796  1.00  0.00     0.054 A 
BRANCH  45  46
ATOM     46  S   UNL A   1      39.706  37.823  41.056  1.00  0.00     0.124 S 
ATOM     47  O   UNL A   1      39.337  36.954  42.171  1.00  0.00    -0.237 OA
ATOM     48  O   UNL A   1      40.919  38.614  41.253  1.00  0.00    -0.237 OA
ATOM     49  O   UNL A   1      38.596  38.537  40.429  1.00  0.00    -0.744 OA
ENDBRANCH  45  46
ENDBRANCH  26  40
BRANCH  27  50
ATOM     50  C   UNL A   1      43.897  28.541  30.592  1.00  0.00    -0.014 A 
ATOM     51  C   UNL A   1      43.636  27.161  30.615  1.00  0.00     0.010 A 
ATOM     52  C   UNL A   1      44.510  29.105  29.457  1.00  0.00     0.010 A 
ATOM     53  C   UNL A   1      43.978  26.361  29.521  1.00  0.00     0.020 A 
ATOM     54  C   UNL A   1      44.828  28.313  28.351  1.00  0.00     0.020 A 
ATOM     55  C   UNL A   1      44.564  26.943  28.393  1.00  0.00     0.054 A 
BRANCH  55  56
ATOM     56  S   UNL A   1      44.915  25.901  26.950  1.00  0.00     0.124 S 
ATOM     57  O   UNL A   1      44.764  26.846  25.849  1.00  0.00    -0.237 OA
ATOM     58  O   UNL A   1      46.279  25.447  27.212  1.00  0.00    -0.237 OA
ATOM     59  O   UNL A   1      43.894  24.858  27.026  1.00  0.00    -0.744 OA
ENDBRANCH  55  56
ENDBRANCH  27  50
BRANCH  39  60
ATOM     60  C   UNL A   1      46.794  30.584  36.610  1.00  0.00    -0.014 A 
ATOM     61  C   UNL A   1      46.905  29.483  37.478  1.00  0.00     0.010 A 
ATOM     62  C   UNL A   1      47.939  31.348  36.319  1.00  0.00     0.010 A 
ATOM     63  C   UNL A   1      48.134  29.167  38.063  1.00  0.00     0.020 A 
ATOM     64  C   UNL A   1      49.174  31.020  36.883  1.00  0.00     0.020 A 
ATOM     65  C   UNL A   1      49.261  29.938  37.761  1.00  0.00     0.054 A 
BRANCH  65  66
ATOM     66  S   UNL A   1      50.857  29.474  38.488  1.00  0.00     0.124 S 
ATOM     67  O   UNL A   1      50.447  28.784  39.707  1.00  0.00    -0.237 OA
ATOM     68  O   UNL A   1      51.449  28.628  37.453  1.00  0.00    -0.237 OA
ATOM     69  O   UNL A   1      51.529  30.756  38.693  1.00  0.00    -0.744 OA
ENDBRANCH  65  66
ENDBRANCH  39  60
ENDBRANCH  13  14
ENDBRANCH   6   8
ENDBRANCH   3   4
ENDBRANCH   2   3
ENDBRANCH   1   2
BRANCH   1  70
ATOM     70  C   UNL A   1      37.270  29.663  28.089  1.00  0.00     0.116 C 
BRANCH  70  71
ATOM     71  N   UNL A   1      37.674  28.746  29.144  1.00  0.00    -0.352 N 
ATOM     72  C   UNL A   1      38.735  27.876  29.165  1.00  0.00     0.253 C 
ATOM     73  H   UNL A   1      37.110  28.751  29.951  1.00  0.00     0.163 HD
ATOM     74  O   UNL A   1      38.935  27.157  30.139  1.00  0.00    -0.269 OA
BRANCH  72  75
ATOM     75  C   UNL A   1      39.628  27.768  27.994  1.00  0.00     0.063 A 
ATOM     76  C   UNL A   1      40.078  28.975  27.439  1.00  0.00     0.016 A 
ATOM     77  C   UNL A   1      40.014  26.528  27.452  1.00  0.00     0.054 A 
ATOM     78  C   UNL A   1      40.969  28.962  26.369  1.00  0.00     0.001 A 
ATOM     79  C   UNL A   1      40.954  26.544  26.408  1.00  0.00     0.027 A 
ATOM     80  C   UNL A   1      41.419  27.745  25.865  1.00  0.00     0.002 A 
BRANCH  77  81
ATOM     81  N   UNL A   1      39.500  25.316  27.941  1.00  0.00    -0.323 N 
ATOM     82  H   UNL A   1      38.960  25.394  28.760  1.00  0.00     0.170 HD
BRANCH  81  83
ATOM     83  C   UNL A   1      39.636  24.024  27.447  1.00  0.00     0.233 A 
ATOM     84  N   UNL A   1      40.668  23.285  27.821  1.00  0.00    -0.182 NA
ATOM     85  N   UNL A   1      38.690  23.611  26.611  1.00  0.00    -0.176 NA
ATOM     86  C   UNL A   1      40.667  22.072  27.301  1.00  0.00     0.228 A 
ATOM     87  C   UNL A   1      38.842  22.396  26.090  1.00  0.00     0.233 A 
ATOM     88  Cl  UNL A   1      41.973  21.064  27.746  1.00  0.00    -0.041 Cl
ATOM     89  N   UNL A   1      39.813  21.567  26.430  1.00  0.00    -0.182 NA
BRANCH  87  90
ATOM     90  N   UNL A   1      37.985  22.082  25.037  1.00  0.00    -0.324 N 
ATOM     91  H   UNL A   1      38.232  21.289  24.509  1.00  0.00     0.170 HD
BRANCH  90  92
ATOM     92  C   UNL A   1      36.824  22.743  24.634  1.00  0.00     0.041 A 
ATOM     93  C   UNL A   1      36.488  22.787  23.277  1.00  0.00     0.028 A 
ATOM     94  C   UNL A   1      35.925  23.277  25.559  1.00  0.00     0.028 A 
ATOM     95  C   UNL A   1      35.268  23.332  22.857  1.00  0.00     0.028 A 
ATOM     96  C   UNL A   1      34.734  23.876  25.138  1.00  0.00     0.028 A 
ATOM     97  C   UNL A   1      34.382  23.890  23.785  1.00  0.00     0.044 A 
BRANCH  97  98
ATOM     98  N   UNL A   1      33.123  24.412  23.367  1.00  0.00    -0.308 N 
ATOM     99  C   UNL A   1      31.939  23.952  24.102  1.00  0.00     0.154 C 
ATOM    100  C   UNL A   1      33.051  25.540  22.540  1.00  0.00     0.253 C 
ATOM    101  C   UNL A   1      30.627  24.334  23.429  1.00  0.00     0.183 C 
ATOM    102  C   UNL A   1      31.636  26.082  22.276  1.00  0.00     0.260 C 
ATOM    103  O   UNL A   1      34.012  26.039  21.952  1.00  0.00    -0.272 OA
ATOM    104  O   UNL A   1      30.606  25.737  23.190  1.00  0.00    -0.370 OA
ENDBRANCH  97  98
ENDBRANCH  90  92
ENDBRANCH  87  90
ENDBRANCH  81  83
ENDBRANCH  77  81
ENDBRANCH  72  75
ENDBRANCH  70  71
ENDBRANCH   1  70
TORSDOF 19
ENDMDL
