MODEL 1
REMARK VINA RESULT:     -10.5      0.000      0.000
REMARK SMILES Cc1nc(CN(CC(=O)NCCCCNC(=O)c2ccc(-c3c4nc(c(-c5ccc(S(=O)(=O)[O-])cc5)c5ccc([nH]5)c(-c5ccc(S(=O)(=O)[O-])cc5)c5nc(c(-c6ccc(S(=O)(=O)[O-])cc6)c6ccc3[nH]6)C=C5)C=C4)cc2)c2cccc(Cl)c2)sc1C
REMARK SMILES IDX 12 1 11 2 10 3 8 4 9 5 7 7 6 8 5 9 4 10 1 11 2 12 3 13 86 14
REMARK SMILES IDX 85 15 87 16 78 17 79 18 84 19 80 20 82 21 81 22 83 23 13 24
REMARK SMILES IDX 14 25 15 26 16 27 17 29 18 30 19 31 77 32 20 33 76 34 21 35
REMARK SMILES IDX 22 36 23 37 70 38 24 39 75 40 69 41 71 42 25 43 74 44 68 45
REMARK SMILES IDX 67 46 26 48 56 49 37 50 55 51 38 52 41 53 54 54 72 55 39 56
REMARK SMILES IDX 40 57 53 59 73 60 42 61 27 62 28 63 36 64 29 65 35 66 30 67
REMARK SMILES IDX 31 68 32 69 33 70 34 71 57 72 58 73 66 74 59 75 65 76 60 77
REMARK SMILES IDX 61 78 62 79 63 80 64 81 43 82 44 83 52 84 45 85 51 86 46 87
REMARK SMILES IDX 47 88 48 89 49 90 50 91
REMARK H PARENT 10 6 15 28 71 47 41 58
REMARK Flexibility Score: inf
ROOT
ATOM      1  C   UNL A   1      33.768  26.497  25.625  1.00  0.00     0.023 C 
ENDROOT
BRANCH   1   2
ATOM      2  C   UNL A   1      33.070  25.266  26.202  1.00  0.00     0.116 C 
BRANCH   2   3
ATOM      3  N   UNL A   1      31.714  25.537  26.620  1.00  0.00    -0.355 N 
ATOM      4  C   UNL A   1      30.540  25.257  25.977  1.00  0.00     0.239 C 
ATOM      5  O   UNL A   1      29.492  25.520  26.575  1.00  0.00    -0.273 OA
ATOM      6  H   UNL A   1      31.622  25.986  27.491  1.00  0.00     0.163 HD
BRANCH   4   7
ATOM      7  C   UNL A   1      30.518  24.596  24.589  1.00  0.00     0.217 C 
BRANCH   7   8
ATOM      8  N   UNL A   1      31.067  25.413  23.484  1.00  0.00    -0.355 N 
BRANCH   8   9
ATOM      9  C   UNL A   1      31.893  24.712  22.470  1.00  0.00     0.184 C 
BRANCH   9  10
ATOM     10  C   UNL A   1      32.997  23.780  22.906  1.00  0.00     0.112 A 
ATOM     11  C   UNL A   1      36.436  23.282  23.808  1.00  0.00     0.068 C 
ATOM     12  C   UNL A   1      34.982  23.073  23.591  1.00  0.00     0.051 A 
ATOM     13  N   UNL A   1      34.283  24.064  22.917  1.00  0.00    -0.244 NA
ATOM     14  C   UNL A   1      34.206  22.013  24.034  1.00  0.00     0.025 A 
ATOM     15  S   UNL A   1      32.589  22.220  23.512  1.00  0.00    -0.122 S 
ATOM     16  C   UNL A   1      34.587  20.837  24.859  1.00  0.00     0.058 C 
ENDBRANCH   9  10
ENDBRANCH   8   9
BRANCH   8  17
ATOM     17  C   UNL A   1      30.604  26.713  23.298  1.00  0.00     0.039 A 
ATOM     18  C   UNL A   1      31.481  27.784  23.058  1.00  0.00     0.026 A 
ATOM     19  C   UNL A   1      29.243  27.048  23.351  1.00  0.00     0.046 A 
ATOM     20  C   UNL A   1      31.032  29.100  22.872  1.00  0.00     0.004 A 
ATOM     21  C   UNL A   1      28.784  28.356  23.160  1.00  0.00     0.043 A 
ATOM     22  C   UNL A   1      29.675  29.389  22.919  1.00  0.00     0.020 A 
ATOM     23  Cl  UNL A   1      27.093  28.683  23.243  1.00  0.00    -0.084 Cl
ENDBRANCH   8  17
ENDBRANCH   7   8
ENDBRANCH   4   7
ENDBRANCH   2   3
ENDBRANCH   1   2
BRANCH   1  24
ATOM     24  C   UNL A   1      33.468  27.810  26.349  1.00  0.00     0.023 C 
BRANCH  24  25
ATOM     25  C   UNL A   1      34.118  29.054  25.752  1.00  0.00     0.116 C 
BRANCH  25  26
ATOM     26  N   UNL A   1      33.712  30.286  26.409  1.00  0.00    -0.352 N 
ATOM     27  C   UNL A   1      34.284  30.925  27.482  1.00  0.00     0.251 C 
ATOM     28  H   UNL A   1      32.915  30.724  26.031  1.00  0.00     0.163 HD
ATOM     29  O   UNL A   1      33.727  31.903  27.974  1.00  0.00    -0.269 OA
BRANCH  27  30
ATOM     30  C   UNL A   1      35.544  30.413  28.064  1.00  0.00     0.039 A 
ATOM     31  C   UNL A   1      36.755  30.946  27.616  1.00  0.00     0.014 A 
ATOM     32  C   UNL A   1      35.536  29.428  29.056  1.00  0.00     0.014 A 
ATOM     33  C   UNL A   1      37.951  30.541  28.212  1.00  0.00     0.010 A 
ATOM     34  C   UNL A   1      36.723  29.082  29.700  1.00  0.00     0.010 A 
ATOM     35  C   UNL A   1      37.943  29.636  29.287  1.00  0.00    -0.014 A 
BRANCH  35  36
ATOM     36  C   UNL A   1      39.200  29.289  30.000  1.00  0.00     0.031 A 
ATOM     37  C   UNL A   1      39.600  30.026  31.251  1.00  0.00     0.074 A 
ATOM     38  C   UNL A   1      40.007  28.338  29.491  1.00  0.00     0.049 A 
ATOM     39  N   UNL A   1      40.658  29.858  32.001  1.00  0.00    -0.248 NA
ATOM     40  C   UNL A   1      38.708  31.105  31.706  1.00  0.00     0.031 C 
ATOM     41  C   UNL A   1      39.757  27.583  28.259  1.00  0.00     0.029 A 
ATOM     42  N   UNL A   1      41.202  27.837  29.946  1.00  0.00    -0.354 N 
ATOM     43  C   UNL A   1      40.569  30.813  33.007  1.00  0.00     0.074 A 
ATOM     44  C   UNL A   1      39.378  31.590  32.743  1.00  0.00     0.031 C 
ATOM     45  C   UNL A   1      40.743  26.690  28.082  1.00  0.00     0.029 A 
ATOM     46  C   UNL A   1      41.718  26.834  29.157  1.00  0.00     0.049 A 
ATOM     47  H   UNL A   1      41.648  28.164  30.760  1.00  0.00     0.167 HD
ATOM     48  C   UNL A   1      41.392  31.014  34.064  1.00  0.00     0.031 A 
ATOM     49  C   UNL A   1      42.847  26.110  29.284  1.00  0.00     0.031 A 
ATOM     50  C   UNL A   1      42.573  30.233  34.328  1.00  0.00     0.049 A 
ATOM     51  C   UNL A   1      43.750  26.362  30.460  1.00  0.00     0.074 A 
ATOM     52  C   UNL A   1      43.433  30.316  35.408  1.00  0.00     0.029 A 
ATOM     53  N   UNL A   1      43.064  29.234  33.502  1.00  0.00    -0.354 N 
ATOM     54  N   UNL A   1      43.601  27.215  31.447  1.00  0.00    -0.248 NA
ATOM     55  C   UNL A   1      44.969  25.547  30.546  1.00  0.00     0.031 C 
ATOM     56  C   UNL A   1      44.480  29.410  35.204  1.00  0.00     0.029 A 
ATOM     57  C   UNL A   1      44.236  28.716  34.031  1.00  0.00     0.049 A 
ATOM     58  H   UNL A   1      42.643  28.936  32.662  1.00  0.00     0.167 HD
ATOM     59  C   UNL A   1      44.694  27.017  32.284  1.00  0.00     0.074 A 
ATOM     60  C   UNL A   1      45.482  25.952  31.699  1.00  0.00     0.031 C 
ATOM     61  C   UNL A   1      45.015  27.660  33.434  1.00  0.00     0.031 A 
BRANCH  48  62
ATOM     62  C   UNL A   1      41.052  32.133  35.015  1.00  0.00    -0.014 A 
ATOM     63  C   UNL A   1      40.276  31.902  36.166  1.00  0.00     0.010 A 
ATOM     64  C   UNL A   1      41.564  33.424  34.784  1.00  0.00     0.010 A 
ATOM     65  C   UNL A   1      39.987  32.948  37.047  1.00  0.00     0.020 A 
ATOM     66  C   UNL A   1      41.302  34.466  35.680  1.00  0.00     0.020 A 
ATOM     67  C   UNL A   1      40.502  34.224  36.798  1.00  0.00     0.054 A 
BRANCH  67  68
ATOM     68  S   UNL A   1      40.137  35.552  37.977  1.00  0.00     0.124 S 
ATOM     69  O   UNL A   1      38.909  35.069  38.604  1.00  0.00    -0.237 OA
ATOM     70  O   UNL A   1      41.320  35.556  38.833  1.00  0.00    -0.237 OA
ATOM     71  O   UNL A   1      39.979  36.734  37.131  1.00  0.00    -0.744 OA
ENDBRANCH  67  68
ENDBRANCH  48  62
BRANCH  49  72
ATOM     72  C   UNL A   1      43.181  25.063  28.279  1.00  0.00    -0.014 A 
ATOM     73  C   UNL A   1      43.879  25.397  27.105  1.00  0.00     0.010 A 
ATOM     74  C   UNL A   1      42.797  23.726  28.488  1.00  0.00     0.010 A 
ATOM     75  C   UNL A   1      44.167  24.419  26.147  1.00  0.00     0.020 A 
ATOM     76  C   UNL A   1      43.110  22.739  27.548  1.00  0.00     0.020 A 
ATOM     77  C   UNL A   1      43.781  23.095  26.376  1.00  0.00     0.054 A 
BRANCH  77  78
ATOM     78  S   UNL A   1      44.198  21.837  25.139  1.00  0.00     0.124 S 
ATOM     79  O   UNL A   1      45.551  21.458  25.534  1.00  0.00    -0.237 OA
ATOM     80  O   UNL A   1      43.167  20.825  25.357  1.00  0.00    -0.237 OA
ATOM     81  O   UNL A   1      44.095  22.557  23.871  1.00  0.00    -0.744 OA
ENDBRANCH  77  78
ENDBRANCH  49  72
BRANCH  61  82
ATOM     82  C   UNL A   1      46.260  27.208  34.153  1.00  0.00    -0.014 A 
ATOM     83  C   UNL A   1      46.223  26.165  35.095  1.00  0.00     0.010 A 
ATOM     84  C   UNL A   1      47.493  27.817  33.853  1.00  0.00     0.010 A 
ATOM     85  C   UNL A   1      47.389  25.768  35.756  1.00  0.00     0.020 A 
ATOM     86  C   UNL A   1      48.666  27.401  34.489  1.00  0.00     0.020 A 
ATOM     87  C   UNL A   1      48.602  26.391  35.450  1.00  0.00     0.054 A 
BRANCH  87  88
ATOM     88  S   UNL A   1      50.105  25.840  36.304  1.00  0.00     0.124 S 
ATOM     89  O   UNL A   1      49.669  25.811  37.697  1.00  0.00    -0.237 OA
ATOM     90  O   UNL A   1      50.359  24.536  35.697  1.00  0.00    -0.237 OA
ATOM     91  O   UNL A   1      51.087  26.873  35.979  1.00  0.00    -0.744 OA
ENDBRANCH  87  88
ENDBRANCH  61  82
ENDBRANCH  35  36
ENDBRANCH  27  30
ENDBRANCH  25  26
ENDBRANCH  24  25
ENDBRANCH   1  24
TORSDOF 18
ENDMDL
MODEL 2
REMARK VINA RESULT:     -10.3      2.853      9.357
REMARK SMILES Cc1nc(CN(CC(=O)NCCCCNC(=O)c2ccc(-c3c4nc(c(-c5ccc(S(=O)(=O)[O-])cc5)c5ccc([nH]5)c(-c5ccc(S(=O)(=O)[O-])cc5)c5nc(c(-c6ccc(S(=O)(=O)[O-])cc6)c6ccc3[nH]6)C=C5)C=C4)cc2)c2cccc(Cl)c2)sc1C
REMARK SMILES IDX 12 1 11 2 10 3 8 4 9 5 7 7 6 8 5 9 4 10 1 11 2 12 3 13 86 14
REMARK SMILES IDX 85 15 87 16 78 17 79 18 84 19 80 20 82 21 81 22 83 23 13 24
REMARK SMILES IDX 14 25 15 26 16 27 17 29 18 30 19 31 77 32 20 33 76 34 21 35
REMARK SMILES IDX 22 36 23 37 70 38 24 39 75 40 69 41 71 42 25 43 74 44 68 45
REMARK SMILES IDX 67 46 26 48 56 49 37 50 55 51 38 52 41 53 54 54 72 55 39 56
REMARK SMILES IDX 40 57 53 59 73 60 42 61 27 62 28 63 36 64 29 65 35 66 30 67
REMARK SMILES IDX 31 68 32 69 33 70 34 71 57 72 58 73 66 74 59 75 65 76 60 77
REMARK SMILES IDX 61 78 62 79 63 80 64 81 43 82 44 83 52 84 45 85 51 86 46 87
REMARK SMILES IDX 47 88 48 89 49 90 50 91
REMARK H PARENT 10 6 15 28 71 47 41 58
REMARK Flexibility Score: inf
ROOT
ATOM      1  C   UNL A   1      32.121  30.256  26.502  1.00  0.00     0.023 C 
ENDROOT
BRANCH   1   2
ATOM      2  C   UNL A   1      31.695  29.861  25.088  1.00  0.00     0.116 C 
BRANCH   2   3
ATOM      3  N   UNL A   1      32.818  29.661  24.201  1.00  0.00    -0.355 N 
ATOM      4  C   UNL A   1      33.456  28.500  23.865  1.00  0.00     0.239 C 
ATOM      5  O   UNL A   1      34.353  28.573  23.019  1.00  0.00    -0.273 OA
ATOM      6  H   UNL A   1      33.174  30.476  23.779  1.00  0.00     0.163 HD
BRANCH   4   7
ATOM      7  C   UNL A   1      33.046  27.149  24.473  1.00  0.00     0.217 C 
BRANCH   7   8
ATOM      8  N   UNL A   1      32.538  26.143  23.513  1.00  0.00    -0.355 N 
BRANCH   8   9
ATOM      9  C   UNL A   1      31.756  26.647  22.357  1.00  0.00     0.184 C 
BRANCH   9  10
ATOM     10  C   UNL A   1      30.574  27.557  22.582  1.00  0.00     0.112 A 
ATOM     11  C   UNL A   1      28.688  30.457  21.624  1.00  0.00     0.068 C 
ATOM     12  C   UNL A   1      29.109  29.189  22.273  1.00  0.00     0.051 A 
ATOM     13  N   UNL A   1      30.398  28.740  22.030  1.00  0.00    -0.244 NA
ATOM     14  C   UNL A   1      28.340  28.352  23.066  1.00  0.00     0.025 A 
ATOM     15  S   UNL A   1      29.284  27.024  23.592  1.00  0.00    -0.122 S 
ATOM     16  C   UNL A   1      26.908  28.458  23.452  1.00  0.00     0.058 C 
ENDBRANCH   9  10
ENDBRANCH   8   9
BRANCH   8  17
ATOM     17  C   UNL A   1      33.004  24.833  23.585  1.00  0.00     0.039 A 
ATOM     18  C   UNL A   1      34.168  24.499  24.298  1.00  0.00     0.026 A 
ATOM     19  C   UNL A   1      32.361  23.763  22.945  1.00  0.00     0.046 A 
ATOM     20  C   UNL A   1      34.653  23.185  24.378  1.00  0.00     0.004 A 
ATOM     21  C   UNL A   1      32.833  22.448  23.022  1.00  0.00     0.043 A 
ATOM     22  C   UNL A   1      33.980  22.152  23.740  1.00  0.00     0.020 A 
ATOM     23  Cl  UNL A   1      31.984  21.191  22.203  1.00  0.00    -0.084 Cl
ENDBRANCH   8  17
ENDBRANCH   7   8
ENDBRANCH   4   7
ENDBRANCH   2   3
ENDBRANCH   1   2
BRANCH   1  24
ATOM     24  C   UNL A   1      31.809  31.702  26.891  1.00  0.00     0.023 C 
BRANCH  24  25
ATOM     25  C   UNL A   1      32.984  32.500  27.447  1.00  0.00     0.116 C 
BRANCH  25  26
ATOM     26  N   UNL A   1      32.661  33.895  27.700  1.00  0.00    -0.352 N 
ATOM     27  C   UNL A   1      33.212  34.760  28.616  1.00  0.00     0.251 C 
ATOM     28  H   UNL A   1      31.949  34.274  27.136  1.00  0.00     0.163 HD
ATOM     29  O   UNL A   1      32.726  35.878  28.765  1.00  0.00    -0.269 OA
BRANCH  27  30
ATOM     30  C   UNL A   1      34.359  34.329  29.444  1.00  0.00     0.039 A 
ATOM     31  C   UNL A   1      34.107  33.776  30.703  1.00  0.00     0.014 A 
ATOM     32  C   UNL A   1      35.673  34.450  28.983  1.00  0.00     0.014 A 
ATOM     33  C   UNL A   1      35.168  33.283  31.466  1.00  0.00     0.010 A 
ATOM     34  C   UNL A   1      36.720  33.890  29.713  1.00  0.00     0.010 A 
ATOM     35  C   UNL A   1      36.479  33.298  30.961  1.00  0.00    -0.014 A 
BRANCH  35  36
ATOM     36  C   UNL A   1      37.594  32.671  31.717  1.00  0.00     0.031 A 
ATOM     37  C   UNL A   1      38.273  31.432  31.196  1.00  0.00     0.074 A 
ATOM     38  C   UNL A   1      37.964  33.195  32.903  1.00  0.00     0.049 A 
ATOM     39  N   UNL A   1      39.260  30.752  31.722  1.00  0.00    -0.248 NA
ATOM     40  C   UNL A   1      37.765  30.871  29.934  1.00  0.00     0.031 C 
ATOM     41  C   UNL A   1      37.354  34.365  33.541  1.00  0.00     0.029 A 
ATOM     42  N   UNL A   1      38.946  32.815  33.784  1.00  0.00    -0.354 N 
ATOM     43  C   UNL A   1      39.483  29.681  30.866  1.00  0.00     0.074 A 
ATOM     44  C   UNL A   1      38.497  29.772  29.812  1.00  0.00     0.031 C 
ATOM     45  C   UNL A   1      38.002  34.631  34.686  1.00  0.00     0.029 A 
ATOM     46  C   UNL A   1      39.042  33.629  34.889  1.00  0.00     0.049 A 
ATOM     47  H   UNL A   1      39.527  32.034  33.639  1.00  0.00     0.167 HD
ATOM     48  C   UNL A   1      40.433  28.717  30.940  1.00  0.00     0.031 A 
ATOM     49  C   UNL A   1      39.874  33.577  35.948  1.00  0.00     0.031 A 
ATOM     50  C   UNL A   1      41.418  28.634  31.987  1.00  0.00     0.049 A 
ATOM     51  C   UNL A   1      40.912  32.490  36.012  1.00  0.00     0.074 A 
ATOM     52  C   UNL A   1      42.464  27.736  32.113  1.00  0.00     0.029 A 
ATOM     53  N   UNL A   1      41.477  29.471  33.090  1.00  0.00    -0.354 N 
ATOM     54  N   UNL A   1      41.160  31.535  35.146  1.00  0.00    -0.248 NA
ATOM     55  C   UNL A   1      41.789  32.481  37.190  1.00  0.00     0.031 C 
ATOM     56  C   UNL A   1      43.115  27.991  33.324  1.00  0.00     0.029 A 
ATOM     57  C   UNL A   1      42.519  29.089  33.920  1.00  0.00     0.049 A 
ATOM     58  H   UNL A   1      40.867  30.226  33.260  1.00  0.00     0.167 HD
ATOM     59  C   UNL A   1      42.241  30.829  35.664  1.00  0.00     0.074 A 
ATOM     60  C   UNL A   1      42.610  31.480  36.904  1.00  0.00     0.031 C 
ATOM     61  C   UNL A   1      42.871  29.741  35.157  1.00  0.00     0.031 A 
BRANCH  48  62
ATOM     62  C   UNL A   1      40.450  27.664  29.862  1.00  0.00    -0.014 A 
ATOM     63  C   UNL A   1      41.547  27.528  28.992  1.00  0.00     0.010 A 
ATOM     64  C   UNL A   1      39.376  26.760  29.754  1.00  0.00     0.010 A 
ATOM     65  C   UNL A   1      41.553  26.533  28.010  1.00  0.00     0.020 A 
ATOM     66  C   UNL A   1      39.393  25.744  28.793  1.00  0.00     0.020 A 
ATOM     67  C   UNL A   1      40.475  25.647  27.917  1.00  0.00     0.054 A 
BRANCH  67  68
ATOM     68  S   UNL A   1      40.528  24.346  26.655  1.00  0.00     0.124 S 
ATOM     69  O   UNL A   1      41.659  24.769  25.833  1.00  0.00    -0.237 OA
ATOM     70  O   UNL A   1      40.745  23.139  27.447  1.00  0.00    -0.237 OA
ATOM     71  O   UNL A   1      39.221  24.437  26.007  1.00  0.00    -0.744 OA
ENDBRANCH  67  68
ENDBRANCH  48  62
BRANCH  49  72
ATOM     72  C   UNL A   1      39.774  34.598  37.028  1.00  0.00    -0.014 A 
ATOM     73  C   UNL A   1      40.528  35.784  36.961  1.00  0.00     0.010 A 
ATOM     74  C   UNL A   1      38.929  34.389  38.132  1.00  0.00     0.010 A 
ATOM     75  C   UNL A   1      40.457  36.729  37.989  1.00  0.00     0.020 A 
ATOM     76  C   UNL A   1      38.831  35.346  39.147  1.00  0.00     0.020 A 
ATOM     77  C   UNL A   1      39.607  36.504  39.075  1.00  0.00     0.054 A 
BRANCH  77  78
ATOM     78  S   UNL A   1      39.502  37.762  40.378  1.00  0.00     0.124 S 
ATOM     79  O   UNL A   1      38.235  38.416  40.067  1.00  0.00    -0.237 OA
ATOM     80  O   UNL A   1      39.518  36.956  41.596  1.00  0.00    -0.237 OA
ATOM     81  O   UNL A   1      40.696  38.577  40.163  1.00  0.00    -0.744 OA
ENDBRANCH  77  78
ENDBRANCH  49  72
BRANCH  61  82
ATOM     82  C   UNL A   1      44.045  29.200  35.931  1.00  0.00    -0.014 A 
ATOM     83  C   UNL A   1      43.892  28.154  36.858  1.00  0.00     0.010 A 
ATOM     84  C   UNL A   1      45.330  29.726  35.700  1.00  0.00     0.010 A 
ATOM     85  C   UNL A   1      44.993  27.674  37.571  1.00  0.00     0.020 A 
ATOM     86  C   UNL A   1      46.439  29.227  36.387  1.00  0.00     0.020 A 
ATOM     87  C   UNL A   1      46.260  28.216  37.333  1.00  0.00     0.054 A 
BRANCH  87  88
ATOM     88  S   UNL A   1      47.678  27.558  38.254  1.00  0.00     0.124 S 
ATOM     89  O   UNL A   1      48.119  26.466  37.392  1.00  0.00    -0.237 OA
ATOM     90  O   UNL A   1      48.576  28.708  38.323  1.00  0.00    -0.237 OA
ATOM     91  O   UNL A   1      47.100  27.149  39.532  1.00  0.00    -0.744 OA
ENDBRANCH  87  88
ENDBRANCH  61  82
ENDBRANCH  35  36
ENDBRANCH  27  30
ENDBRANCH  25  26
ENDBRANCH  24  25
ENDBRANCH   1  24
TORSDOF 18
ENDMDL
MODEL 3
REMARK VINA RESULT:     -10.3      2.657      4.437
REMARK SMILES Cc1nc(CN(CC(=O)NCCCCNC(=O)c2ccc(-c3c4nc(c(-c5ccc(S(=O)(=O)[O-])cc5)c5ccc([nH]5)c(-c5ccc(S(=O)(=O)[O-])cc5)c5nc(c(-c6ccc(S(=O)(=O)[O-])cc6)c6ccc3[nH]6)C=C5)C=C4)cc2)c2cccc(Cl)c2)sc1C
REMARK SMILES IDX 12 1 11 2 10 3 8 4 9 5 7 7 6 8 5 9 4 10 1 11 2 12 3 13 86 14
REMARK SMILES IDX 85 15 87 16 78 17 79 18 84 19 80 20 82 21 81 22 83 23 13 24
REMARK SMILES IDX 14 25 15 26 16 27 17 29 18 30 19 31 77 32 20 33 76 34 21 35
REMARK SMILES IDX 22 36 23 37 70 38 24 39 75 40 69 41 71 42 25 43 74 44 68 45
REMARK SMILES IDX 67 46 26 48 56 49 37 50 55 51 38 52 41 53 54 54 72 55 39 56
REMARK SMILES IDX 40 57 53 59 73 60 42 61 27 62 28 63 36 64 29 65 35 66 30 67
REMARK SMILES IDX 31 68 32 69 33 70 34 71 57 72 58 73 66 74 59 75 65 76 60 77
REMARK SMILES IDX 61 78 62 79 63 80 64 81 43 82 44 83 52 84 45 85 51 86 46 87
REMARK SMILES IDX 47 88 48 89 49 90 50 91
REMARK H PARENT 10 6 15 28 71 47 41 58
REMARK Flexibility Score: inf
ROOT
ATOM      1  C   UNL A   1      32.014  30.304  26.505  1.00  0.00     0.023 C 
ENDROOT
BRANCH   1   2
ATOM      2  C   UNL A   1      31.570  29.868  25.108  1.00  0.00     0.116 C 
BRANCH   2   3
ATOM      3  N   UNL A   1      32.676  29.714  24.193  1.00  0.00    -0.355 N 
ATOM      4  C   UNL A   1      33.291  28.570  23.766  1.00  0.00     0.239 C 
ATOM      5  O   UNL A   1      34.176  28.689  22.913  1.00  0.00    -0.273 OA
ATOM      6  H   UNL A   1      33.039  30.551  23.823  1.00  0.00     0.163 HD
BRANCH   4   7
ATOM      7  C   UNL A   1      32.868  27.186  24.285  1.00  0.00     0.217 C 
BRANCH   7   8
ATOM      8  N   UNL A   1      32.275  26.279  23.276  1.00  0.00    -0.355 N 
BRANCH   8   9
ATOM      9  C   UNL A   1      31.501  26.906  22.175  1.00  0.00     0.184 C 
BRANCH   9  10
ATOM     10  C   UNL A   1      30.288  27.746  22.487  1.00  0.00     0.112 A 
ATOM     11  C   UNL A   1      28.247  30.607  21.754  1.00  0.00     0.068 C 
ATOM     12  C   UNL A   1      28.743  29.325  22.315  1.00  0.00     0.051 A 
ATOM     13  N   UNL A   1      30.043  28.949  22.011  1.00  0.00    -0.244 NA
ATOM     14  C   UNL A   1      28.036  28.409  23.079  1.00  0.00     0.025 A 
ATOM     15  S   UNL A   1      29.054  27.098  23.499  1.00  0.00    -0.122 S 
ATOM     16  C   UNL A   1      26.614  28.427  23.511  1.00  0.00     0.058 C 
ENDBRANCH   9  10
ENDBRANCH   8   9
BRANCH   8  17
ATOM     17  C   UNL A   1      32.655  24.940  23.252  1.00  0.00     0.039 A 
ATOM     18  C   UNL A   1      31.714  23.906  23.114  1.00  0.00     0.026 A 
ATOM     19  C   UNL A   1      33.990  24.528  23.375  1.00  0.00     0.046 A 
ATOM     20  C   UNL A   1      32.079  22.551  23.090  1.00  0.00     0.004 A 
ATOM     21  C   UNL A   1      34.366  23.181  23.347  1.00  0.00     0.043 A 
ATOM     22  C   UNL A   1      33.413  22.185  23.203  1.00  0.00     0.020 A 
ATOM     23  Cl  UNL A   1      36.030  22.760  23.508  1.00  0.00    -0.084 Cl
ENDBRANCH   8  17
ENDBRANCH   7   8
ENDBRANCH   4   7
ENDBRANCH   2   3
ENDBRANCH   1   2
BRANCH   1  24
ATOM     24  C   UNL A   1      31.823  31.791  26.810  1.00  0.00     0.023 C 
BRANCH  24  25
ATOM     25  C   UNL A   1      33.096  32.562  27.143  1.00  0.00     0.116 C 
BRANCH  25  26
ATOM     26  N   UNL A   1      32.842  33.820  27.826  1.00  0.00    -0.352 N 
ATOM     27  C   UNL A   1      33.481  34.358  28.917  1.00  0.00     0.251 C 
ATOM     28  H   UNL A   1      32.111  34.364  27.453  1.00  0.00     0.163 HD
ATOM     29  O   UNL A   1      33.047  35.388  29.428  1.00  0.00    -0.269 OA
BRANCH  27  30
ATOM     30  C   UNL A   1      34.660  33.678  29.496  1.00  0.00     0.039 A 
ATOM     31  C   UNL A   1      35.933  34.156  29.176  1.00  0.00     0.014 A 
ATOM     32  C   UNL A   1      34.517  32.589  30.359  1.00  0.00     0.014 A 
ATOM     33  C   UNL A   1      37.057  33.586  29.777  1.00  0.00     0.010 A 
ATOM     34  C   UNL A   1      35.634  32.071  31.015  1.00  0.00     0.010 A 
ATOM     35  C   UNL A   1      36.915  32.565  30.733  1.00  0.00    -0.014 A 
BRANCH  35  36
ATOM     36  C   UNL A   1      38.096  32.034  31.462  1.00  0.00     0.031 A 
ATOM     37  C   UNL A   1      38.495  32.605  32.797  1.00  0.00     0.074 A 
ATOM     38  C   UNL A   1      38.840  31.064  30.894  1.00  0.00     0.049 A 
ATOM     39  N   UNL A   1      39.493  32.265  33.571  1.00  0.00    -0.248 NA
ATOM     40  C   UNL A   1      37.682  33.715  33.320  1.00  0.00     0.031 C 
ATOM     41  C   UNL A   1      38.588  30.459  29.583  1.00  0.00     0.029 A 
ATOM     42  N   UNL A   1      39.960  30.410  31.347  1.00  0.00    -0.354 N 
ATOM     43  C   UNL A   1      39.437  33.122  34.663  1.00  0.00     0.074 A 
ATOM     44  C   UNL A   1      38.337  34.031  34.428  1.00  0.00     0.031 C 
ATOM     45  C   UNL A   1      39.497  29.497  29.359  1.00  0.00     0.029 A 
ATOM     46  C   UNL A   1      40.423  29.444  30.484  1.00  0.00     0.049 A 
ATOM     47  H   UNL A   1      40.390  30.614  32.208  1.00  0.00     0.167 HD
ATOM     48  C   UNL A   1      40.219  33.142  35.770  1.00  0.00     0.031 A 
ATOM     49  C   UNL A   1      41.475  28.608  30.586  1.00  0.00     0.031 A 
ATOM     50  C   UNL A   1      41.309  32.230  36.004  1.00  0.00     0.049 A 
ATOM     51  C   UNL A   1      42.335  28.658  31.819  1.00  0.00     0.074 A 
ATOM     52  C   UNL A   1      42.116  32.126  37.124  1.00  0.00     0.029 A 
ATOM     53  N   UNL A   1      41.751  31.274  35.103  1.00  0.00    -0.354 N 
ATOM     54  N   UNL A   1      42.211  29.422  32.880  1.00  0.00    -0.248 NA
ATOM     55  C   UNL A   1      43.468  27.726  31.874  1.00  0.00     0.031 C 
ATOM     56  C   UNL A   1      43.086  31.150  36.874  1.00  0.00     0.029 A 
ATOM     57  C   UNL A   1      42.842  30.598  35.628  1.00  0.00     0.049 A 
ATOM     58  H   UNL A   1      41.350  31.100  34.221  1.00  0.00     0.167 HD
ATOM     59  C   UNL A   1      43.236  29.041  33.740  1.00  0.00     0.074 A 
ATOM     60  C   UNL A   1      43.954  27.967  33.084  1.00  0.00     0.031 C 
ATOM     61  C   UNL A   1      43.553  29.536  34.961  1.00  0.00     0.031 A 
BRANCH  48  62
ATOM     62  C   UNL A   1      39.932  34.190  36.814  1.00  0.00    -0.014 A 
ATOM     63  C   UNL A   1      39.078  33.924  37.900  1.00  0.00     0.010 A 
ATOM     64  C   UNL A   1      40.570  35.443  36.738  1.00  0.00     0.010 A 
ATOM     65  C   UNL A   1      38.839  34.903  38.869  1.00  0.00     0.020 A 
ATOM     66  C   UNL A   1      40.357  36.413  37.722  1.00  0.00     0.020 A 
ATOM     67  C   UNL A   1      39.480  36.142  38.773  1.00  0.00     0.054 A 
BRANCH  67  68
ATOM     68  S   UNL A   1      39.175  37.379  40.064  1.00  0.00     0.124 S 
ATOM     69  O   UNL A   1      40.527  37.841  40.364  1.00  0.00    -0.237 OA
ATOM     70  O   UNL A   1      38.317  38.346  39.385  1.00  0.00    -0.237 OA
ATOM     71  O   UNL A   1      38.528  36.617  41.130  1.00  0.00    -0.744 OA
ENDBRANCH  67  68
ENDBRANCH  48  62
BRANCH  49  72
ATOM     72  C   UNL A   1      41.765  27.635  29.495  1.00  0.00    -0.014 A 
ATOM     73  C   UNL A   1      40.982  26.476  29.346  1.00  0.00     0.010 A 
ATOM     74  C   UNL A   1      42.829  27.860  28.603  1.00  0.00     0.010 A 
ATOM     75  C   UNL A   1      41.272  25.548  28.341  1.00  0.00     0.020 A 
ATOM     76  C   UNL A   1      43.102  26.950  27.577  1.00  0.00     0.020 A 
ATOM     77  C   UNL A   1      42.330  25.792  27.462  1.00  0.00     0.054 A 
BRANCH  77  78
ATOM     78  S   UNL A   1      42.664  24.594  26.142  1.00  0.00     0.124 S 
ATOM     79  O   UNL A   1      44.061  24.252  26.387  1.00  0.00    -0.237 OA
ATOM     80  O   UNL A   1      41.694  23.538  26.422  1.00  0.00    -0.237 OA
ATOM     81  O   UNL A   1      42.411  25.354  24.919  1.00  0.00    -0.744 OA
ENDBRANCH  77  78
ENDBRANCH  49  72
BRANCH  61  82
ATOM     82  C   UNL A   1      44.713  28.901  35.684  1.00  0.00    -0.014 A 
ATOM     83  C   UNL A   1      44.567  27.687  36.377  1.00  0.00     0.010 A 
ATOM     84  C   UNL A   1      45.979  29.514  35.637  1.00  0.00     0.010 A 
ATOM     85  C   UNL A   1      45.654  27.119  37.047  1.00  0.00     0.020 A 
ATOM     86  C   UNL A   1      47.076  28.934  36.279  1.00  0.00     0.020 A 
ATOM     87  C   UNL A   1      46.902  27.750  36.996  1.00  0.00     0.054 A 
BRANCH  87  88
ATOM     88  S   UNL A   1      48.303  26.980  37.853  1.00  0.00     0.124 S 
ATOM     89  O   UNL A   1      49.152  26.569  36.739  1.00  0.00    -0.237 OA
ATOM     90  O   UNL A   1      48.822  28.076  38.667  1.00  0.00    -0.237 OA
ATOM     91  O   UNL A   1      47.691  25.888  38.607  1.00  0.00    -0.744 OA
ENDBRANCH  87  88
ENDBRANCH  61  82
ENDBRANCH  35  36
ENDBRANCH  27  30
ENDBRANCH  25  26
ENDBRANCH  24  25
ENDBRANCH   1  24
TORSDOF 18
ENDMDL
