MODEL 1
REMARK VINA RESULT:     -11.6      0.000      0.000
REMARK SMILES CC1=C(CC(=O)NCCCCNC(=O)c2ccc(-c3c4nc(c(-c5ccc(S(=O)(=O)[O-])cc5)c5ccc([nH]5)c(-c5ccc(S(=O)(=O)[O-])cc5)c5nc(c(-c6ccc(S(=O)(=O)[O-])cc6)c6ccc3[nH]6)C=C5)C=C4)cc2)c2cc(F)ccc2/C1=C\c1cccc(OCc2ccccc2)c1
REMARK SMILES IDX 8 1 7 2 5 3 6 4 4 6 3 7 1 8 2 9 82 10 75 11 81 12 83 13
REMARK SMILES IDX 76 14 80 15 77 16 79 17 78 18 84 19 85 20 97 21 86 22 88 23
REMARK SMILES IDX 87 24 89 25 90 26 91 27 92 28 96 29 93 30 95 31 94 32 9 33
REMARK SMILES IDX 10 34 11 35 12 36 13 37 14 39 15 40 16 41 74 42 17 43 73 44
REMARK SMILES IDX 18 45 19 46 20 47 67 48 21 49 72 50 66 51 68 52 22 53 71 54
REMARK SMILES IDX 65 55 64 56 23 58 53 59 34 60 52 61 35 62 38 63 51 64 69 65
REMARK SMILES IDX 36 66 37 67 50 69 70 70 39 71 24 72 25 73 33 74 26 75 32 76
REMARK SMILES IDX 27 77 28 78 29 79 30 80 31 81 54 82 55 83 63 84 56 85 62 86
REMARK SMILES IDX 57 87 58 88 59 89 60 90 61 91 40 92 41 93 49 94 42 95 48 96
REMARK SMILES IDX 43 97 44 98 45 99 46 100 47 101
REMARK H PARENT 7 5 12 38 68 57 38 68
REMARK Flexibility Score: inf
ROOT
ATOM      1  C   UNL A   1      36.111  20.304  25.235  1.00  0.00     0.116 C 
ENDROOT
BRANCH   1   2
ATOM      2  N   UNL A   1      35.834  19.066  24.533  1.00  0.00    -0.356 N 
ATOM      3  C   UNL A   1      34.714  18.287  24.573  1.00  0.00     0.224 C 
ATOM      4  O   UNL A   1      34.687  17.261  23.889  1.00  0.00    -0.275 OA
ATOM      5  H   UNL A   1      36.554  18.743  23.945  1.00  0.00     0.163 HD
BRANCH   3   6
ATOM      6  C   UNL A   1      33.509  18.697  25.418  1.00  0.00     0.136 C 
BRANCH   6   7
ATOM      7  C   UNL A   1      32.961  20.032  25.034  1.00  0.00    -0.027 C 
ATOM      8  C   UNL A   1      32.151  19.601  22.640  1.00  0.00     0.045 C 
ATOM      9  C   UNL A   1      32.420  20.425  23.857  1.00  0.00    -0.039 C 
ATOM     10  C   UNL A   1      32.141  21.867  23.911  1.00  0.00    -0.014 C 
ATOM     11  C   UNL A   1      32.953  21.195  25.943  1.00  0.00    -0.011 A 
ATOM     12  C   UNL A   1      32.438  22.321  25.275  1.00  0.00    -0.010 A 
ATOM     13  C   UNL A   1      31.756  22.593  22.850  1.00  0.00     0.017 C 
ATOM     14  C   UNL A   1      33.354  21.286  27.268  1.00  0.00     0.048 A 
ATOM     15  C   UNL A   1      32.304  23.541  25.924  1.00  0.00     0.012 A 
ATOM     16  C   UNL A   1      33.233  22.516  27.908  1.00  0.00     0.123 A 
ATOM     17  C   UNL A   1      32.714  23.636  27.255  1.00  0.00     0.040 A 
ATOM     18  F   UNL A   1      33.613  22.630  29.188  1.00  0.00    -0.207 F 
BRANCH  13  19
ATOM     19  C   UNL A   1      31.464  24.023  22.818  1.00  0.00    -0.021 A 
ATOM     20  C   UNL A   1      30.208  24.534  23.150  1.00  0.00     0.008 A 
ATOM     21  C   UNL A   1      32.517  24.891  22.521  1.00  0.00     0.054 A 
ATOM     22  C   UNL A   1      30.016  25.914  23.187  1.00  0.00     0.004 A 
ATOM     23  C   UNL A   1      32.360  26.266  22.669  1.00  0.00     0.120 A 
ATOM     24  C   UNL A   1      31.092  26.775  22.958  1.00  0.00     0.046 A 
BRANCH  23  25
ATOM     25  O   UNL A   1      33.367  27.187  22.613  1.00  0.00    -0.489 OA
BRANCH  25  26
ATOM     26  C   UNL A   1      34.100  27.480  23.808  1.00  0.00     0.265 C 
BRANCH  26  27
ATOM     27  C   UNL A   1      33.266  28.048  24.945  1.00  0.00    -0.011 A 
ATOM     28  C   UNL A   1      32.848  29.388  24.902  1.00  0.00     0.007 A 
ATOM     29  C   UNL A   1      32.939  27.299  26.087  1.00  0.00     0.007 A 
ATOM     30  C   UNL A   1      32.132  29.951  25.962  1.00  0.00     0.000 A 
ATOM     31  C   UNL A   1      32.221  27.859  27.145  1.00  0.00     0.000 A 
ATOM     32  C   UNL A   1      31.820  29.187  27.084  1.00  0.00     0.000 A 
ENDBRANCH  26  27
ENDBRANCH  25  26
ENDBRANCH  23  25
ENDBRANCH  13  19
ENDBRANCH   6   7
ENDBRANCH   3   6
ENDBRANCH   1   2
BRANCH   1  33
ATOM     33  C   UNL A   1      36.312  21.485  24.285  1.00  0.00     0.023 C 
BRANCH  33  34
ATOM     34  C   UNL A   1      35.978  22.856  24.871  1.00  0.00     0.023 C 
BRANCH  34  35
ATOM     35  C   UNL A   1      37.063  23.471  25.742  1.00  0.00     0.116 C 
BRANCH  35  36
ATOM     36  N   UNL A   1      38.241  22.631  25.896  1.00  0.00    -0.352 N 
ATOM     37  C   UNL A   1      39.465  22.965  26.441  1.00  0.00     0.251 C 
ATOM     38  H   UNL A   1      38.153  21.706  25.571  1.00  0.00     0.163 HD
ATOM     39  O   UNL A   1      40.389  22.172  26.422  1.00  0.00    -0.269 OA
BRANCH  37  40
ATOM     40  C   UNL A   1      39.645  24.325  27.003  1.00  0.00     0.039 A 
ATOM     41  C   UNL A   1      40.228  25.335  26.238  1.00  0.00     0.014 A 
ATOM     42  C   UNL A   1      39.288  24.564  28.333  1.00  0.00     0.014 A 
ATOM     43  C   UNL A   1      40.621  26.518  26.852  1.00  0.00     0.010 A 
ATOM     44  C   UNL A   1      39.604  25.793  28.924  1.00  0.00     0.010 A 
ATOM     45  C   UNL A   1      40.322  26.759  28.203  1.00  0.00    -0.014 A 
BRANCH  45  46
ATOM     46  C   UNL A   1      40.769  28.035  28.821  1.00  0.00     0.031 A 
ATOM     47  C   UNL A   1      42.221  28.289  29.124  1.00  0.00     0.074 A 
ATOM     48  C   UNL A   1      39.858  29.006  29.032  1.00  0.00     0.049 A 
ATOM     49  N   UNL A   1      42.784  29.383  29.571  1.00  0.00    -0.248 NA
ATOM     50  C   UNL A   1      43.165  27.180  28.904  1.00  0.00     0.031 C 
ATOM     51  C   UNL A   1      38.422  28.877  28.770  1.00  0.00     0.029 A 
ATOM     52  N   UNL A   1      40.002  30.298  29.468  1.00  0.00    -0.354 N 
ATOM     53  C   UNL A   1      44.137  29.094  29.698  1.00  0.00     0.074 A 
ATOM     54  C   UNL A   1      44.311  27.712  29.310  1.00  0.00     0.031 C 
ATOM     55  C   UNL A   1      37.833  30.063  28.973  1.00  0.00     0.029 A 
ATOM     56  C   UNL A   1      38.831  31.018  29.443  1.00  0.00     0.049 A 
ATOM     57  H   UNL A   1      40.861  30.674  29.769  1.00  0.00     0.167 HD
ATOM     58  C   UNL A   1      45.143  29.910  30.093  1.00  0.00     0.031 A 
ATOM     59  C   UNL A   1      38.578  32.304  29.759  1.00  0.00     0.031 A 
ATOM     60  C   UNL A   1      44.966  31.292  30.461  1.00  0.00     0.049 A 
ATOM     61  C   UNL A   1      39.704  33.182  30.215  1.00  0.00     0.074 A 
ATOM     62  C   UNL A   1      45.935  32.206  30.839  1.00  0.00     0.029 A 
ATOM     63  N   UNL A   1      43.752  31.959  30.499  1.00  0.00    -0.354 N 
ATOM     64  N   UNL A   1      40.979  32.891  30.314  1.00  0.00    -0.248 NA
ATOM     65  C   UNL A   1      39.363  34.555  30.608  1.00  0.00     0.031 C 
ATOM     66  C   UNL A   1      45.300  33.407  31.163  1.00  0.00     0.029 A 
ATOM     67  C   UNL A   1      43.942  33.263  30.926  1.00  0.00     0.049 A 
ATOM     68  H   UNL A   1      42.883  31.565  30.257  1.00  0.00     0.167 HD
ATOM     69  C   UNL A   1      41.593  34.043  30.789  1.00  0.00     0.074 A 
ATOM     70  C   UNL A   1      40.554  35.044  30.929  1.00  0.00     0.031 C 
ATOM     71  C   UNL A   1      42.898  34.245  31.090  1.00  0.00     0.031 A 
BRANCH  58  72
ATOM     72  C   UNL A   1      46.538  29.345  30.159  1.00  0.00    -0.014 A 
ATOM     73  C   UNL A   1      47.352  29.369  29.011  1.00  0.00     0.010 A 
ATOM     74  C   UNL A   1      47.004  28.691  31.313  1.00  0.00     0.010 A 
ATOM     75  C   UNL A   1      48.596  28.731  29.006  1.00  0.00     0.020 A 
ATOM     76  C   UNL A   1      48.259  28.072  31.320  1.00  0.00     0.020 A 
ATOM     77  C   UNL A   1      49.037  28.078  30.159  1.00  0.00     0.054 A 
BRANCH  77  78
ATOM     78  S   UNL A   1      50.649  27.245  30.135  1.00  0.00     0.124 S 
ATOM     79  O   UNL A   1      50.278  25.849  30.341  1.00  0.00    -0.237 OA
ATOM     80  O   UNL A   1      51.161  27.574  28.807  1.00  0.00    -0.237 OA
ATOM     81  O   UNL A   1      51.371  27.871  31.241  1.00  0.00    -0.744 OA
ENDBRANCH  77  78
ENDBRANCH  58  72
BRANCH  59  82
ATOM     82  C   UNL A   1      37.186  32.810  29.623  1.00  0.00    -0.014 A 
ATOM     83  C   UNL A   1      36.699  33.210  28.364  1.00  0.00     0.010 A 
ATOM     84  C   UNL A   1      36.391  33.017  30.763  1.00  0.00     0.010 A 
ATOM     85  C   UNL A   1      35.476  33.876  28.256  1.00  0.00     0.020 A 
ATOM     86  C   UNL A   1      35.152  33.657  30.654  1.00  0.00     0.020 A 
ATOM     87  C   UNL A   1      34.721  34.115  29.406  1.00  0.00     0.054 A 
BRANCH  87  88
ATOM     88  S   UNL A   1      33.179  35.058  29.258  1.00  0.00     0.124 S 
ATOM     89  O   UNL A   1      32.640  34.961  30.612  1.00  0.00    -0.237 OA
ATOM     90  O   UNL A   1      33.649  36.383  28.862  1.00  0.00    -0.237 OA
ATOM     91  O   UNL A   1      32.433  34.333  28.233  1.00  0.00    -0.744 OA
ENDBRANCH  87  88
ENDBRANCH  59  82
BRANCH  71  92
ATOM     92  C   UNL A   1      43.295  35.589  31.638  1.00  0.00    -0.014 A 
ATOM     93  C   UNL A   1      43.092  35.883  32.999  1.00  0.00     0.010 A 
ATOM     94  C   UNL A   1      43.761  36.599  30.779  1.00  0.00     0.010 A 
ATOM     95  C   UNL A   1      43.321  37.172  33.487  1.00  0.00     0.020 A 
ATOM     96  C   UNL A   1      44.016  37.884  31.269  1.00  0.00     0.020 A 
ATOM     97  C   UNL A   1      43.772  38.167  32.615  1.00  0.00     0.054 A 
BRANCH  97  98
ATOM     98  S   UNL A   1      44.047  39.840  33.259  1.00  0.00     0.124 S 
ATOM     99  O   UNL A   1      44.669  40.510  32.121  1.00  0.00    -0.237 OA
ATOM    100  O   UNL A   1      42.695  40.286  33.590  1.00  0.00    -0.237 OA
ATOM    101  O   UNL A   1      44.920  39.622  34.411  1.00  0.00    -0.744 OA
ENDBRANCH  97  98
ENDBRANCH  71  92
ENDBRANCH  45  46
ENDBRANCH  37  40
ENDBRANCH  35  36
ENDBRANCH  34  35
ENDBRANCH  33  34
ENDBRANCH   1  33
TORSDOF 19
ENDMDL
MODEL 2
REMARK VINA RESULT:     -11.6      2.160      8.197
REMARK SMILES CC1=C(CC(=O)NCCCCNC(=O)c2ccc(-c3c4nc(c(-c5ccc(S(=O)(=O)[O-])cc5)c5ccc([nH]5)c(-c5ccc(S(=O)(=O)[O-])cc5)c5nc(c(-c6ccc(S(=O)(=O)[O-])cc6)c6ccc3[nH]6)C=C5)C=C4)cc2)c2cc(F)ccc2/C1=C\c1cccc(OCc2ccccc2)c1
REMARK SMILES IDX 8 1 7 2 5 3 6 4 4 6 3 7 1 8 2 9 82 10 75 11 81 12 83 13
REMARK SMILES IDX 76 14 80 15 77 16 79 17 78 18 84 19 85 20 97 21 86 22 88 23
REMARK SMILES IDX 87 24 89 25 90 26 91 27 92 28 96 29 93 30 95 31 94 32 9 33
REMARK SMILES IDX 10 34 11 35 12 36 13 37 14 39 15 40 16 41 74 42 17 43 73 44
REMARK SMILES IDX 18 45 19 46 20 47 67 48 21 49 72 50 66 51 68 52 22 53 71 54
REMARK SMILES IDX 65 55 64 56 23 58 53 59 34 60 52 61 35 62 38 63 51 64 69 65
REMARK SMILES IDX 36 66 37 67 50 69 70 70 39 71 24 72 25 73 33 74 26 75 32 76
REMARK SMILES IDX 27 77 28 78 29 79 30 80 31 81 54 82 55 83 63 84 56 85 62 86
REMARK SMILES IDX 57 87 58 88 59 89 60 90 61 91 40 92 41 93 49 94 42 95 48 96
REMARK SMILES IDX 43 97 44 98 45 99 46 100 47 101
REMARK H PARENT 7 5 12 38 68 57 38 68
REMARK Flexibility Score: inf
ROOT
ATOM      1  C   UNL A   1      35.932  20.731  25.410  1.00  0.00     0.116 C 
ENDROOT
BRANCH   1   2
ATOM      2  N   UNL A   1      35.195  19.582  24.921  1.00  0.00    -0.356 N 
ATOM      3  C   UNL A   1      33.910  19.206  25.189  1.00  0.00     0.224 C 
ATOM      4  O   UNL A   1      33.476  18.179  24.661  1.00  0.00    -0.275 OA
ATOM      5  H   UNL A   1      35.690  18.990  24.310  1.00  0.00     0.163 HD
BRANCH   3   6
ATOM      6  C   UNL A   1      33.021  20.059  26.092  1.00  0.00     0.136 C 
BRANCH   6   7
ATOM      7  C   UNL A   1      33.016  21.501  25.704  1.00  0.00    -0.027 C 
ATOM      8  C   UNL A   1      33.641  22.644  27.912  1.00  0.00     0.045 C 
ATOM      9  C   UNL A   1      33.244  22.591  26.472  1.00  0.00    -0.039 C 
ATOM     10  C   UNL A   1      33.002  23.803  25.676  1.00  0.00    -0.014 C 
ATOM     11  C   UNL A   1      32.722  21.968  24.334  1.00  0.00    -0.011 A 
ATOM     12  C   UNL A   1      32.727  23.375  24.298  1.00  0.00    -0.010 A 
ATOM     13  C   UNL A   1      32.982  25.042  26.189  1.00  0.00     0.017 C 
ATOM     14  C   UNL A   1      32.471  21.236  23.183  1.00  0.00     0.048 A 
ATOM     15  C   UNL A   1      32.498  24.063  23.114  1.00  0.00     0.012 A 
ATOM     16  C   UNL A   1      32.227  21.932  22.002  1.00  0.00     0.123 A 
ATOM     17  C   UNL A   1      32.239  23.328  21.956  1.00  0.00     0.040 A 
ATOM     18  F   UNL A   1      31.982  21.248  20.876  1.00  0.00    -0.207 F 
BRANCH  13  19
ATOM     19  C   UNL A   1      32.748  26.291  25.471  1.00  0.00    -0.021 A 
ATOM     20  C   UNL A   1      33.782  27.011  24.872  1.00  0.00     0.008 A 
ATOM     21  C   UNL A   1      31.424  26.714  25.326  1.00  0.00     0.054 A 
ATOM     22  C   UNL A   1      33.484  28.150  24.125  1.00  0.00     0.004 A 
ATOM     23  C   UNL A   1      31.114  27.781  24.488  1.00  0.00     0.120 A 
ATOM     24  C   UNL A   1      32.153  28.525  23.926  1.00  0.00     0.046 A 
BRANCH  23  25
ATOM     25  O   UNL A   1      29.854  28.146  24.106  1.00  0.00    -0.489 OA
BRANCH  25  26
ATOM     26  C   UNL A   1      29.629  28.520  22.741  1.00  0.00     0.265 C 
BRANCH  26  27
ATOM     27  C   UNL A   1      29.115  29.937  22.545  1.00  0.00    -0.011 A 
ATOM     28  C   UNL A   1      28.666  30.349  21.281  1.00  0.00     0.007 A 
ATOM     29  C   UNL A   1      29.127  30.891  23.575  1.00  0.00     0.007 A 
ATOM     30  C   UNL A   1      28.246  31.663  21.060  1.00  0.00     0.000 A 
ATOM     31  C   UNL A   1      28.703  32.204  23.358  1.00  0.00     0.000 A 
ATOM     32  C   UNL A   1      28.266  32.591  22.098  1.00  0.00     0.000 A 
ENDBRANCH  26  27
ENDBRANCH  25  26
ENDBRANCH  23  25
ENDBRANCH  13  19
ENDBRANCH   6   7
ENDBRANCH   3   6
ENDBRANCH   1   2
BRANCH   1  33
ATOM     33  C   UNL A   1      36.439  21.627  24.280  1.00  0.00     0.023 C 
BRANCH  33  34
ATOM     34  C   UNL A   1      36.346  23.128  24.549  1.00  0.00     0.023 C 
BRANCH  34  35
ATOM     35  C   UNL A   1      37.348  23.669  25.559  1.00  0.00     0.116 C 
BRANCH  35  36
ATOM     36  N   UNL A   1      38.538  22.845  25.706  1.00  0.00    -0.352 N 
ATOM     37  C   UNL A   1      39.733  23.171  26.316  1.00  0.00     0.251 C 
ATOM     38  H   UNL A   1      38.484  21.940  25.322  1.00  0.00     0.163 HD
ATOM     39  O   UNL A   1      40.675  22.400  26.284  1.00  0.00    -0.269 OA
BRANCH  37  40
ATOM     40  C   UNL A   1      39.861  24.497  26.966  1.00  0.00     0.039 A 
ATOM     41  C   UNL A   1      40.544  25.533  26.329  1.00  0.00     0.014 A 
ATOM     42  C   UNL A   1      39.352  24.675  28.255  1.00  0.00     0.014 A 
ATOM     43  C   UNL A   1      40.876  26.676  27.046  1.00  0.00     0.010 A 
ATOM     44  C   UNL A   1      39.610  25.866  28.942  1.00  0.00     0.010 A 
ATOM     45  C   UNL A   1      40.420  26.854  28.364  1.00  0.00    -0.014 A 
BRANCH  45  46
ATOM     46  C   UNL A   1      40.805  28.089  29.096  1.00  0.00     0.031 A 
ATOM     47  C   UNL A   1      39.831  29.221  29.282  1.00  0.00     0.074 A 
ATOM     48  C   UNL A   1      42.024  28.148  29.670  1.00  0.00     0.049 A 
ATOM     49  N   UNL A   1      39.979  30.321  29.976  1.00  0.00    -0.248 NA
ATOM     50  C   UNL A   1      38.528  29.114  28.605  1.00  0.00     0.031 C 
ATOM     51  C   UNL A   1      43.049  27.108  29.564  1.00  0.00     0.029 A 
ATOM     52  N   UNL A   1      42.590  29.093  30.487  1.00  0.00    -0.354 N 
ATOM     53  C   UNL A   1      38.802  31.040  29.810  1.00  0.00     0.074 A 
ATOM     54  C   UNL A   1      37.957  30.269  28.926  1.00  0.00     0.031 C 
ATOM     55  C   UNL A   1      44.084  27.433  30.351  1.00  0.00     0.029 A 
ATOM     56  C   UNL A   1      43.828  28.733  30.965  1.00  0.00     0.049 A 
ATOM     57  H   UNL A   1      42.152  29.946  30.711  1.00  0.00     0.167 HD
ATOM     58  C   UNL A   1      38.454  32.231  30.354  1.00  0.00     0.031 A 
ATOM     59  C   UNL A   1      44.670  29.367  31.804  1.00  0.00     0.031 A 
ATOM     60  C   UNL A   1      39.292  32.987  31.250  1.00  0.00     0.049 A 
ATOM     61  C   UNL A   1      44.272  30.695  32.375  1.00  0.00     0.074 A 
ATOM     62  C   UNL A   1      39.007  34.186  31.879  1.00  0.00     0.029 A 
ATOM     63  N   UNL A   1      40.570  32.624  31.644  1.00  0.00    -0.354 N 
ATOM     64  N   UNL A   1      43.147  31.349  32.217  1.00  0.00    -0.248 NA
ATOM     65  C   UNL A   1      45.253  31.373  33.233  1.00  0.00     0.031 C 
ATOM     66  C   UNL A   1      40.134  34.578  32.605  1.00  0.00     0.029 A 
ATOM     67  C   UNL A   1      41.100  33.593  32.480  1.00  0.00     0.049 A 
ATOM     68  H   UNL A   1      41.034  31.800  31.370  1.00  0.00     0.167 HD
ATOM     69  C   UNL A   1      43.288  32.523  32.947  1.00  0.00     0.074 A 
ATOM     70  C   UNL A   1      44.594  32.474  33.573  1.00  0.00     0.031 C 
ATOM     71  C   UNL A   1      42.413  33.550  33.076  1.00  0.00     0.031 A 
BRANCH  58  72
ATOM     72  C   UNL A   1      37.108  32.812  30.004  1.00  0.00    -0.014 A 
ATOM     73  C   UNL A   1      36.978  33.620  28.859  1.00  0.00     0.010 A 
ATOM     74  C   UNL A   1      36.005  32.658  30.861  1.00  0.00     0.010 A 
ATOM     75  C   UNL A   1      35.776  34.281  28.587  1.00  0.00     0.020 A 
ATOM     76  C   UNL A   1      34.794  33.298  30.580  1.00  0.00     0.020 A 
ATOM     77  C   UNL A   1      34.694  34.123  29.456  1.00  0.00     0.054 A 
BRANCH  77  78
ATOM     78  S   UNL A   1      33.144  34.996  29.096  1.00  0.00     0.124 S 
ATOM     79  O   UNL A   1      32.542  34.147  28.074  1.00  0.00    -0.237 OA
ATOM     80  O   UNL A   1      32.470  35.002  30.392  1.00  0.00    -0.237 OA
ATOM     81  O   UNL A   1      33.594  36.309  28.635  1.00  0.00    -0.744 OA
ENDBRANCH  77  78
ENDBRANCH  58  72
BRANCH  59  82
ATOM     82  C   UNL A   1      45.961  28.714  32.147  1.00  0.00    -0.014 A 
ATOM     83  C   UNL A   1      46.050  27.873  33.273  1.00  0.00     0.010 A 
ATOM     84  C   UNL A   1      47.129  29.029  31.433  1.00  0.00     0.010 A 
ATOM     85  C   UNL A   1      47.292  27.421  33.724  1.00  0.00     0.020 A 
ATOM     86  C   UNL A   1      48.372  28.554  31.865  1.00  0.00     0.020 A 
ATOM     87  C   UNL A   1      48.448  27.783  33.029  1.00  0.00     0.054 A 
BRANCH  87  88
ATOM     88  S   UNL A   1      50.058  27.262  33.679  1.00  0.00     0.124 S 
ATOM     89  O   UNL A   1      50.130  28.010  34.932  1.00  0.00    -0.237 OA
ATOM     90  O   UNL A   1      49.896  25.817  33.819  1.00  0.00    -0.237 OA
ATOM     91  O   UNL A   1      50.997  27.683  32.643  1.00  0.00    -0.744 OA
ENDBRANCH  87  88
ENDBRANCH  59  82
BRANCH  71  92
ATOM     92  C   UNL A   1      42.837  34.736  33.899  1.00  0.00    -0.014 A 
ATOM     93  C   UNL A   1      43.615  35.755  33.318  1.00  0.00     0.010 A 
ATOM     94  C   UNL A   1      42.561  34.784  35.276  1.00  0.00     0.010 A 
ATOM     95  C   UNL A   1      44.134  36.785  34.105  1.00  0.00     0.020 A 
ATOM     96  C   UNL A   1      43.059  35.828  36.062  1.00  0.00     0.020 A 
ATOM     97  C   UNL A   1      43.861  36.808  35.476  1.00  0.00     0.054 A 
BRANCH  97  98
ATOM     98  S   UNL A   1      44.559  38.143  36.487  1.00  0.00     0.124 S 
ATOM     99  O   UNL A   1      43.866  37.958  37.759  1.00  0.00    -0.237 OA
ATOM    100  O   UNL A   1      45.986  37.830  36.496  1.00  0.00    -0.237 OA
ATOM    101  O   UNL A   1      44.200  39.352  35.749  1.00  0.00    -0.744 OA
ENDBRANCH  97  98
ENDBRANCH  71  92
ENDBRANCH  45  46
ENDBRANCH  37  40
ENDBRANCH  35  36
ENDBRANCH  34  35
ENDBRANCH  33  34
ENDBRANCH   1  33
TORSDOF 19
ENDMDL
MODEL 3
REMARK VINA RESULT:     -11.6      3.125      9.793
REMARK SMILES CC1=C(CC(=O)NCCCCNC(=O)c2ccc(-c3c4nc(c(-c5ccc(S(=O)(=O)[O-])cc5)c5ccc([nH]5)c(-c5ccc(S(=O)(=O)[O-])cc5)c5nc(c(-c6ccc(S(=O)(=O)[O-])cc6)c6ccc3[nH]6)C=C5)C=C4)cc2)c2cc(F)ccc2/C1=C\c1cccc(OCc2ccccc2)c1
REMARK SMILES IDX 8 1 7 2 5 3 6 4 4 6 3 7 1 8 2 9 82 10 75 11 81 12 83 13
REMARK SMILES IDX 76 14 80 15 77 16 79 17 78 18 84 19 85 20 97 21 86 22 88 23
REMARK SMILES IDX 87 24 89 25 90 26 91 27 92 28 96 29 93 30 95 31 94 32 9 33
REMARK SMILES IDX 10 34 11 35 12 36 13 37 14 39 15 40 16 41 74 42 17 43 73 44
REMARK SMILES IDX 18 45 19 46 20 47 67 48 21 49 72 50 66 51 68 52 22 53 71 54
REMARK SMILES IDX 65 55 64 56 23 58 53 59 34 60 52 61 35 62 38 63 51 64 69 65
REMARK SMILES IDX 36 66 37 67 50 69 70 70 39 71 24 72 25 73 33 74 26 75 32 76
REMARK SMILES IDX 27 77 28 78 29 79 30 80 31 81 54 82 55 83 63 84 56 85 62 86
REMARK SMILES IDX 57 87 58 88 59 89 60 90 61 91 40 92 41 93 49 94 42 95 48 96
REMARK SMILES IDX 43 97 44 98 45 99 46 100 47 101
REMARK H PARENT 7 5 12 38 68 57 38 68
REMARK Flexibility Score: inf
ROOT
ATOM      1  C   UNL A   1      31.598  30.280  25.017  1.00  0.00     0.116 C 
ENDROOT
BRANCH   1   2
ATOM      2  N   UNL A   1      30.375  30.493  24.268  1.00  0.00    -0.356 N 
ATOM      3  C   UNL A   1      30.070  30.113  22.993  1.00  0.00     0.224 C 
ATOM      4  O   UNL A   1      28.957  30.400  22.545  1.00  0.00    -0.275 OA
ATOM      5  H   UNL A   1      29.665  30.978  24.747  1.00  0.00     0.163 HD
BRANCH   3   6
ATOM      6  C   UNL A   1      31.071  29.320  22.155  1.00  0.00     0.136 C 
BRANCH   6   7
ATOM      7  C   UNL A   1      31.622  28.136  22.880  1.00  0.00    -0.027 C 
ATOM      8  C   UNL A   1      34.142  28.407  22.495  1.00  0.00     0.045 C 
ATOM      9  C   UNL A   1      32.907  27.731  22.998  1.00  0.00    -0.039 C 
ATOM     10  C   UNL A   1      32.945  26.439  23.697  1.00  0.00    -0.014 C 
ATOM     11  C   UNL A   1      30.776  27.165  23.603  1.00  0.00    -0.011 A 
ATOM     12  C   UNL A   1      31.575  26.130  24.124  1.00  0.00    -0.010 A 
ATOM     13  C   UNL A   1      34.053  25.693  23.827  1.00  0.00     0.017 C 
ATOM     14  C   UNL A   1      29.405  27.169  23.813  1.00  0.00     0.048 A 
ATOM     15  C   UNL A   1      31.017  25.100  24.868  1.00  0.00     0.012 A 
ATOM     16  C   UNL A   1      28.850  26.124  24.546  1.00  0.00     0.123 A 
ATOM     17  C   UNL A   1      29.637  25.098  25.074  1.00  0.00     0.040 A 
ATOM     18  F   UNL A   1      27.528  26.104  24.763  1.00  0.00    -0.207 F 
BRANCH  13  19
ATOM     19  C   UNL A   1      34.174  24.403  24.500  1.00  0.00    -0.021 A 
ATOM     20  C   UNL A   1      34.547  24.295  25.841  1.00  0.00     0.008 A 
ATOM     21  C   UNL A   1      33.820  23.261  23.778  1.00  0.00     0.054 A 
ATOM     22  C   UNL A   1      34.560  23.042  26.452  1.00  0.00     0.004 A 
ATOM     23  C   UNL A   1      33.720  22.027  24.415  1.00  0.00     0.120 A 
ATOM     24  C   UNL A   1      34.136  21.916  25.743  1.00  0.00     0.046 A 
BRANCH  23  25
ATOM     25  O   UNL A   1      33.185  20.896  23.867  1.00  0.00    -0.489 OA
BRANCH  25  26
ATOM     26  C   UNL A   1      32.467  19.993  24.716  1.00  0.00     0.265 C 
BRANCH  26  27
ATOM     27  C   UNL A   1      33.066  18.599  24.816  1.00  0.00    -0.011 A 
ATOM     28  C   UNL A   1      34.399  18.384  24.433  1.00  0.00     0.007 A 
ATOM     29  C   UNL A   1      32.316  17.484  25.222  1.00  0.00     0.007 A 
ATOM     30  C   UNL A   1      34.955  17.101  24.458  1.00  0.00     0.000 A 
ATOM     31  C   UNL A   1      32.871  16.203  25.252  1.00  0.00     0.000 A 
ATOM     32  C   UNL A   1      34.191  16.011  24.866  1.00  0.00     0.000 A 
ENDBRANCH  26  27
ENDBRANCH  25  26
ENDBRANCH  23  25
ENDBRANCH  13  19
ENDBRANCH   6   7
ENDBRANCH   3   6
ENDBRANCH   1   2
BRANCH   1  33
ATOM     33  C   UNL A   1      31.363  29.511  26.318  1.00  0.00     0.023 C 
BRANCH  33  34
ATOM     34  C   UNL A   1      32.420  28.458  26.649  1.00  0.00     0.023 C 
BRANCH  34  35
ATOM     35  C   UNL A   1      33.772  29.008  27.079  1.00  0.00     0.116 C 
BRANCH  35  36
ATOM     36  N   UNL A   1      33.694  30.285  27.772  1.00  0.00    -0.352 N 
ATOM     37  C   UNL A   1      34.671  30.913  28.520  1.00  0.00     0.251 C 
ATOM     38  H   UNL A   1      32.836  30.762  27.699  1.00  0.00     0.163 HD
ATOM     39  O   UNL A   1      34.427  31.946  29.116  1.00  0.00    -0.269 OA
BRANCH  37  40
ATOM     40  C   UNL A   1      36.006  30.276  28.623  1.00  0.00     0.039 A 
ATOM     41  C   UNL A   1      36.380  29.602  29.785  1.00  0.00     0.014 A 
ATOM     42  C   UNL A   1      36.912  30.421  27.569  1.00  0.00     0.014 A 
ATOM     43  C   UNL A   1      37.708  29.236  29.967  1.00  0.00     0.010 A 
ATOM     44  C   UNL A   1      38.228  29.969  27.720  1.00  0.00     0.010 A 
ATOM     45  C   UNL A   1      38.650  29.422  28.941  1.00  0.00    -0.014 A 
BRANCH  45  46
ATOM     46  C   UNL A   1      40.062  29.023  29.182  1.00  0.00     0.031 A 
ATOM     47  C   UNL A   1      40.991  29.890  29.987  1.00  0.00     0.074 A 
ATOM     48  C   UNL A   1      40.480  27.822  28.735  1.00  0.00     0.049 A 
ATOM     49  N   UNL A   1      42.218  29.640  30.368  1.00  0.00    -0.248 NA
ATOM     50  C   UNL A   1      40.489  31.205  30.421  1.00  0.00     0.031 C 
ATOM     51  C   UNL A   1      39.666  26.892  27.949  1.00  0.00     0.029 A 
ATOM     52  N   UNL A   1      41.667  27.158  28.911  1.00  0.00    -0.354 N 
ATOM     53  C   UNL A   1      42.638  30.764  31.069  1.00  0.00     0.074 A 
ATOM     54  C   UNL A   1      41.548  31.712  31.040  1.00  0.00     0.031 C 
ATOM     55  C   UNL A   1      40.347  25.750  27.781  1.00  0.00     0.029 A 
ATOM     56  C   UNL A   1      41.668  25.887  28.386  1.00  0.00     0.049 A 
ATOM     57  H   UNL A   1      42.444  27.553  29.371  1.00  0.00     0.167 HD
ATOM     58  C   UNL A   1      43.823  30.979  31.690  1.00  0.00     0.031 A 
ATOM     59  C   UNL A   1      42.618  24.932  28.386  1.00  0.00     0.031 A 
ATOM     60  C   UNL A   1      44.899  30.023  31.733  1.00  0.00     0.049 A 
ATOM     61  C   UNL A   1      43.929  25.202  29.061  1.00  0.00     0.074 A 
ATOM     62  C   UNL A   1      46.123  30.141  32.372  1.00  0.00     0.029 A 
ATOM     63  N   UNL A   1      44.888  28.780  31.121  1.00  0.00    -0.354 N 
ATOM     64  N   UNL A   1      44.299  26.266  29.732  1.00  0.00    -0.248 NA
ATOM     65  C   UNL A   1      44.952  24.152  28.977  1.00  0.00     0.031 C 
ATOM     66  C   UNL A   1      46.873  28.996  32.094  1.00  0.00     0.029 A 
ATOM     67  C   UNL A   1      46.095  28.136  31.336  1.00  0.00     0.049 A 
ATOM     68  H   UNL A   1      44.134  28.409  30.607  1.00  0.00     0.167 HD
ATOM     69  C   UNL A   1      45.603  26.019  30.143  1.00  0.00     0.074 A 
ATOM     70  C   UNL A   1      45.946  24.692  29.672  1.00  0.00     0.031 C 
ATOM     71  C   UNL A   1      46.439  26.826  30.839  1.00  0.00     0.031 A 
BRANCH  58  72
ATOM     72  C   UNL A   1      44.039  32.302  32.380  1.00  0.00    -0.014 A 
ATOM     73  C   UNL A   1      44.582  33.381  31.658  1.00  0.00     0.010 A 
ATOM     74  C   UNL A   1      43.816  32.446  33.760  1.00  0.00     0.010 A 
ATOM     75  C   UNL A   1      44.919  34.573  32.305  1.00  0.00     0.020 A 
ATOM     76  C   UNL A   1      44.130  33.646  34.408  1.00  0.00     0.020 A 
ATOM     77  C   UNL A   1      44.699  34.695  33.679  1.00  0.00     0.054 A 
BRANCH  77  78
ATOM     78  S   UNL A   1      45.152  36.244  34.508  1.00  0.00     0.124 S 
ATOM     79  O   UNL A   1      43.995  36.485  35.364  1.00  0.00    -0.237 OA
ATOM     80  O   UNL A   1      46.388  35.890  35.200  1.00  0.00    -0.237 OA
ATOM     81  O   UNL A   1      45.319  37.184  33.401  1.00  0.00    -0.744 OA
ENDBRANCH  77  78
ENDBRANCH  58  72
BRANCH  59  82
ATOM     82  C   UNL A   1      42.320  23.631  27.731  1.00  0.00    -0.014 A 
ATOM     83  C   UNL A   1      41.640  22.621  28.441  1.00  0.00     0.010 A 
ATOM     84  C   UNL A   1      42.824  23.348  26.451  1.00  0.00     0.010 A 
ATOM     85  C   UNL A   1      41.537  21.332  27.913  1.00  0.00     0.020 A 
ATOM     86  C   UNL A   1      42.697  22.065  25.907  1.00  0.00     0.020 A 
ATOM     87  C   UNL A   1      42.086  21.057  26.659  1.00  0.00     0.054 A 
BRANCH  87  88
ATOM     88  S   UNL A   1      42.021  19.357  26.031  1.00  0.00     0.124 S 
ATOM     89  O   UNL A   1      40.595  19.196  25.756  1.00  0.00    -0.237 OA
ATOM     90  O   UNL A   1      42.885  19.415  24.855  1.00  0.00    -0.237 OA
ATOM     91  O   UNL A   1      42.538  18.563  27.142  1.00  0.00    -0.744 OA
ENDBRANCH  87  88
ENDBRANCH  59  82
BRANCH  71  92
ATOM     92  C   UNL A   1      47.830  26.325  31.117  1.00  0.00    -0.014 A 
ATOM     93  C   UNL A   1      48.107  25.639  32.314  1.00  0.00     0.010 A 
ATOM     94  C   UNL A   1      48.888  26.636  30.244  1.00  0.00     0.010 A 
ATOM     95  C   UNL A   1      49.419  25.297  32.648  1.00  0.00     0.020 A 
ATOM     96  C   UNL A   1      50.200  26.272  30.563  1.00  0.00     0.020 A 
ATOM     97  C   UNL A   1      50.459  25.627  31.774  1.00  0.00     0.054 A 
BRANCH  97  98
ATOM     98  S   UNL A   1      52.160  25.193  32.231  1.00  0.00     0.124 S 
ATOM     99  O   UNL A   1      52.083  23.741  32.360  1.00  0.00    -0.237 OA
ATOM    100  O   UNL A   1      52.936  25.684  31.094  1.00  0.00    -0.237 OA
ATOM    101  O   UNL A   1      52.374  25.922  33.479  1.00  0.00    -0.744 OA
ENDBRANCH  97  98
ENDBRANCH  71  92
ENDBRANCH  45  46
ENDBRANCH  37  40
ENDBRANCH  35  36
ENDBRANCH  34  35
ENDBRANCH  33  34
ENDBRANCH   1  33
TORSDOF 19
ENDMDL
