MODEL 1
REMARK VINA RESULT:     -11.7      0.000      0.000
REMARK SMILES O=C(NCCCCNC(=O)[C@]1(CCc2ccccc2)C[C@H]2CC[C@@H]1O2)c1ccc(-c2c3nc(c(-c4ccc(S(=O)(=O)[O-])cc4)c4ccc([nH]4)c(-c4ccc(S(=O)(=O)[O-])cc4)c4nc(c(-c5ccc(S(=O)(=O)[O-])cc5)c5ccc2[nH]5)C=C4)C=C3)cc1
REMARK SMILES IDX 5 1 4 2 3 3 1 4 2 5 26 7 27 8 85 9 28 10 84 11 29 12 30 13
REMARK SMILES IDX 31 14 78 15 32 16 83 17 77 18 79 19 33 20 82 21 76 22 75 23
REMARK SMILES IDX 34 25 64 26 45 27 63 28 46 29 49 30 62 31 80 32 47 33 48 34
REMARK SMILES IDX 61 36 81 37 50 38 35 39 36 40 44 41 37 42 43 43 38 44 39 45
REMARK SMILES IDX 40 46 41 47 42 48 65 49 66 50 74 51 67 52 73 53 68 54 69 55
REMARK SMILES IDX 70 56 71 57 72 58 51 59 52 60 60 61 53 62 59 63 54 64 55 65
REMARK SMILES IDX 56 66 57 67 58 68 6 69 7 70 8 71 9 72 10 74 11 75 20 76
REMARK SMILES IDX 24 77 21 78 23 79 25 80 22 81 12 82 13 83 14 84 15 85 19 86
REMARK SMILES IDX 16 87 18 88 17 89
REMARK H PARENT 3 6 79 24 49 35 8 73
REMARK Flexibility Score: inf
ROOT
ATOM      1  C   UNL A   1      39.707  21.952  26.925  1.00  0.00     0.023 C 
ENDROOT
BRANCH   1   2
ATOM      2  C   UNL A   1      40.624  23.075  27.388  1.00  0.00     0.116 C 
BRANCH   2   3
ATOM      3  N   UNL A   1      41.001  23.933  26.274  1.00  0.00    -0.352 N 
ATOM      4  O   UNL A   1      41.115  25.835  25.081  1.00  0.00    -0.269 OA
ATOM      5  C   UNL A   1      41.025  25.303  26.201  1.00  0.00     0.251 C 
ATOM      6  H   UNL A   1      41.280  23.463  25.456  1.00  0.00     0.163 HD
BRANCH   5   7
ATOM      7  C   UNL A   1      40.947  26.160  27.409  1.00  0.00     0.039 A 
ATOM      8  C   UNL A   1      41.907  27.142  27.666  1.00  0.00     0.014 A 
ATOM      9  C   UNL A   1      39.844  26.043  28.266  1.00  0.00     0.014 A 
ATOM     10  C   UNL A   1      41.814  27.934  28.812  1.00  0.00     0.010 A 
ATOM     11  C   UNL A   1      39.714  26.888  29.376  1.00  0.00     0.010 A 
ATOM     12  C   UNL A   1      40.705  27.836  29.668  1.00  0.00    -0.014 A 
BRANCH  12  13
ATOM     13  C   UNL A   1      40.563  28.782  30.811  1.00  0.00     0.031 A 
ATOM     14  C   UNL A   1      41.456  28.686  32.022  1.00  0.00     0.074 A 
ATOM     15  C   UNL A   1      39.612  29.738  30.754  1.00  0.00     0.049 A 
ATOM     16  N   UNL A   1      41.462  29.427  33.101  1.00  0.00    -0.248 NA
ATOM     17  C   UNL A   1      42.462  27.614  32.026  1.00  0.00     0.031 C 
ATOM     18  C   UNL A   1      38.675  29.928  29.644  1.00  0.00     0.029 A 
ATOM     19  N   UNL A   1      39.285  30.737  31.636  1.00  0.00    -0.354 N 
ATOM     20  C   UNL A   1      42.451  28.898  33.924  1.00  0.00     0.074 A 
ATOM     21  C   UNL A   1      43.008  27.758  33.228  1.00  0.00     0.031 C 
ATOM     22  C   UNL A   1      37.915  31.006  29.888  1.00  0.00     0.029 A 
ATOM     23  C   UNL A   1      38.261  31.545  31.198  1.00  0.00     0.049 A 
ATOM     24  H   UNL A   1      39.739  30.864  32.500  1.00  0.00     0.167 HD
ATOM     25  C   UNL A   1      42.857  29.324  35.146  1.00  0.00     0.031 A 
ATOM     26  C   UNL A   1      37.654  32.595  31.785  1.00  0.00     0.031 A 
ATOM     27  C   UNL A   1      42.299  30.462  35.833  1.00  0.00     0.049 A 
ATOM     28  C   UNL A   1      38.112  33.035  33.146  1.00  0.00     0.074 A 
ATOM     29  C   UNL A   1      42.671  30.997  37.057  1.00  0.00     0.029 A 
ATOM     30  N   UNL A   1      41.251  31.240  35.364  1.00  0.00    -0.354 N 
ATOM     31  N   UNL A   1      39.073  32.541  33.891  1.00  0.00    -0.248 NA
ATOM     32  C   UNL A   1      37.409  34.177  33.743  1.00  0.00     0.031 C 
ATOM     33  C   UNL A   1      41.811  32.060  37.351  1.00  0.00     0.029 A 
ATOM     34  C   UNL A   1      40.947  32.234  36.282  1.00  0.00     0.049 A 
ATOM     35  H   UNL A   1      40.788  31.105  34.505  1.00  0.00     0.167 HD
ATOM     36  C   UNL A   1      39.110  33.333  35.032  1.00  0.00     0.074 A 
ATOM     37  C   UNL A   1      38.085  34.346  34.870  1.00  0.00     0.031 C 
ATOM     38  C   UNL A   1      39.923  33.235  36.113  1.00  0.00     0.031 A 
BRANCH  25  39
ATOM     39  C   UNL A   1      43.938  28.533  35.843  1.00  0.00    -0.014 A 
ATOM     40  C   UNL A   1      45.298  28.856  35.691  1.00  0.00     0.010 A 
ATOM     41  C   UNL A   1      43.582  27.477  36.703  1.00  0.00     0.010 A 
ATOM     42  C   UNL A   1      46.283  28.111  36.348  1.00  0.00     0.020 A 
ATOM     43  C   UNL A   1      44.560  26.748  37.385  1.00  0.00     0.020 A 
ATOM     44  C   UNL A   1      45.907  27.057  37.188  1.00  0.00     0.054 A 
BRANCH  44  45
ATOM     45  S   UNL A   1      47.206  26.115  38.036  1.00  0.00     0.124 S 
ATOM     46  O   UNL A   1      46.709  26.088  39.409  1.00  0.00    -0.237 OA
ATOM     47  O   UNL A   1      47.188  24.838  37.336  1.00  0.00    -0.237 OA
ATOM     48  O   UNL A   1      48.410  26.923  37.828  1.00  0.00    -0.744 OA
ENDBRANCH  44  45
ENDBRANCH  25  39
BRANCH  26  49
ATOM     49  C   UNL A   1      36.548  33.301  31.082  1.00  0.00    -0.014 A 
ATOM     50  C   UNL A   1      35.250  33.316  31.623  1.00  0.00     0.010 A 
ATOM     51  C   UNL A   1      36.790  33.980  29.873  1.00  0.00     0.010 A 
ATOM     52  C   UNL A   1      34.213  33.983  30.963  1.00  0.00     0.020 A 
ATOM     53  C   UNL A   1      35.765  34.674  29.226  1.00  0.00     0.020 A 
ATOM     54  C   UNL A   1      34.480  34.661  29.769  1.00  0.00     0.054 A 
BRANCH  54  55
ATOM     55  S   UNL A   1      33.130  35.561  28.956  1.00  0.00     0.124 S 
ATOM     56  O   UNL A   1      33.856  36.560  28.179  1.00  0.00    -0.237 OA
ATOM     57  O   UNL A   1      32.470  34.512  28.185  1.00  0.00    -0.237 OA
ATOM     58  O   UNL A   1      32.348  36.085  30.076  1.00  0.00    -0.744 OA
ENDBRANCH  54  55
ENDBRANCH  26  49
BRANCH  38  59
ATOM     59  C   UNL A   1      39.771  34.281  37.185  1.00  0.00    -0.014 A 
ATOM     60  C   UNL A   1      38.957  34.070  38.311  1.00  0.00     0.010 A 
ATOM     61  C   UNL A   1      40.480  35.492  37.069  1.00  0.00     0.010 A 
ATOM     62  C   UNL A   1      38.818  35.069  39.279  1.00  0.00     0.020 A 
ATOM     63  C   UNL A   1      40.369  36.479  38.051  1.00  0.00     0.020 A 
ATOM     64  C   UNL A   1      39.522  36.269  39.140  1.00  0.00     0.054 A 
BRANCH  64  65
ATOM     65  S   UNL A   1      39.342  37.544  40.418  1.00  0.00     0.124 S 
ATOM     66  O   UNL A   1      40.639  38.212  40.366  1.00  0.00    -0.237 OA
ATOM     67  O   UNL A   1      38.210  38.330  39.929  1.00  0.00    -0.237 OA
ATOM     68  O   UNL A   1      39.081  36.781  41.635  1.00  0.00    -0.744 OA
ENDBRANCH  64  65
ENDBRANCH  38  59
ENDBRANCH  12  13
ENDBRANCH   5   7
ENDBRANCH   2   3
ENDBRANCH   1   2
BRANCH   1  69
ATOM     69  C   UNL A   1      38.803  22.187  25.700  1.00  0.00     0.023 C 
BRANCH  69  70
ATOM     70  C   UNL A   1      37.323  22.708  25.704  1.00  0.00     0.116 C 
BRANCH  70  71
ATOM     71  N   UNL A   1      36.200  22.188  26.523  1.00  0.00    -0.356 N 
ATOM     72  C   UNL A   1      34.825  22.140  26.593  1.00  0.00     0.228 C 
ATOM     73  H   UNL A   1      36.572  21.703  27.296  1.00  0.00     0.163 HD
ATOM     74  O   UNL A   1      34.377  21.438  27.509  1.00  0.00    -0.274 OA
BRANCH  72  75
ATOM     75  C   UNL A   1      33.867  22.811  25.596  1.00  0.00     0.078 C 
ATOM     76  C   UNL A   1      34.351  23.076  24.138  1.00  0.00     0.051 C 
ATOM     77  C   UNL A   1      33.818  24.286  26.119  1.00  0.00     0.134 C 
ATOM     78  C   UNL A   1      34.239  24.593  24.009  1.00  0.00     0.120 C 
ATOM     79  C   UNL A   1      32.617  25.102  25.688  1.00  0.00     0.036 C 
ATOM     80  O   UNL A   1      34.813  24.964  25.272  1.00  0.00    -0.374 OA
ATOM     81  C   UNL A   1      32.800  25.118  24.170  1.00  0.00     0.035 C 
BRANCH  75  82
ATOM     82  C   UNL A   1      32.621  21.949  25.464  1.00  0.00     0.024 C 
BRANCH  82  83
ATOM     83  C   UNL A   1      32.542  21.018  24.191  1.00  0.00     0.037 C 
BRANCH  83  84
ATOM     84  C   UNL A   1      33.003  19.557  24.045  1.00  0.00    -0.048 A 
ATOM     85  C   UNL A   1      34.250  19.191  24.573  1.00  0.00     0.004 A 
ATOM     86  C   UNL A   1      32.393  18.570  23.256  1.00  0.00     0.004 A 
ATOM     87  C   UNL A   1      34.819  17.927  24.332  1.00  0.00     0.000 A 
ATOM     88  C   UNL A   1      32.928  17.297  23.029  1.00  0.00     0.000 A 
ATOM     89  C   UNL A   1      34.156  16.976  23.564  1.00  0.00     0.000 A 
ENDBRANCH  83  84
ENDBRANCH  82  83
ENDBRANCH  75  82
ENDBRANCH  72  75
ENDBRANCH  70  71
ENDBRANCH  69  70
ENDBRANCH   1  69
TORSDOF 17
ENDMDL
MODEL 2
REMARK VINA RESULT:     -11.7      7.062     12.739
REMARK SMILES O=C(NCCCCNC(=O)[C@]1(CCc2ccccc2)C[C@H]2CC[C@@H]1O2)c1ccc(-c2c3nc(c(-c4ccc(S(=O)(=O)[O-])cc4)c4ccc([nH]4)c(-c4ccc(S(=O)(=O)[O-])cc4)c4nc(c(-c5ccc(S(=O)(=O)[O-])cc5)c5ccc2[nH]5)C=C4)C=C3)cc1
REMARK SMILES IDX 5 1 4 2 3 3 1 4 2 5 26 7 27 8 85 9 28 10 84 11 29 12 30 13
REMARK SMILES IDX 31 14 78 15 32 16 83 17 77 18 79 19 33 20 82 21 76 22 75 23
REMARK SMILES IDX 34 25 64 26 45 27 63 28 46 29 49 30 62 31 80 32 47 33 48 34
REMARK SMILES IDX 61 36 81 37 50 38 35 39 36 40 44 41 37 42 43 43 38 44 39 45
REMARK SMILES IDX 40 46 41 47 42 48 65 49 66 50 74 51 67 52 73 53 68 54 69 55
REMARK SMILES IDX 70 56 71 57 72 58 51 59 52 60 60 61 53 62 59 63 54 64 55 65
REMARK SMILES IDX 56 66 57 67 58 68 6 69 7 70 8 71 9 72 10 74 11 75 20 76
REMARK SMILES IDX 24 77 21 78 23 79 25 80 22 81 12 82 13 83 14 84 15 85 19 86
REMARK SMILES IDX 16 87 18 88 17 89
REMARK H PARENT 3 6 79 24 49 35 8 73
REMARK Flexibility Score: inf
ROOT
ATOM      1  C   UNL A   1      34.064  30.058  27.139  1.00  0.00     0.023 C 
ENDROOT
BRANCH   1   2
ATOM      2  C   UNL A   1      35.462  30.210  27.718  1.00  0.00     0.116 C 
BRANCH   2   3
ATOM      3  N   UNL A   1      35.427  30.210  29.174  1.00  0.00    -0.352 N 
ATOM      4  O   UNL A   1      36.058  29.635  31.254  1.00  0.00    -0.269 OA
ATOM      5  C   UNL A   1      36.387  29.809  30.067  1.00  0.00     0.251 C 
ATOM      6  H   UNL A   1      34.593  30.546  29.575  1.00  0.00     0.163 HD
BRANCH   5   7
ATOM      7  C   UNL A   1      37.796  29.580  29.662  1.00  0.00     0.039 A 
ATOM      8  C   UNL A   1      38.780  29.265  30.603  1.00  0.00     0.014 A 
ATOM      9  C   UNL A   1      38.131  29.593  28.301  1.00  0.00     0.014 A 
ATOM     10  C   UNL A   1      40.100  29.056  30.197  1.00  0.00     0.010 A 
ATOM     11  C   UNL A   1      39.441  29.312  27.890  1.00  0.00     0.010 A 
ATOM     12  C   UNL A   1      40.443  29.052  28.836  1.00  0.00    -0.014 A 
BRANCH  12  13
ATOM     13  C   UNL A   1      41.830  28.698  28.421  1.00  0.00     0.031 A 
ATOM     14  C   UNL A   1      42.930  29.728  28.406  1.00  0.00     0.074 A 
ATOM     15  C   UNL A   1      42.097  27.428  28.050  1.00  0.00     0.049 A 
ATOM     16  N   UNL A   1      44.188  29.585  28.070  1.00  0.00    -0.248 NA
ATOM     17  C   UNL A   1      42.570  31.095  28.809  1.00  0.00     0.031 C 
ATOM     18  C   UNL A   1      41.117  26.339  28.008  1.00  0.00     0.029 A 
ATOM     19  N   UNL A   1      43.268  26.831  27.655  1.00  0.00    -0.354 N 
ATOM     20  C   UNL A   1      44.763  30.845  28.193  1.00  0.00     0.074 A 
ATOM     21  C   UNL A   1      43.711  31.745  28.614  1.00  0.00     0.031 C 
ATOM     22  C   UNL A   1      41.736  25.201  27.659  1.00  0.00     0.029 A 
ATOM     23  C   UNL A   1      43.139  25.487  27.387  1.00  0.00     0.049 A 
ATOM     24  H   UNL A   1      44.120  27.317  27.571  1.00  0.00     0.167 HD
ATOM     25  C   UNL A   1      46.050  31.217  27.978  1.00  0.00     0.031 A 
ATOM     26  C   UNL A   1      44.042  24.584  26.958  1.00  0.00     0.031 A 
ATOM     27  C   UNL A   1      47.094  30.314  27.561  1.00  0.00     0.049 A 
ATOM     28  C   UNL A   1      45.456  25.026  26.710  1.00  0.00     0.074 A 
ATOM     29  C   UNL A   1      48.437  30.588  27.355  1.00  0.00     0.029 A 
ATOM     30  N   UNL A   1      46.917  28.967  27.281  1.00  0.00    -0.354 N 
ATOM     31  N   UNL A   1      45.985  26.216  26.868  1.00  0.00    -0.248 NA
ATOM     32  C   UNL A   1      46.394  24.003  26.233  1.00  0.00     0.031 C 
ATOM     33  C   UNL A   1      49.057  29.420  26.897  1.00  0.00     0.029 A 
ATOM     34  C   UNL A   1      48.118  28.402  26.883  1.00  0.00     0.049 A 
ATOM     35  H   UNL A   1      46.062  28.483  27.354  1.00  0.00     0.167 HD
ATOM     36  C   UNL A   1      47.328  26.077  26.538  1.00  0.00     0.074 A 
ATOM     37  C   UNL A   1      47.530  24.684  26.188  1.00  0.00     0.031 C 
ATOM     38  C   UNL A   1      48.307  27.015  26.533  1.00  0.00     0.031 A 
BRANCH  25  39
ATOM     39  C   UNL A   1      46.399  32.675  28.153  1.00  0.00    -0.014 A 
ATOM     40  C   UNL A   1      46.886  33.172  29.375  1.00  0.00     0.010 A 
ATOM     41  C   UNL A   1      46.282  33.554  27.059  1.00  0.00     0.010 A 
ATOM     42  C   UNL A   1      47.206  34.527  29.514  1.00  0.00     0.020 A 
ATOM     43  C   UNL A   1      46.628  34.903  27.184  1.00  0.00     0.020 A 
ATOM     44  C   UNL A   1      47.069  35.386  28.417  1.00  0.00     0.054 A 
BRANCH  44  45
ATOM     45  S   UNL A   1      47.504  37.136  28.624  1.00  0.00     0.124 S 
ATOM     46  O   UNL A   1      46.208  37.788  28.454  1.00  0.00    -0.237 OA
ATOM     47  O   UNL A   1      48.055  37.174  29.972  1.00  0.00    -0.237 OA
ATOM     48  O   UNL A   1      48.468  37.382  27.550  1.00  0.00    -0.744 OA
ENDBRANCH  44  45
ENDBRANCH  25  39
BRANCH  26  49
ATOM     49  C   UNL A   1      43.630  23.170  26.738  1.00  0.00    -0.014 A 
ATOM     50  C   UNL A   1      43.869  22.538  25.505  1.00  0.00     0.010 A 
ATOM     51  C   UNL A   1      43.012  22.439  27.771  1.00  0.00     0.010 A 
ATOM     52  C   UNL A   1      43.483  21.209  25.302  1.00  0.00     0.020 A 
ATOM     53  C   UNL A   1      42.654  21.103  27.583  1.00  0.00     0.020 A 
ATOM     54  C   UNL A   1      42.882  20.499  26.346  1.00  0.00     0.054 A 
BRANCH  54  55
ATOM     55  S   UNL A   1      42.437  18.760  26.076  1.00  0.00     0.124 S 
ATOM     56  O   UNL A   1      41.034  18.862  25.692  1.00  0.00    -0.237 OA
ATOM     57  O   UNL A   1      43.359  18.360  25.016  1.00  0.00    -0.237 OA
ATOM     58  O   UNL A   1      42.688  18.139  27.376  1.00  0.00    -0.744 OA
ENDBRANCH  54  55
ENDBRANCH  26  49
BRANCH  38  59
ATOM     59  C   UNL A   1      49.698  26.556  26.183  1.00  0.00    -0.014 A 
ATOM     60  C   UNL A   1      50.235  26.744  24.898  1.00  0.00     0.010 A 
ATOM     61  C   UNL A   1      50.489  25.945  27.174  1.00  0.00     0.010 A 
ATOM     62  C   UNL A   1      51.522  26.286  24.596  1.00  0.00     0.020 A 
ATOM     63  C   UNL A   1      51.787  25.516  26.886  1.00  0.00     0.020 A 
ATOM     64  C   UNL A   1      52.288  25.672  25.592  1.00  0.00     0.054 A 
BRANCH  64  65
ATOM     65  S   UNL A   1      53.961  25.104  25.184  1.00  0.00     0.124 S 
ATOM     66  O   UNL A   1      54.705  25.461  26.389  1.00  0.00    -0.237 OA
ATOM     67  O   UNL A   1      53.769  23.671  24.967  1.00  0.00    -0.237 OA
ATOM     68  O   UNL A   1      54.305  25.867  23.989  1.00  0.00    -0.744 OA
ENDBRANCH  64  65
ENDBRANCH  38  59
ENDBRANCH  12  13
ENDBRANCH   5   7
ENDBRANCH   2   3
ENDBRANCH   1   2
BRANCH   1  69
ATOM     69  C   UNL A   1      33.366  28.688  27.228  1.00  0.00     0.023 C 
BRANCH  69  70
ATOM     70  C   UNL A   1      31.839  28.419  27.472  1.00  0.00     0.116 C 
BRANCH  70  71
ATOM     71  N   UNL A   1      31.080  27.201  27.096  1.00  0.00    -0.356 N 
ATOM     72  C   UNL A   1      30.701  26.436  26.015  1.00  0.00     0.228 C 
ATOM     73  H   UNL A   1      30.714  26.793  27.914  1.00  0.00     0.163 HD
ATOM     74  O   UNL A   1      30.104  25.392  26.303  1.00  0.00    -0.274 OA
BRANCH  72  75
ATOM     75  C   UNL A   1      31.035  26.754  24.548  1.00  0.00     0.078 C 
ATOM     76  C   UNL A   1      30.304  25.972  23.415  1.00  0.00     0.051 C 
ATOM     77  C   UNL A   1      32.469  26.144  24.392  1.00  0.00     0.134 C 
ATOM     78  C   UNL A   1      31.451  25.289  22.674  1.00  0.00     0.120 C 
ATOM     79  C   UNL A   1      33.300  26.689  23.248  1.00  0.00     0.036 C 
ATOM     80  O   UNL A   1      32.197  24.821  23.807  1.00  0.00    -0.374 OA
ATOM     81  C   UNL A   1      32.450  26.278  22.045  1.00  0.00     0.035 C 
BRANCH  75  82
ATOM     82  C   UNL A   1      30.740  28.222  24.290  1.00  0.00     0.024 C 
BRANCH  82  83
ATOM     83  C   UNL A   1      29.535  28.537  23.318  1.00  0.00     0.037 C 
BRANCH  83  84
ATOM     84  C   UNL A   1      28.985  29.909  22.892  1.00  0.00    -0.048 A 
ATOM     85  C   UNL A   1      28.514  30.065  21.580  1.00  0.00     0.004 A 
ATOM     86  C   UNL A   1      29.082  31.104  23.620  1.00  0.00     0.004 A 
ATOM     87  C   UNL A   1      28.159  31.324  21.060  1.00  0.00     0.000 A 
ATOM     88  C   UNL A   1      28.705  32.360  23.133  1.00  0.00     0.000 A 
ATOM     89  C   UNL A   1      28.249  32.472  21.838  1.00  0.00     0.000 A 
ENDBRANCH  83  84
ENDBRANCH  82  83
ENDBRANCH  75  82
ENDBRANCH  72  75
ENDBRANCH  70  71
ENDBRANCH  69  70
ENDBRANCH   1  69
TORSDOF 17
ENDMDL
MODEL 3
REMARK VINA RESULT:     -11.7      4.537     10.249
REMARK SMILES O=C(NCCCCNC(=O)[C@]1(CCc2ccccc2)C[C@H]2CC[C@@H]1O2)c1ccc(-c2c3nc(c(-c4ccc(S(=O)(=O)[O-])cc4)c4ccc([nH]4)c(-c4ccc(S(=O)(=O)[O-])cc4)c4nc(c(-c5ccc(S(=O)(=O)[O-])cc5)c5ccc2[nH]5)C=C4)C=C3)cc1
REMARK SMILES IDX 5 1 4 2 3 3 1 4 2 5 26 7 27 8 85 9 28 10 84 11 29 12 30 13
REMARK SMILES IDX 31 14 78 15 32 16 83 17 77 18 79 19 33 20 82 21 76 22 75 23
REMARK SMILES IDX 34 25 64 26 45 27 63 28 46 29 49 30 62 31 80 32 47 33 48 34
REMARK SMILES IDX 61 36 81 37 50 38 35 39 36 40 44 41 37 42 43 43 38 44 39 45
REMARK SMILES IDX 40 46 41 47 42 48 65 49 66 50 74 51 67 52 73 53 68 54 69 55
REMARK SMILES IDX 70 56 71 57 72 58 51 59 52 60 60 61 53 62 59 63 54 64 55 65
REMARK SMILES IDX 56 66 57 67 58 68 6 69 7 70 8 71 9 72 10 74 11 75 20 76
REMARK SMILES IDX 24 77 21 78 23 79 25 80 22 81 12 82 13 83 14 84 15 85 19 86
REMARK SMILES IDX 16 87 18 88 17 89
REMARK H PARENT 3 6 79 24 49 35 8 73
REMARK Flexibility Score: inf
ROOT
ATOM      1  C   UNL A   1      32.542  27.602  27.298  1.00  0.00     0.023 C 
ENDROOT
BRANCH   1   2
ATOM      2  C   UNL A   1      33.512  28.497  26.541  1.00  0.00     0.116 C 
BRANCH   2   3
ATOM      3  N   UNL A   1      33.412  29.876  26.997  1.00  0.00    -0.352 N 
ATOM      4  O   UNL A   1      33.861  31.661  28.287  1.00  0.00    -0.269 OA
ATOM      5  C   UNL A   1      34.265  30.592  27.799  1.00  0.00     0.251 C 
ATOM      6  H   UNL A   1      32.618  30.367  26.684  1.00  0.00     0.163 HD
BRANCH   5   7
ATOM      7  C   UNL A   1      35.642  30.130  28.097  1.00  0.00     0.039 A 
ATOM      8  C   UNL A   1      36.667  30.244  27.154  1.00  0.00     0.014 A 
ATOM      9  C   UNL A   1      35.944  29.648  29.378  1.00  0.00     0.014 A 
ATOM     10  C   UNL A   1      37.955  29.799  27.457  1.00  0.00     0.010 A 
ATOM     11  C   UNL A   1      37.254  29.270  29.704  1.00  0.00     0.010 A 
ATOM     12  C   UNL A   1      38.272  29.330  28.742  1.00  0.00    -0.014 A 
BRANCH  12  13
ATOM     13  C   UNL A   1      39.682  28.984  29.080  1.00  0.00     0.031 A 
ATOM     14  C   UNL A   1      40.580  29.967  29.785  1.00  0.00     0.074 A 
ATOM     15  C   UNL A   1      40.155  27.767  28.742  1.00  0.00     0.049 A 
ATOM     16  N   UNL A   1      41.830  29.825  30.150  1.00  0.00    -0.248 NA
ATOM     17  C   UNL A   1      40.007  31.280  30.115  1.00  0.00     0.031 C 
ATOM     18  C   UNL A   1      39.391  26.729  28.044  1.00  0.00     0.029 A 
ATOM     19  N   UNL A   1      41.382  27.187  28.950  1.00  0.00    -0.354 N 
ATOM     20  C   UNL A   1      42.202  31.036  30.725  1.00  0.00     0.074 A 
ATOM     21  C   UNL A   1      41.051  31.908  30.641  1.00  0.00     0.031 C 
ATOM     22  C   UNL A   1      40.146  25.627  27.927  1.00  0.00     0.029 A 
ATOM     23  C   UNL A   1      41.468  25.897  28.478  1.00  0.00     0.049 A 
ATOM     24  H   UNL A   1      42.129  27.649  29.394  1.00  0.00     0.167 HD
ATOM     25  C   UNL A   1      43.393  31.386  31.273  1.00  0.00     0.031 A 
ATOM     26  C   UNL A   1      42.497  25.027  28.475  1.00  0.00     0.031 A 
ATOM     27  C   UNL A   1      44.535  30.511  31.355  1.00  0.00     0.049 A 
ATOM     28  C   UNL A   1      43.809  25.447  29.074  1.00  0.00     0.074 A 
ATOM     29  C   UNL A   1      45.771  30.761  31.929  1.00  0.00     0.029 A 
ATOM     30  N   UNL A   1      44.587  29.220  30.848  1.00  0.00    -0.354 N 
ATOM     31  N   UNL A   1      44.127  26.585  29.644  1.00  0.00    -0.248 NA
ATOM     32  C   UNL A   1      44.899  24.464  29.033  1.00  0.00     0.031 C 
ATOM     33  C   UNL A   1      46.587  29.644  31.718  1.00  0.00     0.029 A 
ATOM     34  C   UNL A   1      45.840  28.671  31.074  1.00  0.00     0.049 A 
ATOM     35  H   UNL A   1      43.843  28.762  30.393  1.00  0.00     0.167 HD
ATOM     36  C   UNL A   1      45.446  26.443  30.059  1.00  0.00     0.074 A 
ATOM     37  C   UNL A   1      45.859  25.104  29.686  1.00  0.00     0.031 C 
ATOM     38  C   UNL A   1      46.241  27.338  30.696  1.00  0.00     0.031 A 
BRANCH  25  39
ATOM     39  C   UNL A   1      43.537  32.794  31.798  1.00  0.00    -0.014 A 
ATOM     40  C   UNL A   1      44.095  33.818  31.012  1.00  0.00     0.010 A 
ATOM     41  C   UNL A   1      43.062  33.108  33.086  1.00  0.00     0.010 A 
ATOM     42  C   UNL A   1      44.217  35.116  31.519  1.00  0.00     0.020 A 
ATOM     43  C   UNL A   1      43.155  34.410  33.586  1.00  0.00     0.020 A 
ATOM     44  C   UNL A   1      43.750  35.403  32.807  1.00  0.00     0.054 A 
BRANCH  44  45
ATOM     45  S   UNL A   1      43.911  37.099  33.433  1.00  0.00     0.124 S 
ATOM     46  O   UNL A   1      45.250  37.078  34.016  1.00  0.00    -0.237 OA
ATOM     47  O   UNL A   1      43.763  37.902  32.226  1.00  0.00    -0.237 OA
ATOM     48  O   UNL A   1      42.816  37.217  34.398  1.00  0.00    -0.744 OA
ENDBRANCH  44  45
ENDBRANCH  25  39
BRANCH  26  49
ATOM     49  C   UNL A   1      42.321  23.671  27.886  1.00  0.00    -0.014 A 
ATOM     50  C   UNL A   1      42.412  23.478  26.496  1.00  0.00     0.010 A 
ATOM     51  C   UNL A   1      42.081  22.559  28.715  1.00  0.00     0.010 A 
ATOM     52  C   UNL A   1      42.249  22.203  25.945  1.00  0.00     0.020 A 
ATOM     53  C   UNL A   1      41.949  21.279  28.171  1.00  0.00     0.020 A 
ATOM     54  C   UNL A   1      42.023  21.111  26.788  1.00  0.00     0.054 A 
BRANCH  54  55
ATOM     55  S   UNL A   1      41.866  19.459  26.054  1.00  0.00     0.124 S 
ATOM     56  O   UNL A   1      40.445  19.405  25.729  1.00  0.00    -0.237 OA
ATOM     57  O   UNL A   1      42.776  19.532  24.915  1.00  0.00    -0.237 OA
ATOM     58  O   UNL A   1      42.298  18.567  27.129  1.00  0.00    -0.744 OA
ENDBRANCH  54  55
ENDBRANCH  26  49
BRANCH  38  59
ATOM     59  C   UNL A   1      47.624  26.880  31.077  1.00  0.00    -0.014 A 
ATOM     60  C   UNL A   1      47.875  26.233  32.300  1.00  0.00     0.010 A 
ATOM     61  C   UNL A   1      48.687  27.083  30.178  1.00  0.00     0.010 A 
ATOM     62  C   UNL A   1      49.174  25.840  32.637  1.00  0.00     0.020 A 
ATOM     63  C   UNL A   1      49.981  26.662  30.497  1.00  0.00     0.020 A 
ATOM     64  C   UNL A   1      50.219  26.061  31.734  1.00  0.00     0.054 A 
BRANCH  64  65
ATOM     65  S   UNL A   1      51.893  25.524  32.182  1.00  0.00     0.124 S 
ATOM     66  O   UNL A   1      52.148  26.303  33.390  1.00  0.00    -0.237 OA
ATOM     67  O   UNL A   1      51.724  24.086  32.386  1.00  0.00    -0.237 OA
ATOM     68  O   UNL A   1      52.698  25.891  31.021  1.00  0.00    -0.744 OA
ENDBRANCH  64  65
ENDBRANCH  38  59
ENDBRANCH  12  13
ENDBRANCH   5   7
ENDBRANCH   2   3
ENDBRANCH   1   2
BRANCH   1  69
ATOM     69  C   UNL A   1      31.328  27.019  26.550  1.00  0.00     0.023 C 
BRANCH  69  70
ATOM     70  C   UNL A   1      31.097  26.996  24.998  1.00  0.00     0.116 C 
BRANCH  70  71
ATOM     71  N   UNL A   1      30.773  25.810  24.166  1.00  0.00    -0.356 N 
ATOM     72  C   UNL A   1      31.139  24.503  23.931  1.00  0.00     0.228 C 
ATOM     73  H   UNL A   1      30.030  26.042  23.563  1.00  0.00     0.163 HD
ATOM     74  O   UNL A   1      30.416  23.899  23.129  1.00  0.00    -0.274 OA
BRANCH  72  75
ATOM     75  C   UNL A   1      32.289  23.768  24.638  1.00  0.00     0.078 C 
ATOM     76  C   UNL A   1      32.712  22.355  24.134  1.00  0.00     0.051 C 
ATOM     77  C   UNL A   1      31.638  23.365  26.005  1.00  0.00     0.134 C 
ATOM     78  C   UNL A   1      32.483  21.471  25.358  1.00  0.00     0.120 C 
ATOM     79  C   UNL A   1      32.603  23.065  27.134  1.00  0.00     0.036 C 
ATOM     80  O   UNL A   1      31.204  21.980  25.762  1.00  0.00    -0.374 OA
ATOM     81  C   UNL A   1      33.355  21.861  26.566  1.00  0.00     0.035 C 
BRANCH  75  82
ATOM     82  C   UNL A   1      33.541  24.625  24.550  1.00  0.00     0.024 C 
BRANCH  82  83
ATOM     83  C   UNL A   1      34.781  23.987  23.810  1.00  0.00     0.037 C 
BRANCH  83  84
ATOM     84  C   UNL A   1      36.063  23.401  24.425  1.00  0.00    -0.048 A 
ATOM     85  C   UNL A   1      36.419  22.082  24.106  1.00  0.00     0.004 A 
ATOM     86  C   UNL A   1      36.832  23.980  25.446  1.00  0.00     0.004 A 
ATOM     87  C   UNL A   1      37.474  21.417  24.758  1.00  0.00     0.000 A 
ATOM     88  C   UNL A   1      37.904  23.347  26.084  1.00  0.00     0.000 A 
ATOM     89  C   UNL A   1      38.222  22.050  25.744  1.00  0.00     0.000 A 
ENDBRANCH  83  84
ENDBRANCH  82  83
ENDBRANCH  75  82
ENDBRANCH  72  75
ENDBRANCH  70  71
ENDBRANCH  69  70
ENDBRANCH   1  69
TORSDOF 17
ENDMDL
