MODEL 1
REMARK VINA RESULT:     -11.4      0.000      0.000
REMARK SMILES Cc1c(Br)c(C)c2c(c1Br)O[C@H](C(F)(F)F)C(C(=O)NCCCCNC(=O)c1ccc(-c3c4nc(c(-c5ccc(S(=O)(=O)[O-])cc5)c5ccc([nH]5)c(-c5ccc(S(=O)(=O)[O-])cc5)c5nc(c(-c6ccc(S(=O)(=O)[O-])cc6)c6ccc3[nH]6)C=C5)C=C4)cc1)=C2
REMARK SMILES IDX 23 1 22 2 21 3 20 4 18 5 19 6 17 8 1 9 2 10 3 11 9 12 4 13
REMARK SMILES IDX 5 14 8 15 10 16 6 17 7 18 11 19 88 20 12 21 13 22 14 23
REMARK SMILES IDX 15 24 16 25 24 26 25 27 26 28 27 30 28 31 29 32 87 33 30 34
REMARK SMILES IDX 86 35 31 36 32 37 33 38 80 39 34 40 85 41 79 42 81 43 35 44
REMARK SMILES IDX 84 45 78 46 77 47 36 49 66 50 47 51 65 52 48 53 51 54 64 55
REMARK SMILES IDX 82 56 49 57 50 58 63 60 83 61 52 62 37 63 38 64 46 65 39 66
REMARK SMILES IDX 45 67 40 68 41 69 42 70 43 71 44 72 67 73 68 74 76 75 69 76
REMARK SMILES IDX 75 77 70 78 71 79 72 80 73 81 74 82 53 83 54 84 62 85 55 86
REMARK SMILES IDX 61 87 56 88 57 89 58 90 59 91 60 92
REMARK H PARENT 20 7 25 29 81 48 51 59
REMARK Flexibility Score: inf
ROOT
ATOM      1  C   UNL A   1      32.552  28.275  26.881  1.00  0.00     0.023 C 
ENDROOT
BRANCH   1   2
ATOM      2  C   UNL A   1      31.439  29.310  26.696  1.00  0.00     0.023 C 
BRANCH   2   3
ATOM      3  C   UNL A   1      31.749  30.381  25.654  1.00  0.00     0.116 C 
BRANCH   3   4
ATOM      4  N   UNL A   1      30.783  30.377  24.569  1.00  0.00    -0.352 N 
ATOM      5  C   UNL A   1      30.391  29.517  23.601  1.00  0.00     0.251 C 
ATOM      6  O   UNL A   1      29.507  29.939  22.848  1.00  0.00    -0.270 OA
ATOM      7  H   UNL A   1      30.281  31.223  24.527  1.00  0.00     0.163 HD
BRANCH   5   8
ATOM      8  C   UNL A   1      30.934  28.142  23.394  1.00  0.00     0.067 C 
ATOM      9  C   UNL A   1      32.436  21.756  23.590  1.00  0.00     0.047 C 
ATOM     10  C   UNL A   1      31.927  23.162  23.804  1.00  0.00    -0.019 A 
ATOM     11  C   UNL A   1      31.129  23.510  24.923  1.00  0.00     0.025 A 
ATOM     12  C   UNL A   1      32.186  24.157  22.842  1.00  0.00     0.064 A 
ATOM     13  Br  UNL A   1      30.613  22.137  26.164  1.00  0.00    -0.050 Br
ATOM     14  C   UNL A   1      30.667  24.839  25.122  1.00  0.00    -0.026 A 
ATOM     15  C   UNL A   1      31.717  25.469  23.017  1.00  0.00     0.142 A 
ATOM     16  Br  UNL A   1      33.168  23.758  21.244  1.00  0.00    -0.046 Br
ATOM     17  C   UNL A   1      29.846  25.238  26.330  1.00  0.00     0.046 C 
ATOM     18  C   UNL A   1      30.958  25.816  24.141  1.00  0.00     0.022 A 
ATOM     19  O   UNL A   1      31.975  26.375  22.021  1.00  0.00    -0.474 OA
ATOM     20  C   UNL A   1      30.449  27.193  24.217  1.00  0.00     0.026 C 
ATOM     21  C   UNL A   1      31.980  27.778  22.388  1.00  0.00     0.314 C 
BRANCH  21  22
ATOM     22  C   UNL A   1      33.397  28.203  22.813  1.00  0.00     0.429 C 
ATOM     23  F   UNL A   1      34.295  27.906  21.840  1.00  0.00    -0.167 F 
ATOM     24  F   UNL A   1      33.494  29.535  23.031  1.00  0.00    -0.167 F 
ATOM     25  F   UNL A   1      33.807  27.586  23.945  1.00  0.00    -0.167 F 
ENDBRANCH  21  22
ENDBRANCH   5   8
ENDBRANCH   3   4
ENDBRANCH   2   3
ENDBRANCH   1   2
BRANCH   1  26
ATOM     26  C   UNL A   1      33.903  28.833  27.327  1.00  0.00     0.116 C 
BRANCH  26  27
ATOM     27  N   UNL A   1      33.825  30.164  27.912  1.00  0.00    -0.352 N 
ATOM     28  C   UNL A   1      34.811  30.852  28.579  1.00  0.00     0.251 C 
ATOM     29  H   UNL A   1      32.962  30.628  27.818  1.00  0.00     0.163 HD
ATOM     30  O   UNL A   1      34.580  31.946  29.083  1.00  0.00    -0.269 OA
BRANCH  28  31
ATOM     31  C   UNL A   1      36.139  30.224  28.715  1.00  0.00     0.039 A 
ATOM     32  C   UNL A   1      37.046  30.337  27.659  1.00  0.00     0.014 A 
ATOM     33  C   UNL A   1      36.506  29.606  29.913  1.00  0.00     0.014 A 
ATOM     34  C   UNL A   1      38.356  29.893  27.835  1.00  0.00     0.010 A 
ATOM     35  C   UNL A   1      37.826  29.214  30.105  1.00  0.00     0.010 A 
ATOM     36  C   UNL A   1      38.763  29.363  29.070  1.00  0.00    -0.014 A 
BRANCH  36  37
ATOM     37  C   UNL A   1      40.173  28.968  29.300  1.00  0.00     0.031 A 
ATOM     38  C   UNL A   1      41.127  29.930  29.947  1.00  0.00     0.074 A 
ATOM     39  C   UNL A   1      40.602  27.759  28.885  1.00  0.00     0.049 A 
ATOM     40  N   UNL A   1      42.400  29.780  30.200  1.00  0.00    -0.248 NA
ATOM     41  C   UNL A   1      40.583  31.241  30.340  1.00  0.00     0.031 C 
ATOM     42  C   UNL A   1      39.776  26.750  28.216  1.00  0.00     0.029 A 
ATOM     43  N   UNL A   1      41.838  27.172  28.970  1.00  0.00    -0.354 N 
ATOM     44  C   UNL A   1      42.811  30.975  30.777  1.00  0.00     0.074 A 
ATOM     45  C   UNL A   1      41.665  31.858  30.789  1.00  0.00     0.031 C 
ATOM     46  C   UNL A   1      40.521  25.655  27.986  1.00  0.00     0.029 A 
ATOM     47  C   UNL A   1      41.880  25.896  28.463  1.00  0.00     0.049 A 
ATOM     48  H   UNL A   1      42.622  27.623  29.359  1.00  0.00     0.167 HD
ATOM     49  C   UNL A   1      44.027  31.300  31.275  1.00  0.00     0.031 A 
ATOM     50  C   UNL A   1      42.896  25.014  28.395  1.00  0.00     0.031 A 
ATOM     51  C   UNL A   1      45.161  30.418  31.274  1.00  0.00     0.049 A 
ATOM     52  C   UNL A   1      44.242  25.402  28.940  1.00  0.00     0.074 A 
ATOM     53  C   UNL A   1      46.426  30.642  31.787  1.00  0.00     0.029 A 
ATOM     54  N   UNL A   1      45.165  29.140  30.737  1.00  0.00    -0.354 N 
ATOM     55  N   UNL A   1      44.601  26.525  29.515  1.00  0.00    -0.248 NA
ATOM     56  C   UNL A   1      45.317  24.408  28.830  1.00  0.00     0.031 C 
ATOM     57  C   UNL A   1      47.205  29.508  31.533  1.00  0.00     0.029 A 
ATOM     58  C   UNL A   1      46.414  28.565  30.894  1.00  0.00     0.049 A 
ATOM     59  H   UNL A   1      44.393  28.705  30.307  1.00  0.00     0.167 HD
ATOM     60  C   UNL A   1      45.940  26.365  29.849  1.00  0.00     0.074 A 
ATOM     61  C   UNL A   1      46.324  25.035  29.421  1.00  0.00     0.031 C 
ATOM     62  C   UNL A   1      46.776  27.243  30.457  1.00  0.00     0.031 A 
BRANCH  49  63
ATOM     63  C   UNL A   1      44.180  32.672  31.870  1.00  0.00    -0.014 A 
ATOM     64  C   UNL A   1      44.441  33.783  31.048  1.00  0.00     0.010 A 
ATOM     65  C   UNL A   1      44.049  32.857  33.257  1.00  0.00     0.010 A 
ATOM     66  C   UNL A   1      44.613  35.051  31.608  1.00  0.00     0.020 A 
ATOM     67  C   UNL A   1      44.198  34.129  33.819  1.00  0.00     0.020 A 
ATOM     68  C   UNL A   1      44.498  35.214  32.992  1.00  0.00     0.054 A 
BRANCH  68  69
ATOM     69  S   UNL A   1      44.721  36.872  33.692  1.00  0.00     0.124 S 
ATOM     70  O   UNL A   1      43.352  37.233  34.049  1.00  0.00    -0.237 OA
ATOM     71  O   UNL A   1      45.621  36.628  34.818  1.00  0.00    -0.237 OA
ATOM     72  O   UNL A   1      45.301  37.638  32.591  1.00  0.00    -0.744 OA
ENDBRANCH  68  69
ENDBRANCH  49  63
BRANCH  50  73
ATOM     73  C   UNL A   1      42.664  23.662  27.822  1.00  0.00    -0.014 A 
ATOM     74  C   UNL A   1      42.890  23.431  26.454  1.00  0.00     0.010 A 
ATOM     75  C   UNL A   1      42.253  22.597  28.641  1.00  0.00     0.010 A 
ATOM     76  C   UNL A   1      42.705  22.156  25.912  1.00  0.00     0.020 A 
ATOM     77  C   UNL A   1      42.084  21.315  28.106  1.00  0.00     0.020 A 
ATOM     78  C   UNL A   1      42.305  21.105  26.743  1.00  0.00     0.054 A 
BRANCH  78  79
ATOM     79  S   UNL A   1      42.139  19.444  26.032  1.00  0.00     0.124 S 
ATOM     80  O   UNL A   1      40.701  19.355  25.801  1.00  0.00    -0.237 OA
ATOM     81  O   UNL A   1      42.970  19.529  24.833  1.00  0.00    -0.237 OA
ATOM     82  O   UNL A   1      42.663  18.570  27.081  1.00  0.00    -0.744 OA
ENDBRANCH  78  79
ENDBRANCH  50  73
BRANCH  62  83
ATOM     83  C   UNL A   1      48.189  26.796  30.705  1.00  0.00    -0.014 A 
ATOM     84  C   UNL A   1      49.206  27.084  29.778  1.00  0.00     0.010 A 
ATOM     85  C   UNL A   1      48.517  26.163  31.917  1.00  0.00     0.010 A 
ATOM     86  C   UNL A   1      50.530  26.740  30.059  1.00  0.00     0.020 A 
ATOM     87  C   UNL A   1      49.843  25.835  32.208  1.00  0.00     0.020 A 
ATOM     88  C   UNL A   1      50.841  26.121  31.274  1.00  0.00     0.054 A 
BRANCH  88  89
ATOM     89  S   UNL A   1      52.579  25.756  31.647  1.00  0.00     0.124 S 
ATOM     90  O   UNL A   1      53.219  25.975  30.354  1.00  0.00    -0.237 OA
ATOM     91  O   UNL A   1      52.899  26.736  32.682  1.00  0.00    -0.237 OA
ATOM     92  O   UNL A   1      52.550  24.367  32.101  1.00  0.00    -0.744 OA
ENDBRANCH  88  89
ENDBRANCH  62  83
ENDBRANCH  36  37
ENDBRANCH  28  31
ENDBRANCH  26  27
ENDBRANCH   1  26
TORSDOF 15
ENDMDL
MODEL 2
REMARK VINA RESULT:     -11.2      1.477      2.204
REMARK SMILES Cc1c(Br)c(C)c2c(c1Br)O[C@H](C(F)(F)F)C(C(=O)NCCCCNC(=O)c1ccc(-c3c4nc(c(-c5ccc(S(=O)(=O)[O-])cc5)c5ccc([nH]5)c(-c5ccc(S(=O)(=O)[O-])cc5)c5nc(c(-c6ccc(S(=O)(=O)[O-])cc6)c6ccc3[nH]6)C=C5)C=C4)cc1)=C2
REMARK SMILES IDX 23 1 22 2 21 3 20 4 18 5 19 6 17 8 1 9 2 10 3 11 9 12 4 13
REMARK SMILES IDX 5 14 8 15 10 16 6 17 7 18 11 19 88 20 12 21 13 22 14 23
REMARK SMILES IDX 15 24 16 25 24 26 25 27 26 28 27 30 28 31 29 32 87 33 30 34
REMARK SMILES IDX 86 35 31 36 32 37 33 38 80 39 34 40 85 41 79 42 81 43 35 44
REMARK SMILES IDX 84 45 78 46 77 47 36 49 66 50 47 51 65 52 48 53 51 54 64 55
REMARK SMILES IDX 82 56 49 57 50 58 63 60 83 61 52 62 37 63 38 64 46 65 39 66
REMARK SMILES IDX 45 67 40 68 41 69 42 70 43 71 44 72 67 73 68 74 76 75 69 76
REMARK SMILES IDX 75 77 70 78 71 79 72 80 73 81 74 82 53 83 54 84 62 85 55 86
REMARK SMILES IDX 61 87 56 88 57 89 58 90 59 91 60 92
REMARK H PARENT 20 7 25 29 81 48 51 59
REMARK Flexibility Score: inf
ROOT
ATOM      1  C   UNL A   1      32.376  28.594  26.695  1.00  0.00     0.023 C 
ENDROOT
BRANCH   1   2
ATOM      2  C   UNL A   1      31.638  29.679  25.908  1.00  0.00     0.023 C 
BRANCH   2   3
ATOM      3  C   UNL A   1      31.408  29.337  24.438  1.00  0.00     0.116 C 
BRANCH   3   4
ATOM      4  N   UNL A   1      32.651  29.032  23.751  1.00  0.00    -0.352 N 
ATOM      5  C   UNL A   1      33.407  27.934  23.523  1.00  0.00     0.251 C 
ATOM      6  O   UNL A   1      34.440  28.131  22.875  1.00  0.00    -0.270 OA
ATOM      7  H   UNL A   1      33.047  29.837  23.346  1.00  0.00     0.163 HD
BRANCH   5   8
ATOM      8  C   UNL A   1      33.084  26.551  23.982  1.00  0.00     0.067 C 
ATOM      9  C   UNL A   1      33.103  20.272  25.893  1.00  0.00     0.047 C 
ATOM     10  C   UNL A   1      33.402  21.667  25.396  1.00  0.00    -0.019 A 
ATOM     11  C   UNL A   1      34.684  22.034  24.915  1.00  0.00     0.025 A 
ATOM     12  C   UNL A   1      32.410  22.665  25.463  1.00  0.00     0.064 A 
ATOM     13  Br  UNL A   1      36.106  20.744  24.973  1.00  0.00    -0.050 Br
ATOM     14  C   UNL A   1      34.951  23.346  24.437  1.00  0.00    -0.026 A 
ATOM     15  C   UNL A   1      32.668  23.969  25.012  1.00  0.00     0.142 A 
ATOM     16  Br  UNL A   1      30.677  22.290  26.193  1.00  0.00    -0.046 Br
ATOM     17  C   UNL A   1      36.303  23.746  23.886  1.00  0.00     0.046 C 
ATOM     18  C   UNL A   1      33.926  24.318  24.507  1.00  0.00     0.022 A 
ATOM     19  O   UNL A   1      31.667  24.897  25.143  1.00  0.00    -0.474 OA
ATOM     20  C   UNL A   1      34.136  25.721  24.118  1.00  0.00     0.026 C 
ATOM     21  C   UNL A   1      31.704  26.040  24.251  1.00  0.00     0.314 C 
BRANCH  21  22
ATOM     22  C   UNL A   1      30.917  25.727  22.966  1.00  0.00     0.429 C 
ATOM     23  F   UNL A   1      29.945  26.651  22.766  1.00  0.00    -0.167 F 
ATOM     24  F   UNL A   1      31.700  25.747  21.863  1.00  0.00    -0.167 F 
ATOM     25  F   UNL A   1      30.320  24.514  23.005  1.00  0.00    -0.167 F 
ENDBRANCH  21  22
ENDBRANCH   5   8
ENDBRANCH   3   4
ENDBRANCH   2   3
ENDBRANCH   1   2
BRANCH   1  26
ATOM     26  C   UNL A   1      33.674  29.037  27.371  1.00  0.00     0.116 C 
BRANCH  26  27
ATOM     27  N   UNL A   1      33.617  30.382  27.926  1.00  0.00    -0.352 N 
ATOM     28  C   UNL A   1      34.620  31.074  28.563  1.00  0.00     0.251 C 
ATOM     29  H   UNL A   1      32.757  30.852  27.835  1.00  0.00     0.163 HD
ATOM     30  O   UNL A   1      34.407  32.182  29.046  1.00  0.00    -0.269 OA
BRANCH  28  31
ATOM     31  C   UNL A   1      35.943  30.437  28.695  1.00  0.00     0.039 A 
ATOM     32  C   UNL A   1      36.854  30.560  27.644  1.00  0.00     0.014 A 
ATOM     33  C   UNL A   1      36.303  29.799  29.885  1.00  0.00     0.014 A 
ATOM     34  C   UNL A   1      38.160  30.104  27.817  1.00  0.00     0.010 A 
ATOM     35  C   UNL A   1      37.620  29.396  30.074  1.00  0.00     0.010 A 
ATOM     36  C   UNL A   1      38.561  29.554  29.045  1.00  0.00    -0.014 A 
BRANCH  36  37
ATOM     37  C   UNL A   1      39.967  29.147  29.273  1.00  0.00     0.031 A 
ATOM     38  C   UNL A   1      40.933  30.106  29.908  1.00  0.00     0.074 A 
ATOM     39  C   UNL A   1      40.382  27.930  28.868  1.00  0.00     0.049 A 
ATOM     40  N   UNL A   1      42.206  29.945  30.158  1.00  0.00    -0.248 NA
ATOM     41  C   UNL A   1      40.404  31.425  30.291  1.00  0.00     0.031 C 
ATOM     42  C   UNL A   1      39.544  26.923  28.211  1.00  0.00     0.029 A 
ATOM     43  N   UNL A   1      41.613  27.331  28.955  1.00  0.00    -0.354 N 
ATOM     44  C   UNL A   1      42.632  31.140  30.722  1.00  0.00     0.074 A 
ATOM     45  C   UNL A   1      41.494  32.035  30.730  1.00  0.00     0.031 C 
ATOM     46  C   UNL A   1      40.277  25.819  27.990  1.00  0.00     0.029 A 
ATOM     47  C   UNL A   1      41.640  26.050  28.459  1.00  0.00     0.049 A 
ATOM     48  H   UNL A   1      42.403  27.778  29.336  1.00  0.00     0.167 HD
ATOM     49  C   UNL A   1      43.852  31.458  31.213  1.00  0.00     0.031 A 
ATOM     50  C   UNL A   1      42.647  25.157  28.396  1.00  0.00     0.031 A 
ATOM     51  C   UNL A   1      44.977  30.564  31.215  1.00  0.00     0.049 A 
ATOM     52  C   UNL A   1      43.998  25.537  28.932  1.00  0.00     0.074 A 
ATOM     53  C   UNL A   1      46.246  30.781  31.722  1.00  0.00     0.029 A 
ATOM     54  N   UNL A   1      44.966  29.281  30.690  1.00  0.00    -0.354 N 
ATOM     55  N   UNL A   1      44.371  26.661  29.495  1.00  0.00    -0.248 NA
ATOM     56  C   UNL A   1      45.063  24.530  28.827  1.00  0.00     0.031 C 
ATOM     57  C   UNL A   1      47.013  29.636  31.475  1.00  0.00     0.029 A 
ATOM     58  C   UNL A   1      46.210  28.696  30.848  1.00  0.00     0.049 A 
ATOM     59  H   UNL A   1      44.188  28.851  30.267  1.00  0.00     0.167 HD
ATOM     60  C   UNL A   1      45.710  26.491  29.826  1.00  0.00     0.074 A 
ATOM     61  C   UNL A   1      46.079  25.153  29.409  1.00  0.00     0.031 C 
ATOM     62  C   UNL A   1      46.557  27.366  30.422  1.00  0.00     0.031 A 
BRANCH  49  63
ATOM     63  C   UNL A   1      44.021  32.834  31.794  1.00  0.00    -0.014 A 
ATOM     64  C   UNL A   1      43.665  33.094  33.131  1.00  0.00     0.010 A 
ATOM     65  C   UNL A   1      44.550  33.872  31.009  1.00  0.00     0.010 A 
ATOM     66  C   UNL A   1      43.795  34.381  33.658  1.00  0.00     0.020 A 
ATOM     67  C   UNL A   1      44.703  35.156  31.541  1.00  0.00     0.020 A 
ATOM     68  C   UNL A   1      44.305  35.406  32.856  1.00  0.00     0.054 A 
BRANCH  68  69
ATOM     69  S   UNL A   1      44.468  37.065  33.568  1.00  0.00     0.124 S 
ATOM     70  O   UNL A   1      43.499  37.019  34.660  1.00  0.00    -0.237 OA
ATOM     71  O   UNL A   1      45.871  37.107  33.974  1.00  0.00    -0.237 OA
ATOM     72  O   UNL A   1      44.117  37.952  32.461  1.00  0.00    -0.744 OA
ENDBRANCH  68  69
ENDBRANCH  49  63
BRANCH  50  73
ATOM     73  C   UNL A   1      42.400  23.803  27.836  1.00  0.00    -0.014 A 
ATOM     74  C   UNL A   1      42.678  23.540  26.484  1.00  0.00     0.010 A 
ATOM     75  C   UNL A   1      41.920  22.765  28.654  1.00  0.00     0.010 A 
ATOM     76  C   UNL A   1      42.478  22.261  25.956  1.00  0.00     0.020 A 
ATOM     77  C   UNL A   1      41.736  21.479  28.134  1.00  0.00     0.020 A 
ATOM     78  C   UNL A   1      42.010  21.238  26.787  1.00  0.00     0.054 A 
BRANCH  78  79
ATOM     79  S   UNL A   1      41.825  19.569  26.097  1.00  0.00     0.124 S 
ATOM     80  O   UNL A   1      42.230  18.730  27.221  1.00  0.00    -0.237 OA
ATOM     81  O   UNL A   1      40.406  19.525  25.753  1.00  0.00    -0.237 OA
ATOM     82  O   UNL A   1      42.735  19.570  24.954  1.00  0.00    -0.744 OA
ENDBRANCH  78  79
ENDBRANCH  50  73
BRANCH  62  83
ATOM     83  C   UNL A   1      47.966  26.907  30.669  1.00  0.00    -0.014 A 
ATOM     84  C   UNL A   1      48.991  27.214  29.757  1.00  0.00     0.010 A 
ATOM     85  C   UNL A   1      48.283  26.243  31.868  1.00  0.00     0.010 A 
ATOM     86  C   UNL A   1      50.312  26.858  30.039  1.00  0.00     0.020 A 
ATOM     87  C   UNL A   1      49.606  25.902  32.160  1.00  0.00     0.020 A 
ATOM     88  C   UNL A   1      50.612  26.207  31.240  1.00  0.00     0.054 A 
BRANCH  88  89
ATOM     89  S   UNL A   1      52.345  25.825  31.616  1.00  0.00     0.124 S 
ATOM     90  O   UNL A   1      52.254  24.455  32.110  1.00  0.00    -0.237 OA
ATOM     91  O   UNL A   1      52.999  25.984  30.319  1.00  0.00    -0.237 OA
ATOM     92  O   UNL A   1      52.710  26.826  32.616  1.00  0.00    -0.744 OA
ENDBRANCH  88  89
ENDBRANCH  62  83
ENDBRANCH  36  37
ENDBRANCH  28  31
ENDBRANCH  26  27
ENDBRANCH   1  26
TORSDOF 15
ENDMDL
MODEL 3
REMARK VINA RESULT:     -11.1      4.519      9.605
REMARK SMILES Cc1c(Br)c(C)c2c(c1Br)O[C@H](C(F)(F)F)C(C(=O)NCCCCNC(=O)c1ccc(-c3c4nc(c(-c5ccc(S(=O)(=O)[O-])cc5)c5ccc([nH]5)c(-c5ccc(S(=O)(=O)[O-])cc5)c5nc(c(-c6ccc(S(=O)(=O)[O-])cc6)c6ccc3[nH]6)C=C5)C=C4)cc1)=C2
REMARK SMILES IDX 23 1 22 2 21 3 20 4 18 5 19 6 17 8 1 9 2 10 3 11 9 12 4 13
REMARK SMILES IDX 5 14 8 15 10 16 6 17 7 18 11 19 88 20 12 21 13 22 14 23
REMARK SMILES IDX 15 24 16 25 24 26 25 27 26 28 27 30 28 31 29 32 87 33 30 34
REMARK SMILES IDX 86 35 31 36 32 37 33 38 80 39 34 40 85 41 79 42 81 43 35 44
REMARK SMILES IDX 84 45 78 46 77 47 36 49 66 50 47 51 65 52 48 53 51 54 64 55
REMARK SMILES IDX 82 56 49 57 50 58 63 60 83 61 52 62 37 63 38 64 46 65 39 66
REMARK SMILES IDX 45 67 40 68 41 69 42 70 43 71 44 72 67 73 68 74 76 75 69 76
REMARK SMILES IDX 75 77 70 78 71 79 72 80 73 81 74 82 53 83 54 84 62 85 55 86
REMARK SMILES IDX 61 87 56 88 57 89 58 90 59 91 60 92
REMARK H PARENT 20 7 25 29 81 48 51 59
REMARK Flexibility Score: inf
ROOT
ATOM      1  C   UNL A   1      32.184  31.366  27.338  1.00  0.00     0.023 C 
ENDROOT
BRANCH   1   2
ATOM      2  C   UNL A   1      32.171  30.496  26.079  1.00  0.00     0.023 C 
BRANCH   2   3
ATOM      3  C   UNL A   1      33.340  29.519  25.983  1.00  0.00     0.116 C 
BRANCH   3   4
ATOM      4  N   UNL A   1      33.690  29.227  24.604  1.00  0.00    -0.352 N 
ATOM      5  C   UNL A   1      33.708  28.139  23.800  1.00  0.00     0.251 C 
ATOM      6  O   UNL A   1      34.106  28.341  22.648  1.00  0.00    -0.270 OA
ATOM      7  H   UNL A   1      33.995  30.034  24.129  1.00  0.00     0.163 HD
BRANCH   5   8
ATOM      8  C   UNL A   1      33.290  26.762  24.199  1.00  0.00     0.067 C 
ATOM      9  C   UNL A   1      32.876  20.427  25.863  1.00  0.00     0.047 C 
ATOM     10  C   UNL A   1      33.272  21.818  25.425  1.00  0.00    -0.019 A 
ATOM     11  C   UNL A   1      34.584  22.122  24.983  1.00  0.00     0.025 A 
ATOM     12  C   UNL A   1      32.343  22.873  25.513  1.00  0.00     0.064 A 
ATOM     13  Br  UNL A   1      35.922  20.743  25.016  1.00  0.00    -0.050 Br
ATOM     14  C   UNL A   1      34.943  23.431  24.562  1.00  0.00    -0.026 A 
ATOM     15  C   UNL A   1      32.692  24.175  25.119  1.00  0.00     0.142 A 
ATOM     16  Br  UNL A   1      30.575  22.582  26.196  1.00  0.00    -0.046 Br
ATOM     17  C   UNL A   1      36.328  23.765  24.052  1.00  0.00     0.046 C 
ATOM     18  C   UNL A   1      33.979  24.463  24.651  1.00  0.00     0.022 A 
ATOM     19  O   UNL A   1      31.748  25.159  25.268  1.00  0.00    -0.474 OA
ATOM     20  C   UNL A   1      34.284  25.863  24.321  1.00  0.00     0.026 C 
ATOM     21  C   UNL A   1      31.875  26.330  24.422  1.00  0.00     0.314 C 
BRANCH  21  22
ATOM     22  C   UNL A   1      31.097  26.116  23.111  1.00  0.00     0.429 C 
ATOM     23  F   UNL A   1      30.597  24.856  23.054  1.00  0.00    -0.167 F 
ATOM     24  F   UNL A   1      30.042  26.954  22.994  1.00  0.00    -0.167 F 
ATOM     25  F   UNL A   1      31.868  26.295  22.015  1.00  0.00    -0.167 F 
ENDBRANCH  21  22
ENDBRANCH   5   8
ENDBRANCH   3   4
ENDBRANCH   2   3
ENDBRANCH   1   2
BRANCH   1  26
ATOM     26  C   UNL A   1      33.262  32.449  27.380  1.00  0.00     0.116 C 
BRANCH  26  27
ATOM     27  N   UNL A   1      32.746  33.782  27.655  1.00  0.00    -0.352 N 
ATOM     28  C   UNL A   1      33.171  34.670  28.615  1.00  0.00     0.251 C 
ATOM     29  H   UNL A   1      32.001  34.084  27.086  1.00  0.00     0.163 HD
ATOM     30  O   UNL A   1      32.592  35.739  28.779  1.00  0.00    -0.269 OA
BRANCH  28  31
ATOM     31  C   UNL A   1      34.309  34.289  29.472  1.00  0.00     0.039 A 
ATOM     32  C   UNL A   1      34.047  33.721  30.720  1.00  0.00     0.014 A 
ATOM     33  C   UNL A   1      35.619  34.418  29.003  1.00  0.00     0.014 A 
ATOM     34  C   UNL A   1      35.104  33.208  31.471  1.00  0.00     0.010 A 
ATOM     35  C   UNL A   1      36.664  33.858  29.729  1.00  0.00     0.010 A 
ATOM     36  C   UNL A   1      36.413  33.240  30.964  1.00  0.00    -0.014 A 
BRANCH  36  37
ATOM     37  C   UNL A   1      37.533  32.622  31.711  1.00  0.00     0.031 A 
ATOM     38  C   UNL A   1      38.232  31.415  31.153  1.00  0.00     0.074 A 
ATOM     39  C   UNL A   1      37.889  33.120  32.912  1.00  0.00     0.049 A 
ATOM     40  N   UNL A   1      39.208  30.717  31.673  1.00  0.00    -0.248 NA
ATOM     41  C   UNL A   1      37.759  30.917  29.851  1.00  0.00     0.031 C 
ATOM     42  C   UNL A   1      37.263  34.269  33.572  1.00  0.00     0.029 A 
ATOM     43  N   UNL A   1      38.868  32.728  33.788  1.00  0.00    -0.354 N 
ATOM     44  C   UNL A   1      39.462  29.695  30.767  1.00  0.00     0.074 A 
ATOM     45  C   UNL A   1      38.505  29.834  29.691  1.00  0.00     0.031 C 
ATOM     46  C   UNL A   1      37.900  34.510  34.731  1.00  0.00     0.029 A 
ATOM     47  C   UNL A   1      38.956  33.517  34.909  1.00  0.00     0.049 A 
ATOM     48  H   UNL A   1      39.454  31.952  33.628  1.00  0.00     0.167 HD
ATOM     49  C   UNL A   1      40.421  28.742  30.813  1.00  0.00     0.031 A 
ATOM     50  C   UNL A   1      39.795  33.454  35.960  1.00  0.00     0.031 A 
ATOM     51  C   UNL A   1      41.378  28.613  31.877  1.00  0.00     0.049 A 
ATOM     52  C   UNL A   1      40.843  32.377  35.999  1.00  0.00     0.074 A 
ATOM     53  C   UNL A   1      42.412  27.701  31.998  1.00  0.00     0.029 A 
ATOM     54  N   UNL A   1      41.422  29.423  33.001  1.00  0.00    -0.354 N 
ATOM     55  N   UNL A   1      41.090  31.442  35.113  1.00  0.00    -0.248 NA
ATOM     56  C   UNL A   1      41.724  32.347  37.174  1.00  0.00     0.031 C 
ATOM     57  C   UNL A   1      43.064  27.943  33.213  1.00  0.00     0.029 A 
ATOM     58  C   UNL A   1      42.458  29.027  33.829  1.00  0.00     0.049 A 
ATOM     59  H   UNL A   1      40.807  30.170  33.183  1.00  0.00     0.167 HD
ATOM     60  C   UNL A   1      42.166  30.722  35.618  1.00  0.00     0.074 A 
ATOM     61  C   UNL A   1      42.529  31.335  36.880  1.00  0.00     0.031 C 
ATOM     62  C   UNL A   1      42.798  29.648  35.082  1.00  0.00     0.031 A 
BRANCH  49  63
ATOM     63  C   UNL A   1      40.479  27.770  29.668  1.00  0.00    -0.014 A 
ATOM     64  C   UNL A   1      39.559  26.708  29.584  1.00  0.00     0.010 A 
ATOM     65  C   UNL A   1      41.447  27.923  28.662  1.00  0.00     0.010 A 
ATOM     66  C   UNL A   1      39.636  25.790  28.535  1.00  0.00     0.020 A 
ATOM     67  C   UNL A   1      41.512  27.019  27.597  1.00  0.00     0.020 A 
ATOM     68  C   UNL A   1      40.618  25.947  27.552  1.00  0.00     0.054 A 
BRANCH  68  69
ATOM     69  S   UNL A   1      40.691  24.743  26.198  1.00  0.00     0.124 S 
ATOM     70  O   UNL A   1      41.651  23.771  26.713  1.00  0.00    -0.237 OA
ATOM     71  O   UNL A   1      39.310  24.274  26.107  1.00  0.00    -0.237 OA
ATOM     72  O   UNL A   1      41.153  25.532  25.058  1.00  0.00    -0.744 OA
ENDBRANCH  68  69
ENDBRANCH  49  63
BRANCH  50  73
ATOM     73  C   UNL A   1      39.702  34.468  37.043  1.00  0.00    -0.014 A 
ATOM     74  C   UNL A   1      40.338  35.713  36.897  1.00  0.00     0.010 A 
ATOM     75  C   UNL A   1      38.953  34.211  38.204  1.00  0.00     0.010 A 
ATOM     76  C   UNL A   1      40.229  36.685  37.896  1.00  0.00     0.020 A 
ATOM     77  C   UNL A   1      38.826  35.187  39.198  1.00  0.00     0.020 A 
ATOM     78  C   UNL A   1      39.472  36.416  39.040  1.00  0.00     0.054 A 
BRANCH  78  79
ATOM     79  S   UNL A   1      39.287  37.717  40.291  1.00  0.00     0.124 S 
ATOM     80  O   UNL A   1      38.254  38.562  39.699  1.00  0.00    -0.237 OA
ATOM     81  O   UNL A   1      38.886  36.962  41.476  1.00  0.00    -0.237 OA
ATOM     82  O   UNL A   1      40.620  38.312  40.363  1.00  0.00    -0.744 OA
ENDBRANCH  78  79
ENDBRANCH  50  73
BRANCH  62  83
ATOM     83  C   UNL A   1      43.951  29.067  35.850  1.00  0.00    -0.014 A 
ATOM     84  C   UNL A   1      45.241  29.610  35.726  1.00  0.00     0.010 A 
ATOM     85  C   UNL A   1      43.723  28.028  36.771  1.00  0.00     0.010 A 
ATOM     86  C   UNL A   1      46.289  29.119  36.509  1.00  0.00     0.020 A 
ATOM     87  C   UNL A   1      44.765  27.548  37.568  1.00  0.00     0.020 A 
ATOM     88  C   UNL A   1      46.043  28.093  37.427  1.00  0.00     0.054 A 
BRANCH  88  89
ATOM     89  S   UNL A   1      47.403  27.527  38.486  1.00  0.00     0.124 S 
ATOM     90  O   UNL A   1      48.275  26.856  37.528  1.00  0.00    -0.237 OA
ATOM     91  O   UNL A   1      47.921  28.776  39.041  1.00  0.00    -0.237 OA
ATOM     92  O   UNL A   1      46.746  26.649  39.453  1.00  0.00    -0.744 OA
ENDBRANCH  88  89
ENDBRANCH  62  83
ENDBRANCH  36  37
ENDBRANCH  28  31
ENDBRANCH  26  27
ENDBRANCH   1  26
TORSDOF 15
ENDMDL
