MODEL 1
REMARK VINA RESULT:      -9.7      0.000      0.000
REMARK SMILES CN(C(=O)C[N@@H+](CC(=O)NCCCCNC(=O)c1ccc(-c2c3nc(c(-c4ccc(S(=O)(=O)[O-])cc4)c4ccc([nH]4)c(-c4ccc(S(=O)(=O)[O-])cc4)c4nc(c(-c5ccc(S(=O)(=O)[O-])cc5)c5ccc2[nH]5)C=C4)C=C3)cc1)C(C)(C)C)c1ccccc1
REMARK SMILES IDX 11 1 10 2 8 3 9 4 7 6 6 7 5 9 3 10 4 11 2 12 1 13 82 14
REMARK SMILES IDX 83 15 87 16 84 17 86 18 85 19 78 20 79 21 80 22 81 23 12 24
REMARK SMILES IDX 13 25 14 26 15 27 16 28 17 30 18 31 19 32 77 33 20 34 76 35
REMARK SMILES IDX 21 36 22 37 23 38 70 39 24 40 75 41 69 42 71 43 25 44 74 45
REMARK SMILES IDX 68 46 67 47 26 49 56 50 37 51 55 52 38 53 41 54 54 55 72 56
REMARK SMILES IDX 39 57 40 58 53 60 73 61 42 62 27 63 28 64 36 65 29 66 35 67
REMARK SMILES IDX 30 68 31 69 32 70 33 71 34 72 57 73 58 74 66 75 59 76 65 77
REMARK SMILES IDX 60 78 61 79 62 80 63 81 64 82 43 83 44 84 52 85 45 86 51 87
REMARK SMILES IDX 46 88 47 89 48 90 49 91 50 92
REMARK H PARENT 10 5 6 8 15 29 71 48 41 59
REMARK Flexibility Score: inf
ROOT
ATOM      1  C   UNL A   1      37.740  23.701  25.949  1.00  0.00     0.116 C 
ENDROOT
BRANCH   1   2
ATOM      2  N   UNL A   1      37.509  23.300  24.572  1.00  0.00    -0.351 N 
ATOM      3  C   UNL A   1      36.402  23.334  23.773  1.00  0.00     0.275 C 
ATOM      4  O   UNL A   1      36.581  23.035  22.585  1.00  0.00    -0.269 OA
ATOM      5  H   UNL A   1      38.306  22.930  24.129  1.00  0.00     0.163 HD
BRANCH   3   6
ATOM      6  C   UNL A   1      35.004  23.780  24.245  1.00  0.00     0.364 C 
BRANCH   6   7
ATOM      7  N   UNL A   1      33.820  22.905  23.925  1.00  0.00    -0.315 N 
ATOM      8  H   UNL A   1      34.106  21.984  23.594  1.00  0.00     0.349 HD
BRANCH   7   9
ATOM      9  C   UNL A   1      33.109  23.531  22.798  1.00  0.00     0.364 C 
BRANCH   9  10
ATOM     10  C   UNL A   1      33.089  25.029  22.609  1.00  0.00     0.281 C 
ATOM     11  O   UNL A   1      33.865  25.503  21.770  1.00  0.00    -0.268 OA
BRANCH  10  12
ATOM     12  N   UNL A   1      32.170  25.784  23.340  1.00  0.00    -0.311 N 
ATOM     13  C   UNL A   1      30.742  25.476  23.376  1.00  0.00     0.153 C 
BRANCH  12  14
ATOM     14  C   UNL A   1      32.645  26.834  24.195  1.00  0.00     0.043 A 
ATOM     15  C   UNL A   1      32.516  28.182  23.826  1.00  0.00     0.026 A 
ATOM     16  C   UNL A   1      33.278  26.538  25.408  1.00  0.00     0.026 A 
ATOM     17  C   UNL A   1      33.043  29.203  24.619  1.00  0.00     0.002 A 
ATOM     18  C   UNL A   1      33.823  27.559  26.194  1.00  0.00     0.002 A 
ATOM     19  C   UNL A   1      33.711  28.889  25.797  1.00  0.00     0.000 A 
ENDBRANCH  12  14
ENDBRANCH  10  12
ENDBRANCH   9  10
ENDBRANCH   7   9
BRANCH   7  20
ATOM     20  C   UNL A   1      33.073  22.342  25.093  1.00  0.00     0.090 C 
ATOM     21  C   UNL A   1      31.536  22.473  25.055  1.00  0.00     0.078 C 
ATOM     22  C   UNL A   1      33.366  20.836  25.324  1.00  0.00     0.078 C 
ATOM     23  C   UNL A   1      33.584  23.035  26.386  1.00  0.00     0.078 C 
ENDBRANCH   7  20
ENDBRANCH   6   7
ENDBRANCH   3   6
ENDBRANCH   1   2
BRANCH   1  24
ATOM     24  C   UNL A   1      39.004  23.056  26.544  1.00  0.00     0.023 C 
BRANCH  24  25
ATOM     25  C   UNL A   1      39.408  21.703  25.996  1.00  0.00     0.023 C 
BRANCH  25  26
ATOM     26  C   UNL A   1      40.179  20.834  26.967  1.00  0.00     0.116 C 
BRANCH  26  27
ATOM     27  N   UNL A   1      40.932  19.754  26.339  1.00  0.00    -0.352 N 
ATOM     28  C   UNL A   1      42.242  19.773  25.907  1.00  0.00     0.251 C 
ATOM     29  H   UNL A   1      40.446  18.908  26.208  1.00  0.00     0.163 HD
ATOM     30  O   UNL A   1      42.733  18.808  25.345  1.00  0.00    -0.269 OA
BRANCH  28  31
ATOM     31  C   UNL A   1      43.017  21.018  26.098  1.00  0.00     0.039 A 
ATOM     32  C   UNL A   1      43.200  21.875  25.013  1.00  0.00     0.014 A 
ATOM     33  C   UNL A   1      43.433  21.387  27.378  1.00  0.00     0.014 A 
ATOM     34  C   UNL A   1      43.728  23.149  25.233  1.00  0.00     0.010 A 
ATOM     35  C   UNL A   1      43.843  22.691  27.610  1.00  0.00     0.010 A 
ATOM     36  C   UNL A   1      44.007  23.582  26.540  1.00  0.00    -0.014 A 
BRANCH  36  37
ATOM     37  C   UNL A   1      44.505  24.951  26.819  1.00  0.00     0.031 A 
ATOM     38  C   UNL A   1      43.543  25.996  27.320  1.00  0.00     0.074 A 
ATOM     39  C   UNL A   1      45.786  25.275  26.553  1.00  0.00     0.049 A 
ATOM     40  N   UNL A   1      43.745  27.270  27.535  1.00  0.00    -0.248 NA
ATOM     41  C   UNL A   1      42.158  25.558  27.571  1.00  0.00     0.031 C 
ATOM     42  C   UNL A   1      46.801  24.367  26.010  1.00  0.00     0.029 A 
ATOM     43  N   UNL A   1      46.455  26.464  26.702  1.00  0.00    -0.354 N 
ATOM     44  C   UNL A   1      42.512  27.785  27.915  1.00  0.00     0.074 A 
ATOM     45  C   UNL A   1      41.554  26.706  27.837  1.00  0.00     0.031 C 
ATOM     46  C   UNL A   1      47.970  25.023  25.911  1.00  0.00     0.029 A 
ATOM     47  C   UNL A   1      47.781  26.401  26.346  1.00  0.00     0.049 A 
ATOM     48  H   UNL A   1      46.024  27.286  27.033  1.00  0.00     0.167 HD
ATOM     49  C   UNL A   1      42.205  29.038  28.325  1.00  0.00     0.031 A 
ATOM     50  C   UNL A   1      48.738  27.350  26.373  1.00  0.00     0.031 A 
ATOM     51  C   UNL A   1      43.168  30.097  28.443  1.00  0.00     0.049 A 
ATOM     52  C   UNL A   1      48.382  28.727  26.865  1.00  0.00     0.074 A 
ATOM     53  C   UNL A   1      42.978  31.387  28.905  1.00  0.00     0.029 A 
ATOM     54  N   UNL A   1      44.509  29.982  28.108  1.00  0.00    -0.354 N 
ATOM     55  N   UNL A   1      47.220  29.183  27.273  1.00  0.00    -0.248 NA
ATOM     56  C   UNL A   1      49.470  29.714  26.917  1.00  0.00     0.031 C 
ATOM     57  C   UNL A   1      44.201  32.062  28.822  1.00  0.00     0.029 A 
ATOM     58  C   UNL A   1      45.160  31.179  28.350  1.00  0.00     0.049 A 
ATOM     59  H   UNL A   1      44.935  29.169  27.753  1.00  0.00     0.167 HD
ATOM     60  C   UNL A   1      47.444  30.500  27.654  1.00  0.00     0.074 A 
ATOM     61  C   UNL A   1      48.853  30.764  27.443  1.00  0.00     0.031 C 
ATOM     62  C   UNL A   1      46.564  31.412  28.138  1.00  0.00     0.031 A 
BRANCH  49  63
ATOM     63  C   UNL A   1      40.771  29.312  28.690  1.00  0.00    -0.014 A 
ATOM     64  C   UNL A   1      40.378  29.430  30.036  1.00  0.00     0.010 A 
ATOM     65  C   UNL A   1      39.805  29.460  27.679  1.00  0.00     0.010 A 
ATOM     66  C   UNL A   1      39.038  29.639  30.367  1.00  0.00     0.020 A 
ATOM     67  C   UNL A   1      38.467  29.699  28.005  1.00  0.00     0.020 A 
ATOM     68  C   UNL A   1      38.089  29.766  29.349  1.00  0.00     0.054 A 
BRANCH  68  69
ATOM     69  S   UNL A   1      36.356  30.048  29.805  1.00  0.00     0.124 S 
ATOM     70  O   UNL A   1      35.649  29.439  28.681  1.00  0.00    -0.237 OA
ATOM     71  O   UNL A   1      36.239  29.340  31.077  1.00  0.00    -0.237 OA
ATOM     72  O   UNL A   1      36.253  31.502  29.892  1.00  0.00    -0.744 OA
ENDBRANCH  68  69
ENDBRANCH  49  63
BRANCH  50  73
ATOM     73  C   UNL A   1      50.130  27.024  25.961  1.00  0.00    -0.014 A 
ATOM     74  C   UNL A   1      51.046  26.519  26.901  1.00  0.00     0.010 A 
ATOM     75  C   UNL A   1      50.548  27.208  24.631  1.00  0.00     0.010 A 
ATOM     76  C   UNL A   1      52.361  26.227  26.526  1.00  0.00     0.020 A 
ATOM     77  C   UNL A   1      51.855  26.894  24.246  1.00  0.00     0.020 A 
ATOM     78  C   UNL A   1      52.758  26.418  25.199  1.00  0.00     0.054 A 
BRANCH  78  79
ATOM     79  S   UNL A   1      54.457  25.995  24.724  1.00  0.00     0.124 S 
ATOM     80  O   UNL A   1      54.503  26.437  23.335  1.00  0.00    -0.237 OA
ATOM     81  O   UNL A   1      55.254  26.777  25.666  1.00  0.00    -0.237 OA
ATOM     82  O   UNL A   1      54.516  24.549  24.924  1.00  0.00    -0.744 OA
ENDBRANCH  78  79
ENDBRANCH  50  73
BRANCH  62  83
ATOM     83  C   UNL A   1      47.107  32.764  28.508  1.00  0.00    -0.014 A 
ATOM     84  C   UNL A   1      47.128  33.818  27.579  1.00  0.00     0.010 A 
ATOM     85  C   UNL A   1      47.547  32.995  29.824  1.00  0.00     0.010 A 
ATOM     86  C   UNL A   1      47.610  35.075  27.952  1.00  0.00     0.020 A 
ATOM     87  C   UNL A   1      48.007  34.257  30.207  1.00  0.00     0.020 A 
ATOM     88  C   UNL A   1      48.048  35.285  29.263  1.00  0.00     0.054 A 
BRANCH  88  89
ATOM     89  S   UNL A   1      48.629  36.937  29.738  1.00  0.00     0.124 S 
ATOM     90  O   UNL A   1      49.102  36.712  31.101  1.00  0.00    -0.237 OA
ATOM     91  O   UNL A   1      49.668  37.209  28.748  1.00  0.00    -0.237 OA
ATOM     92  O   UNL A   1      47.434  37.770  29.620  1.00  0.00    -0.744 OA
ENDBRANCH  88  89
ENDBRANCH  62  83
ENDBRANCH  36  37
ENDBRANCH  28  31
ENDBRANCH  26  27
ENDBRANCH  25  26
ENDBRANCH  24  25
ENDBRANCH   1  24
TORSDOF 20
ENDMDL
MODEL 2
REMARK VINA RESULT:      -9.7      1.344      3.457
REMARK SMILES CN(C(=O)C[N@@H+](CC(=O)NCCCCNC(=O)c1ccc(-c2c3nc(c(-c4ccc(S(=O)(=O)[O-])cc4)c4ccc([nH]4)c(-c4ccc(S(=O)(=O)[O-])cc4)c4nc(c(-c5ccc(S(=O)(=O)[O-])cc5)c5ccc2[nH]5)C=C4)C=C3)cc1)C(C)(C)C)c1ccccc1
REMARK SMILES IDX 11 1 10 2 8 3 9 4 7 6 6 7 5 9 3 10 4 11 2 12 1 13 82 14
REMARK SMILES IDX 83 15 87 16 84 17 86 18 85 19 78 20 79 21 80 22 81 23 12 24
REMARK SMILES IDX 13 25 14 26 15 27 16 28 17 30 18 31 19 32 77 33 20 34 76 35
REMARK SMILES IDX 21 36 22 37 23 38 70 39 24 40 75 41 69 42 71 43 25 44 74 45
REMARK SMILES IDX 68 46 67 47 26 49 56 50 37 51 55 52 38 53 41 54 54 55 72 56
REMARK SMILES IDX 39 57 40 58 53 60 73 61 42 62 27 63 28 64 36 65 29 66 35 67
REMARK SMILES IDX 30 68 31 69 32 70 33 71 34 72 57 73 58 74 66 75 59 76 65 77
REMARK SMILES IDX 60 78 61 79 62 80 63 81 64 82 43 83 44 84 52 85 45 86 51 87
REMARK SMILES IDX 46 88 47 89 48 90 49 91 50 92
REMARK H PARENT 10 5 6 8 15 29 71 48 41 59
REMARK Flexibility Score: inf
ROOT
ATOM      1  C   UNL A   1      37.642  23.722  25.962  1.00  0.00     0.116 C 
ENDROOT
BRANCH   1   2
ATOM      2  N   UNL A   1      37.304  23.247  24.631  1.00  0.00    -0.351 N 
ATOM      3  C   UNL A   1      36.187  23.383  23.858  1.00  0.00     0.275 C 
ATOM      4  O   UNL A   1      36.276  22.962  22.697  1.00  0.00    -0.269 OA
ATOM      5  H   UNL A   1      38.021  22.725  24.204  1.00  0.00     0.163 HD
BRANCH   3   6
ATOM      6  C   UNL A   1      34.889  24.073  24.320  1.00  0.00     0.364 C 
BRANCH   6   7
ATOM      7  N   UNL A   1      33.870  23.264  25.079  1.00  0.00    -0.315 N 
ATOM      8  H   UNL A   1      34.278  22.805  25.893  1.00  0.00     0.349 HD
BRANCH   7   9
ATOM      9  C   UNL A   1      33.428  22.178  24.189  1.00  0.00     0.364 C 
BRANCH   9  10
ATOM     10  C   UNL A   1      33.703  20.729  24.513  1.00  0.00     0.281 C 
ATOM     11  O   UNL A   1      34.528  20.496  25.406  1.00  0.00    -0.268 OA
BRANCH  10  12
ATOM     12  N   UNL A   1      32.983  19.742  23.837  1.00  0.00    -0.311 N 
ATOM     13  C   UNL A   1      32.152  20.027  22.670  1.00  0.00     0.153 C 
BRANCH  12  14
ATOM     14  C   UNL A   1      33.152  18.367  24.213  1.00  0.00     0.043 A 
ATOM     15  C   UNL A   1      32.525  17.847  25.356  1.00  0.00     0.026 A 
ATOM     16  C   UNL A   1      33.972  17.516  23.464  1.00  0.00     0.026 A 
ATOM     17  C   UNL A   1      32.746  16.532  25.767  1.00  0.00     0.002 A 
ATOM     18  C   UNL A   1      34.209  16.203  23.884  1.00  0.00     0.002 A 
ATOM     19  C   UNL A   1      33.601  15.714  25.038  1.00  0.00     0.000 A 
ENDBRANCH  12  14
ENDBRANCH  10  12
ENDBRANCH   9  10
ENDBRANCH   7   9
BRANCH   7  20
ATOM     20  C   UNL A   1      32.888  24.035  25.905  1.00  0.00     0.090 C 
ATOM     21  C   UNL A   1      33.190  25.534  26.110  1.00  0.00     0.078 C 
ATOM     22  C   UNL A   1      31.444  23.965  25.342  1.00  0.00     0.078 C 
ATOM     23  C   UNL A   1      32.788  23.367  27.303  1.00  0.00     0.078 C 
ENDBRANCH   7  20
ENDBRANCH   6   7
ENDBRANCH   3   6
ENDBRANCH   1   2
BRANCH   1  24
ATOM     24  C   UNL A   1      38.951  23.109  26.488  1.00  0.00     0.023 C 
BRANCH  24  25
ATOM     25  C   UNL A   1      39.328  21.739  25.964  1.00  0.00     0.023 C 
BRANCH  25  26
ATOM     26  C   UNL A   1      40.053  20.860  26.960  1.00  0.00     0.116 C 
BRANCH  26  27
ATOM     27  N   UNL A   1      40.806  19.766  26.360  1.00  0.00    -0.352 N 
ATOM     28  C   UNL A   1      42.120  19.770  25.939  1.00  0.00     0.251 C 
ATOM     29  H   UNL A   1      40.318  18.919  26.240  1.00  0.00     0.163 HD
ATOM     30  O   UNL A   1      42.611  18.793  25.399  1.00  0.00    -0.269 OA
BRANCH  28  31
ATOM     31  C   UNL A   1      42.900  21.015  26.114  1.00  0.00     0.039 A 
ATOM     32  C   UNL A   1      43.056  21.874  25.027  1.00  0.00     0.014 A 
ATOM     33  C   UNL A   1      43.347  21.381  27.384  1.00  0.00     0.014 A 
ATOM     34  C   UNL A   1      43.590  23.147  25.237  1.00  0.00     0.010 A 
ATOM     35  C   UNL A   1      43.763  22.683  27.609  1.00  0.00     0.010 A 
ATOM     36  C   UNL A   1      43.901  23.577  26.537  1.00  0.00    -0.014 A 
BRANCH  36  37
ATOM     37  C   UNL A   1      44.406  24.946  26.808  1.00  0.00     0.031 A 
ATOM     38  C   UNL A   1      43.443  26.005  27.279  1.00  0.00     0.074 A 
ATOM     39  C   UNL A   1      45.693  25.256  26.559  1.00  0.00     0.049 A 
ATOM     40  N   UNL A   1      43.653  27.280  27.481  1.00  0.00    -0.248 NA
ATOM     41  C   UNL A   1      42.051  25.582  27.511  1.00  0.00     0.031 C 
ATOM     42  C   UNL A   1      46.710  24.333  26.046  1.00  0.00     0.029 A 
ATOM     43  N   UNL A   1      46.370  26.441  26.705  1.00  0.00    -0.354 N 
ATOM     44  C   UNL A   1      42.418  27.810  27.833  1.00  0.00     0.074 A 
ATOM     45  C   UNL A   1      41.452  26.738  27.752  1.00  0.00     0.031 C 
ATOM     46  C   UNL A   1      47.886  24.977  25.959  1.00  0.00     0.029 A 
ATOM     47  C   UNL A   1      47.702  26.363  26.373  1.00  0.00     0.049 A 
ATOM     48  H   UNL A   1      45.941  27.271  27.018  1.00  0.00     0.167 HD
ATOM     49  C   UNL A   1      42.115  29.070  28.221  1.00  0.00     0.031 A 
ATOM     50  C   UNL A   1      48.665  27.304  26.405  1.00  0.00     0.031 A 
ATOM     51  C   UNL A   1      43.084  30.123  28.342  1.00  0.00     0.049 A 
ATOM     52  C   UNL A   1      48.313  28.690  26.873  1.00  0.00     0.074 A 
ATOM     53  C   UNL A   1      42.897  31.420  28.784  1.00  0.00     0.029 A 
ATOM     54  N   UNL A   1      44.430  29.993  28.033  1.00  0.00    -0.354 N 
ATOM     55  N   UNL A   1      47.148  29.160  27.254  1.00  0.00    -0.248 NA
ATOM     56  C   UNL A   1      49.408  29.668  26.930  1.00  0.00     0.031 C 
ATOM     57  C   UNL A   1      44.128  32.084  28.714  1.00  0.00     0.029 A 
ATOM     58  C   UNL A   1      45.086  31.187  28.270  1.00  0.00     0.049 A 
ATOM     59  H   UNL A   1      44.855  29.171  27.695  1.00  0.00     0.167 HD
ATOM     60  C   UNL A   1      47.377  30.481  27.623  1.00  0.00     0.074 A 
ATOM     61  C   UNL A   1      48.791  30.730  27.432  1.00  0.00     0.031 C 
ATOM     62  C   UNL A   1      46.496  31.406  28.079  1.00  0.00     0.031 A 
BRANCH  49  63
ATOM     63  C   UNL A   1      40.677  29.362  28.558  1.00  0.00    -0.014 A 
ATOM     64  C   UNL A   1      39.689  29.376  27.555  1.00  0.00     0.010 A 
ATOM     65  C   UNL A   1      40.306  29.618  29.889  1.00  0.00     0.010 A 
ATOM     66  C   UNL A   1      38.366  29.693  27.869  1.00  0.00     0.020 A 
ATOM     67  C   UNL A   1      38.977  29.907  30.212  1.00  0.00     0.020 A 
ATOM     68  C   UNL A   1      38.019  29.963  29.196  1.00  0.00     0.054 A 
BRANCH  68  69
ATOM     69  S   UNL A   1      36.291  30.361  29.579  1.00  0.00     0.124 S 
ATOM     70  O   UNL A   1      36.340  31.816  29.700  1.00  0.00    -0.237 OA
ATOM     71  O   UNL A   1      35.577  29.853  28.411  1.00  0.00    -0.237 OA
ATOM     72  O   UNL A   1      36.037  29.640  30.823  1.00  0.00    -0.744 OA
ENDBRANCH  68  69
ENDBRANCH  49  63
BRANCH  50  73
ATOM     73  C   UNL A   1      50.062  26.960  26.021  1.00  0.00    -0.014 A 
ATOM     74  C   UNL A   1      50.458  27.012  24.673  1.00  0.00     0.010 A 
ATOM     75  C   UNL A   1      51.004  26.586  26.996  1.00  0.00     0.010 A 
ATOM     76  C   UNL A   1      51.763  26.672  24.302  1.00  0.00     0.020 A 
ATOM     77  C   UNL A   1      52.317  26.270  26.633  1.00  0.00     0.020 A 
ATOM     78  C   UNL A   1      52.684  26.301  25.286  1.00  0.00     0.054 A 
BRANCH  78  79
ATOM     79  S   UNL A   1      54.384  25.904  24.789  1.00  0.00     0.124 S 
ATOM     80  O   UNL A   1      55.168  26.705  25.721  1.00  0.00    -0.237 OA
ATOM     81  O   UNL A   1      54.443  24.459  24.989  1.00  0.00    -0.237 OA
ATOM     82  O   UNL A   1      54.439  26.333  23.393  1.00  0.00    -0.744 OA
ENDBRANCH  78  79
ENDBRANCH  50  73
BRANCH  62  83
ATOM     83  C   UNL A   1      47.044  32.758  28.442  1.00  0.00    -0.014 A 
ATOM     84  C   UNL A   1      47.543  33.019  29.729  1.00  0.00     0.010 A 
ATOM     85  C   UNL A   1      47.112  33.762  27.459  1.00  0.00     0.010 A 
ATOM     86  C   UNL A   1      48.073  34.274  30.037  1.00  0.00     0.020 A 
ATOM     87  C   UNL A   1      47.665  35.009  27.756  1.00  0.00     0.020 A 
ATOM     88  C   UNL A   1      48.129  35.261  29.048  1.00  0.00     0.054 A 
BRANCH  88  89
ATOM     89  S   UNL A   1      48.863  36.869  29.458  1.00  0.00     0.124 S 
ATOM     90  O   UNL A   1      48.891  37.530  28.156  1.00  0.00    -0.237 OA
ATOM     91  O   UNL A   1      47.914  37.420  30.422  1.00  0.00    -0.237 OA
ATOM     92  O   UNL A   1      50.170  36.521  30.011  1.00  0.00    -0.744 OA
ENDBRANCH  88  89
ENDBRANCH  62  83
ENDBRANCH  36  37
ENDBRANCH  28  31
ENDBRANCH  26  27
ENDBRANCH  25  26
ENDBRANCH  24  25
ENDBRANCH   1  24
TORSDOF 20
ENDMDL
MODEL 3
REMARK VINA RESULT:      -9.6      6.175     11.016
REMARK SMILES CN(C(=O)C[N@@H+](CC(=O)NCCCCNC(=O)c1ccc(-c2c3nc(c(-c4ccc(S(=O)(=O)[O-])cc4)c4ccc([nH]4)c(-c4ccc(S(=O)(=O)[O-])cc4)c4nc(c(-c5ccc(S(=O)(=O)[O-])cc5)c5ccc2[nH]5)C=C4)C=C3)cc1)C(C)(C)C)c1ccccc1
REMARK SMILES IDX 11 1 10 2 8 3 9 4 7 6 6 7 5 9 3 10 4 11 2 12 1 13 82 14
REMARK SMILES IDX 83 15 87 16 84 17 86 18 85 19 78 20 79 21 80 22 81 23 12 24
REMARK SMILES IDX 13 25 14 26 15 27 16 28 17 30 18 31 19 32 77 33 20 34 76 35
REMARK SMILES IDX 21 36 22 37 23 38 70 39 24 40 75 41 69 42 71 43 25 44 74 45
REMARK SMILES IDX 68 46 67 47 26 49 56 50 37 51 55 52 38 53 41 54 54 55 72 56
REMARK SMILES IDX 39 57 40 58 53 60 73 61 42 62 27 63 28 64 36 65 29 66 35 67
REMARK SMILES IDX 30 68 31 69 32 70 33 71 34 72 57 73 58 74 66 75 59 76 65 77
REMARK SMILES IDX 60 78 61 79 62 80 63 81 64 82 43 83 44 84 52 85 45 86 51 87
REMARK SMILES IDX 46 88 47 89 48 90 49 91 50 92
REMARK H PARENT 10 5 6 8 15 29 71 48 41 59
REMARK Flexibility Score: inf
ROOT
ATOM      1  C   UNL A   1      37.577  22.480  25.845  1.00  0.00     0.116 C 
ENDROOT
BRANCH   1   2
ATOM      2  N   UNL A   1      37.411  22.785  24.435  1.00  0.00    -0.351 N 
ATOM      3  C   UNL A   1      36.358  22.647  23.577  1.00  0.00     0.275 C 
ATOM      4  O   UNL A   1      36.507  23.138  22.450  1.00  0.00    -0.269 OA
ATOM      5  H   UNL A   1      38.216  23.167  24.015  1.00  0.00     0.163 HD
BRANCH   3   6
ATOM      6  C   UNL A   1      35.013  21.995  23.952  1.00  0.00     0.364 C 
BRANCH   6   7
ATOM      7  N   UNL A   1      34.263  22.519  25.150  1.00  0.00    -0.315 N 
ATOM      8  H   UNL A   1      34.895  22.845  25.882  1.00  0.00     0.349 HD
BRANCH   7   9
ATOM      9  C   UNL A   1      33.528  21.385  25.733  1.00  0.00     0.364 C 
BRANCH   9  10
ATOM     10  C   UNL A   1      32.245  20.876  25.121  1.00  0.00     0.281 C 
ATOM     11  O   UNL A   1      31.184  21.304  25.594  1.00  0.00    -0.268 OA
BRANCH  10  12
ATOM     12  N   UNL A   1      32.321  20.004  24.033  1.00  0.00    -0.311 N 
ATOM     13  C   UNL A   1      32.153  20.446  22.651  1.00  0.00     0.153 C 
BRANCH  12  14
ATOM     14  C   UNL A   1      32.701  18.638  24.252  1.00  0.00     0.043 A 
ATOM     15  C   UNL A   1      32.550  18.038  25.512  1.00  0.00     0.026 A 
ATOM     16  C   UNL A   1      33.262  17.876  23.220  1.00  0.00     0.026 A 
ATOM     17  C   UNL A   1      32.987  16.733  25.750  1.00  0.00     0.002 A 
ATOM     18  C   UNL A   1      33.718  16.576  23.461  1.00  0.00     0.002 A 
ATOM     19  C   UNL A   1      33.586  16.008  24.726  1.00  0.00     0.000 A 
ENDBRANCH  12  14
ENDBRANCH  10  12
ENDBRANCH   9  10
ENDBRANCH   7   9
BRANCH   7  20
ATOM     20  C   UNL A   1      33.620  23.862  24.997  1.00  0.00     0.090 C 
ATOM     21  C   UNL A   1      32.520  24.218  26.019  1.00  0.00     0.078 C 
ATOM     22  C   UNL A   1      34.642  25.027  25.049  1.00  0.00     0.078 C 
ATOM     23  C   UNL A   1      33.004  23.955  23.575  1.00  0.00     0.078 C 
ENDBRANCH   7  20
ENDBRANCH   6   7
ENDBRANCH   3   6
ENDBRANCH   1   2
BRANCH   1  24
ATOM     24  C   UNL A   1      38.995  22.796  26.351  1.00  0.00     0.023 C 
BRANCH  24  25
ATOM     25  C   UNL A   1      39.214  24.157  26.978  1.00  0.00     0.023 C 
BRANCH  25  26
ATOM     26  C   UNL A   1      39.977  25.136  26.111  1.00  0.00     0.116 C 
BRANCH  26  27
ATOM     27  N   UNL A   1      41.313  24.692  25.736  1.00  0.00    -0.352 N 
ATOM     28  C   UNL A   1      42.515  25.025  26.327  1.00  0.00     0.251 C 
ATOM     29  H   UNL A   1      41.365  24.079  24.968  1.00  0.00     0.163 HD
ATOM     30  O   UNL A   1      43.573  24.621  25.872  1.00  0.00    -0.269 OA
BRANCH  28  31
ATOM     31  C   UNL A   1      42.486  25.931  27.495  1.00  0.00     0.039 A 
ATOM     32  C   UNL A   1      42.817  27.274  27.319  1.00  0.00     0.014 A 
ATOM     33  C   UNL A   1      41.999  25.470  28.719  1.00  0.00     0.014 A 
ATOM     34  C   UNL A   1      42.576  28.177  28.356  1.00  0.00     0.010 A 
ATOM     35  C   UNL A   1      41.649  26.385  29.699  1.00  0.00     0.010 A 
ATOM     36  C   UNL A   1      41.944  27.746  29.535  1.00  0.00    -0.014 A 
BRANCH  36  37
ATOM     37  C   UNL A   1      41.609  28.688  30.631  1.00  0.00     0.031 A 
ATOM     38  C   UNL A   1      42.430  28.667  31.894  1.00  0.00     0.074 A 
ATOM     39  C   UNL A   1      40.537  29.497  30.527  1.00  0.00     0.049 A 
ATOM     40  N   UNL A   1      42.252  29.334  33.005  1.00  0.00    -0.248 NA
ATOM     41  C   UNL A   1      43.576  27.741  31.928  1.00  0.00     0.031 C 
ATOM     42  C   UNL A   1      39.629  29.569  29.378  1.00  0.00     0.029 A 
ATOM     43  N   UNL A   1      40.026  30.418  31.407  1.00  0.00    -0.354 N 
ATOM     44  C   UNL A   1      43.241  28.886  33.872  1.00  0.00     0.074 A 
ATOM     45  C   UNL A   1      43.973  27.845  33.186  1.00  0.00     0.031 C 
ATOM     46  C   UNL A   1      38.699  30.511  29.609  1.00  0.00     0.029 A 
ATOM     47  C   UNL A   1      38.920  31.083  30.932  1.00  0.00     0.049 A 
ATOM     48  H   UNL A   1      40.414  30.586  32.296  1.00  0.00     0.167 HD
ATOM     49  C   UNL A   1      43.539  29.322  35.118  1.00  0.00     0.031 A 
ATOM     50  C   UNL A   1      38.173  32.050  31.500  1.00  0.00     0.031 A 
ATOM     51  C   UNL A   1      42.838  30.386  35.780  1.00  0.00     0.049 A 
ATOM     52  C   UNL A   1      38.543  32.543  32.872  1.00  0.00     0.074 A 
ATOM     53  C   UNL A   1      43.093  30.948  37.017  1.00  0.00     0.029 A 
ATOM     54  N   UNL A   1      41.747  31.060  35.249  1.00  0.00    -0.354 N 
ATOM     55  N   UNL A   1      39.517  32.145  33.656  1.00  0.00    -0.248 NA
ATOM     56  C   UNL A   1      37.724  33.628  33.429  1.00  0.00     0.031 C 
ATOM     57  C   UNL A   1      42.137  31.944  37.248  1.00  0.00     0.029 A 
ATOM     58  C   UNL A   1      41.316  32.030  36.135  1.00  0.00     0.049 A 
ATOM     59  H   UNL A   1      41.342  30.875  34.371  1.00  0.00     0.167 HD
ATOM     60  C   UNL A   1      39.444  32.949  34.788  1.00  0.00     0.074 A 
ATOM     61  C   UNL A   1      38.340  33.865  34.580  1.00  0.00     0.031 C 
ATOM     62  C   UNL A   1      40.220  32.933  35.900  1.00  0.00     0.031 A 
BRANCH  49  63
ATOM     63  C   UNL A   1      44.685  28.652  35.827  1.00  0.00    -0.014 A 
ATOM     64  C   UNL A   1      44.471  27.525  36.641  1.00  0.00     0.010 A 
ATOM     65  C   UNL A   1      45.991  29.150  35.677  1.00  0.00     0.010 A 
ATOM     66  C   UNL A   1      45.532  26.938  37.333  1.00  0.00     0.020 A 
ATOM     67  C   UNL A   1      47.062  28.548  36.344  1.00  0.00     0.020 A 
ATOM     68  C   UNL A   1      46.821  27.458  37.185  1.00  0.00     0.054 A 
BRANCH  68  69
ATOM     69  S   UNL A   1      48.185  26.670  38.084  1.00  0.00     0.124 S 
ATOM     70  O   UNL A   1      48.986  27.826  38.483  1.00  0.00    -0.237 OA
ATOM     71  O   UNL A   1      47.497  25.979  39.172  1.00  0.00    -0.237 OA
ATOM     72  O   UNL A   1      48.801  25.799  37.088  1.00  0.00    -0.744 OA
ENDBRANCH  68  69
ENDBRANCH  49  63
BRANCH  50  73
ATOM     73  C   UNL A   1      37.027  32.644  30.759  1.00  0.00    -0.014 A 
ATOM     74  C   UNL A   1      35.715  32.206  31.016  1.00  0.00     0.010 A 
ATOM     75  C   UNL A   1      37.235  33.651  29.799  1.00  0.00     0.010 A 
ATOM     76  C   UNL A   1      34.635  32.746  30.310  1.00  0.00     0.020 A 
ATOM     77  C   UNL A   1      36.155  34.211  29.109  1.00  0.00     0.020 A 
ATOM     78  C   UNL A   1      34.863  33.745  29.360  1.00  0.00     0.054 A 
BRANCH  78  79
ATOM     79  S   UNL A   1      33.443  34.461  28.485  1.00  0.00     0.124 S 
ATOM     80  O   UNL A   1      34.064  35.550  27.739  1.00  0.00    -0.237 OA
ATOM     81  O   UNL A   1      32.963  33.337  27.685  1.00  0.00    -0.237 OA
ATOM     82  O   UNL A   1      32.549  34.871  29.566  1.00  0.00    -0.744 OA
ENDBRANCH  78  79
ENDBRANCH  50  73
BRANCH  62  83
ATOM     83  C   UNL A   1      39.928  33.961  36.958  1.00  0.00    -0.014 A 
ATOM     84  C   UNL A   1      39.233  33.620  38.131  1.00  0.00     0.010 A 
ATOM     85  C   UNL A   1      40.409  35.272  36.798  1.00  0.00     0.010 A 
ATOM     86  C   UNL A   1      38.997  34.583  39.114  1.00  0.00     0.020 A 
ATOM     87  C   UNL A   1      40.198  36.232  37.790  1.00  0.00     0.020 A 
ATOM     88  C   UNL A   1      39.480  35.884  38.936  1.00  0.00     0.054 A 
BRANCH  88  89
ATOM     89  S   UNL A   1      39.200  37.107  40.246  1.00  0.00     0.124 S 
ATOM     90  O   UNL A   1      38.357  36.365  41.179  1.00  0.00    -0.237 OA
ATOM     91  O   UNL A   1      40.555  37.393  40.713  1.00  0.00    -0.237 OA
ATOM     92  O   UNL A   1      38.543  38.212  39.552  1.00  0.00    -0.744 OA
ENDBRANCH  88  89
ENDBRANCH  62  83
ENDBRANCH  36  37
ENDBRANCH  28  31
ENDBRANCH  26  27
ENDBRANCH  25  26
ENDBRANCH  24  25
ENDBRANCH   1  24
TORSDOF 20
ENDMDL
