MODEL 1
REMARK VINA RESULT:     -10.3      0.000      0.000
REMARK SMILES CC[C@@H](C)CN(C)C(=O)N1CCC(CC(=O)NCCCCNC(=O)c2ccc(-c3c4nc(c(-c5ccc(S(=O)(=O)[O-])cc5)c5ccc([nH]5)c(-c5ccc(S(=O)(=O)[O-])cc5)c5nc(c(-c6ccc(S(=O)(=O)[O-])cc6)c6ccc3[nH]6)C=C5)C=C4)cc2)CC1
REMARK SMILES IDX 18 1 17 2 15 3 16 4 14 6 13 7 8 8 9 9 10 10 11 11 86 12
REMARK SMILES IDX 12 13 85 14 6 15 7 16 5 17 3 18 4 19 2 20 1 21 19 22 20 23
REMARK SMILES IDX 21 24 22 25 23 26 24 28 25 29 26 30 84 31 27 32 83 33 28 34
REMARK SMILES IDX 29 35 30 36 77 37 31 38 82 39 76 40 78 41 32 42 81 43 75 44
REMARK SMILES IDX 74 45 33 47 63 48 44 49 62 50 45 51 48 52 61 53 79 54 46 55
REMARK SMILES IDX 47 56 60 58 80 59 49 60 34 61 35 62 43 63 36 64 42 65 37 66
REMARK SMILES IDX 38 67 39 68 40 69 41 70 64 71 65 72 73 73 66 74 72 75 67 76
REMARK SMILES IDX 68 77 69 78 70 79 71 80 50 81 51 82 59 83 52 84 58 85 53 86
REMARK SMILES IDX 54 87 55 88 56 89 57 90
REMARK H PARENT 17 5 22 27 78 46 48 57
REMARK Flexibility Score: inf
ROOT
ATOM      1  C   UNL A   1      39.326  22.251  26.284  1.00  0.00     0.116 C 
ENDROOT
BRANCH   1   2
ATOM      2  N   UNL A   1      38.425  21.207  25.826  1.00  0.00    -0.356 N 
ATOM      3  C   UNL A   1      37.300  21.291  25.063  1.00  0.00     0.220 C 
ATOM      4  O   UNL A   1      36.657  20.261  24.848  1.00  0.00    -0.275 OA
ATOM      5  H   UNL A   1      38.667  20.297  26.112  1.00  0.00     0.163 HD
BRANCH   3   6
ATOM      6  C   UNL A   1      36.837  22.621  24.491  1.00  0.00     0.103 C 
BRANCH   6   7
ATOM      7  C   UNL A   1      35.306  22.791  24.508  1.00  0.00     0.002 C 
ATOM      8  C   UNL A   1      32.797  25.725  25.413  1.00  0.00     0.319 C 
ATOM      9  O   UNL A   1      33.766  26.430  25.679  1.00  0.00    -0.248 OA
ATOM     10  N   UNL A   1      32.937  24.415  24.995  1.00  0.00    -0.325 N 
ATOM     11  C   UNL A   1      33.305  23.421  25.976  1.00  0.00     0.121 C 
ATOM     12  C   UNL A   1      33.363  24.154  23.633  1.00  0.00     0.121 C 
ATOM     13  C   UNL A   1      34.789  23.098  25.917  1.00  0.00     0.026 C 
ATOM     14  C   UNL A   1      34.869  23.908  23.547  1.00  0.00     0.026 C 
BRANCH   8  15
ATOM     15  N   UNL A   1      31.475  26.143  25.497  1.00  0.00    -0.327 N 
ATOM     16  C   UNL A   1      30.412  25.262  25.954  1.00  0.00     0.148 C 
BRANCH  15  17
ATOM     17  C   UNL A   1      31.111  27.495  25.085  1.00  0.00     0.124 C 
BRANCH  17  18
ATOM     18  C   UNL A   1      30.830  27.610  23.569  1.00  0.00     0.005 C 
ATOM     19  C   UNL A   1      31.642  28.775  22.996  1.00  0.00     0.009 C 
BRANCH  18  20
ATOM     20  C   UNL A   1      29.318  27.768  23.306  1.00  0.00     0.002 C 
ATOM     21  C   UNL A   1      28.928  29.077  22.635  1.00  0.00     0.004 C 
ENDBRANCH  18  20
ENDBRANCH  17  18
ENDBRANCH  15  17
ENDBRANCH   8  15
ENDBRANCH   6   7
ENDBRANCH   3   6
ENDBRANCH   1   2
BRANCH   1  22
ATOM     22  C   UNL A   1      40.782  21.775  26.289  1.00  0.00     0.023 C 
BRANCH  22  23
ATOM     23  C   UNL A   1      41.648  22.342  27.401  1.00  0.00     0.023 C 
BRANCH  23  24
ATOM     24  C   UNL A   1      42.695  23.339  26.939  1.00  0.00     0.116 C 
BRANCH  24  25
ATOM     25  N   UNL A   1      42.229  24.226  25.880  1.00  0.00    -0.352 N 
ATOM     26  C   UNL A   1      41.764  25.521  25.980  1.00  0.00     0.251 C 
ATOM     27  H   UNL A   1      42.247  23.850  24.970  1.00  0.00     0.163 HD
ATOM     28  O   UNL A   1      41.318  26.105  25.008  1.00  0.00    -0.269 OA
BRANCH  26  29
ATOM     29  C   UNL A   1      41.773  26.166  27.311  1.00  0.00     0.039 A 
ATOM     30  C   UNL A   1      42.787  27.074  27.617  1.00  0.00     0.014 A 
ATOM     31  C   UNL A   1      40.705  25.966  28.188  1.00  0.00     0.014 A 
ATOM     32  C   UNL A   1      42.669  27.869  28.758  1.00  0.00     0.010 A 
ATOM     33  C   UNL A   1      40.539  26.828  29.262  1.00  0.00     0.010 A 
ATOM     34  C   UNL A   1      41.512  27.798  29.551  1.00  0.00    -0.014 A 
BRANCH  34  35
ATOM     35  C   UNL A   1      41.277  28.740  30.674  1.00  0.00     0.031 A 
ATOM     36  C   UNL A   1      42.098  28.626  31.928  1.00  0.00     0.074 A 
ATOM     37  C   UNL A   1      40.261  29.625  30.604  1.00  0.00     0.049 A 
ATOM     38  N   UNL A   1      41.972  29.274  33.057  1.00  0.00    -0.248 NA
ATOM     39  C   UNL A   1      43.180  27.627  31.926  1.00  0.00     0.031 C 
ATOM     40  C   UNL A   1      39.351  29.792  29.467  1.00  0.00     0.029 A 
ATOM     41  N   UNL A   1      39.813  30.545  31.519  1.00  0.00    -0.354 N 
ATOM     42  C   UNL A   1      42.936  28.742  33.905  1.00  0.00     0.074 A 
ATOM     43  C   UNL A   1      43.604  27.685  33.180  1.00  0.00     0.031 C 
ATOM     44  C   UNL A   1      38.477  30.774  29.740  1.00  0.00     0.029 A 
ATOM     45  C   UNL A   1      38.732  31.277  31.085  1.00  0.00     0.049 A 
ATOM     46  H   UNL A   1      40.227  30.672  32.403  1.00  0.00     0.167 HD
ATOM     47  C   UNL A   1      43.252  29.114  35.167  1.00  0.00     0.031 A 
ATOM     48  C   UNL A   1      38.019  32.239  31.704  1.00  0.00     0.031 A 
ATOM     49  C   UNL A   1      42.609  30.189  35.873  1.00  0.00     0.049 A 
ATOM     50  C   UNL A   1      38.399  32.645  33.101  1.00  0.00     0.074 A 
ATOM     51  C   UNL A   1      42.910  30.698  37.123  1.00  0.00     0.029 A 
ATOM     52  N   UNL A   1      41.536  30.920  35.388  1.00  0.00    -0.354 N 
ATOM     53  N   UNL A   1      39.363  32.179  33.860  1.00  0.00    -0.248 NA
ATOM     54  C   UNL A   1      37.598  33.708  33.725  1.00  0.00     0.031 C 
ATOM     55  C   UNL A   1      41.990  31.711  37.413  1.00  0.00     0.029 A 
ATOM     56  C   UNL A   1      41.146  31.861  36.324  1.00  0.00     0.049 A 
ATOM     57  H   UNL A   1      41.113  30.789  34.509  1.00  0.00     0.167 HD
ATOM     58  C   UNL A   1      39.293  32.901  35.044  1.00  0.00     0.074 A 
ATOM     59  C   UNL A   1      38.206  33.848  34.895  1.00  0.00     0.031 C 
ATOM     60  C   UNL A   1      40.057  32.790  36.158  1.00  0.00     0.031 A 
BRANCH  47  61
ATOM     61  C   UNL A   1      44.351  28.355  35.857  1.00  0.00    -0.014 A 
ATOM     62  C   UNL A   1      44.066  27.220  36.640  1.00  0.00     0.010 A 
ATOM     63  C   UNL A   1      45.688  28.763  35.705  1.00  0.00     0.010 A 
ATOM     64  C   UNL A   1      45.093  26.535  37.293  1.00  0.00     0.020 A 
ATOM     65  C   UNL A   1      46.721  28.063  36.335  1.00  0.00     0.020 A 
ATOM     66  C   UNL A   1      46.414  26.964  37.141  1.00  0.00     0.054 A 
BRANCH  66  67
ATOM     67  S   UNL A   1      47.730  26.044  37.983  1.00  0.00     0.124 S 
ATOM     68  O   UNL A   1      47.595  26.521  39.359  1.00  0.00    -0.237 OA
ATOM     69  O   UNL A   1      47.342  24.653  37.762  1.00  0.00    -0.237 OA
ATOM     70  O   UNL A   1      48.946  26.467  37.293  1.00  0.00    -0.744 OA
ENDBRANCH  66  67
ENDBRANCH  47  61
BRANCH  48  71
ATOM     71  C   UNL A   1      36.882  32.893  31.002  1.00  0.00    -0.014 A 
ATOM     72  C   UNL A   1      37.117  33.747  29.910  1.00  0.00     0.010 A 
ATOM     73  C   UNL A   1      35.557  32.655  31.411  1.00  0.00     0.010 A 
ATOM     74  C   UNL A   1      36.050  34.363  29.250  1.00  0.00     0.020 A 
ATOM     75  C   UNL A   1      34.486  33.251  30.738  1.00  0.00     0.020 A 
ATOM     76  C   UNL A   1      34.740  34.110  29.667  1.00  0.00     0.054 A 
BRANCH  76  77
ATOM     77  S   UNL A   1      33.367  34.876  28.759  1.00  0.00     0.124 S 
ATOM     78  O   UNL A   1      33.034  33.841  27.786  1.00  0.00    -0.237 OA
ATOM     79  O   UNL A   1      32.378  35.100  29.810  1.00  0.00    -0.237 OA
ATOM     80  O   UNL A   1      33.962  36.091  28.206  1.00  0.00    -0.744 OA
ENDBRANCH  76  77
ENDBRANCH  48  71
BRANCH  60  81
ATOM     81  C   UNL A   1      39.754  33.719  37.299  1.00  0.00    -0.014 A 
ATOM     82  C   UNL A   1      38.904  33.322  38.346  1.00  0.00     0.010 A 
ATOM     83  C   UNL A   1      40.381  34.976  37.360  1.00  0.00     0.010 A 
ATOM     84  C   UNL A   1      38.669  34.177  39.425  1.00  0.00     0.020 A 
ATOM     85  C   UNL A   1      40.168  35.824  38.449  1.00  0.00     0.020 A 
ATOM     86  C   UNL A   1      39.303  35.422  39.471  1.00  0.00     0.054 A 
BRANCH  86  87
ATOM     87  S   UNL A   1      39.028  36.490  40.911  1.00  0.00     0.124 S 
ATOM     88  O   UNL A   1      37.985  35.766  41.632  1.00  0.00    -0.237 OA
ATOM     89  O   UNL A   1      40.340  36.507  41.554  1.00  0.00    -0.237 OA
ATOM     90  O   UNL A   1      38.614  37.762  40.324  1.00  0.00    -0.744 OA
ENDBRANCH  86  87
ENDBRANCH  60  81
ENDBRANCH  34  35
ENDBRANCH  26  29
ENDBRANCH  24  25
ENDBRANCH  23  24
ENDBRANCH  22  23
ENDBRANCH   1  22
TORSDOF 19
ENDMDL
MODEL 2
REMARK VINA RESULT:     -10.2      5.931     10.737
REMARK SMILES CC[C@@H](C)CN(C)C(=O)N1CCC(CC(=O)NCCCCNC(=O)c2ccc(-c3c4nc(c(-c5ccc(S(=O)(=O)[O-])cc5)c5ccc([nH]5)c(-c5ccc(S(=O)(=O)[O-])cc5)c5nc(c(-c6ccc(S(=O)(=O)[O-])cc6)c6ccc3[nH]6)C=C5)C=C4)cc2)CC1
REMARK SMILES IDX 18 1 17 2 15 3 16 4 14 6 13 7 8 8 9 9 10 10 11 11 86 12
REMARK SMILES IDX 12 13 85 14 6 15 7 16 5 17 3 18 4 19 2 20 1 21 19 22 20 23
REMARK SMILES IDX 21 24 22 25 23 26 24 28 25 29 26 30 84 31 27 32 83 33 28 34
REMARK SMILES IDX 29 35 30 36 77 37 31 38 82 39 76 40 78 41 32 42 81 43 75 44
REMARK SMILES IDX 74 45 33 47 63 48 44 49 62 50 45 51 48 52 61 53 79 54 46 55
REMARK SMILES IDX 47 56 60 58 80 59 49 60 34 61 35 62 43 63 36 64 42 65 37 66
REMARK SMILES IDX 38 67 39 68 40 69 41 70 64 71 65 72 73 73 66 74 72 75 67 76
REMARK SMILES IDX 68 77 69 78 70 79 71 80 50 81 51 82 59 83 52 84 58 85 53 86
REMARK SMILES IDX 54 87 55 88 56 89 57 90
REMARK H PARENT 17 5 22 27 78 46 48 57
REMARK Flexibility Score: inf
ROOT
ATOM      1  C   UNL A   1      35.666  21.366  24.699  1.00  0.00     0.116 C 
ENDROOT
BRANCH   1   2
ATOM      2  N   UNL A   1      34.617  20.511  25.229  1.00  0.00    -0.356 N 
ATOM      3  C   UNL A   1      33.292  20.452  24.917  1.00  0.00     0.220 C 
ATOM      4  O   UNL A   1      32.574  19.674  25.549  1.00  0.00    -0.275 OA
ATOM      5  H   UNL A   1      34.911  19.875  25.920  1.00  0.00     0.163 HD
BRANCH   3   6
ATOM      6  C   UNL A   1      32.704  21.326  23.821  1.00  0.00     0.103 C 
BRANCH   6   7
ATOM      7  C   UNL A   1      31.828  22.471  24.361  1.00  0.00     0.002 C 
ATOM      8  C   UNL A   1      32.119  26.424  24.513  1.00  0.00     0.319 C 
ATOM      9  O   UNL A   1      33.207  26.334  23.953  1.00  0.00    -0.248 OA
ATOM     10  N   UNL A   1      31.365  25.309  24.829  1.00  0.00    -0.325 N 
ATOM     11  C   UNL A   1      31.791  24.489  25.938  1.00  0.00     0.121 C 
ATOM     12  C   UNL A   1      30.642  24.627  23.772  1.00  0.00     0.121 C 
ATOM     13  C   UNL A   1      32.543  23.255  25.466  1.00  0.00     0.026 C 
ATOM     14  C   UNL A   1      31.425  23.431  23.230  1.00  0.00     0.026 C 
BRANCH   8  15
ATOM     15  N   UNL A   1      31.525  27.621  24.890  1.00  0.00    -0.327 N 
ATOM     16  C   UNL A   1      30.634  28.355  24.005  1.00  0.00     0.148 C 
BRANCH  15  17
ATOM     17  C   UNL A   1      31.818  28.200  26.197  1.00  0.00     0.124 C 
BRANCH  17  18
ATOM     18  C   UNL A   1      32.897  29.305  26.141  1.00  0.00     0.005 C 
ATOM     19  C   UNL A   1      34.251  28.703  26.532  1.00  0.00     0.009 C 
BRANCH  18  20
ATOM     20  C   UNL A   1      32.507  30.495  27.041  1.00  0.00     0.002 C 
ATOM     21  C   UNL A   1      31.523  31.470  26.407  1.00  0.00     0.004 C 
ENDBRANCH  18  20
ENDBRANCH  17  18
ENDBRANCH  15  17
ENDBRANCH   8  15
ENDBRANCH   6   7
ENDBRANCH   3   6
ENDBRANCH   1   2
BRANCH   1  22
ATOM     22  C   UNL A   1      36.715  21.695  25.767  1.00  0.00     0.023 C 
BRANCH  22  23
ATOM     23  C   UNL A   1      38.120  21.941  25.244  1.00  0.00     0.023 C 
BRANCH  23  24
ATOM     24  C   UNL A   1      39.224  21.678  26.251  1.00  0.00     0.116 C 
BRANCH  24  25
ATOM     25  N   UNL A   1      39.870  20.381  26.084  1.00  0.00    -0.352 N 
ATOM     26  C   UNL A   1      41.215  20.077  26.111  1.00  0.00     0.251 C 
ATOM     27  H   UNL A   1      39.264  19.620  25.929  1.00  0.00     0.163 HD
ATOM     28  O   UNL A   1      41.608  18.951  25.858  1.00  0.00    -0.269 OA
BRANCH  26  29
ATOM     29  C   UNL A   1      42.172  21.165  26.402  1.00  0.00     0.039 A 
ATOM     30  C   UNL A   1      42.598  21.989  25.360  1.00  0.00     0.014 A 
ATOM     31  C   UNL A   1      42.533  21.440  27.722  1.00  0.00     0.014 A 
ATOM     32  C   UNL A   1      43.295  23.161  25.659  1.00  0.00     0.010 A 
ATOM     33  C   UNL A   1      43.132  22.654  28.023  1.00  0.00     0.010 A 
ATOM     34  C   UNL A   1      43.508  23.534  26.996  1.00  0.00    -0.014 A 
BRANCH  34  35
ATOM     35  C   UNL A   1      44.097  24.848  27.355  1.00  0.00     0.031 A 
ATOM     36  C   UNL A   1      43.212  25.942  27.886  1.00  0.00     0.074 A 
ATOM     37  C   UNL A   1      45.401  25.089  27.107  1.00  0.00     0.049 A 
ATOM     38  N   UNL A   1      43.511  27.188  28.149  1.00  0.00    -0.248 NA
ATOM     39  C   UNL A   1      41.799  25.601  28.118  1.00  0.00     0.031 C 
ATOM     40  C   UNL A   1      46.351  24.130  26.535  1.00  0.00     0.029 A 
ATOM     41  N   UNL A   1      46.152  26.223  27.292  1.00  0.00    -0.354 N 
ATOM     42  C   UNL A   1      42.320  27.783  28.547  1.00  0.00     0.074 A 
ATOM     43  C   UNL A   1      41.286  26.778  28.443  1.00  0.00     0.031 C 
ATOM     44  C   UNL A   1      47.561  24.706  26.445  1.00  0.00     0.029 A 
ATOM     45  C   UNL A   1      47.467  26.085  26.910  1.00  0.00     0.049 A 
ATOM     46  H   UNL A   1      45.785  27.057  27.665  1.00  0.00     0.167 HD
ATOM     47  C   UNL A   1      42.109  29.047  28.982  1.00  0.00     0.031 A 
ATOM     48  C   UNL A   1      48.481  26.973  26.924  1.00  0.00     0.031 A 
ATOM     49  C   UNL A   1      43.145  30.035  29.117  1.00  0.00     0.049 A 
ATOM     50  C   UNL A   1      48.224  28.367  27.425  1.00  0.00     0.074 A 
ATOM     51  C   UNL A   1      43.050  31.317  29.624  1.00  0.00     0.029 A 
ATOM     52  N   UNL A   1      44.466  29.847  28.743  1.00  0.00    -0.354 N 
ATOM     53  N   UNL A   1      47.105  28.889  27.868  1.00  0.00    -0.248 NA
ATOM     54  C   UNL A   1      49.367  29.291  27.431  1.00  0.00     0.031 C 
ATOM     55  C   UNL A   1      44.307  31.921  29.518  1.00  0.00     0.029 A 
ATOM     56  C   UNL A   1      45.193  30.999  28.985  1.00  0.00     0.049 A 
ATOM     57  H   UNL A   1      44.833  29.017  28.360  1.00  0.00     0.167 HD
ATOM     58  C   UNL A   1      47.412  30.198  28.218  1.00  0.00     0.074 A 
ATOM     59  C   UNL A   1      48.825  30.382  27.954  1.00  0.00     0.031 C 
ATOM     60  C   UNL A   1      46.598  31.163  28.710  1.00  0.00     0.031 A 
BRANCH  47  61
ATOM     61  C   UNL A   1      40.701  29.426  29.352  1.00  0.00    -0.014 A 
ATOM     62  C   UNL A   1      40.258  29.351  30.686  1.00  0.00     0.010 A 
ATOM     63  C   UNL A   1      39.816  29.885  28.361  1.00  0.00     0.010 A 
ATOM     64  C   UNL A   1      38.943  29.686  31.014  1.00  0.00     0.020 A 
ATOM     65  C   UNL A   1      38.506  30.246  28.691  1.00  0.00     0.020 A 
ATOM     66  C   UNL A   1      38.073  30.126  30.013  1.00  0.00     0.054 A 
BRANCH  66  67
ATOM     67  S   UNL A   1      36.376  30.574  30.471  1.00  0.00     0.124 S 
ATOM     68  O   UNL A   1      35.662  30.364  29.212  1.00  0.00    -0.237 OA
ATOM     69  O   UNL A   1      36.067  29.621  31.533  1.00  0.00    -0.237 OA
ATOM     70  O   UNL A   1      36.488  31.966  30.898  1.00  0.00    -0.744 OA
ENDBRANCH  66  67
ENDBRANCH  47  61
BRANCH  48  71
ATOM     71  C   UNL A   1      49.834  26.565  26.459  1.00  0.00    -0.014 A 
ATOM     72  C   UNL A   1      50.722  25.917  27.336  1.00  0.00     0.010 A 
ATOM     73  C   UNL A   1      50.239  26.810  25.134  1.00  0.00     0.010 A 
ATOM     74  C   UNL A   1      51.994  25.535  26.902  1.00  0.00     0.020 A 
ATOM     75  C   UNL A   1      51.502  26.408  24.689  1.00  0.00     0.020 A 
ATOM     76  C   UNL A   1      52.377  25.782  25.580  1.00  0.00     0.054 A 
BRANCH  76  77
ATOM     77  S   UNL A   1      54.012  25.226  25.022  1.00  0.00     0.124 S 
ATOM     78  O   UNL A   1      54.870  25.656  26.121  1.00  0.00    -0.237 OA
ATOM     79  O   UNL A   1      53.828  23.784  24.888  1.00  0.00    -0.237 OA
ATOM     80  O   UNL A   1      54.201  25.942  23.761  1.00  0.00    -0.744 OA
ENDBRANCH  76  77
ENDBRANCH  48  71
BRANCH  60  81
ATOM     81  C   UNL A   1      47.213  32.501  29.008  1.00  0.00    -0.014 A 
ATOM     82  C   UNL A   1      47.219  33.522  28.041  1.00  0.00     0.010 A 
ATOM     83  C   UNL A   1      47.730  32.762  30.289  1.00  0.00     0.010 A 
ATOM     84  C   UNL A   1      47.751  34.776  28.346  1.00  0.00     0.020 A 
ATOM     85  C   UNL A   1      48.241  34.023  30.606  1.00  0.00     0.020 A 
ATOM     86  C   UNL A   1      48.257  35.020  29.627  1.00  0.00     0.054 A 
BRANCH  86  87
ATOM     87  S   UNL A   1      48.889  36.674  30.017  1.00  0.00     0.124 S 
ATOM     88  O   UNL A   1      50.139  36.709  29.262  1.00  0.00    -0.237 OA
ATOM     89  O   UNL A   1      47.830  37.549  29.518  1.00  0.00    -0.237 OA
ATOM     90  O   UNL A   1      49.037  36.655  31.470  1.00  0.00    -0.744 OA
ENDBRANCH  86  87
ENDBRANCH  60  81
ENDBRANCH  34  35
ENDBRANCH  26  29
ENDBRANCH  24  25
ENDBRANCH  23  24
ENDBRANCH  22  23
ENDBRANCH   1  22
TORSDOF 19
ENDMDL
MODEL 3
REMARK VINA RESULT:      -9.9      0.914      8.278
REMARK SMILES CC[C@@H](C)CN(C)C(=O)N1CCC(CC(=O)NCCCCNC(=O)c2ccc(-c3c4nc(c(-c5ccc(S(=O)(=O)[O-])cc5)c5ccc([nH]5)c(-c5ccc(S(=O)(=O)[O-])cc5)c5nc(c(-c6ccc(S(=O)(=O)[O-])cc6)c6ccc3[nH]6)C=C5)C=C4)cc2)CC1
REMARK SMILES IDX 18 1 17 2 15 3 16 4 14 6 13 7 8 8 9 9 10 10 11 11 86 12
REMARK SMILES IDX 12 13 85 14 6 15 7 16 5 17 3 18 4 19 2 20 1 21 19 22 20 23
REMARK SMILES IDX 21 24 22 25 23 26 24 28 25 29 26 30 84 31 27 32 83 33 28 34
REMARK SMILES IDX 29 35 30 36 77 37 31 38 82 39 76 40 78 41 32 42 81 43 75 44
REMARK SMILES IDX 74 45 33 47 63 48 44 49 62 50 45 51 48 52 61 53 79 54 46 55
REMARK SMILES IDX 47 56 60 58 80 59 49 60 34 61 35 62 43 63 36 64 42 65 37 66
REMARK SMILES IDX 38 67 39 68 40 69 41 70 64 71 65 72 73 73 66 74 72 75 67 76
REMARK SMILES IDX 68 77 69 78 70 79 71 80 50 81 51 82 59 83 52 84 58 85 53 86
REMARK SMILES IDX 54 87 55 88 56 89 57 90
REMARK H PARENT 17 5 22 27 78 46 48 57
REMARK Flexibility Score: inf
ROOT
ATOM      1  C   UNL A   1      38.164  22.227  26.122  1.00  0.00     0.116 C 
ENDROOT
BRANCH   1   2
ATOM      2  N   UNL A   1      37.381  21.046  25.803  1.00  0.00    -0.356 N 
ATOM      3  C   UNL A   1      36.300  20.904  24.986  1.00  0.00     0.220 C 
ATOM      4  O   UNL A   1      35.757  19.800  24.915  1.00  0.00    -0.275 OA
ATOM      5  H   UNL A   1      37.679  20.219  26.245  1.00  0.00     0.163 HD
BRANCH   3   6
ATOM      6  C   UNL A   1      35.765  22.079  24.182  1.00  0.00     0.103 C 
BRANCH   6   7
ATOM      7  C   UNL A   1      34.417  22.609  24.705  1.00  0.00     0.002 C 
ATOM      8  C   UNL A   1      32.242  25.873  24.115  1.00  0.00     0.319 C 
ATOM      9  O   UNL A   1      33.111  26.275  23.346  1.00  0.00    -0.248 OA
ATOM     10  N   UNL A   1      32.354  24.665  24.777  1.00  0.00    -0.325 N 
ATOM     11  C   UNL A   1      33.277  24.576  25.884  1.00  0.00     0.121 C 
ATOM     12  C   UNL A   1      32.119  23.436  24.043  1.00  0.00     0.121 C 
ATOM     13  C   UNL A   1      34.587  23.925  25.470  1.00  0.00     0.026 C 
ATOM     14  C   UNL A   1      33.424  22.813  23.548  1.00  0.00     0.026 C 
BRANCH   8  15
ATOM     15  N   UNL A   1      31.072  26.561  24.407  1.00  0.00    -0.327 N 
ATOM     16  C   UNL A   1      29.923  26.547  23.515  1.00  0.00     0.148 C 
BRANCH  15  17
ATOM     17  C   UNL A   1      30.982  27.360  25.625  1.00  0.00     0.124 C 
BRANCH  17  18
ATOM     18  C   UNL A   1      32.231  28.237  25.866  1.00  0.00     0.005 C 
ATOM     19  C   UNL A   1      32.492  28.334  27.373  1.00  0.00     0.009 C 
BRANCH  18  20
ATOM     20  C   UNL A   1      32.057  29.624  25.215  1.00  0.00     0.002 C 
ATOM     21  C   UNL A   1      31.602  30.718  26.171  1.00  0.00     0.004 C 
ENDBRANCH  18  20
ENDBRANCH  17  18
ENDBRANCH  15  17
ENDBRANCH   8  15
ENDBRANCH   6   7
ENDBRANCH   3   6
ENDBRANCH   1   2
BRANCH   1  22
ATOM     22  C   UNL A   1      39.666  21.923  26.118  1.00  0.00     0.023 C 
BRANCH  22  23
ATOM     23  C   UNL A   1      40.416  22.328  27.375  1.00  0.00     0.023 C 
BRANCH  23  24
ATOM     24  C   UNL A   1      41.686  23.120  27.126  1.00  0.00     0.116 C 
BRANCH  24  25
ATOM     25  N   UNL A   1      41.543  24.145  26.098  1.00  0.00    -0.352 N 
ATOM     26  C   UNL A   1      41.350  25.502  26.253  1.00  0.00     0.251 C 
ATOM     27  H   UNL A   1      41.588  23.825  25.168  1.00  0.00     0.163 HD
ATOM     28  O   UNL A   1      41.152  26.222  25.290  1.00  0.00    -0.269 OA
BRANCH  26  29
ATOM     29  C   UNL A   1      41.337  26.054  27.625  1.00  0.00     0.039 A 
ATOM     30  C   UNL A   1      42.444  26.773  28.075  1.00  0.00     0.014 A 
ATOM     31  C   UNL A   1      40.179  25.968  28.399  1.00  0.00     0.014 A 
ATOM     32  C   UNL A   1      42.346  27.505  29.260  1.00  0.00     0.010 A 
ATOM     33  C   UNL A   1      40.048  26.777  29.518  1.00  0.00     0.010 A 
ATOM     34  C   UNL A   1      41.125  27.565  29.953  1.00  0.00    -0.014 A 
BRANCH  34  35
ATOM     35  C   UNL A   1      40.935  28.461  31.121  1.00  0.00     0.031 A 
ATOM     36  C   UNL A   1      39.865  29.518  31.084  1.00  0.00     0.074 A 
ATOM     37  C   UNL A   1      41.786  28.392  32.165  1.00  0.00     0.049 A 
ATOM     38  N   UNL A   1      39.615  30.466  31.949  1.00  0.00    -0.248 NA
ATOM     39  C   UNL A   1      38.985  29.532  29.904  1.00  0.00     0.031 C 
ATOM     40  C   UNL A   1      42.905  27.453  32.293  1.00  0.00     0.029 A 
ATOM     41  N   UNL A   1      41.853  29.138  33.315  1.00  0.00    -0.354 N 
ATOM     42  C   UNL A   1      38.572  31.205  31.404  1.00  0.00     0.074 A 
ATOM     43  C   UNL A   1      38.270  30.628  30.113  1.00  0.00     0.031 C 
ATOM     44  C   UNL A   1      43.524  27.659  33.466  1.00  0.00     0.029 A 
ATOM     45  C   UNL A   1      42.879  28.771  34.155  1.00  0.00     0.049 A 
ATOM     46  H   UNL A   1      41.225  29.868  33.522  1.00  0.00     0.167 HD
ATOM     47  C   UNL A   1      37.908  32.256  31.939  1.00  0.00     0.031 A 
ATOM     48  C   UNL A   1      43.264  29.278  35.344  1.00  0.00     0.031 A 
ATOM     49  C   UNL A   1      38.188  32.807  33.237  1.00  0.00     0.049 A 
ATOM     50  C   UNL A   1      42.502  30.438  35.923  1.00  0.00     0.074 A 
ATOM     51  C   UNL A   1      37.521  33.818  33.904  1.00  0.00     0.029 A 
ATOM     52  N   UNL A   1      39.218  32.389  34.065  1.00  0.00    -0.354 N 
ATOM     53  N   UNL A   1      41.469  31.075  35.425  1.00  0.00    -0.248 NA
ATOM     54  C   UNL A   1      42.954  30.944  37.227  1.00  0.00     0.031 C 
ATOM     55  C   UNL A   1      38.174  34.042  35.120  1.00  0.00     0.029 A 
ATOM     56  C   UNL A   1      39.221  33.139  35.227  1.00  0.00     0.049 A 
ATOM     57  H   UNL A   1      39.854  31.667  33.857  1.00  0.00     0.167 HD
ATOM     58  C   UNL A   1      41.141  32.048  36.360  1.00  0.00     0.074 A 
ATOM     59  C   UNL A   1      42.070  31.903  37.462  1.00  0.00     0.031 C 
ATOM     60  C   UNL A   1      40.159  32.982  36.310  1.00  0.00     0.031 A 
BRANCH  47  61
ATOM     61  C   UNL A   1      36.808  32.871  31.118  1.00  0.00    -0.014 A 
ATOM     62  C   UNL A   1      35.462  32.520  31.333  1.00  0.00     0.010 A 
ATOM     63  C   UNL A   1      37.118  33.828  30.136  1.00  0.00     0.010 A 
ATOM     64  C   UNL A   1      34.451  33.082  30.550  1.00  0.00     0.020 A 
ATOM     65  C   UNL A   1      36.106  34.413  29.369  1.00  0.00     0.020 A 
ATOM     66  C   UNL A   1      34.780  34.021  29.569  1.00  0.00     0.054 A 
BRANCH  66  67
ATOM     67  S   UNL A   1      33.446  34.750  28.581  1.00  0.00     0.124 S 
ATOM     68  O   UNL A   1      33.100  33.648  27.685  1.00  0.00    -0.237 OA
ATOM     69  O   UNL A   1      32.441  35.077  29.589  1.00  0.00    -0.237 OA
ATOM     70  O   UNL A   1      34.078  35.900  27.939  1.00  0.00    -0.744 OA
ENDBRANCH  66  67
ENDBRANCH  47  61
BRANCH  48  71
ATOM     71  C   UNL A   1      44.420  28.685  36.069  1.00  0.00    -0.014 A 
ATOM     72  C   UNL A   1      44.215  27.677  37.027  1.00  0.00     0.010 A 
ATOM     73  C   UNL A   1      45.731  29.114  35.796  1.00  0.00     0.010 A 
ATOM     74  C   UNL A   1      45.300  27.119  37.710  1.00  0.00     0.020 A 
ATOM     75  C   UNL A   1      46.820  28.541  36.460  1.00  0.00     0.020 A 
ATOM     76  C   UNL A   1      46.597  27.554  37.422  1.00  0.00     0.054 A 
BRANCH  76  77
ATOM     77  S   UNL A   1      47.994  26.776  38.280  1.00  0.00     0.124 S 
ATOM     78  O   UNL A   1      48.045  25.462  37.646  1.00  0.00    -0.237 OA
ATOM     79  O   UNL A   1      49.100  27.675  37.965  1.00  0.00    -0.237 OA
ATOM     80  O   UNL A   1      47.578  26.781  39.681  1.00  0.00    -0.744 OA
ENDBRANCH  76  77
ENDBRANCH  48  71
BRANCH  60  81
ATOM     81  C   UNL A   1      40.031  33.913  37.483  1.00  0.00    -0.014 A 
ATOM     82  C   UNL A   1      40.827  35.068  37.577  1.00  0.00     0.010 A 
ATOM     83  C   UNL A   1      39.056  33.665  38.466  1.00  0.00     0.010 A 
ATOM     84  C   UNL A   1      40.665  35.949  38.647  1.00  0.00     0.020 A 
ATOM     85  C   UNL A   1      38.874  34.558  39.525  1.00  0.00     0.020 A 
ATOM     86  C   UNL A   1      39.688  35.690  39.614  1.00  0.00     0.054 A 
BRANCH  86  87
ATOM     87  S   UNL A   1      39.456  36.880  40.963  1.00  0.00     0.124 S 
ATOM     88  O   UNL A   1      38.452  37.781  40.404  1.00  0.00    -0.237 OA
ATOM     89  O   UNL A   1      38.999  36.034  42.063  1.00  0.00    -0.237 OA
ATOM     90  O   UNL A   1      40.785  37.461  41.144  1.00  0.00    -0.744 OA
ENDBRANCH  86  87
ENDBRANCH  60  81
ENDBRANCH  34  35
ENDBRANCH  26  29
ENDBRANCH  24  25
ENDBRANCH  23  24
ENDBRANCH  22  23
ENDBRANCH   1  22
TORSDOF 19
ENDMDL
