MODEL 1
REMARK VINA RESULT:     -12.5      0.000      0.000
REMARK SMILES O=C(NCCCCNC(=O)c1ccc(-c2c3nc(c(-c4ccc(S(=O)(=O)[O-])cc4)c4ccc([nH]4)c(-c4ccc(S(=O)(=O)[O-])cc4)c4nc(c(-c5ccc(S(=O)(=O)[O-])cc5)c5ccc2[nH]5)C=C4)C=C3)cc1)C1=Cc2cc(S(F)(F)(F)(F)F)ccc2O[C@@H]1C(F)(F)F
REMARK SMILES IDX 6 1 5 2 4 3 3 4 1 5 2 6 71 8 72 9 86 10 73 11 85 12 74 13
REMARK SMILES IDX 84 14 75 15 83 16 82 17 87 18 88 19 89 20 90 21 76 22 77 23
REMARK SMILES IDX 78 24 79 25 80 26 81 27 7 28 8 29 9 30 10 32 11 33 12 34
REMARK SMILES IDX 70 35 13 36 69 37 14 38 15 39 16 40 63 41 17 42 68 43 62 44
REMARK SMILES IDX 64 45 18 46 67 47 61 48 60 49 19 51 49 52 30 53 48 54 31 55
REMARK SMILES IDX 34 56 47 57 65 58 32 59 33 60 46 62 66 63 35 64 20 65 21 66
REMARK SMILES IDX 29 67 22 68 28 69 23 70 24 71 25 72 26 73 27 74 50 75 51 76
REMARK SMILES IDX 59 77 52 78 58 79 53 80 54 81 55 82 56 83 57 84 36 85 37 86
REMARK SMILES IDX 45 87 38 88 44 89 39 90 40 91 41 92 42 93 43 94
REMARK H PARENT 3 7 8 31 64 50 34 61
REMARK Flexibility Score: inf
ROOT
ATOM      1  C   UNL A   1      33.018  27.611  26.347  1.00  0.00     0.023 C 
ENDROOT
BRANCH   1   2
ATOM      2  C   UNL A   1      33.633  26.894  25.156  1.00  0.00     0.023 C 
BRANCH   2   3
ATOM      3  C   UNL A   1      33.838  25.427  25.497  1.00  0.00     0.116 C 
BRANCH   3   4
ATOM      4  N   UNL A   1      34.265  24.699  24.294  1.00  0.00    -0.352 N 
ATOM      5  O   UNL A   1      33.834  22.942  22.754  1.00  0.00    -0.270 OA
ATOM      6  C   UNL A   1      33.465  23.572  23.794  1.00  0.00     0.251 C 
ATOM      7  H   UNL A   1      35.087  24.967  23.823  1.00  0.00     0.163 HD
BRANCH   6   8
ATOM      8  C   UNL A   1      32.196  23.158  24.522  1.00  0.00     0.067 C 
ATOM      9  C   UNL A   1      32.066  21.890  24.995  1.00  0.00     0.025 C 
ATOM     10  C   UNL A   1      31.073  24.163  24.722  1.00  0.00     0.314 C 
ATOM     11  C   UNL A   1      33.189  20.885  24.795  1.00  0.00     0.019 A 
ATOM     12  O   UNL A   1      34.735  22.616  25.305  1.00  0.00    -0.475 OA
ATOM     13  C   UNL A   1      32.885  19.601  24.370  1.00  0.00     0.036 A 
ATOM     14  C   UNL A   1      34.443  21.254  25.029  1.00  0.00     0.128 A 
ATOM     15  C   UNL A   1      33.956  18.685  24.500  1.00  0.00     0.107 A 
ATOM     16  C   UNL A   1      35.460  20.330  25.006  1.00  0.00     0.048 A 
ATOM     17  C   UNL A   1      35.221  19.030  24.653  1.00  0.00     0.028 A 
BRANCH  10  18
ATOM     18  C   UNL A   1      30.820  24.349  26.210  1.00  0.00     0.429 C 
ATOM     19  F   UNL A   1      30.446  25.604  26.442  1.00  0.00    -0.167 F 
ATOM     20  F   UNL A   1      29.857  23.520  26.602  1.00  0.00    -0.167 F 
ATOM     21  F   UNL A   1      31.935  24.087  26.886  1.00  0.00    -0.167 F 
ENDBRANCH  10  18
BRANCH  15  22
ATOM     22  S   UNL A   1      33.564  16.919  24.454  1.00  0.00     0.310 S 
ATOM     23  F   UNL A   1      35.056  16.515  24.806  1.00  0.00    -0.094 F 
ATOM     24  F   UNL A   1      33.987  16.894  22.937  1.00  0.00    -0.094 F 
ATOM     25  F   UNL A   1      33.227  15.402  24.415  1.00  0.00    -0.094 F 
ATOM     26  F   UNL A   1      33.278  16.934  26.008  1.00  0.00    -0.094 F 
ATOM     27  F   UNL A   1      34.009  18.434  24.537  1.00  0.00    -0.094 F 
ENDBRANCH  15  22
ENDBRANCH   6   8
ENDBRANCH   3   4
ENDBRANCH   2   3
ENDBRANCH   1   2
BRANCH   1  28
ATOM     28  C   UNL A   1      34.103  28.366  27.098  1.00  0.00     0.116 C 
BRANCH  28  29
ATOM     29  N   UNL A   1      33.611  29.706  27.452  1.00  0.00    -0.352 N 
ATOM     30  C   UNL A   1      34.509  30.670  28.105  1.00  0.00     0.251 C 
ATOM     31  H   UNL A   1      32.680  29.957  27.252  1.00  0.00     0.163 HD
ATOM     32  O   UNL A   1      34.085  31.828  28.411  1.00  0.00    -0.269 OA
BRANCH  30  33
ATOM     33  C   UNL A   1      35.946  30.281  28.413  1.00  0.00     0.039 A 
ATOM     34  C   UNL A   1      36.917  30.439  27.438  1.00  0.00     0.014 A 
ATOM     35  C   UNL A   1      36.247  29.797  29.613  1.00  0.00     0.014 A 
ATOM     36  C   UNL A   1      38.136  29.784  27.730  1.00  0.00     0.010 A 
ATOM     37  C   UNL A   1      37.500  29.296  29.869  1.00  0.00     0.010 A 
ATOM     38  C   UNL A   1      38.492  29.365  28.931  1.00  0.00    -0.014 A 
BRANCH  38  39
ATOM     39  C   UNL A   1      39.927  28.981  29.252  1.00  0.00     0.031 A 
ATOM     40  C   UNL A   1      40.354  27.697  28.912  1.00  0.00     0.074 A 
ATOM     41  C   UNL A   1      40.730  29.928  29.865  1.00  0.00     0.049 A 
ATOM     42  N   UNL A   1      41.571  27.175  29.074  1.00  0.00    -0.248 NA
ATOM     43  C   UNL A   1      39.492  26.679  28.292  1.00  0.00     0.031 C 
ATOM     44  C   UNL A   1      40.309  31.229  30.204  1.00  0.00     0.029 A 
ATOM     45  N   UNL A   1      42.046  29.796  30.252  1.00  0.00    -0.354 N 
ATOM     46  C   UNL A   1      41.601  25.924  28.609  1.00  0.00     0.074 A 
ATOM     47  C   UNL A   1      40.263  25.585  28.106  1.00  0.00     0.031 C 
ATOM     48  C   UNL A   1      41.352  31.868  30.796  1.00  0.00     0.029 A 
ATOM     49  C   UNL A   1      42.442  30.978  30.838  1.00  0.00     0.049 A 
ATOM     50  H   UNL A   1      42.606  28.996  30.131  1.00  0.00     0.167 HD
ATOM     51  C   UNL A   1      42.692  25.053  28.585  1.00  0.00     0.031 A 
ATOM     52  C   UNL A   1      43.679  31.282  31.384  1.00  0.00     0.031 A 
ATOM     53  C   UNL A   1      43.941  25.373  29.092  1.00  0.00     0.049 A 
ATOM     54  C   UNL A   1      44.754  30.390  31.412  1.00  0.00     0.074 A 
ATOM     55  C   UNL A   1      45.054  24.510  29.068  1.00  0.00     0.029 A 
ATOM     56  N   UNL A   1      44.331  26.545  29.700  1.00  0.00    -0.354 N 
ATOM     57  N   UNL A   1      44.796  29.154  30.912  1.00  0.00    -0.248 NA
ATOM     58  C   UNL A   1      46.059  30.690  32.017  1.00  0.00     0.031 C 
ATOM     59  C   UNL A   1      46.097  25.150  29.661  1.00  0.00     0.029 A 
ATOM     60  C   UNL A   1      45.652  26.423  30.066  1.00  0.00     0.049 A 
ATOM     61  H   UNL A   1      43.762  27.336  29.847  1.00  0.00     0.167 HD
ATOM     62  C   UNL A   1      46.001  28.618  31.112  1.00  0.00     0.074 A 
ATOM     63  C   UNL A   1      46.828  29.594  31.833  1.00  0.00     0.031 C 
ATOM     64  C   UNL A   1      46.445  27.354  30.719  1.00  0.00     0.031 A 
BRANCH  51  65
ATOM     65  C   UNL A   1      42.499  23.678  27.966  1.00  0.00    -0.014 A 
ATOM     66  C   UNL A   1      42.064  22.615  28.742  1.00  0.00     0.010 A 
ATOM     67  C   UNL A   1      42.753  23.527  26.672  1.00  0.00     0.010 A 
ATOM     68  C   UNL A   1      42.205  21.355  28.116  1.00  0.00     0.020 A 
ATOM     69  C   UNL A   1      42.740  22.280  26.097  1.00  0.00     0.020 A 
ATOM     70  C   UNL A   1      42.378  21.177  26.819  1.00  0.00     0.054 A 
BRANCH  70  71
ATOM     71  S   UNL A   1      42.146  19.560  26.038  1.00  0.00     0.124 S 
ATOM     72  O   UNL A   1      42.991  19.483  24.766  1.00  0.00    -0.237 OA
ATOM     73  O   UNL A   1      42.581  18.458  27.008  1.00  0.00    -0.237 OA
ATOM     74  O   UNL A   1      40.495  19.350  25.641  1.00  0.00    -0.744 OA
ENDBRANCH  70  71
ENDBRANCH  51  65
BRANCH  52  75
ATOM     75  C   UNL A   1      43.877  32.662  31.988  1.00  0.00    -0.014 A 
ATOM     76  C   UNL A   1      43.571  32.879  33.321  1.00  0.00     0.010 A 
ATOM     77  C   UNL A   1      44.325  33.645  31.216  1.00  0.00     0.010 A 
ATOM     78  C   UNL A   1      43.496  34.246  33.678  1.00  0.00     0.020 A 
ATOM     79  C   UNL A   1      44.352  34.940  31.676  1.00  0.00     0.020 A 
ATOM     80  C   UNL A   1      44.006  35.235  32.966  1.00  0.00     0.054 A 
BRANCH  80  81
ATOM     81  S   UNL A   1      44.234  36.891  33.659  1.00  0.00     0.124 S 
ATOM     82  O   UNL A   1      43.622  36.946  35.061  1.00  0.00    -0.237 OA
ATOM     83  O   UNL A   1      45.729  37.208  33.743  1.00  0.00    -0.237 OA
ATOM     84  O   UNL A   1      43.463  38.040  32.655  1.00  0.00    -0.744 OA
ENDBRANCH  80  81
ENDBRANCH  52  75
BRANCH  64  85
ATOM     85  C   UNL A   1      47.885  26.976  31.025  1.00  0.00    -0.014 A 
ATOM     86  C   UNL A   1      48.882  27.311  30.123  1.00  0.00     0.010 A 
ATOM     87  C   UNL A   1      48.165  26.333  32.153  1.00  0.00     0.010 A 
ATOM     88  C   UNL A   1      50.116  26.664  30.366  1.00  0.00     0.020 A 
ATOM     89  C   UNL A   1      49.428  25.845  32.385  1.00  0.00     0.020 A 
ATOM     90  C   UNL A   1      50.448  26.087  31.506  1.00  0.00     0.054 A 
BRANCH  90  91
ATOM     91  S   UNL A   1      52.160  25.641  31.887  1.00  0.00     0.124 S 
ATOM     92  O   UNL A   1      53.036  25.884  30.657  1.00  0.00    -0.237 OA
ATOM     93  O   UNL A   1      52.664  26.500  33.050  1.00  0.00    -0.237 OA
ATOM     94  O   UNL A   1      52.236  23.990  32.324  1.00  0.00    -0.744 OA
ENDBRANCH  90  91
ENDBRANCH  64  85
ENDBRANCH  38  39
ENDBRANCH  30  33
ENDBRANCH  28  29
ENDBRANCH   1  28
TORSDOF 16
ENDMDL
MODEL 2
REMARK VINA RESULT:     -12.4      3.447      8.664
REMARK SMILES O=C(NCCCCNC(=O)c1ccc(-c2c3nc(c(-c4ccc(S(=O)(=O)[O-])cc4)c4ccc([nH]4)c(-c4ccc(S(=O)(=O)[O-])cc4)c4nc(c(-c5ccc(S(=O)(=O)[O-])cc5)c5ccc2[nH]5)C=C4)C=C3)cc1)C1=Cc2cc(S(F)(F)(F)(F)F)ccc2O[C@@H]1C(F)(F)F
REMARK SMILES IDX 6 1 5 2 4 3 3 4 1 5 2 6 71 8 72 9 86 10 73 11 85 12 74 13
REMARK SMILES IDX 84 14 75 15 83 16 82 17 87 18 88 19 89 20 90 21 76 22 77 23
REMARK SMILES IDX 78 24 79 25 80 26 81 27 7 28 8 29 9 30 10 32 11 33 12 34
REMARK SMILES IDX 70 35 13 36 69 37 14 38 15 39 16 40 63 41 17 42 68 43 62 44
REMARK SMILES IDX 64 45 18 46 67 47 61 48 60 49 19 51 49 52 30 53 48 54 31 55
REMARK SMILES IDX 34 56 47 57 65 58 32 59 33 60 46 62 66 63 35 64 20 65 21 66
REMARK SMILES IDX 29 67 22 68 28 69 23 70 24 71 25 72 26 73 27 74 50 75 51 76
REMARK SMILES IDX 59 77 52 78 58 79 53 80 54 81 55 82 56 83 57 84 36 85 37 86
REMARK SMILES IDX 45 87 38 88 44 89 39 90 40 91 41 92 42 93 43 94
REMARK H PARENT 3 7 8 31 64 50 34 61
REMARK Flexibility Score: inf
ROOT
ATOM      1  C   UNL A   1      35.246  23.668  25.316  1.00  0.00     0.023 C 
ENDROOT
BRANCH   1   2
ATOM      2  C   UNL A   1      34.755  23.939  23.904  1.00  0.00     0.023 C 
BRANCH   2   3
ATOM      3  C   UNL A   1      34.109  25.314  23.847  1.00  0.00     0.116 C 
BRANCH   3   4
ATOM      4  N   UNL A   1      32.829  25.225  23.130  1.00  0.00    -0.352 N 
ATOM      5  O   UNL A   1      30.507  24.731  23.225  1.00  0.00    -0.270 OA
ATOM      6  C   UNL A   1      31.614  24.807  23.845  1.00  0.00     0.251 C 
ATOM      7  H   UNL A   1      32.785  25.446  22.171  1.00  0.00     0.163 HD
BRANCH   6   8
ATOM      8  C   UNL A   1      31.682  24.467  25.324  1.00  0.00     0.067 C 
ATOM      9  C   UNL A   1      31.924  25.446  26.237  1.00  0.00     0.025 C 
ATOM     10  C   UNL A   1      31.480  23.032  25.784  1.00  0.00     0.314 C 
ATOM     11  C   UNL A   1      32.126  26.880  25.778  1.00  0.00     0.019 A 
ATOM     12  O   UNL A   1      30.353  26.561  24.228  1.00  0.00    -0.475 OA
ATOM     13  C   UNL A   1      33.166  27.625  26.312  1.00  0.00     0.036 A 
ATOM     14  C   UNL A   1      31.304  27.396  24.872  1.00  0.00     0.128 A 
ATOM     15  C   UNL A   1      33.079  29.010  26.036  1.00  0.00     0.107 A 
ATOM     16  C   UNL A   1      31.365  28.731  24.551  1.00  0.00     0.048 A 
ATOM     17  C   UNL A   1      32.330  29.539  25.086  1.00  0.00     0.028 A 
BRANCH  10  18
ATOM     18  C   UNL A   1      30.284  22.964  26.720  1.00  0.00     0.429 C 
ATOM     19  F   UNL A   1      30.709  22.846  27.975  1.00  0.00    -0.167 F 
ATOM     20  F   UNL A   1      29.563  24.075  26.600  1.00  0.00    -0.167 F 
ATOM     21  F   UNL A   1      29.534  21.911  26.406  1.00  0.00    -0.167 F 
ENDBRANCH  10  18
BRANCH  15  22
ATOM     22  S   UNL A   1      34.064  30.134  27.057  1.00  0.00     0.310 S 
ATOM     23  F   UNL A   1      34.241  29.046  28.196  1.00  0.00    -0.094 F 
ATOM     24  F   UNL A   1      32.743  30.584  27.786  1.00  0.00    -0.094 F 
ATOM     25  F   UNL A   1      34.910  31.101  27.933  1.00  0.00    -0.094 F 
ATOM     26  F   UNL A   1      35.391  29.571  26.412  1.00  0.00    -0.094 F 
ATOM     27  F   UNL A   1      33.231  29.069  26.239  1.00  0.00    -0.094 F 
ENDBRANCH  15  22
ENDBRANCH   6   8
ENDBRANCH   3   4
ENDBRANCH   2   3
ENDBRANCH   1   2
BRANCH   1  28
ATOM     28  C   UNL A   1      36.700  24.097  25.437  1.00  0.00     0.116 C 
BRANCH  28  29
ATOM     29  N   UNL A   1      37.571  22.920  25.304  1.00  0.00    -0.352 N 
ATOM     30  C   UNL A   1      38.898  22.912  25.937  1.00  0.00     0.251 C 
ATOM     31  H   UNL A   1      37.265  22.137  24.791  1.00  0.00     0.163 HD
ATOM     32  O   UNL A   1      39.651  21.895  25.822  1.00  0.00    -0.269 OA
BRANCH  30  33
ATOM     33  C   UNL A   1      39.368  24.121  26.730  1.00  0.00     0.039 A 
ATOM     34  C   UNL A   1      39.032  24.227  28.069  1.00  0.00     0.014 A 
ATOM     35  C   UNL A   1      40.095  25.054  26.126  1.00  0.00     0.014 A 
ATOM     36  C   UNL A   1      39.269  25.509  28.620  1.00  0.00     0.010 A 
ATOM     37  C   UNL A   1      40.403  26.227  26.772  1.00  0.00     0.010 A 
ATOM     38  C   UNL A   1      40.051  26.424  28.078  1.00  0.00    -0.014 A 
BRANCH  38  39
ATOM     39  C   UNL A   1      40.533  27.632  28.864  1.00  0.00     0.031 A 
ATOM     40  C   UNL A   1      41.806  27.578  29.433  1.00  0.00     0.074 A 
ATOM     41  C   UNL A   1      39.682  28.719  28.973  1.00  0.00     0.049 A 
ATOM     42  N   UNL A   1      42.429  28.533  30.127  1.00  0.00    -0.248 NA
ATOM     43  C   UNL A   1      42.698  26.411  29.349  1.00  0.00     0.031 C 
ATOM     44  C   UNL A   1      38.400  28.785  28.394  1.00  0.00     0.029 A 
ATOM     45  N   UNL A   1      39.906  29.904  29.638  1.00  0.00    -0.354 N 
ATOM     46  C   UNL A   1      43.645  28.118  30.492  1.00  0.00     0.074 A 
ATOM     47  C   UNL A   1      43.832  26.746  30.003  1.00  0.00     0.031 C 
ATOM     48  C   UNL A   1      37.854  29.987  28.716  1.00  0.00     0.029 A 
ATOM     49  C   UNL A   1      38.786  30.692  29.500  1.00  0.00     0.049 A 
ATOM     50  H   UNL A   1      40.725  30.145  30.127  1.00  0.00     0.167 HD
ATOM     51  C   UNL A   1      44.603  28.832  31.214  1.00  0.00     0.031 A 
ATOM     52  C   UNL A   1      38.569  31.958  30.022  1.00  0.00     0.031 A 
ATOM     53  C   UNL A   1      44.402  30.114  31.699  1.00  0.00     0.049 A 
ATOM     54  C   UNL A   1      39.507  32.649  30.793  1.00  0.00     0.074 A 
ATOM     55  C   UNL A   1      45.361  30.850  32.421  1.00  0.00     0.029 A 
ATOM     56  N   UNL A   1      43.273  30.893  31.582  1.00  0.00    -0.354 N 
ATOM     57  N   UNL A   1      40.735  32.252  31.125  1.00  0.00    -0.248 NA
ATOM     58  C   UNL A   1      39.275  33.977  31.378  1.00  0.00     0.031 C 
ATOM     59  C   UNL A   1      44.815  32.053  32.742  1.00  0.00     0.029 A 
ATOM     60  C   UNL A   1      43.505  32.087  32.227  1.00  0.00     0.049 A 
ATOM     61  H   UNL A   1      42.443  30.640  31.116  1.00  0.00     0.167 HD
ATOM     62  C   UNL A   1      41.342  33.190  31.854  1.00  0.00     0.074 A 
ATOM     63  C   UNL A   1      40.409  34.310  32.035  1.00  0.00     0.031 C 
ATOM     64  C   UNL A   1      42.637  33.158  32.373  1.00  0.00     0.031 A 
BRANCH  51  65
ATOM     65  C   UNL A   1      45.943  28.165  31.482  1.00  0.00    -0.014 A 
ATOM     66  C   UNL A   1      46.136  27.420  32.634  1.00  0.00     0.010 A 
ATOM     67  C   UNL A   1      46.911  28.312  30.586  1.00  0.00     0.010 A 
ATOM     68  C   UNL A   1      47.491  27.105  32.891  1.00  0.00     0.020 A 
ATOM     69  C   UNL A   1      48.181  27.859  30.848  1.00  0.00     0.020 A 
ATOM     70  C   UNL A   1      48.458  27.167  31.995  1.00  0.00     0.054 A 
BRANCH  70  71
ATOM     71  S   UNL A   1      50.064  26.376  32.266  1.00  0.00     0.124 S 
ATOM     72  O   UNL A   1      51.162  27.216  31.611  1.00  0.00    -0.237 OA
ATOM     73  O   UNL A   1      50.332  26.269  33.769  1.00  0.00    -0.237 OA
ATOM     74  O   UNL A   1      50.053  24.811  31.576  1.00  0.00    -0.744 OA
ENDBRANCH  70  71
ENDBRANCH  51  65
BRANCH  52  75
ATOM     75  C   UNL A   1      37.236  32.632  29.740  1.00  0.00    -0.014 A 
ATOM     76  C   UNL A   1      37.089  33.415  28.608  1.00  0.00     0.010 A 
ATOM     77  C   UNL A   1      36.237  32.470  30.600  1.00  0.00     0.010 A 
ATOM     78  C   UNL A   1      35.931  34.229  28.620  1.00  0.00     0.020 A 
ATOM     79  C   UNL A   1      35.079  33.200  30.474  1.00  0.00     0.020 A 
ATOM     80  C   UNL A   1      34.890  34.039  29.411  1.00  0.00     0.054 A 
BRANCH  80  81
ATOM     81  S   UNL A   1      33.299  34.845  29.104  1.00  0.00     0.124 S 
ATOM     82  O   UNL A   1      32.521  34.053  28.051  1.00  0.00    -0.237 OA
ATOM     83  O   UNL A   1      32.493  34.894  30.404  1.00  0.00    -0.237 OA
ATOM     84  O   UNL A   1      33.566  36.436  28.538  1.00  0.00    -0.744 OA
ENDBRANCH  80  81
ENDBRANCH  52  75
BRANCH  64  85
ATOM     85  C   UNL A   1      43.126  34.374  33.145  1.00  0.00    -0.014 A 
ATOM     86  C   UNL A   1      42.910  34.443  34.511  1.00  0.00     0.010 A 
ATOM     87  C   UNL A   1      43.754  35.348  32.497  1.00  0.00     0.010 A 
ATOM     88  C   UNL A   1      43.140  35.725  35.064  1.00  0.00     0.020 A 
ATOM     89  C   UNL A   1      44.070  36.523  33.136  1.00  0.00     0.020 A 
ATOM     90  C   UNL A   1      43.829  36.682  34.473  1.00  0.00     0.054 A 
BRANCH  90  91
ATOM     91  S   UNL A   1      44.426  38.129  35.381  1.00  0.00     0.124 S 
ATOM     92  O   UNL A   1      43.935  39.404  34.690  1.00  0.00    -0.237 OA
ATOM     93  O   UNL A   1      43.891  38.088  36.815  1.00  0.00    -0.237 OA
ATOM     94  O   UNL A   1      46.135  38.120  35.411  1.00  0.00    -0.744 OA
ENDBRANCH  90  91
ENDBRANCH  64  85
ENDBRANCH  38  39
ENDBRANCH  30  33
ENDBRANCH  28  29
ENDBRANCH   1  28
TORSDOF 16
ENDMDL
MODEL 3
REMARK VINA RESULT:     -12.3      2.382      2.874
REMARK SMILES O=C(NCCCCNC(=O)c1ccc(-c2c3nc(c(-c4ccc(S(=O)(=O)[O-])cc4)c4ccc([nH]4)c(-c4ccc(S(=O)(=O)[O-])cc4)c4nc(c(-c5ccc(S(=O)(=O)[O-])cc5)c5ccc2[nH]5)C=C4)C=C3)cc1)C1=Cc2cc(S(F)(F)(F)(F)F)ccc2O[C@@H]1C(F)(F)F
REMARK SMILES IDX 6 1 5 2 4 3 3 4 1 5 2 6 71 8 72 9 86 10 73 11 85 12 74 13
REMARK SMILES IDX 84 14 75 15 83 16 82 17 87 18 88 19 89 20 90 21 76 22 77 23
REMARK SMILES IDX 78 24 79 25 80 26 81 27 7 28 8 29 9 30 10 32 11 33 12 34
REMARK SMILES IDX 70 35 13 36 69 37 14 38 15 39 16 40 63 41 17 42 68 43 62 44
REMARK SMILES IDX 64 45 18 46 67 47 61 48 60 49 19 51 49 52 30 53 48 54 31 55
REMARK SMILES IDX 34 56 47 57 65 58 32 59 33 60 46 62 66 63 35 64 20 65 21 66
REMARK SMILES IDX 29 67 22 68 28 69 23 70 24 71 25 72 26 73 27 74 50 75 51 76
REMARK SMILES IDX 59 77 52 78 58 79 53 80 54 81 55 82 56 83 57 84 36 85 37 86
REMARK SMILES IDX 45 87 38 88 44 89 39 90 40 91 41 92 42 93 43 94
REMARK H PARENT 3 7 8 31 64 50 34 61
REMARK Flexibility Score: inf
ROOT
ATOM      1  C   UNL A   1      33.374  27.725  26.240  1.00  0.00     0.023 C 
ENDROOT
BRANCH   1   2
ATOM      2  C   UNL A   1      33.538  26.875  24.992  1.00  0.00     0.023 C 
BRANCH   2   3
ATOM      3  C   UNL A   1      33.849  25.442  25.391  1.00  0.00     0.116 C 
BRANCH   3   4
ATOM      4  N   UNL A   1      34.247  24.676  24.201  1.00  0.00    -0.352 N 
ATOM      5  O   UNL A   1      33.772  22.879  22.721  1.00  0.00    -0.270 OA
ATOM      6  C   UNL A   1      33.428  23.541  23.750  1.00  0.00     0.251 C 
ATOM      7  H   UNL A   1      35.061  24.924  23.706  1.00  0.00     0.163 HD
BRANCH   6   8
ATOM      8  C   UNL A   1      32.172  23.159  24.515  1.00  0.00     0.067 C 
ATOM      9  C   UNL A   1      32.033  21.900  25.010  1.00  0.00     0.025 C 
ATOM     10  C   UNL A   1      31.070  24.184  24.727  1.00  0.00     0.314 C 
ATOM     11  C   UNL A   1      33.135  20.874  24.797  1.00  0.00     0.019 A 
ATOM     12  O   UNL A   1      34.720  22.587  25.244  1.00  0.00    -0.475 OA
ATOM     13  C   UNL A   1      32.800  19.590  24.400  1.00  0.00     0.036 A 
ATOM     14  C   UNL A   1      34.399  21.227  24.996  1.00  0.00     0.128 A 
ATOM     15  C   UNL A   1      33.860  18.659  24.517  1.00  0.00     0.107 A 
ATOM     16  C   UNL A   1      35.401  20.286  24.962  1.00  0.00     0.048 A 
ATOM     17  C   UNL A   1      35.134  18.985  24.634  1.00  0.00     0.028 A 
BRANCH  10  18
ATOM     18  C   UNL A   1      30.856  24.397  26.217  1.00  0.00     0.429 C 
ATOM     19  F   UNL A   1      30.616  25.683  26.453  1.00  0.00    -0.167 F 
ATOM     20  F   UNL A   1      29.818  23.671  26.623  1.00  0.00    -0.167 F 
ATOM     21  F   UNL A   1      31.946  24.021  26.880  1.00  0.00    -0.167 F 
ENDBRANCH  10  18
BRANCH  15  22
ATOM     22  S   UNL A   1      33.439  16.899  24.508  1.00  0.00     0.310 S 
ATOM     23  F   UNL A   1      34.945  16.473  24.760  1.00  0.00    -0.094 F 
ATOM     24  F   UNL A   1      33.759  16.860  22.966  1.00  0.00    -0.094 F 
ATOM     25  F   UNL A   1      33.077  15.387  24.499  1.00  0.00    -0.094 F 
ATOM     26  F   UNL A   1      33.259  16.925  26.077  1.00  0.00    -0.094 F 
ATOM     27  F   UNL A   1      33.911  18.406  24.552  1.00  0.00    -0.094 F 
ENDBRANCH  15  22
ENDBRANCH   6   8
ENDBRANCH   3   4
ENDBRANCH   2   3
ENDBRANCH   1   2
BRANCH   1  28
ATOM     28  C   UNL A   1      34.426  28.823  26.248  1.00  0.00     0.116 C 
BRANCH  28  29
ATOM     29  N   UNL A   1      33.787  30.113  26.547  1.00  0.00    -0.352 N 
ATOM     30  C   UNL A   1      34.394  31.023  27.529  1.00  0.00     0.251 C 
ATOM     31  H   UNL A   1      32.952  30.366  26.090  1.00  0.00     0.163 HD
ATOM     32  O   UNL A   1      33.842  32.138  27.788  1.00  0.00    -0.269 OA
BRANCH  30  33
ATOM     33  C   UNL A   1      35.683  30.632  28.233  1.00  0.00     0.039 A 
ATOM     34  C   UNL A   1      36.884  31.166  27.798  1.00  0.00     0.014 A 
ATOM     35  C   UNL A   1      35.636  29.785  29.255  1.00  0.00     0.014 A 
ATOM     36  C   UNL A   1      38.025  30.517  28.326  1.00  0.00     0.010 A 
ATOM     37  C   UNL A   1      36.793  29.295  29.811  1.00  0.00     0.010 A 
ATOM     38  C   UNL A   1      38.017  29.734  29.389  1.00  0.00    -0.014 A 
BRANCH  38  39
ATOM     39  C   UNL A   1      39.299  29.343  30.105  1.00  0.00     0.031 A 
ATOM     40  C   UNL A   1      40.058  28.302  29.568  1.00  0.00     0.074 A 
ATOM     41  C   UNL A   1      39.641  30.040  31.251  1.00  0.00     0.049 A 
ATOM     42  N   UNL A   1      41.222  27.828  30.018  1.00  0.00    -0.248 NA
ATOM     43  C   UNL A   1      39.679  27.537  28.371  1.00  0.00     0.031 C 
ATOM     44  C   UNL A   1      38.884  31.097  31.795  1.00  0.00     0.029 A 
ATOM     45  N   UNL A   1      40.741  29.851  32.058  1.00  0.00    -0.354 N 
ATOM     46  C   UNL A   1      41.654  26.842  29.228  1.00  0.00     0.074 A 
ATOM     47  C   UNL A   1      40.664  26.636  28.162  1.00  0.00     0.031 C 
ATOM     48  C   UNL A   1      39.513  31.531  32.918  1.00  0.00     0.029 A 
ATOM     49  C   UNL A   1      40.673  30.753  33.096  1.00  0.00     0.049 A 
ATOM     50  H   UNL A   1      41.453  29.187  31.917  1.00  0.00     0.167 HD
ATOM     51  C   UNL A   1      42.833  26.107  29.356  1.00  0.00     0.031 A 
ATOM     52  C   UNL A   1      41.561  30.905  34.149  1.00  0.00     0.031 A 
ATOM     53  C   UNL A   1      43.743  26.288  30.385  1.00  0.00     0.049 A 
ATOM     54  C   UNL A   1      42.713  30.130  34.309  1.00  0.00     0.074 A 
ATOM     55  C   UNL A   1      44.941  25.561  30.524  1.00  0.00     0.029 A 
ATOM     56  N   UNL A   1      43.663  27.173  31.437  1.00  0.00    -0.354 N 
ATOM     57  N   UNL A   1      43.164  29.171  33.499  1.00  0.00    -0.248 NA
ATOM     58  C   UNL A   1      43.644  30.259  35.438  1.00  0.00     0.031 C 
ATOM     59  C   UNL A   1      45.570  25.996  31.649  1.00  0.00     0.029 A 
ATOM     60  C   UNL A   1      44.774  27.001  32.231  1.00  0.00     0.049 A 
ATOM     61  H   UNL A   1      42.936  27.819  31.594  1.00  0.00     0.167 HD
ATOM     62  C   UNL A   1      44.307  28.670  33.972  1.00  0.00     0.074 A 
ATOM     63  C   UNL A   1      44.628  29.356  35.230  1.00  0.00     0.031 C 
ATOM     64  C   UNL A   1      45.096  27.669  33.403  1.00  0.00     0.031 A 
BRANCH  51  65
ATOM     65  C   UNL A   1      43.137  25.050  28.307  1.00  0.00    -0.014 A 
ATOM     66  C   UNL A   1      42.665  23.756  28.460  1.00  0.00     0.010 A 
ATOM     67  C   UNL A   1      43.857  25.400  27.249  1.00  0.00     0.010 A 
ATOM     68  C   UNL A   1      43.255  22.824  27.574  1.00  0.00     0.020 A 
ATOM     69  C   UNL A   1      44.286  24.454  26.350  1.00  0.00     0.020 A 
ATOM     70  C   UNL A   1      43.907  23.145  26.472  1.00  0.00     0.054 A 
BRANCH  70  71
ATOM     71  S   UNL A   1      44.279  21.921  25.191  1.00  0.00     0.124 S 
ATOM     72  O   UNL A   1      43.329  20.731  25.333  1.00  0.00    -0.237 OA
ATOM     73  O   UNL A   1      44.097  22.557  23.811  1.00  0.00    -0.237 OA
ATOM     74  O   UNL A   1      45.895  21.387  25.364  1.00  0.00    -0.744 OA
ENDBRANCH  70  71
ENDBRANCH  51  65
BRANCH  52  75
ATOM     75  C   UNL A   1      41.267  31.973  35.189  1.00  0.00    -0.014 A 
ATOM     76  C   UNL A   1      40.500  31.657  36.299  1.00  0.00     0.010 A 
ATOM     77  C   UNL A   1      41.737  33.201  35.004  1.00  0.00     0.010 A 
ATOM     78  C   UNL A   1      40.038  32.787  37.016  1.00  0.00     0.020 A 
ATOM     79  C   UNL A   1      41.348  34.231  35.826  1.00  0.00     0.020 A 
ATOM     80  C   UNL A   1      40.544  34.001  36.907  1.00  0.00     0.054 A 
BRANCH  80  81
ATOM     81  S   UNL A   1      40.191  35.294  38.125  1.00  0.00     0.124 S 
ATOM     82  O   UNL A   1      38.963  34.899  38.947  1.00  0.00    -0.237 OA
ATOM     83  O   UNL A   1      41.395  35.461  39.055  1.00  0.00    -0.237 OA
ATOM     84  O   UNL A   1      39.885  36.769  37.317  1.00  0.00    -0.744 OA
ENDBRANCH  80  81
ENDBRANCH  52  75
BRANCH  64  85
ATOM     85  C   UNL A   1      46.387  27.289  34.110  1.00  0.00    -0.014 A 
ATOM     86  C   UNL A   1      47.557  27.958  33.793  1.00  0.00     0.010 A 
ATOM     87  C   UNL A   1      46.370  26.323  35.021  1.00  0.00     0.010 A 
ATOM     88  C   UNL A   1      48.726  27.334  34.288  1.00  0.00     0.020 A 
ATOM     89  C   UNL A   1      47.542  25.854  35.564  1.00  0.00     0.020 A 
ATOM     90  C   UNL A   1      48.743  26.429  35.249  1.00  0.00     0.054 A 
BRANCH  90  91
ATOM     91  S   UNL A   1      50.270  25.974  36.106  1.00  0.00     0.124 S 
ATOM     92  O   UNL A   1      51.248  27.151  36.064  1.00  0.00    -0.237 OA
ATOM     93  O   UNL A   1      49.954  25.626  37.563  1.00  0.00    -0.237 OA
ATOM     94  O   UNL A   1      50.975  24.620  35.337  1.00  0.00    -0.744 OA
ENDBRANCH  90  91
ENDBRANCH  64  85
ENDBRANCH  38  39
ENDBRANCH  30  33
ENDBRANCH  28  29
ENDBRANCH   1  28
TORSDOF 16
ENDMDL
