MODEL 1
REMARK VINA RESULT:     -11.8      0.000      0.000
REMARK SMILES CCc1cc(/C=C/C(=O)NCCCCNC(=O)c2ccc(-c3c4nc(c(-c5ccc(S(=O)(=O)[O-])cc5)c5ccc([nH]5)c(-c5ccc(S(=O)(=O)[O-])cc5)c5nc(c(-c6ccc(S(=O)(=O)[O-])cc6)c6ccc3[nH]6)C=C5)C=C4)cc2)cc(C(=O)c2ccccc2)c1
REMARK SMILES IDX 12 1 11 2 10 3 8 4 9 5 7 7 6 8 5 9 3 10 4 11 88 12 79 13
REMARK SMILES IDX 78 14 2 15 1 16 80 17 81 18 82 19 83 20 87 21 84 22 86 23
REMARK SMILES IDX 85 24 13 25 14 26 15 27 16 28 17 30 18 31 19 32 77 33 20 34
REMARK SMILES IDX 76 35 21 36 22 37 23 38 70 39 24 40 75 41 69 42 71 43 25 44
REMARK SMILES IDX 74 45 68 46 67 47 26 49 56 50 37 51 55 52 38 53 41 54 54 55
REMARK SMILES IDX 72 56 39 57 40 58 53 60 73 61 42 62 27 63 28 64 36 65 29 66
REMARK SMILES IDX 35 67 30 68 31 69 32 70 33 71 34 72 57 73 58 74 66 75 59 76
REMARK SMILES IDX 65 77 60 78 61 79 62 80 63 81 64 82 43 83 44 84 52 85 45 86
REMARK SMILES IDX 51 87 46 88 47 89 48 90 49 91 50 92
REMARK H PARENT 10 6 15 29 71 48 41 59
REMARK Flexibility Score: inf
ROOT
ATOM      1  C   UNL A   1      37.219  23.141  24.936  1.00  0.00     0.023 C 
ENDROOT
BRANCH   1   2
ATOM      2  C   UNL A   1      35.695  23.281  24.953  1.00  0.00     0.116 C 
BRANCH   2   3
ATOM      3  N   UNL A   1      35.125  22.989  23.651  1.00  0.00    -0.353 N 
ATOM      4  C   UNL A   1      34.147  23.620  22.951  1.00  0.00     0.243 C 
ATOM      5  O   UNL A   1      33.893  23.260  21.803  1.00  0.00    -0.270 OA
ATOM      6  H   UNL A   1      35.512  22.204  23.200  1.00  0.00     0.163 HD
BRANCH   4   7
ATOM      7  C   UNL A   1      33.417  24.785  23.507  1.00  0.00     0.072 C 
ATOM      8  C   UNL A   1      32.633  25.613  22.802  1.00  0.00     0.014 C 
BRANCH   8   9
ATOM      9  C   UNL A   1      31.983  26.811  23.346  1.00  0.00    -0.024 A 
ATOM     10  C   UNL A   1      30.353  28.622  23.170  1.00  0.00    -0.047 A 
ATOM     11  C   UNL A   1      31.037  27.534  22.607  1.00  0.00     0.011 A 
ATOM     12  C   UNL A   1      30.620  28.969  24.501  1.00  0.00     0.016 A 
ATOM     13  C   UNL A   1      31.543  28.240  25.262  1.00  0.00     0.023 A 
ATOM     14  C   UNL A   1      32.231  27.172  24.676  1.00  0.00     0.020 A 
BRANCH  10  15
ATOM     15  C   UNL A   1      29.280  29.327  22.375  1.00  0.00     0.032 C 
ATOM     16  C   UNL A   1      27.924  29.396  23.065  1.00  0.00     0.009 C 
ENDBRANCH  10  15
BRANCH  13  17
ATOM     17  C   UNL A   1      31.828  28.573  26.686  1.00  0.00     0.193 C 
ATOM     18  O   UNL A   1      31.110  28.130  27.579  1.00  0.00    -0.289 OA
BRANCH  17  19
ATOM     19  C   UNL A   1      32.987  29.417  27.058  1.00  0.00     0.022 A 
ATOM     20  C   UNL A   1      32.784  30.790  27.234  1.00  0.00     0.012 A 
ATOM     21  C   UNL A   1      34.262  28.865  27.235  1.00  0.00     0.012 A 
ATOM     22  C   UNL A   1      33.845  31.601  27.638  1.00  0.00     0.001 A 
ATOM     23  C   UNL A   1      35.318  29.680  27.640  1.00  0.00     0.001 A 
ATOM     24  C   UNL A   1      35.107  31.045  27.849  1.00  0.00     0.000 A 
ENDBRANCH  17  19
ENDBRANCH  13  17
ENDBRANCH   8   9
ENDBRANCH   4   7
ENDBRANCH   2   3
ENDBRANCH   1   2
BRANCH   1  25
ATOM     25  C   UNL A   1      37.883  23.180  26.314  1.00  0.00     0.023 C 
BRANCH  25  26
ATOM     26  C   UNL A   1      38.630  24.469  26.639  1.00  0.00     0.116 C 
BRANCH  26  27
ATOM     27  N   UNL A   1      39.812  24.677  25.818  1.00  0.00    -0.352 N 
ATOM     28  C   UNL A   1      40.852  25.553  26.028  1.00  0.00     0.251 C 
ATOM     29  H   UNL A   1      39.877  24.120  25.008  1.00  0.00     0.163 HD
ATOM     30  O   UNL A   1      41.732  25.683  25.190  1.00  0.00    -0.269 OA
BRANCH  28  31
ATOM     31  C   UNL A   1      40.863  26.370  27.260  1.00  0.00     0.039 A 
ATOM     32  C   UNL A   1      41.678  27.503  27.307  1.00  0.00     0.014 A 
ATOM     33  C   UNL A   1      40.044  26.041  28.344  1.00  0.00     0.014 A 
ATOM     34  C   UNL A   1      41.621  28.347  28.418  1.00  0.00     0.010 A 
ATOM     35  C   UNL A   1      39.940  26.918  29.419  1.00  0.00     0.010 A 
ATOM     36  C   UNL A   1      40.725  28.079  29.465  1.00  0.00    -0.014 A 
BRANCH  36  37
ATOM     37  C   UNL A   1      40.588  29.009  30.614  1.00  0.00     0.031 A 
ATOM     38  C   UNL A   1      41.456  28.839  31.831  1.00  0.00     0.074 A 
ATOM     39  C   UNL A   1      39.638  29.964  30.586  1.00  0.00     0.049 A 
ATOM     40  N   UNL A   1      41.446  29.517  32.949  1.00  0.00    -0.248 NA
ATOM     41  C   UNL A   1      42.443  27.748  31.796  1.00  0.00     0.031 C 
ATOM     42  C   UNL A   1      38.701  30.198  29.484  1.00  0.00     0.029 A 
ATOM     43  N   UNL A   1      39.295  30.914  31.517  1.00  0.00    -0.354 N 
ATOM     44  C   UNL A   1      42.410  28.926  33.757  1.00  0.00     0.074 A 
ATOM     45  C   UNL A   1      42.952  27.806  33.019  1.00  0.00     0.031 C 
ATOM     46  C   UNL A   1      37.909  31.238  29.792  1.00  0.00     0.029 A 
ATOM     47  C   UNL A   1      38.257  31.724  31.123  1.00  0.00     0.049 A 
ATOM     48  H   UNL A   1      39.752  31.005  32.385  1.00  0.00     0.167 HD
ATOM     49  C   UNL A   1      42.821  29.292  34.995  1.00  0.00     0.031 A 
ATOM     50  C   UNL A   1      37.651  32.743  31.763  1.00  0.00     0.031 A 
ATOM     51  C   UNL A   1      42.292  30.417  35.719  1.00  0.00     0.049 A 
ATOM     52  C   UNL A   1      38.137  33.143  33.128  1.00  0.00     0.074 A 
ATOM     53  C   UNL A   1      42.682  30.906  36.953  1.00  0.00     0.029 A 
ATOM     54  N   UNL A   1      41.260  31.229  35.275  1.00  0.00    -0.354 N 
ATOM     55  N   UNL A   1      39.096  32.611  33.850  1.00  0.00    -0.248 NA
ATOM     56  C   UNL A   1      37.468  34.288  33.761  1.00  0.00     0.031 C 
ATOM     57  C   UNL A   1      41.857  31.990  37.274  1.00  0.00     0.029 A 
ATOM     58  C   UNL A   1      40.988  32.206  36.216  1.00  0.00     0.049 A 
ATOM     59  H   UNL A   1      40.789  31.126  34.416  1.00  0.00     0.167 HD
ATOM     60  C   UNL A   1      39.163  33.374  35.009  1.00  0.00     0.074 A 
ATOM     61  C   UNL A   1      38.158  34.411  34.888  1.00  0.00     0.031 C 
ATOM     62  C   UNL A   1      39.984  33.231  36.079  1.00  0.00     0.031 A 
BRANCH  49  63
ATOM     63  C   UNL A   1      43.898  28.463  35.641  1.00  0.00    -0.014 A 
ATOM     64  C   UNL A   1      43.576  27.338  36.423  1.00  0.00     0.010 A 
ATOM     65  C   UNL A   1      45.251  28.793  35.443  1.00  0.00     0.010 A 
ATOM     66  C   UNL A   1      44.584  26.586  37.030  1.00  0.00     0.020 A 
ATOM     67  C   UNL A   1      46.264  28.027  36.027  1.00  0.00     0.020 A 
ATOM     68  C   UNL A   1      45.923  26.939  36.833  1.00  0.00     0.054 A 
BRANCH  68  69
ATOM     69  S   UNL A   1      47.213  25.936  37.620  1.00  0.00     0.124 S 
ATOM     70  O   UNL A   1      46.626  25.664  38.929  1.00  0.00    -0.237 OA
ATOM     71  O   UNL A   1      47.314  24.784  36.726  1.00  0.00    -0.237 OA
ATOM     72  O   UNL A   1      48.379  26.816  37.630  1.00  0.00    -0.744 OA
ENDBRANCH  68  69
ENDBRANCH  49  63
BRANCH  50  73
ATOM     73  C   UNL A   1      36.536  33.475  31.104  1.00  0.00    -0.014 A 
ATOM     74  C   UNL A   1      36.673  33.945  29.786  1.00  0.00     0.010 A 
ATOM     75  C   UNL A   1      35.326  33.694  31.786  1.00  0.00     0.010 A 
ATOM     76  C   UNL A   1      35.627  34.637  29.168  1.00  0.00     0.020 A 
ATOM     77  C   UNL A   1      34.268  34.363  31.163  1.00  0.00     0.020 A 
ATOM     78  C   UNL A   1      34.430  34.841  29.861  1.00  0.00     0.054 A 
BRANCH  78  79
ATOM     79  S   UNL A   1      33.067  35.695  29.022  1.00  0.00     0.124 S 
ATOM     80  O   UNL A   1      33.774  36.716  28.257  1.00  0.00    -0.237 OA
ATOM     81  O   UNL A   1      32.457  34.625  28.237  1.00  0.00    -0.237 OA
ATOM     82  O   UNL A   1      32.246  36.191  30.125  1.00  0.00    -0.744 OA
ENDBRANCH  78  79
ENDBRANCH  50  73
BRANCH  62  83
ATOM     83  C   UNL A   1      39.854  34.239  37.189  1.00  0.00    -0.014 A 
ATOM     84  C   UNL A   1      40.585  35.439  37.170  1.00  0.00     0.010 A 
ATOM     85  C   UNL A   1      38.951  34.000  38.240  1.00  0.00     0.010 A 
ATOM     86  C   UNL A   1      40.439  36.369  38.203  1.00  0.00     0.020 A 
ATOM     87  C   UNL A   1      38.782  34.938  39.260  1.00  0.00     0.020 A 
ATOM     88  C   UNL A   1      39.539  36.111  39.243  1.00  0.00     0.054 A 
BRANCH  88  89
ATOM     89  S   UNL A   1      39.337  37.350  40.552  1.00  0.00     0.124 S 
ATOM     90  O   UNL A   1      40.649  37.991  40.569  1.00  0.00    -0.237 OA
ATOM     91  O   UNL A   1      38.241  38.174  40.051  1.00  0.00    -0.237 OA
ATOM     92  O   UNL A   1      39.018  36.553  41.736  1.00  0.00    -0.744 OA
ENDBRANCH  88  89
ENDBRANCH  62  83
ENDBRANCH  36  37
ENDBRANCH  28  31
ENDBRANCH  26  27
ENDBRANCH  25  26
ENDBRANCH   1  25
TORSDOF 18
ENDMDL
MODEL 2
REMARK VINA RESULT:     -11.2      6.876      9.695
REMARK SMILES CCc1cc(/C=C/C(=O)NCCCCNC(=O)c2ccc(-c3c4nc(c(-c5ccc(S(=O)(=O)[O-])cc5)c5ccc([nH]5)c(-c5ccc(S(=O)(=O)[O-])cc5)c5nc(c(-c6ccc(S(=O)(=O)[O-])cc6)c6ccc3[nH]6)C=C5)C=C4)cc2)cc(C(=O)c2ccccc2)c1
REMARK SMILES IDX 12 1 11 2 10 3 8 4 9 5 7 7 6 8 5 9 3 10 4 11 88 12 79 13
REMARK SMILES IDX 78 14 2 15 1 16 80 17 81 18 82 19 83 20 87 21 84 22 86 23
REMARK SMILES IDX 85 24 13 25 14 26 15 27 16 28 17 30 18 31 19 32 77 33 20 34
REMARK SMILES IDX 76 35 21 36 22 37 23 38 70 39 24 40 75 41 69 42 71 43 25 44
REMARK SMILES IDX 74 45 68 46 67 47 26 49 56 50 37 51 55 52 38 53 41 54 54 55
REMARK SMILES IDX 72 56 39 57 40 58 53 60 73 61 42 62 27 63 28 64 36 65 29 66
REMARK SMILES IDX 35 67 30 68 31 69 32 70 33 71 34 72 57 73 58 74 66 75 59 76
REMARK SMILES IDX 65 77 60 78 61 79 62 80 63 81 64 82 43 83 44 84 52 85 45 86
REMARK SMILES IDX 51 87 46 88 47 89 48 90 49 91 50 92
REMARK H PARENT 10 6 15 29 71 48 41 59
REMARK Flexibility Score: inf
ROOT
ATOM      1  C   UNL A   1      40.486  20.615  26.911  1.00  0.00     0.023 C 
ENDROOT
BRANCH   1   2
ATOM      2  C   UNL A   1      39.625  21.590  26.106  1.00  0.00     0.116 C 
BRANCH   2   3
ATOM      3  N   UNL A   1      39.704  22.934  26.650  1.00  0.00    -0.353 N 
ATOM      4  C   UNL A   1      38.849  23.984  26.544  1.00  0.00     0.243 C 
ATOM      5  O   UNL A   1      39.065  25.011  27.184  1.00  0.00    -0.270 OA
ATOM      6  H   UNL A   1      40.511  23.113  27.186  1.00  0.00     0.163 HD
BRANCH   4   7
ATOM      7  C   UNL A   1      37.614  23.905  25.726  1.00  0.00     0.072 C 
ATOM      8  C   UNL A   1      36.418  23.495  26.171  1.00  0.00     0.014 C 
BRANCH   8   9
ATOM      9  C   UNL A   1      35.223  23.340  25.333  1.00  0.00    -0.024 A 
ATOM     10  C   UNL A   1      33.810  24.062  23.475  1.00  0.00    -0.047 A 
ATOM     11  C   UNL A   1      34.901  24.267  24.333  1.00  0.00     0.011 A 
ATOM     12  C   UNL A   1      33.048  22.894  23.624  1.00  0.00     0.016 A 
ATOM     13  C   UNL A   1      33.374  21.944  24.601  1.00  0.00     0.023 A 
ATOM     14  C   UNL A   1      34.453  22.178  25.461  1.00  0.00     0.020 A 
BRANCH  10  15
ATOM     15  C   UNL A   1      33.539  25.038  22.356  1.00  0.00     0.032 C 
ATOM     16  C   UNL A   1      32.556  26.146  22.707  1.00  0.00     0.009 C 
ENDBRANCH  10  15
BRANCH  13  17
ATOM     17  C   UNL A   1      32.596  20.684  24.763  1.00  0.00     0.193 C 
ATOM     18  O   UNL A   1      31.513  20.698  25.344  1.00  0.00    -0.289 OA
BRANCH  17  19
ATOM     19  C   UNL A   1      33.091  19.401  24.212  1.00  0.00     0.022 A 
ATOM     20  C   UNL A   1      32.386  18.812  23.158  1.00  0.00     0.012 A 
ATOM     21  C   UNL A   1      34.237  18.782  24.726  1.00  0.00     0.012 A 
ATOM     22  C   UNL A   1      32.859  17.632  22.582  1.00  0.00     0.001 A 
ATOM     23  C   UNL A   1      34.706  17.604  24.145  1.00  0.00     0.001 A 
ATOM     24  C   UNL A   1      34.022  17.035  23.069  1.00  0.00     0.000 A 
ENDBRANCH  17  19
ENDBRANCH  13  17
ENDBRANCH   8   9
ENDBRANCH   4   7
ENDBRANCH   2   3
ENDBRANCH   1   2
BRANCH   1  25
ATOM     25  C   UNL A   1      41.137  19.502  26.086  1.00  0.00     0.023 C 
BRANCH  25  26
ATOM     26  C   UNL A   1      42.636  19.323  26.305  1.00  0.00     0.116 C 
BRANCH  26  27
ATOM     27  N   UNL A   1      43.387  19.159  25.070  1.00  0.00    -0.352 N 
ATOM     28  C   UNL A   1      44.139  20.097  24.401  1.00  0.00     0.251 C 
ATOM     29  H   UNL A   1      43.352  18.265  24.661  1.00  0.00     0.163 HD
ATOM     30  O   UNL A   1      44.634  19.833  23.316  1.00  0.00    -0.269 OA
BRANCH  28  31
ATOM     31  C   UNL A   1      44.299  21.443  24.992  1.00  0.00     0.039 A 
ATOM     32  C   UNL A   1      44.906  21.557  26.245  1.00  0.00     0.014 A 
ATOM     33  C   UNL A   1      43.889  22.584  24.297  1.00  0.00     0.014 A 
ATOM     34  C   UNL A   1      45.165  22.824  26.772  1.00  0.00     0.010 A 
ATOM     35  C   UNL A   1      44.208  23.843  24.793  1.00  0.00     0.010 A 
ATOM     36  C   UNL A   1      44.851  23.976  26.033  1.00  0.00    -0.014 A 
BRANCH  36  37
ATOM     37  C   UNL A   1      45.195  25.328  26.537  1.00  0.00     0.031 A 
ATOM     38  C   UNL A   1      46.559  25.907  26.278  1.00  0.00     0.074 A 
ATOM     39  C   UNL A   1      44.301  26.006  27.285  1.00  0.00     0.049 A 
ATOM     40  N   UNL A   1      47.060  27.045  26.682  1.00  0.00    -0.248 NA
ATOM     41  C   UNL A   1      47.490  25.086  25.485  1.00  0.00     0.031 C 
ATOM     42  C   UNL A   1      42.964  25.530  27.648  1.00  0.00     0.029 A 
ATOM     43  N   UNL A   1      44.387  27.239  27.883  1.00  0.00    -0.354 N 
ATOM     44  C   UNL A   1      48.367  27.071  26.210  1.00  0.00     0.074 A 
ATOM     45  C   UNL A   1      48.596  25.815  25.529  1.00  0.00     0.031 C 
ATOM     46  C   UNL A   1      42.347  26.470  28.382  1.00  0.00     0.029 A 
ATOM     47  C   UNL A   1      43.253  27.598  28.572  1.00  0.00     0.049 A 
ATOM     48  H   UNL A   1      45.185  27.812  27.822  1.00  0.00     0.167 HD
ATOM     49  C   UNL A   1      49.288  28.058  26.315  1.00  0.00     0.031 A 
ATOM     50  C   UNL A   1      42.974  28.710  29.279  1.00  0.00     0.031 A 
ATOM     51  C   UNL A   1      49.052  29.313  26.977  1.00  0.00     0.049 A 
ATOM     52  C   UNL A   1      44.006  29.799  29.367  1.00  0.00     0.074 A 
ATOM     53  C   UNL A   1      49.900  30.401  27.088  1.00  0.00     0.029 A 
ATOM     54  N   UNL A   1      47.881  29.649  27.640  1.00  0.00    -0.354 N 
ATOM     55  N   UNL A   1      45.215  29.832  28.857  1.00  0.00    -0.248 NA
ATOM     56  C   UNL A   1      43.633  31.008  30.116  1.00  0.00     0.031 C 
ATOM     57  C   UNL A   1      49.256  31.380  27.854  1.00  0.00     0.029 A 
ATOM     58  C   UNL A   1      47.990  30.921  28.176  1.00  0.00     0.049 A 
ATOM     59  H   UNL A   1      47.090  29.069  27.718  1.00  0.00     0.167 HD
ATOM     60  C   UNL A   1      45.736  31.074  29.200  1.00  0.00     0.074 A 
ATOM     61  C   UNL A   1      44.707  31.768  29.949  1.00  0.00     0.031 C 
ATOM     62  C   UNL A   1      46.955  31.596  28.919  1.00  0.00     0.031 A 
BRANCH  49  63
ATOM     63  C   UNL A   1      50.639  27.815  25.698  1.00  0.00    -0.014 A 
ATOM     64  C   UNL A   1      50.883  28.116  24.345  1.00  0.00     0.010 A 
ATOM     65  C   UNL A   1      51.688  27.306  26.484  1.00  0.00     0.010 A 
ATOM     66  C   UNL A   1      52.137  27.872  23.779  1.00  0.00     0.020 A 
ATOM     67  C   UNL A   1      52.952  27.085  25.929  1.00  0.00     0.020 A 
ATOM     68  C   UNL A   1      53.163  27.351  24.574  1.00  0.00     0.054 A 
BRANCH  68  69
ATOM     69  S   UNL A   1      54.786  27.059  23.820  1.00  0.00     0.124 S 
ATOM     70  O   UNL A   1      54.423  26.746  22.440  1.00  0.00    -0.237 OA
ATOM     71  O   UNL A   1      55.466  28.337  24.016  1.00  0.00    -0.237 OA
ATOM     72  O   UNL A   1      55.330  25.943  24.590  1.00  0.00    -0.744 OA
ENDBRANCH  68  69
ENDBRANCH  49  63
BRANCH  50  73
ATOM     73  C   UNL A   1      41.647  28.859  29.936  1.00  0.00    -0.014 A 
ATOM     74  C   UNL A   1      41.388  28.231  31.167  1.00  0.00     0.010 A 
ATOM     75  C   UNL A   1      40.642  29.642  29.342  1.00  0.00     0.010 A 
ATOM     76  C   UNL A   1      40.140  28.367  31.782  1.00  0.00     0.020 A 
ATOM     77  C   UNL A   1      39.401  29.802  29.966  1.00  0.00     0.020 A 
ATOM     78  C   UNL A   1      39.154  29.153  31.177  1.00  0.00     0.054 A 
BRANCH  78  79
ATOM     79  S   UNL A   1      37.560  29.359  32.019  1.00  0.00     0.124 S 
ATOM     80  O   UNL A   1      37.651  30.729  32.509  1.00  0.00    -0.237 OA
ATOM     81  O   UNL A   1      36.600  29.133  30.942  1.00  0.00    -0.237 OA
ATOM     82  O   UNL A   1      37.582  28.320  33.049  1.00  0.00    -0.744 OA
ENDBRANCH  78  79
ENDBRANCH  50  73
BRANCH  62  83
ATOM     83  C   UNL A   1      47.234  32.996  29.394  1.00  0.00    -0.014 A 
ATOM     84  C   UNL A   1      47.830  33.236  30.644  1.00  0.00     0.010 A 
ATOM     85  C   UNL A   1      46.938  34.084  28.553  1.00  0.00     0.010 A 
ATOM     86  C   UNL A   1      48.094  34.544  31.060  1.00  0.00     0.020 A 
ATOM     87  C   UNL A   1      47.224  35.391  28.953  1.00  0.00     0.020 A 
ATOM     88  C   UNL A   1      47.787  35.613  30.212  1.00  0.00     0.054 A 
BRANCH  88  89
ATOM     89  S   UNL A   1      48.175  37.299  30.756  1.00  0.00     0.124 S 
ATOM     90  O   UNL A   1      47.484  38.108  29.756  1.00  0.00    -0.237 OA
ATOM     91  O   UNL A   1      47.607  37.343  32.101  1.00  0.00    -0.237 OA
ATOM     92  O   UNL A   1      49.634  37.354  30.701  1.00  0.00    -0.744 OA
ENDBRANCH  88  89
ENDBRANCH  62  83
ENDBRANCH  36  37
ENDBRANCH  28  31
ENDBRANCH  26  27
ENDBRANCH  25  26
ENDBRANCH   1  25
TORSDOF 18
ENDMDL
MODEL 3
REMARK VINA RESULT:     -10.4      7.253     11.684
REMARK SMILES CCc1cc(/C=C/C(=O)NCCCCNC(=O)c2ccc(-c3c4nc(c(-c5ccc(S(=O)(=O)[O-])cc5)c5ccc([nH]5)c(-c5ccc(S(=O)(=O)[O-])cc5)c5nc(c(-c6ccc(S(=O)(=O)[O-])cc6)c6ccc3[nH]6)C=C5)C=C4)cc2)cc(C(=O)c2ccccc2)c1
REMARK SMILES IDX 12 1 11 2 10 3 8 4 9 5 7 7 6 8 5 9 3 10 4 11 88 12 79 13
REMARK SMILES IDX 78 14 2 15 1 16 80 17 81 18 82 19 83 20 87 21 84 22 86 23
REMARK SMILES IDX 85 24 13 25 14 26 15 27 16 28 17 30 18 31 19 32 77 33 20 34
REMARK SMILES IDX 76 35 21 36 22 37 23 38 70 39 24 40 75 41 69 42 71 43 25 44
REMARK SMILES IDX 74 45 68 46 67 47 26 49 56 50 37 51 55 52 38 53 41 54 54 55
REMARK SMILES IDX 72 56 39 57 40 58 53 60 73 61 42 62 27 63 28 64 36 65 29 66
REMARK SMILES IDX 35 67 30 68 31 69 32 70 33 71 34 72 57 73 58 74 66 75 59 76
REMARK SMILES IDX 65 77 60 78 61 79 62 80 63 81 64 82 43 83 44 84 52 85 45 86
REMARK SMILES IDX 51 87 46 88 47 89 48 90 49 91 50 92
REMARK H PARENT 10 6 15 29 71 48 41 59
REMARK Flexibility Score: inf
ROOT
ATOM      1  C   UNL A   1      39.028  27.243  30.504  1.00  0.00     0.023 C 
ENDROOT
BRANCH   1   2
ATOM      2  C   UNL A   1      40.284  28.056  30.186  1.00  0.00     0.116 C 
BRANCH   2   3
ATOM      3  N   UNL A   1      40.630  27.960  28.780  1.00  0.00    -0.353 N 
ATOM      4  C   UNL A   1      40.109  28.590  27.694  1.00  0.00     0.243 C 
ATOM      5  O   UNL A   1      40.635  28.437  26.593  1.00  0.00    -0.270 OA
ATOM      6  H   UNL A   1      41.366  27.337  28.580  1.00  0.00     0.163 HD
BRANCH   4   7
ATOM      7  C   UNL A   1      38.958  29.518  27.808  1.00  0.00     0.072 C 
ATOM      8  C   UNL A   1      37.669  29.161  27.735  1.00  0.00     0.014 C 
BRANCH   8   9
ATOM      9  C   UNL A   1      36.540  30.099  27.765  1.00  0.00    -0.024 A 
ATOM     10  C   UNL A   1      34.159  30.583  27.512  1.00  0.00    -0.047 A 
ATOM     11  C   UNL A   1      35.248  29.707  27.391  1.00  0.00     0.011 A 
ATOM     12  C   UNL A   1      34.381  31.865  28.035  1.00  0.00     0.016 A 
ATOM     13  C   UNL A   1      35.662  32.262  28.440  1.00  0.00     0.023 A 
ATOM     14  C   UNL A   1      36.739  31.381  28.290  1.00  0.00     0.020 A 
BRANCH  10  15
ATOM     15  C   UNL A   1      32.767  30.103  27.178  1.00  0.00     0.032 C 
ATOM     16  C   UNL A   1      32.466  30.022  25.687  1.00  0.00     0.009 C 
ENDBRANCH  10  15
BRANCH  13  17
ATOM     17  C   UNL A   1      35.921  33.610  29.022  1.00  0.00     0.193 C 
ATOM     18  O   UNL A   1      37.071  34.032  29.113  1.00  0.00    -0.289 OA
BRANCH  17  19
ATOM     19  C   UNL A   1      34.808  34.475  29.475  1.00  0.00     0.022 A 
ATOM     20  C   UNL A   1      34.423  34.419  30.818  1.00  0.00     0.012 A 
ATOM     21  C   UNL A   1      34.149  35.336  28.588  1.00  0.00     0.012 A 
ATOM     22  C   UNL A   1      33.414  35.263  31.285  1.00  0.00     0.001 A 
ATOM     23  C   UNL A   1      33.142  36.178  29.061  1.00  0.00     0.001 A 
ATOM     24  C   UNL A   1      32.783  36.146  30.410  1.00  0.00     0.000 A 
ENDBRANCH  17  19
ENDBRANCH  13  17
ENDBRANCH   8   9
ENDBRANCH   4   7
ENDBRANCH   2   3
ENDBRANCH   1   2
BRANCH   1  25
ATOM     25  C   UNL A   1      37.939  28.011  31.257  1.00  0.00     0.023 C 
BRANCH  25  26
ATOM     26  C   UNL A   1      38.161  28.149  32.759  1.00  0.00     0.116 C 
BRANCH  26  27
ATOM     27  N   UNL A   1      37.492  29.301  33.341  1.00  0.00    -0.352 N 
ATOM     28  C   UNL A   1      37.914  30.611  33.361  1.00  0.00     0.251 C 
ATOM     29  H   UNL A   1      36.627  29.122  33.777  1.00  0.00     0.163 HD
ATOM     30  O   UNL A   1      37.283  31.455  33.979  1.00  0.00    -0.269 OA
BRANCH  28  31
ATOM     31  C   UNL A   1      39.167  30.971  32.663  1.00  0.00     0.039 A 
ATOM     32  C   UNL A   1      39.089  31.462  31.358  1.00  0.00     0.014 A 
ATOM     33  C   UNL A   1      40.402  30.862  33.307  1.00  0.00     0.014 A 
ATOM     34  C   UNL A   1      40.249  31.910  30.721  1.00  0.00     0.010 A 
ATOM     35  C   UNL A   1      41.544  31.369  32.696  1.00  0.00     0.010 A 
ATOM     36  C   UNL A   1      41.478  31.900  31.400  1.00  0.00    -0.014 A 
BRANCH  36  37
ATOM     37  C   UNL A   1      42.705  32.450  30.771  1.00  0.00     0.031 A 
ATOM     38  C   UNL A   1      43.042  33.908  30.920  1.00  0.00     0.074 A 
ATOM     39  C   UNL A   1      43.479  31.648  30.013  1.00  0.00     0.049 A 
ATOM     40  N   UNL A   1      44.037  34.580  30.403  1.00  0.00    -0.248 NA
ATOM     41  C   UNL A   1      42.124  34.723  31.734  1.00  0.00     0.031 C 
ATOM     42  C   UNL A   1      43.231  30.228  29.751  1.00  0.00     0.029 A 
ATOM     43  N   UNL A   1      44.629  31.917  29.313  1.00  0.00    -0.354 N 
ATOM     44  C   UNL A   1      43.858  35.896  30.811  1.00  0.00     0.074 A 
ATOM     45  C   UNL A   1      42.633  35.937  31.581  1.00  0.00     0.031 C 
ATOM     46  C   UNL A   1      44.212  29.747  28.971  1.00  0.00     0.029 A 
ATOM     47  C   UNL A   1      45.140  30.827  28.649  1.00  0.00     0.049 A 
ATOM     48  H   UNL A   1      45.050  32.807  29.290  1.00  0.00     0.167 HD
ATOM     49  C   UNL A   1      44.650  36.971  30.584  1.00  0.00     0.031 A 
ATOM     50  C   UNL A   1      46.230  30.709  27.867  1.00  0.00     0.031 A 
ATOM     51  C   UNL A   1      45.877  36.923  29.833  1.00  0.00     0.049 A 
ATOM     52  C   UNL A   1      47.103  31.912  27.643  1.00  0.00     0.074 A 
ATOM     53  C   UNL A   1      46.780  37.944  29.596  1.00  0.00     0.029 A 
ATOM     54  N   UNL A   1      46.372  35.794  29.199  1.00  0.00    -0.354 N 
ATOM     55  N   UNL A   1      46.951  33.136  28.094  1.00  0.00    -0.248 NA
ATOM     56  C   UNL A   1      48.302  31.717  26.817  1.00  0.00     0.031 C 
ATOM     57  C   UNL A   1      47.803  37.441  28.783  1.00  0.00     0.029 A 
ATOM     58  C   UNL A   1      47.561  36.096  28.557  1.00  0.00     0.049 A 
ATOM     59  H   UNL A   1      45.943  34.908  29.205  1.00  0.00     0.167 HD
ATOM     60  C   UNL A   1      48.049  33.848  27.627  1.00  0.00     0.074 A 
ATOM     61  C   UNL A   1      48.864  32.917  26.872  1.00  0.00     0.031 C 
ATOM     62  C   UNL A   1      48.358  35.156  27.809  1.00  0.00     0.031 A 
BRANCH  49  63
ATOM     63  C   UNL A   1      44.209  38.291  31.157  1.00  0.00    -0.014 A 
ATOM     64  C   UNL A   1      44.476  38.624  32.498  1.00  0.00     0.010 A 
ATOM     65  C   UNL A   1      43.546  39.224  30.340  1.00  0.00     0.010 A 
ATOM     66  C   UNL A   1      44.048  39.846  33.023  1.00  0.00     0.020 A 
ATOM     67  C   UNL A   1      43.140  40.459  30.853  1.00  0.00     0.020 A 
ATOM     68  C   UNL A   1      43.377  40.754  32.197  1.00  0.00     0.054 A 
BRANCH  68  69
ATOM     69  S   UNL A   1      42.847  42.340  32.899  1.00  0.00     0.124 S 
ATOM     70  O   UNL A   1      41.812  41.922  33.840  1.00  0.00    -0.237 OA
ATOM     71  O   UNL A   1      44.075  42.851  33.503  1.00  0.00    -0.237 OA
ATOM     72  O   UNL A   1      42.369  43.090  31.739  1.00  0.00    -0.744 OA
ENDBRANCH  68  69
ENDBRANCH  49  63
BRANCH  50  73
ATOM     73  C   UNL A   1      46.571  29.394  27.261  1.00  0.00    -0.014 A 
ATOM     74  C   UNL A   1      46.125  29.068  25.969  1.00  0.00     0.010 A 
ATOM     75  C   UNL A   1      47.357  28.466  27.968  1.00  0.00     0.010 A 
ATOM     76  C   UNL A   1      46.441  27.830  25.401  1.00  0.00     0.020 A 
ATOM     77  C   UNL A   1      47.697  27.237  27.394  1.00  0.00     0.020 A 
ATOM     78  C   UNL A   1      47.226  26.923  26.118  1.00  0.00     0.054 A 
BRANCH  78  79
ATOM     79  S   UNL A   1      47.669  25.344  25.341  1.00  0.00     0.124 S 
ATOM     80  O   UNL A   1      46.499  25.075  24.513  1.00  0.00    -0.237 OA
ATOM     81  O   UNL A   1      48.894  25.678  24.618  1.00  0.00    -0.237 OA
ATOM     82  O   UNL A   1      47.854  24.445  26.479  1.00  0.00    -0.744 OA
ENDBRANCH  78  79
ENDBRANCH  50  73
BRANCH  62  83
ATOM     83  C   UNL A   1      49.646  35.651  27.210  1.00  0.00    -0.014 A 
ATOM     84  C   UNL A   1      50.866  35.521  27.897  1.00  0.00     0.010 A 
ATOM     85  C   UNL A   1      49.641  36.211  25.920  1.00  0.00     0.010 A 
ATOM     86  C   UNL A   1      52.054  35.974  27.317  1.00  0.00     0.020 A 
ATOM     87  C   UNL A   1      50.829  36.641  25.325  1.00  0.00     0.020 A 
ATOM     88  C   UNL A   1      52.027  36.533  26.035  1.00  0.00     0.054 A 
BRANCH  88  89
ATOM     89  S   UNL A   1      53.586  37.078  25.286  1.00  0.00     0.124 S 
ATOM     90  O   UNL A   1      54.503  37.026  26.421  1.00  0.00    -0.237 OA
ATOM     91  O   UNL A   1      53.813  36.076  24.248  1.00  0.00    -0.237 OA
ATOM     92  O   UNL A   1      53.282  38.419  24.791  1.00  0.00    -0.744 OA
ENDBRANCH  88  89
ENDBRANCH  62  83
ENDBRANCH  36  37
ENDBRANCH  28  31
ENDBRANCH  26  27
ENDBRANCH  25  26
ENDBRANCH   1  25
TORSDOF 18
ENDMDL
