MODEL 1
REMARK VINA RESULT:      -9.4      0.000      0.000
REMARK SMILES C=CC[N@H+](CC(=O)NCCCCNC(=O)c1ccc(-c2c3nc(c(-c4ccc(S(=O)(=O)[O-])cc4)c4ccc([nH]4)c(-c4ccc(S(=O)(=O)[O-])cc4)c4nc(c(-c5ccc(S(=O)(=O)[O-])cc5)c5ccc2[nH]5)C=C4)C=C3)cc1)[C@@H]1CC[N@@H+](C(C)C)C1
REMARK SMILES IDX 10 1 9 2 8 3 6 4 7 5 5 7 4 8 3 10 2 11 1 12 76 13 77 14
REMARK SMILES IDX 83 15 78 16 79 17 80 19 81 20 82 21 11 22 12 23 13 24 14 25
REMARK SMILES IDX 15 27 16 28 17 29 75 30 18 31 74 32 19 33 20 34 21 35 68 36
REMARK SMILES IDX 22 37 73 38 67 39 69 40 23 41 72 42 66 43 65 44 24 46 54 47
REMARK SMILES IDX 35 48 53 49 36 50 39 51 52 52 70 53 37 54 38 55 51 57 71 58
REMARK SMILES IDX 40 59 25 60 26 61 34 62 27 63 33 64 28 65 29 66 30 67 31 68
REMARK SMILES IDX 32 69 55 70 56 71 64 72 57 73 63 74 58 75 59 76 60 77 61 78
REMARK SMILES IDX 62 79 41 80 42 81 50 82 43 83 49 84 44 85 45 86 46 87 47 88
REMARK SMILES IDX 48 89
REMARK H PARENT 8 6 4 9 79 18 13 26 69 45 39 56
REMARK Flexibility Score: inf
ROOT
ATOM      1  C   UNL A   1      34.455  23.976  26.149  1.00  0.00     0.023 C 
ENDROOT
BRANCH   1   2
ATOM      2  C   UNL A   1      33.080  23.372  25.860  1.00  0.00     0.116 C 
BRANCH   2   3
ATOM      3  N   UNL A   1      31.984  24.111  26.449  1.00  0.00    -0.351 N 
ATOM      4  C   UNL A   1      31.119  24.972  25.825  1.00  0.00     0.275 C 
ATOM      5  O   UNL A   1      30.135  25.374  26.451  1.00  0.00    -0.269 OA
ATOM      6  H   UNL A   1      31.842  23.980  27.414  1.00  0.00     0.163 HD
BRANCH   4   7
ATOM      7  C   UNL A   1      31.367  25.399  24.371  1.00  0.00     0.364 C 
BRANCH   7   8
ATOM      8  N   UNL A   1      31.430  26.867  24.221  1.00  0.00    -0.317 N 
ATOM      9  H   UNL A   1      32.085  27.043  23.459  1.00  0.00     0.349 HD
BRANCH   8  10
ATOM     10  C   UNL A   1      30.168  27.419  23.733  1.00  0.00     0.291 C 
BRANCH  10  11
ATOM     11  C   UNL A   1      30.205  28.281  22.506  1.00  0.00     0.025 C 
ATOM     12  C   UNL A   1      29.876  29.580  22.470  1.00  0.00     0.010 C 
ENDBRANCH  10  11
ENDBRANCH   8  10
BRANCH   8  13
ATOM     13  C   UNL A   1      32.193  27.622  25.232  1.00  0.00     0.246 C 
ATOM     14  C   UNL A   1      31.395  28.668  26.018  1.00  0.00     0.132 C 
ATOM     15  C   UNL A   1      33.460  28.385  24.774  1.00  0.00     0.328 C 
ATOM     16  C   UNL A   1      32.001  30.001  25.621  1.00  0.00     0.269 C 
ATOM     17  N   UNL A   1      33.423  29.734  25.370  1.00  0.00    -0.328 N 
ATOM     18  H   UNL A   1      33.845  30.389  24.712  1.00  0.00     0.348 HD
BRANCH  17  19
ATOM     19  C   UNL A   1      34.287  29.996  26.538  1.00  0.00     0.177 C 
ATOM     20  C   UNL A   1      33.779  30.999  27.579  1.00  0.00     0.075 C 
ATOM     21  C   UNL A   1      34.694  28.693  27.237  1.00  0.00     0.075 C 
ENDBRANCH  17  19
ENDBRANCH   8  13
ENDBRANCH   7   8
ENDBRANCH   4   7
ENDBRANCH   2   3
ENDBRANCH   1   2
BRANCH   1  22
ATOM     22  C   UNL A   1      35.616  22.991  26.178  1.00  0.00     0.023 C 
BRANCH  22  23
ATOM     23  C   UNL A   1      36.836  23.391  25.364  1.00  0.00     0.116 C 
BRANCH  23  24
ATOM     24  N   UNL A   1      37.998  22.532  25.556  1.00  0.00    -0.352 N 
ATOM     25  C   UNL A   1      39.188  22.837  26.179  1.00  0.00     0.251 C 
ATOM     26  H   UNL A   1      37.924  21.621  25.193  1.00  0.00     0.163 HD
ATOM     27  O   UNL A   1      40.102  22.021  26.213  1.00  0.00    -0.269 OA
BRANCH  25  28
ATOM     28  C   UNL A   1      39.360  24.185  26.760  1.00  0.00     0.039 A 
ATOM     29  C   UNL A   1      38.939  24.420  28.069  1.00  0.00     0.014 A 
ATOM     30  C   UNL A   1      40.037  25.175  26.043  1.00  0.00     0.014 A 
ATOM     31  C   UNL A   1      39.284  25.619  28.695  1.00  0.00     0.010 A 
ATOM     32  C   UNL A   1      40.462  26.322  26.699  1.00  0.00     0.010 A 
ATOM     33  C   UNL A   1      40.093  26.557  28.033  1.00  0.00    -0.014 A 
BRANCH  33  34
ATOM     34  C   UNL A   1      40.570  27.791  28.706  1.00  0.00     0.031 A 
ATOM     35  C   UNL A   1      41.965  27.843  29.267  1.00  0.00     0.074 A 
ATOM     36  C   UNL A   1      39.726  28.828  28.890  1.00  0.00     0.049 A 
ATOM     37  N   UNL A   1      42.535  28.780  29.979  1.00  0.00    -0.248 NA
ATOM     38  C   UNL A   1      42.819  26.665  29.032  1.00  0.00     0.031 C 
ATOM     39  C   UNL A   1      38.332  28.882  28.441  1.00  0.00     0.029 A 
ATOM     40  N   UNL A   1      39.918  30.037  29.511  1.00  0.00    -0.354 N 
ATOM     41  C   UNL A   1      43.797  28.294  30.299  1.00  0.00     0.074 A 
ATOM     42  C   UNL A   1      43.888  26.958  29.755  1.00  0.00     0.031 C 
ATOM     43  C   UNL A   1      37.809  30.074  28.770  1.00  0.00     0.029 A 
ATOM     44  C   UNL A   1      38.813  30.854  29.486  1.00  0.00     0.049 A 
ATOM     45  H   UNL A   1      40.769  30.294  29.935  1.00  0.00     0.167 HD
ATOM     46  C   UNL A   1      44.802  28.913  30.962  1.00  0.00     0.031 A 
ATOM     47  C   UNL A   1      38.629  32.092  29.985  1.00  0.00     0.031 A 
ATOM     48  C   UNL A   1      44.722  30.254  31.471  1.00  0.00     0.049 A 
ATOM     49  C   UNL A   1      39.766  32.770  30.697  1.00  0.00     0.074 A 
ATOM     50  C   UNL A   1      45.703  30.997  32.104  1.00  0.00     0.029 A 
ATOM     51  N   UNL A   1      43.594  31.059  31.398  1.00  0.00    -0.354 N 
ATOM     52  N   UNL A   1      40.972  32.315  30.942  1.00  0.00    -0.248 NA
ATOM     53  C   UNL A   1      39.522  34.131  31.193  1.00  0.00     0.031 C 
ATOM     54  C   UNL A   1      45.157  32.240  32.443  1.00  0.00     0.029 A 
ATOM     55  C   UNL A   1      43.852  32.287  31.981  1.00  0.00     0.049 A 
ATOM     56  H   UNL A   1      42.738  30.796  30.990  1.00  0.00     0.167 HD
ATOM     57  C   UNL A   1      41.640  33.344  31.595  1.00  0.00     0.074 A 
ATOM     58  C   UNL A   1      40.707  34.449  31.698  1.00  0.00     0.031 C 
ATOM     59  C   UNL A   1      42.910  33.373  32.068  1.00  0.00     0.031 A 
BRANCH  46  60
ATOM     60  C   UNL A   1      46.076  28.136  31.162  1.00  0.00    -0.014 A 
ATOM     61  C   UNL A   1      47.116  28.197  30.215  1.00  0.00     0.010 A 
ATOM     62  C   UNL A   1      46.240  27.338  32.308  1.00  0.00     0.010 A 
ATOM     63  C   UNL A   1      48.272  27.432  30.383  1.00  0.00     0.020 A 
ATOM     64  C   UNL A   1      47.408  26.594  32.494  1.00  0.00     0.020 A 
ATOM     65  C   UNL A   1      48.407  26.628  31.518  1.00  0.00     0.054 A 
BRANCH  65  66
ATOM     66  S   UNL A   1      49.919  25.646  31.713  1.00  0.00     0.124 S 
ATOM     67  O   UNL A   1      49.523  24.690  32.745  1.00  0.00    -0.237 OA
ATOM     68  O   UNL A   1      50.113  25.084  30.379  1.00  0.00    -0.237 OA
ATOM     69  O   UNL A   1      50.919  26.628  32.123  1.00  0.00    -0.744 OA
ENDBRANCH  65  66
ENDBRANCH  46  60
BRANCH  47  70
ATOM     70  C   UNL A   1      37.327  32.786  29.794  1.00  0.00    -0.014 A 
ATOM     71  C   UNL A   1      36.332  32.712  30.785  1.00  0.00     0.010 A 
ATOM     72  C   UNL A   1      37.077  33.538  28.631  1.00  0.00     0.010 A 
ATOM     73  C   UNL A   1      35.107  33.361  30.613  1.00  0.00     0.020 A 
ATOM     74  C   UNL A   1      35.861  34.209  28.465  1.00  0.00     0.020 A 
ATOM     75  C   UNL A   1      34.879  34.107  29.453  1.00  0.00     0.054 A 
BRANCH  75  76
ATOM     76  S   UNL A   1      33.302  34.987  29.274  1.00  0.00     0.124 S 
ATOM     77  O   UNL A   1      33.739  36.300  28.809  1.00  0.00    -0.237 OA
ATOM     78  O   UNL A   1      32.593  34.171  28.291  1.00  0.00    -0.237 OA
ATOM     79  O   UNL A   1      32.738  34.953  30.621  1.00  0.00    -0.744 OA
ENDBRANCH  75  76
ENDBRANCH  47  70
BRANCH  59  80
ATOM     80  C   UNL A   1      43.380  34.651  32.707  1.00  0.00    -0.014 A 
ATOM     81  C   UNL A   1      43.276  34.850  34.094  1.00  0.00     0.010 A 
ATOM     82  C   UNL A   1      43.993  35.638  31.913  1.00  0.00     0.010 A 
ATOM     83  C   UNL A   1      43.754  36.029  34.674  1.00  0.00     0.020 A 
ATOM     84  C   UNL A   1      44.494  36.805  32.492  1.00  0.00     0.020 A 
ATOM     85  C   UNL A   1      44.360  36.998  33.868  1.00  0.00     0.054 A 
BRANCH  85  86
ATOM     86  S   UNL A   1      45.021  38.496  34.650  1.00  0.00     0.124 S 
ATOM     87  O   UNL A   1      45.732  39.127  33.542  1.00  0.00    -0.237 OA
ATOM     88  O   UNL A   1      43.812  39.186  35.096  1.00  0.00    -0.237 OA
ATOM     89  O   UNL A   1      45.867  37.981  35.724  1.00  0.00    -0.744 OA
ENDBRANCH  85  86
ENDBRANCH  59  80
ENDBRANCH  33  34
ENDBRANCH  25  28
ENDBRANCH  23  24
ENDBRANCH  22  23
ENDBRANCH   1  22
TORSDOF 19
ENDMDL
MODEL 2
REMARK VINA RESULT:      -9.0      3.430      6.768
REMARK SMILES C=CC[N@H+](CC(=O)NCCCCNC(=O)c1ccc(-c2c3nc(c(-c4ccc(S(=O)(=O)[O-])cc4)c4ccc([nH]4)c(-c4ccc(S(=O)(=O)[O-])cc4)c4nc(c(-c5ccc(S(=O)(=O)[O-])cc5)c5ccc2[nH]5)C=C4)C=C3)cc1)[C@@H]1CC[N@@H+](C(C)C)C1
REMARK SMILES IDX 10 1 9 2 8 3 6 4 7 5 5 7 4 8 3 10 2 11 1 12 76 13 77 14
REMARK SMILES IDX 83 15 78 16 79 17 80 19 81 20 82 21 11 22 12 23 13 24 14 25
REMARK SMILES IDX 15 27 16 28 17 29 75 30 18 31 74 32 19 33 20 34 21 35 68 36
REMARK SMILES IDX 22 37 73 38 67 39 69 40 23 41 72 42 66 43 65 44 24 46 54 47
REMARK SMILES IDX 35 48 53 49 36 50 39 51 52 52 70 53 37 54 38 55 51 57 71 58
REMARK SMILES IDX 40 59 25 60 26 61 34 62 27 63 33 64 28 65 29 66 30 67 31 68
REMARK SMILES IDX 32 69 55 70 56 71 64 72 57 73 63 74 58 75 59 76 60 77 61 78
REMARK SMILES IDX 62 79 41 80 42 81 50 82 43 83 49 84 44 85 45 86 46 87 47 88
REMARK SMILES IDX 48 89
REMARK H PARENT 8 6 4 9 79 18 13 26 69 45 39 56
REMARK Flexibility Score: inf
ROOT
ATOM      1  C   UNL A   1      42.379  22.405  26.163  1.00  0.00     0.023 C 
ENDROOT
BRANCH   1   2
ATOM      2  C   UNL A   1      43.727  22.219  25.467  1.00  0.00     0.116 C 
BRANCH   2   3
ATOM      3  N   UNL A   1      44.865  22.482  26.322  1.00  0.00    -0.351 N 
ATOM      4  C   UNL A   1      45.781  23.495  26.215  1.00  0.00     0.275 C 
ATOM      5  O   UNL A   1      46.580  23.667  27.140  1.00  0.00    -0.269 OA
ATOM      6  H   UNL A   1      44.996  21.858  27.073  1.00  0.00     0.163 HD
BRANCH   4   7
ATOM      7  C   UNL A   1      45.787  24.405  24.979  1.00  0.00     0.364 C 
BRANCH   7   8
ATOM      8  N   UNL A   1      46.557  25.647  25.201  1.00  0.00    -0.317 N 
ATOM      9  H   UNL A   1      46.883  25.606  26.166  1.00  0.00     0.349 HD
BRANCH   8  10
ATOM     10  C   UNL A   1      47.790  25.669  24.416  1.00  0.00     0.291 C 
BRANCH  10  11
ATOM     11  C   UNL A   1      49.089  25.823  25.149  1.00  0.00     0.025 C 
ATOM     12  C   UNL A   1      49.210  25.955  26.477  1.00  0.00     0.010 C 
ENDBRANCH  10  11
ENDBRANCH   8  10
BRANCH   8  13
ATOM     13  C   UNL A   1      45.797  26.898  25.368  1.00  0.00     0.246 C 
ATOM     14  C   UNL A   1      46.482  28.164  24.840  1.00  0.00     0.132 C 
ATOM     15  C   UNL A   1      45.335  27.290  26.793  1.00  0.00     0.328 C 
ATOM     16  C   UNL A   1      46.743  29.010  26.072  1.00  0.00     0.269 C 
ATOM     17  N   UNL A   1      45.639  28.719  26.997  1.00  0.00    -0.328 N 
ATOM     18  H   UNL A   1      45.887  28.860  27.976  1.00  0.00     0.348 HD
BRANCH  17  19
ATOM     19  C   UNL A   1      44.523  29.682  26.903  1.00  0.00     0.177 C 
ATOM     20  C   UNL A   1      43.135  29.122  26.577  1.00  0.00     0.075 C 
ATOM     21  C   UNL A   1      44.439  30.564  28.155  1.00  0.00     0.075 C 
ENDBRANCH  17  19
ENDBRANCH   8  13
ENDBRANCH   7   8
ENDBRANCH   4   7
ENDBRANCH   2   3
ENDBRANCH   1   2
BRANCH   1  22
ATOM     22  C   UNL A   1      41.314  21.370  25.825  1.00  0.00     0.023 C 
BRANCH  22  23
ATOM     23  C   UNL A   1      40.013  21.490  26.603  1.00  0.00     0.116 C 
BRANCH  23  24
ATOM     24  N   UNL A   1      38.905  22.058  25.845  1.00  0.00    -0.352 N 
ATOM     25  C   UNL A   1      38.462  23.362  25.834  1.00  0.00     0.251 C 
ATOM     26  H   UNL A   1      38.411  21.430  25.270  1.00  0.00     0.163 HD
ATOM     27  O   UNL A   1      37.473  23.680  25.181  1.00  0.00    -0.269 OA
BRANCH  25  28
ATOM     28  C   UNL A   1      39.168  24.360  26.664  1.00  0.00     0.039 A 
ATOM     29  C   UNL A   1      40.057  25.245  26.053  1.00  0.00     0.014 A 
ATOM     30  C   UNL A   1      38.864  24.483  28.021  1.00  0.00     0.014 A 
ATOM     31  C   UNL A   1      40.567  26.319  26.785  1.00  0.00     0.010 A 
ATOM     32  C   UNL A   1      39.293  25.605  28.718  1.00  0.00     0.010 A 
ATOM     33  C   UNL A   1      40.147  26.537  28.108  1.00  0.00    -0.014 A 
BRANCH  33  34
ATOM     34  C   UNL A   1      40.583  27.727  28.880  1.00  0.00     0.031 A 
ATOM     35  C   UNL A   1      41.932  27.729  29.549  1.00  0.00     0.074 A 
ATOM     36  C   UNL A   1      39.738  28.765  29.054  1.00  0.00     0.049 A 
ATOM     37  N   UNL A   1      42.454  28.619  30.351  1.00  0.00    -0.248 NA
ATOM     38  C   UNL A   1      42.788  26.553  29.317  1.00  0.00     0.031 C 
ATOM     39  C   UNL A   1      38.384  28.862  28.504  1.00  0.00     0.029 A 
ATOM     40  N   UNL A   1      39.895  29.936  29.752  1.00  0.00    -0.354 N 
ATOM     41  C   UNL A   1      43.683  28.099  30.739  1.00  0.00     0.074 A 
ATOM     42  C   UNL A   1      43.802  26.792  30.134  1.00  0.00     0.031 C 
ATOM     43  C   UNL A   1      37.849  30.043  28.855  1.00  0.00     0.029 A 
ATOM     44  C   UNL A   1      38.803  30.770  29.687  1.00  0.00     0.049 A 
ATOM     45  H   UNL A   1      40.713  30.158  30.253  1.00  0.00     0.167 HD
ATOM     46  C   UNL A   1      44.640  28.668  31.510  1.00  0.00     0.031 A 
ATOM     47  C   UNL A   1      38.594  31.982  30.236  1.00  0.00     0.031 A 
ATOM     48  C   UNL A   1      44.535  29.981  32.083  1.00  0.00     0.049 A 
ATOM     49  C   UNL A   1      39.680  32.605  31.068  1.00  0.00     0.074 A 
ATOM     50  C   UNL A   1      45.472  30.675  32.827  1.00  0.00     0.029 A 
ATOM     51  N   UNL A   1      43.425  30.805  31.967  1.00  0.00    -0.354 N 
ATOM     52  N   UNL A   1      40.859  32.120  31.380  1.00  0.00    -0.248 NA
ATOM     53  C   UNL A   1      39.413  33.942  31.616  1.00  0.00     0.031 C 
ATOM     54  C   UNL A   1      44.915  31.907  33.189  1.00  0.00     0.029 A 
ATOM     55  C   UNL A   1      43.650  31.997  32.633  1.00  0.00     0.049 A 
ATOM     56  H   UNL A   1      42.600  30.576  31.481  1.00  0.00     0.167 HD
ATOM     57  C   UNL A   1      41.484  33.104  32.136  1.00  0.00     0.074 A 
ATOM     58  C   UNL A   1      40.558  34.216  32.226  1.00  0.00     0.031 C 
ATOM     59  C   UNL A   1      42.715  33.090  32.705  1.00  0.00     0.031 A 
BRANCH  46  60
ATOM     60  C   UNL A   1      45.887  27.863  31.764  1.00  0.00    -0.014 A 
ATOM     61  C   UNL A   1      45.970  26.986  32.862  1.00  0.00     0.010 A 
ATOM     62  C   UNL A   1      46.987  27.978  30.896  1.00  0.00     0.010 A 
ATOM     63  C   UNL A   1      47.149  26.283  33.120  1.00  0.00     0.020 A 
ATOM     64  C   UNL A   1      48.158  27.253  31.133  1.00  0.00     0.020 A 
ATOM     65  C   UNL A   1      48.239  26.428  32.257  1.00  0.00     0.054 A 
BRANCH  65  66
ATOM     66  S   UNL A   1      49.758  25.503  32.612  1.00  0.00     0.124 S 
ATOM     67  O   UNL A   1      50.652  26.562  33.077  1.00  0.00    -0.237 OA
ATOM     68  O   UNL A   1      49.325  24.554  33.635  1.00  0.00    -0.237 OA
ATOM     69  O   UNL A   1      50.111  24.910  31.325  1.00  0.00    -0.744 OA
ENDBRANCH  65  66
ENDBRANCH  46  60
BRANCH  47  70
ATOM     70  C   UNL A   1      37.318  32.704  29.983  1.00  0.00    -0.014 A 
ATOM     71  C   UNL A   1      36.172  32.404  30.742  1.00  0.00     0.010 A 
ATOM     72  C   UNL A   1      37.241  33.705  28.998  1.00  0.00     0.010 A 
ATOM     73  C   UNL A   1      34.970  33.078  30.510  1.00  0.00     0.020 A 
ATOM     74  C   UNL A   1      36.046  34.398  28.779  1.00  0.00     0.020 A 
ATOM     75  C   UNL A   1      34.914  34.072  29.529  1.00  0.00     0.054 A 
BRANCH  75  76
ATOM     76  S   UNL A   1      33.358  34.973  29.283  1.00  0.00     0.124 S 
ATOM     77  O   UNL A   1      32.621  34.069  28.406  1.00  0.00    -0.237 OA
ATOM     78  O   UNL A   1      32.843  35.095  30.645  1.00  0.00    -0.237 OA
ATOM     79  O   UNL A   1      33.786  36.230  28.674  1.00  0.00    -0.744 OA
ENDBRANCH  75  76
ENDBRANCH  47  70
BRANCH  59  80
ATOM     80  C   UNL A   1      43.148  34.326  33.445  1.00  0.00    -0.014 A 
ATOM     81  C   UNL A   1      43.759  35.398  32.773  1.00  0.00     0.010 A 
ATOM     82  C   UNL A   1      42.881  34.438  34.822  1.00  0.00     0.010 A 
ATOM     83  C   UNL A   1      44.119  36.554  33.471  1.00  0.00     0.020 A 
ATOM     84  C   UNL A   1      43.216  35.601  35.518  1.00  0.00     0.020 A 
ATOM     85  C   UNL A   1      43.845  36.647  34.840  1.00  0.00     0.054 A 
BRANCH  85  86
ATOM     86  S   UNL A   1      44.273  38.177  35.715  1.00  0.00     0.124 S 
ATOM     87  O   UNL A   1      45.731  38.108  35.752  1.00  0.00    -0.237 OA
ATOM     88  O   UNL A   1      43.714  39.212  34.846  1.00  0.00    -0.237 OA
ATOM     89  O   UNL A   1      43.607  38.034  37.008  1.00  0.00    -0.744 OA
ENDBRANCH  85  86
ENDBRANCH  59  80
ENDBRANCH  33  34
ENDBRANCH  25  28
ENDBRANCH  23  24
ENDBRANCH  22  23
ENDBRANCH   1  22
TORSDOF 19
ENDMDL
MODEL 3
REMARK VINA RESULT:      -9.0      3.714      5.561
REMARK SMILES C=CC[N@H+](CC(=O)NCCCCNC(=O)c1ccc(-c2c3nc(c(-c4ccc(S(=O)(=O)[O-])cc4)c4ccc([nH]4)c(-c4ccc(S(=O)(=O)[O-])cc4)c4nc(c(-c5ccc(S(=O)(=O)[O-])cc5)c5ccc2[nH]5)C=C4)C=C3)cc1)[C@@H]1CC[N@@H+](C(C)C)C1
REMARK SMILES IDX 10 1 9 2 8 3 6 4 7 5 5 7 4 8 3 10 2 11 1 12 76 13 77 14
REMARK SMILES IDX 83 15 78 16 79 17 80 19 81 20 82 21 11 22 12 23 13 24 14 25
REMARK SMILES IDX 15 27 16 28 17 29 75 30 18 31 74 32 19 33 20 34 21 35 68 36
REMARK SMILES IDX 22 37 73 38 67 39 69 40 23 41 72 42 66 43 65 44 24 46 54 47
REMARK SMILES IDX 35 48 53 49 36 50 39 51 52 52 70 53 37 54 38 55 51 57 71 58
REMARK SMILES IDX 40 59 25 60 26 61 34 62 27 63 33 64 28 65 29 66 30 67 31 68
REMARK SMILES IDX 32 69 55 70 56 71 64 72 57 73 63 74 58 75 59 76 60 77 61 78
REMARK SMILES IDX 62 79 41 80 42 81 50 82 43 83 49 84 44 85 45 86 46 87 47 88
REMARK SMILES IDX 48 89
REMARK H PARENT 8 6 4 9 79 18 13 26 69 45 39 56
REMARK Flexibility Score: inf
ROOT
ATOM      1  C   UNL A   1      39.673  21.609  26.130  1.00  0.00     0.023 C 
ENDROOT
BRANCH   1   2
ATOM      2  C   UNL A   1      38.287  22.241  25.994  1.00  0.00     0.116 C 
BRANCH   2   3
ATOM      3  N   UNL A   1      37.847  22.387  24.623  1.00  0.00    -0.351 N 
ATOM      4  C   UNL A   1      36.673  22.930  24.170  1.00  0.00     0.275 C 
ATOM      5  O   UNL A   1      36.547  23.135  22.960  1.00  0.00    -0.269 OA
ATOM      6  H   UNL A   1      38.466  22.058  23.932  1.00  0.00     0.163 HD
BRANCH   4   7
ATOM      7  C   UNL A   1      35.557  23.295  25.160  1.00  0.00     0.364 C 
BRANCH   7   8
ATOM      8  N   UNL A   1      34.224  22.874  24.682  1.00  0.00    -0.317 N 
ATOM      9  H   UNL A   1      33.667  22.703  25.519  1.00  0.00     0.349 HD
BRANCH   8  10
ATOM     10  C   UNL A   1      33.519  23.962  24.008  1.00  0.00     0.291 C 
BRANCH  10  11
ATOM     11  C   UNL A   1      33.979  25.366  24.267  1.00  0.00     0.025 C 
ATOM     12  C   UNL A   1      33.351  26.471  23.842  1.00  0.00     0.010 C 
ENDBRANCH  10  11
ENDBRANCH   8  10
BRANCH   8  13
ATOM     13  C   UNL A   1      34.093  21.505  24.151  1.00  0.00     0.246 C 
ATOM     14  C   UNL A   1      32.658  20.988  23.999  1.00  0.00     0.132 C 
ATOM     15  C   UNL A   1      34.826  20.359  24.891  1.00  0.00     0.328 C 
ATOM     16  C   UNL A   1      32.550  19.839  24.983  1.00  0.00     0.269 C 
ATOM     17  N   UNL A   1      33.886  19.231  25.035  1.00  0.00    -0.328 N 
ATOM     18  H   UNL A   1      34.080  18.759  25.918  1.00  0.00     0.348 HD
BRANCH  17  19
ATOM     19  C   UNL A   1      34.046  18.081  24.123  1.00  0.00     0.177 C 
ATOM     20  C   UNL A   1      34.689  16.813  24.694  1.00  0.00     0.075 C 
ATOM     21  C   UNL A   1      32.721  17.720  23.439  1.00  0.00     0.075 C 
ENDBRANCH  17  19
ENDBRANCH   8  13
ENDBRANCH   7   8
ENDBRANCH   4   7
ENDBRANCH   2   3
ENDBRANCH   1   2
BRANCH   1  22
ATOM     22  C   UNL A   1      40.404  21.899  27.434  1.00  0.00     0.023 C 
BRANCH  22  23
ATOM     23  C   UNL A   1      41.540  22.905  27.339  1.00  0.00     0.116 C 
BRANCH  23  24
ATOM     24  N   UNL A   1      41.481  23.773  26.169  1.00  0.00    -0.352 N 
ATOM     25  C   UNL A   1      41.407  25.148  26.133  1.00  0.00     0.251 C 
ATOM     26  H   UNL A   1      41.494  23.319  25.296  1.00  0.00     0.163 HD
ATOM     27  O   UNL A   1      41.306  25.740  25.063  1.00  0.00    -0.269 OA
BRANCH  25  28
ATOM     28  C   UNL A   1      41.398  25.893  27.408  1.00  0.00     0.039 A 
ATOM     29  C   UNL A   1      42.504  26.674  27.747  1.00  0.00     0.014 A 
ATOM     30  C   UNL A   1      40.253  25.900  28.207  1.00  0.00     0.014 A 
ATOM     31  C   UNL A   1      42.423  27.540  28.839  1.00  0.00     0.010 A 
ATOM     32  C   UNL A   1      40.140  26.832  29.230  1.00  0.00     0.010 A 
ATOM     33  C   UNL A   1      41.222  27.664  29.556  1.00  0.00    -0.014 A 
BRANCH  33  34
ATOM     34  C   UNL A   1      41.065  28.653  30.652  1.00  0.00     0.031 A 
ATOM     35  C   UNL A   1      41.968  28.583  31.854  1.00  0.00     0.074 A 
ATOM     36  C   UNL A   1      40.061  29.554  30.610  1.00  0.00     0.049 A 
ATOM     37  N   UNL A   1      41.928  29.280  32.960  1.00  0.00    -0.248 NA
ATOM     38  C   UNL A   1      43.032  27.564  31.826  1.00  0.00     0.031 C 
ATOM     39  C   UNL A   1      39.084  29.690  29.527  1.00  0.00     0.029 A 
ATOM     40  N   UNL A   1      39.693  30.523  31.510  1.00  0.00    -0.354 N 
ATOM     41  C   UNL A   1      42.937  28.767  33.765  1.00  0.00     0.074 A 
ATOM     42  C   UNL A   1      43.533  27.662  33.047  1.00  0.00     0.031 C 
ATOM     43  C   UNL A   1      38.253  30.707  29.808  1.00  0.00     0.029 A 
ATOM     44  C   UNL A   1      38.610  31.269  31.107  1.00  0.00     0.049 A 
ATOM     45  H   UNL A   1      40.161  30.670  32.363  1.00  0.00     0.167 HD
ATOM     46  C   UNL A   1      43.351  29.191  34.982  1.00  0.00     0.031 A 
ATOM     47  C   UNL A   1      37.975  32.290  31.716  1.00  0.00     0.031 A 
ATOM     48  C   UNL A   1      42.780  30.310  35.679  1.00  0.00     0.049 A 
ATOM     49  C   UNL A   1      38.467  32.760  33.057  1.00  0.00     0.074 A 
ATOM     50  C   UNL A   1      43.166  30.861  36.888  1.00  0.00     0.029 A 
ATOM     51  N   UNL A   1      41.705  31.058  35.222  1.00  0.00    -0.354 N 
ATOM     52  N   UNL A   1      39.459  32.296  33.779  1.00  0.00    -0.248 NA
ATOM     53  C   UNL A   1      37.760  33.897  33.661  1.00  0.00     0.031 C 
ATOM     54  C   UNL A   1      42.301  31.922  37.178  1.00  0.00     0.029 A 
ATOM     55  C   UNL A   1      41.407  32.060  36.129  1.00  0.00     0.049 A 
ATOM     56  H   UNL A   1      41.225  30.900  34.377  1.00  0.00     0.167 HD
ATOM     57  C   UNL A   1      39.513  33.103  34.910  1.00  0.00     0.074 A 
ATOM     58  C   UNL A   1      38.461  34.090  34.771  1.00  0.00     0.031 C 
ATOM     59  C   UNL A   1      40.358  33.033  35.968  1.00  0.00     0.031 A 
BRANCH  46  60
ATOM     60  C   UNL A   1      44.484  28.436  35.625  1.00  0.00    -0.014 A 
ATOM     61  C   UNL A   1      44.236  27.322  36.448  1.00  0.00     0.010 A 
ATOM     62  C   UNL A   1      45.813  28.841  35.404  1.00  0.00     0.010 A 
ATOM     63  C   UNL A   1      45.291  26.660  37.081  1.00  0.00     0.020 A 
ATOM     64  C   UNL A   1      46.872  28.163  36.012  1.00  0.00     0.020 A 
ATOM     65  C   UNL A   1      46.602  27.092  36.866  1.00  0.00     0.054 A 
BRANCH  65  66
ATOM     66  S   UNL A   1      47.953  26.215  37.700  1.00  0.00     0.124 S 
ATOM     67  O   UNL A   1      48.717  25.695  36.567  1.00  0.00    -0.237 OA
ATOM     68  O   UNL A   1      48.606  27.277  38.461  1.00  0.00    -0.237 OA
ATOM     69  O   UNL A   1      47.268  25.207  38.504  1.00  0.00    -0.744 OA
ENDBRANCH  65  66
ENDBRANCH  46  60
BRANCH  47  70
ATOM     70  C   UNL A   1      36.830  32.961  31.045  1.00  0.00    -0.014 A 
ATOM     71  C   UNL A   1      35.512  32.697  31.460  1.00  0.00     0.010 A 
ATOM     72  C   UNL A   1      37.046  33.879  30.001  1.00  0.00     0.010 A 
ATOM     73  C   UNL A   1      34.431  33.324  30.834  1.00  0.00     0.020 A 
ATOM     74  C   UNL A   1      35.968  34.526  29.388  1.00  0.00     0.020 A 
ATOM     75  C   UNL A   1      34.666  34.236  29.801  1.00  0.00     0.054 A 
BRANCH  75  76
ATOM     76  S   UNL A   1      33.251  35.080  29.040  1.00  0.00     0.124 S 
ATOM     77  O   UNL A   1      32.404  35.354  30.197  1.00  0.00    -0.237 OA
ATOM     78  O   UNL A   1      33.875  36.248  28.420  1.00  0.00    -0.237 OA
ATOM     79  O   UNL A   1      32.730  34.091  28.100  1.00  0.00    -0.744 OA
ENDBRANCH  75  76
ENDBRANCH  47  70
BRANCH  59  80
ATOM     80  C   UNL A   1      40.204  34.073  37.043  1.00  0.00    -0.014 A 
ATOM     81  C   UNL A   1      40.921  35.281  36.993  1.00  0.00     0.010 A 
ATOM     82  C   UNL A   1      39.281  33.863  38.084  1.00  0.00     0.010 A 
ATOM     83  C   UNL A   1      40.736  36.252  37.981  1.00  0.00     0.020 A 
ATOM     84  C   UNL A   1      39.076  34.840  39.059  1.00  0.00     0.020 A 
ATOM     85  C   UNL A   1      39.814  36.024  39.008  1.00  0.00     0.054 A 
BRANCH  85  86
ATOM     86  S   UNL A   1      39.552  37.320  40.250  1.00  0.00     0.124 S 
ATOM     87  O   UNL A   1      40.049  36.681  41.465  1.00  0.00    -0.237 OA
ATOM     88  O   UNL A   1      40.365  38.423  39.742  1.00  0.00    -0.237 OA
ATOM     89  O   UNL A   1      38.109  37.550  40.210  1.00  0.00    -0.744 OA
ENDBRANCH  85  86
ENDBRANCH  59  80
ENDBRANCH  33  34
ENDBRANCH  25  28
ENDBRANCH  23  24
ENDBRANCH  22  23
ENDBRANCH   1  22
TORSDOF 19
ENDMDL
