MODEL 1
REMARK VINA RESULT:     -11.8      0.000      0.000
REMARK SMILES C[C@H]1CN(S(=O)(=O)N2CCO[C@H](CC(=O)NCCCCNC(=O)c3ccc(-c4c5nc(c(-c6ccc(S(=O)(=O)[O-])cc6)c6ccc([nH]6)c(-c6ccc(S(=O)(=O)[O-])cc6)c6nc(c(-c7ccc(S(=O)(=O)[O-])cc7)c7ccc4[nH]7)C=C6)C=C5)cc3)C2)C[C@H](C)O1
REMARK SMILES IDX 18 1 17 2 16 3 14 4 15 5 13 7 12 8 8 9 9 10 84 11 10 12
REMARK SMILES IDX 11 13 5 14 6 15 7 16 4 17 1 18 2 19 3 20 88 21 86 22 85 23
REMARK SMILES IDX 87 24 19 25 20 26 21 27 22 28 23 30 24 31 25 32 83 33 26 34
REMARK SMILES IDX 82 35 27 36 28 37 29 38 76 39 30 40 81 41 75 42 77 43 31 44
REMARK SMILES IDX 80 45 74 46 73 47 32 49 62 50 43 51 61 52 44 53 47 54 60 55
REMARK SMILES IDX 78 56 45 57 46 58 59 60 79 61 48 62 33 63 34 64 42 65 35 66
REMARK SMILES IDX 41 67 36 68 37 69 38 70 39 71 40 72 63 73 64 74 72 75 65 76
REMARK SMILES IDX 71 77 66 78 67 79 68 80 69 81 70 82 49 83 50 84 58 85 51 86
REMARK SMILES IDX 57 87 52 88 53 89 54 90 55 91 56 92
REMARK H PARENT 16 6 21 29 77 48 47 59
REMARK Flexibility Score: inf
ROOT
ATOM      1  C   UNL A   1      38.966  22.685  26.126  1.00  0.00     0.023 C 
ENDROOT
BRANCH   1   2
ATOM      2  C   UNL A   1      37.896  21.698  25.650  1.00  0.00     0.116 C 
BRANCH   2   3
ATOM      3  N   UNL A   1      37.393  22.043  24.338  1.00  0.00    -0.356 N 
ATOM      4  C   UNL A   1      36.516  23.012  23.966  1.00  0.00     0.222 C 
ATOM      5  O   UNL A   1      36.330  23.207  22.763  1.00  0.00    -0.275 OA
ATOM      6  H   UNL A   1      37.740  21.491  23.600  1.00  0.00     0.163 HD
BRANCH   4   7
ATOM      7  C   UNL A   1      35.803  23.835  25.009  1.00  0.00     0.133 C 
BRANCH   7   8
ATOM      8  C   UNL A   1      34.593  23.124  25.619  1.00  0.00     0.142 C 
ATOM      9  N   UNL A   1      32.559  23.349  27.006  1.00  0.00    -0.184 NA
ATOM     10  C   UNL A   1      33.044  22.298  27.924  1.00  0.00     0.132 C 
ATOM     11  C   UNL A   1      33.671  24.067  26.384  1.00  0.00     0.136 C 
ATOM     12  C   UNL A   1      34.005  21.363  27.183  1.00  0.00     0.177 C 
ATOM     13  O   UNL A   1      35.027  22.022  26.427  1.00  0.00    -0.375 OA
BRANCH   9  14
ATOM     14  S   UNL A   1      31.075  23.246  26.266  1.00  0.00     0.282 S 
ATOM     15  O   UNL A   1      30.064  23.709  27.180  1.00  0.00    -0.195 OA
ATOM     16  O   UNL A   1      31.011  21.933  25.658  1.00  0.00    -0.195 OA
BRANCH  14  17
ATOM     17  N   UNL A   1      31.234  24.368  25.034  1.00  0.00    -0.184 NA
ATOM     18  C   UNL A   1      30.982  28.103  24.523  1.00  0.00     0.040 C 
ATOM     19  C   UNL A   1      31.351  26.649  24.285  1.00  0.00     0.130 C 
ATOM     20  C   UNL A   1      30.537  25.677  25.152  1.00  0.00     0.135 C 
ATOM     21  O   UNL A   1      31.154  26.288  22.904  1.00  0.00    -0.373 OA
ATOM     22  C   UNL A   1      31.548  24.921  22.621  1.00  0.00     0.130 C 
ATOM     23  C   UNL A   1      31.029  23.873  23.643  1.00  0.00     0.135 C 
ATOM     24  C   UNL A   1      33.060  24.823  22.426  1.00  0.00     0.040 C 
ENDBRANCH  14  17
ENDBRANCH   9  14
ENDBRANCH   7   8
ENDBRANCH   4   7
ENDBRANCH   2   3
ENDBRANCH   1   2
BRANCH   1  25
ATOM     25  C   UNL A   1      40.098  22.048  26.905  1.00  0.00     0.023 C 
BRANCH  25  26
ATOM     26  C   UNL A   1      41.167  23.040  27.295  1.00  0.00     0.116 C 
BRANCH  26  27
ATOM     27  N   UNL A   1      41.631  23.815  26.147  1.00  0.00    -0.352 N 
ATOM     28  C   UNL A   1      41.770  25.179  26.056  1.00  0.00     0.251 C 
ATOM     29  H   UNL A   1      41.873  23.299  25.345  1.00  0.00     0.163 HD
ATOM     30  O   UNL A   1      41.926  25.729  24.974  1.00  0.00    -0.269 OA
BRANCH  28  31
ATOM     31  C   UNL A   1      41.701  25.946  27.309  1.00  0.00     0.039 A 
ATOM     32  C   UNL A   1      42.732  26.819  27.644  1.00  0.00     0.014 A 
ATOM     33  C   UNL A   1      40.525  25.888  28.063  1.00  0.00     0.014 A 
ATOM     34  C   UNL A   1      42.550  27.690  28.715  1.00  0.00     0.010 A 
ATOM     35  C   UNL A   1      40.291  26.854  29.022  1.00  0.00     0.010 A 
ATOM     36  C   UNL A   1      41.313  27.742  29.383  1.00  0.00    -0.014 A 
BRANCH  36  37
ATOM     37  C   UNL A   1      41.072  28.676  30.505  1.00  0.00     0.031 A 
ATOM     38  C   UNL A   1      41.905  28.544  31.753  1.00  0.00     0.074 A 
ATOM     39  C   UNL A   1      40.084  29.588  30.424  1.00  0.00     0.049 A 
ATOM     40  N   UNL A   1      41.809  29.201  32.878  1.00  0.00    -0.248 NA
ATOM     41  C   UNL A   1      42.959  27.510  31.754  1.00  0.00     0.031 C 
ATOM     42  C   UNL A   1      39.177  29.766  29.286  1.00  0.00     0.029 A 
ATOM     43  N   UNL A   1      39.675  30.540  31.322  1.00  0.00    -0.354 N 
ATOM     44  C   UNL A   1      42.779  28.656  33.711  1.00  0.00     0.074 A 
ATOM     45  C   UNL A   1      43.392  27.560  33.003  1.00  0.00     0.031 C 
ATOM     46  C   UNL A   1      38.346  30.788  29.541  1.00  0.00     0.029 A 
ATOM     47  C   UNL A   1      38.624  31.307  30.875  1.00  0.00     0.049 A 
ATOM     48  H   UNL A   1      40.094  30.662  32.205  1.00  0.00     0.167 HD
ATOM     49  C   UNL A   1      43.159  29.062  34.944  1.00  0.00     0.031 A 
ATOM     50  C   UNL A   1      37.959  32.308  31.481  1.00  0.00     0.031 A 
ATOM     51  C   UNL A   1      42.561  30.170  35.634  1.00  0.00     0.049 A 
ATOM     52  C   UNL A   1      38.389  32.729  32.862  1.00  0.00     0.074 A 
ATOM     53  C   UNL A   1      42.893  30.692  36.870  1.00  0.00     0.029 A 
ATOM     54  N   UNL A   1      41.515  30.934  35.140  1.00  0.00    -0.354 N 
ATOM     55  N   UNL A   1      39.352  32.240  33.609  1.00  0.00    -0.248 NA
ATOM     56  C   UNL A   1      37.655  33.843  33.475  1.00  0.00     0.031 C 
ATOM     57  C   UNL A   1      42.011  31.739  37.147  1.00  0.00     0.029 A 
ATOM     58  C   UNL A   1      41.176  31.914  36.054  1.00  0.00     0.049 A 
ATOM     59  H   UNL A   1      41.078  30.799  34.268  1.00  0.00     0.167 HD
ATOM     60  C   UNL A   1      39.359  33.011  34.767  1.00  0.00     0.074 A 
ATOM     61  C   UNL A   1      38.321  34.010  34.609  1.00  0.00     0.031 C 
ATOM     62  C   UNL A   1      40.148  32.904  35.864  1.00  0.00     0.031 A 
BRANCH  49  63
ATOM     63  C   UNL A   1      44.290  28.321  35.605  1.00  0.00    -0.014 A 
ATOM     64  C   UNL A   1      45.623  28.737  35.431  1.00  0.00     0.010 A 
ATOM     65  C   UNL A   1      44.017  27.235  36.455  1.00  0.00     0.010 A 
ATOM     66  C   UNL A   1      46.664  28.067  36.074  1.00  0.00     0.020 A 
ATOM     67  C   UNL A   1      45.053  26.581  37.127  1.00  0.00     0.020 A 
ATOM     68  C   UNL A   1      46.372  26.996  36.925  1.00  0.00     0.054 A 
BRANCH  68  69
ATOM     69  S   UNL A   1      47.741  26.189  37.798  1.00  0.00     0.124 S 
ATOM     70  O   UNL A   1      48.778  26.162  36.771  1.00  0.00    -0.237 OA
ATOM     71  O   UNL A   1      47.987  27.100  38.913  1.00  0.00    -0.237 OA
ATOM     72  O   UNL A   1      47.197  24.886  38.168  1.00  0.00    -0.744 OA
ENDBRANCH  68  69
ENDBRANCH  49  63
BRANCH  50  73
ATOM     73  C   UNL A   1      36.816  32.977  30.798  1.00  0.00    -0.014 A 
ATOM     74  C   UNL A   1      37.034  33.907  29.766  1.00  0.00     0.010 A 
ATOM     75  C   UNL A   1      35.494  32.706  31.200  1.00  0.00     0.010 A 
ATOM     76  C   UNL A   1      35.960  34.587  29.183  1.00  0.00     0.020 A 
ATOM     77  C   UNL A   1      34.415  33.355  30.595  1.00  0.00     0.020 A 
ATOM     78  C   UNL A   1      34.657  34.309  29.606  1.00  0.00     0.054 A 
BRANCH  78  79
ATOM     79  S   UNL A   1      33.277  35.199  28.836  1.00  0.00     0.124 S 
ATOM     80  O   UNL A   1      32.687  34.168  27.987  1.00  0.00    -0.237 OA
ATOM     81  O   UNL A   1      32.478  35.603  29.991  1.00  0.00    -0.237 OA
ATOM     82  O   UNL A   1      33.931  36.296  28.126  1.00  0.00    -0.744 OA
ENDBRANCH  78  79
ENDBRANCH  50  73
BRANCH  62  83
ATOM     83  C   UNL A   1      39.955  33.919  36.959  1.00  0.00    -0.014 A 
ATOM     84  C   UNL A   1      40.598  35.168  36.921  1.00  0.00     0.010 A 
ATOM     85  C   UNL A   1      39.063  33.635  38.010  1.00  0.00     0.010 A 
ATOM     86  C   UNL A   1      40.379  36.102  37.936  1.00  0.00     0.020 A 
ATOM     87  C   UNL A   1      38.814  34.580  39.006  1.00  0.00     0.020 A 
ATOM     88  C   UNL A   1      39.486  35.803  38.971  1.00  0.00     0.054 A 
BRANCH  88  89
ATOM     89  S   UNL A   1      39.188  37.052  40.249  1.00  0.00     0.124 S 
ATOM     90  O   UNL A   1      38.353  36.322  41.198  1.00  0.00    -0.237 OA
ATOM     91  O   UNL A   1      40.538  37.367  40.708  1.00  0.00    -0.237 OA
ATOM     92  O   UNL A   1      38.514  38.131  39.529  1.00  0.00    -0.744 OA
ENDBRANCH  88  89
ENDBRANCH  62  83
ENDBRANCH  36  37
ENDBRANCH  28  31
ENDBRANCH  26  27
ENDBRANCH  25  26
ENDBRANCH   1  25
TORSDOF 17
ENDMDL
MODEL 2
REMARK VINA RESULT:     -11.6      4.128     10.104
REMARK SMILES C[C@H]1CN(S(=O)(=O)N2CCO[C@H](CC(=O)NCCCCNC(=O)c3ccc(-c4c5nc(c(-c6ccc(S(=O)(=O)[O-])cc6)c6ccc([nH]6)c(-c6ccc(S(=O)(=O)[O-])cc6)c6nc(c(-c7ccc(S(=O)(=O)[O-])cc7)c7ccc4[nH]7)C=C6)C=C5)cc3)C2)C[C@H](C)O1
REMARK SMILES IDX 18 1 17 2 16 3 14 4 15 5 13 7 12 8 8 9 9 10 84 11 10 12
REMARK SMILES IDX 11 13 5 14 6 15 7 16 4 17 1 18 2 19 3 20 88 21 86 22 85 23
REMARK SMILES IDX 87 24 19 25 20 26 21 27 22 28 23 30 24 31 25 32 83 33 26 34
REMARK SMILES IDX 82 35 27 36 28 37 29 38 76 39 30 40 81 41 75 42 77 43 31 44
REMARK SMILES IDX 80 45 74 46 73 47 32 49 62 50 43 51 61 52 44 53 47 54 60 55
REMARK SMILES IDX 78 56 45 57 46 58 59 60 79 61 48 62 33 63 34 64 42 65 35 66
REMARK SMILES IDX 41 67 36 68 37 69 38 70 39 71 40 72 63 73 64 74 72 75 65 76
REMARK SMILES IDX 71 77 66 78 67 79 68 80 69 81 70 82 49 83 50 84 58 85 51 86
REMARK SMILES IDX 57 87 52 88 53 89 54 90 55 91 56 92
REMARK H PARENT 16 6 21 29 77 48 47 59
REMARK Flexibility Score: inf
ROOT
ATOM      1  C   UNL A   1      31.522  29.706  26.275  1.00  0.00     0.023 C 
ENDROOT
BRANCH   1   2
ATOM      2  C   UNL A   1      31.385  29.588  24.754  1.00  0.00     0.116 C 
BRANCH   2   3
ATOM      3  N   UNL A   1      32.674  29.487  24.105  1.00  0.00    -0.356 N 
ATOM      4  C   UNL A   1      33.085  28.668  23.102  1.00  0.00     0.222 C 
ATOM      5  O   UNL A   1      34.202  28.848  22.615  1.00  0.00    -0.275 OA
ATOM      6  H   UNL A   1      33.360  30.108  24.441  1.00  0.00     0.163 HD
BRANCH   4   7
ATOM      7  C   UNL A   1      32.179  27.575  22.592  1.00  0.00     0.133 C 
BRANCH   7   8
ATOM      8  C   UNL A   1      32.465  26.208  23.220  1.00  0.00     0.142 C 
ATOM      9  N   UNL A   1      31.868  23.810  23.290  1.00  0.00    -0.184 NA
ATOM     10  C   UNL A   1      31.608  23.897  24.742  1.00  0.00     0.132 C 
ATOM     11  C   UNL A   1      31.615  25.091  22.627  1.00  0.00     0.136 C 
ATOM     12  C   UNL A   1      32.424  25.042  25.349  1.00  0.00     0.177 C 
ATOM     13  O   UNL A   1      32.334  26.287  24.646  1.00  0.00    -0.375 OA
BRANCH   9  14
ATOM     14  S   UNL A   1      32.934  22.706  22.656  1.00  0.00     0.282 S 
ATOM     15  O   UNL A   1      33.693  23.337  21.608  1.00  0.00    -0.195 OA
ATOM     16  O   UNL A   1      32.177  21.493  22.424  1.00  0.00    -0.195 OA
BRANCH  14  17
ATOM     17  N   UNL A   1      33.949  22.429  23.957  1.00  0.00    -0.184 NA
ATOM     18  C   UNL A   1      37.165  23.781  25.408  1.00  0.00     0.040 C 
ATOM     19  C   UNL A   1      35.831  23.061  25.311  1.00  0.00     0.130 C 
ATOM     20  C   UNL A   1      35.376  22.838  23.862  1.00  0.00     0.135 C 
ATOM     21  O   UNL A   1      35.892  21.777  25.963  1.00  0.00    -0.373 OA
ATOM     22  C   UNL A   1      34.622  21.078  25.943  1.00  0.00     0.130 C 
ATOM     23  C   UNL A   1      33.909  21.068  24.563  1.00  0.00     0.135 C 
ATOM     24  C   UNL A   1      33.705  21.590  27.052  1.00  0.00     0.040 C 
ENDBRANCH  14  17
ENDBRANCH   9  14
ENDBRANCH   7   8
ENDBRANCH   4   7
ENDBRANCH   2   3
ENDBRANCH   1   2
BRANCH   1  25
ATOM     25  C   UNL A   1      32.355  28.613  26.912  1.00  0.00     0.023 C 
BRANCH  25  26
ATOM     26  C   UNL A   1      33.754  29.069  27.249  1.00  0.00     0.116 C 
BRANCH  26  27
ATOM     27  N   UNL A   1      33.774  30.451  27.721  1.00  0.00    -0.352 N 
ATOM     28  C   UNL A   1      34.742  31.066  28.478  1.00  0.00     0.251 C 
ATOM     29  H   UNL A   1      33.004  31.008  27.466  1.00  0.00     0.163 HD
ATOM     30  O   UNL A   1      34.535  32.143  29.020  1.00  0.00    -0.269 OA
BRANCH  28  31
ATOM     31  C   UNL A   1      36.026  30.363  28.625  1.00  0.00     0.039 A 
ATOM     32  C   UNL A   1      36.974  30.433  27.609  1.00  0.00     0.014 A 
ATOM     33  C   UNL A   1      36.320  29.761  29.852  1.00  0.00     0.014 A 
ATOM     34  C   UNL A   1      38.256  29.947  27.854  1.00  0.00     0.010 A 
ATOM     35  C   UNL A   1      37.629  29.423  30.141  1.00  0.00     0.010 A 
ATOM     36  C   UNL A   1      38.602  29.479  29.134  1.00  0.00    -0.014 A 
BRANCH  36  37
ATOM     37  C   UNL A   1      39.963  28.984  29.441  1.00  0.00     0.031 A 
ATOM     38  C   UNL A   1      40.935  29.907  30.127  1.00  0.00     0.074 A 
ATOM     39  C   UNL A   1      40.333  27.748  29.057  1.00  0.00     0.049 A 
ATOM     40  N   UNL A   1      42.193  29.708  30.416  1.00  0.00    -0.248 NA
ATOM     41  C   UNL A   1      40.442  31.247  30.502  1.00  0.00     0.031 C 
ATOM     42  C   UNL A   1      39.492  26.789  28.334  1.00  0.00     0.029 A 
ATOM     43  N   UNL A   1      41.521  27.083  29.221  1.00  0.00    -0.354 N 
ATOM     44  C   UNL A   1      42.635  30.891  30.995  1.00  0.00     0.074 A 
ATOM     45  C   UNL A   1      41.545  31.834  30.938  1.00  0.00     0.031 C 
ATOM     46  C   UNL A   1      40.177  25.650  28.152  1.00  0.00     0.029 A 
ATOM     47  C   UNL A   1      41.520  25.811  28.698  1.00  0.00     0.049 A 
ATOM     48  H   UNL A   1      42.302  27.480  29.671  1.00  0.00     0.167 HD
ATOM     49  C   UNL A   1      43.831  31.157  31.567  1.00  0.00     0.031 A 
ATOM     50  C   UNL A   1      42.498  24.886  28.658  1.00  0.00     0.031 A 
ATOM     51  C   UNL A   1      44.903  30.206  31.643  1.00  0.00     0.049 A 
ATOM     52  C   UNL A   1      43.827  25.214  29.286  1.00  0.00     0.074 A 
ATOM     53  C   UNL A   1      46.144  30.356  32.233  1.00  0.00     0.029 A 
ATOM     54  N   UNL A   1      44.856  28.923  31.121  1.00  0.00    -0.354 N 
ATOM     55  N   UNL A   1      44.205  26.320  29.886  1.00  0.00    -0.248 NA
ATOM     56  C   UNL A   1      44.857  24.167  29.246  1.00  0.00     0.031 C 
ATOM     57  C   UNL A   1      46.868  29.181  32.021  1.00  0.00     0.029 A 
ATOM     58  C   UNL A   1      46.053  28.274  31.361  1.00  0.00     0.049 A 
ATOM     59  H   UNL A   1      44.085  28.531  30.649  1.00  0.00     0.167 HD
ATOM     60  C   UNL A   1      45.505  26.087  30.322  1.00  0.00     0.074 A 
ATOM     61  C   UNL A   1      45.837  24.730  29.937  1.00  0.00     0.031 C 
ATOM     62  C   UNL A   1      46.351  26.918  30.979  1.00  0.00     0.031 A 
BRANCH  49  63
ATOM     63  C   UNL A   1      44.025  32.518  32.179  1.00  0.00    -0.014 A 
ATOM     64  C   UNL A   1      44.482  33.599  31.402  1.00  0.00     0.010 A 
ATOM     65  C   UNL A   1      43.694  32.737  33.528  1.00  0.00     0.010 A 
ATOM     66  C   UNL A   1      44.627  34.866  31.968  1.00  0.00     0.020 A 
ATOM     67  C   UNL A   1      43.808  34.011  34.090  1.00  0.00     0.020 A 
ATOM     68  C   UNL A   1      44.282  35.067  33.308  1.00  0.00     0.054 A 
BRANCH  68  69
ATOM     69  S   UNL A   1      44.419  36.739  33.994  1.00  0.00     0.124 S 
ATOM     70  O   UNL A   1      45.577  37.265  33.275  1.00  0.00    -0.237 OA
ATOM     71  O   UNL A   1      43.135  37.335  33.636  1.00  0.00    -0.237 OA
ATOM     72  O   UNL A   1      44.623  36.513  35.422  1.00  0.00    -0.744 OA
ENDBRANCH  68  69
ENDBRANCH  49  63
BRANCH  50  73
ATOM     73  C   UNL A   1      42.266  23.570  27.999  1.00  0.00    -0.014 A 
ATOM     74  C   UNL A   1      41.948  22.428  28.755  1.00  0.00     0.010 A 
ATOM     75  C   UNL A   1      42.392  23.447  26.602  1.00  0.00     0.010 A 
ATOM     76  C   UNL A   1      41.807  21.182  28.136  1.00  0.00     0.020 A 
ATOM     77  C   UNL A   1      42.216  22.211  25.975  1.00  0.00     0.020 A 
ATOM     78  C   UNL A   1      41.947  21.082  26.748  1.00  0.00     0.054 A 
BRANCH  78  79
ATOM     79  S   UNL A   1      41.759  19.457  25.963  1.00  0.00     0.124 S 
ATOM     80  O   UNL A   1      40.367  19.492  25.526  1.00  0.00    -0.237 OA
ATOM     81  O   UNL A   1      42.759  19.503  24.900  1.00  0.00    -0.237 OA
ATOM     82  O   UNL A   1      42.053  18.519  27.045  1.00  0.00    -0.744 OA
ENDBRANCH  78  79
ENDBRANCH  50  73
BRANCH  62  83
ATOM     83  C   UNL A   1      47.698  26.371  31.366  1.00  0.00    -0.014 A 
ATOM     84  C   UNL A   1      47.928  25.825  32.641  1.00  0.00     0.010 A 
ATOM     85  C   UNL A   1      48.732  26.348  30.411  1.00  0.00     0.010 A 
ATOM     86  C   UNL A   1      49.180  25.298  32.965  1.00  0.00     0.020 A 
ATOM     87  C   UNL A   1      49.974  25.790  30.720  1.00  0.00     0.020 A 
ATOM     88  C   UNL A   1      50.194  25.282  32.002  1.00  0.00     0.054 A 
BRANCH  88  89
ATOM     89  S   UNL A   1      51.794  24.551  32.436  1.00  0.00     0.124 S 
ATOM     90  O   UNL A   1      51.868  24.811  33.871  1.00  0.00    -0.237 OA
ATOM     91  O   UNL A   1      51.619  23.152  32.058  1.00  0.00    -0.237 OA
ATOM     92  O   UNL A   1      52.750  25.297  31.620  1.00  0.00    -0.744 OA
ENDBRANCH  88  89
ENDBRANCH  62  83
ENDBRANCH  36  37
ENDBRANCH  28  31
ENDBRANCH  26  27
ENDBRANCH  25  26
ENDBRANCH   1  25
TORSDOF 17
ENDMDL
MODEL 3
REMARK VINA RESULT:     -11.4      2.552      8.837
REMARK SMILES C[C@H]1CN(S(=O)(=O)N2CCO[C@H](CC(=O)NCCCCNC(=O)c3ccc(-c4c5nc(c(-c6ccc(S(=O)(=O)[O-])cc6)c6ccc([nH]6)c(-c6ccc(S(=O)(=O)[O-])cc6)c6nc(c(-c7ccc(S(=O)(=O)[O-])cc7)c7ccc4[nH]7)C=C6)C=C5)cc3)C2)C[C@H](C)O1
REMARK SMILES IDX 18 1 17 2 16 3 14 4 15 5 13 7 12 8 8 9 9 10 84 11 10 12
REMARK SMILES IDX 11 13 5 14 6 15 7 16 4 17 1 18 2 19 3 20 88 21 86 22 85 23
REMARK SMILES IDX 87 24 19 25 20 26 21 27 22 28 23 30 24 31 25 32 83 33 26 34
REMARK SMILES IDX 82 35 27 36 28 37 29 38 76 39 30 40 81 41 75 42 77 43 31 44
REMARK SMILES IDX 80 45 74 46 73 47 32 49 62 50 43 51 61 52 44 53 47 54 60 55
REMARK SMILES IDX 78 56 45 57 46 58 59 60 79 61 48 62 33 63 34 64 42 65 35 66
REMARK SMILES IDX 41 67 36 68 37 69 38 70 39 71 40 72 63 73 64 74 72 75 65 76
REMARK SMILES IDX 71 77 66 78 67 79 68 80 69 81 70 82 49 83 50 84 58 85 51 86
REMARK SMILES IDX 57 87 52 88 53 89 54 90 55 91 56 92
REMARK H PARENT 16 6 21 29 77 48 47 59
REMARK Flexibility Score: inf
ROOT
ATOM      1  C   UNL A   1      35.292  30.930  27.831  1.00  0.00     0.023 C 
ENDROOT
BRANCH   1   2
ATOM      2  C   UNL A   1      34.886  29.465  27.645  1.00  0.00     0.116 C 
BRANCH   2   3
ATOM      3  N   UNL A   1      33.454  29.287  27.739  1.00  0.00    -0.356 N 
ATOM      4  C   UNL A   1      32.667  28.277  27.286  1.00  0.00     0.222 C 
ATOM      5  O   UNL A   1      31.475  28.275  27.597  1.00  0.00    -0.275 OA
ATOM      6  H   UNL A   1      32.974  30.011  28.205  1.00  0.00     0.163 HD
BRANCH   4   7
ATOM      7  C   UNL A   1      33.254  27.178  26.437  1.00  0.00     0.133 C 
BRANCH   7   8
ATOM      8  C   UNL A   1      32.931  27.325  24.948  1.00  0.00     0.142 C 
ATOM      9  N   UNL A   1      33.551  26.703  22.637  1.00  0.00    -0.184 NA
ATOM     10  C   UNL A   1      33.681  28.128  22.266  1.00  0.00     0.132 C 
ATOM     11  C   UNL A   1      33.845  26.493  24.055  1.00  0.00     0.136 C 
ATOM     12  C   UNL A   1      32.801  28.985  23.180  1.00  0.00     0.177 C 
ATOM     13  O   UNL A   1      32.935  28.711  24.580  1.00  0.00    -0.375 OA
BRANCH   9  14
ATOM     14  S   UNL A   1      32.559  25.668  21.798  1.00  0.00     0.282 S 
ATOM     15  O   UNL A   1      33.294  25.110  20.693  1.00  0.00    -0.195 OA
ATOM     16  O   UNL A   1      31.307  26.369  21.604  1.00  0.00    -0.195 OA
BRANCH  14  17
ATOM     17  N   UNL A   1      32.296  24.462  22.928  1.00  0.00    -0.184 NA
ATOM     18  C   UNL A   1      33.969  21.318  24.190  1.00  0.00     0.040 C 
ATOM     19  C   UNL A   1      33.057  22.532  24.141  1.00  0.00     0.130 C 
ATOM     20  C   UNL A   1      32.941  23.135  22.734  1.00  0.00     0.135 C 
ATOM     21  O   UNL A   1      31.731  22.197  24.595  1.00  0.00    -0.373 OA
ATOM     22  C   UNL A   1      30.841  23.342  24.617  1.00  0.00     0.130 C 
ATOM     23  C   UNL A   1      30.884  24.221  23.337  1.00  0.00     0.135 C 
ATOM     24  C   UNL A   1      31.059  24.172  25.881  1.00  0.00     0.040 C 
ENDBRANCH  14  17
ENDBRANCH   9  14
ENDBRANCH   7   8
ENDBRANCH   4   7
ENDBRANCH   2   3
ENDBRANCH   1   2
BRANCH   1  25
ATOM     25  C   UNL A   1      34.139  31.909  27.758  1.00  0.00     0.023 C 
BRANCH  25  26
ATOM     26  C   UNL A   1      34.598  33.347  27.709  1.00  0.00     0.116 C 
BRANCH  26  27
ATOM     27  N   UNL A   1      33.681  34.233  28.421  1.00  0.00    -0.352 N 
ATOM     28  C   UNL A   1      33.588  34.429  29.777  1.00  0.00     0.251 C 
ATOM     29  H   UNL A   1      33.057  34.750  27.863  1.00  0.00     0.163 HD
ATOM     30  O   UNL A   1      32.624  35.000  30.271  1.00  0.00    -0.269 OA
BRANCH  28  31
ATOM     31  C   UNL A   1      34.683  33.905  30.608  1.00  0.00     0.039 A 
ATOM     32  C   UNL A   1      34.547  32.669  31.234  1.00  0.00     0.014 A 
ATOM     33  C   UNL A   1      35.896  34.599  30.628  1.00  0.00     0.014 A 
ATOM     34  C   UNL A   1      35.666  32.095  31.833  1.00  0.00     0.010 A 
ATOM     35  C   UNL A   1      37.031  33.959  31.086  1.00  0.00     0.010 A 
ATOM     36  C   UNL A   1      36.923  32.717  31.726  1.00  0.00    -0.014 A 
BRANCH  36  37
ATOM     37  C   UNL A   1      38.139  32.122  32.323  1.00  0.00     0.031 A 
ATOM     38  C   UNL A   1      38.551  32.544  33.708  1.00  0.00     0.074 A 
ATOM     39  C   UNL A   1      38.890  31.263  31.608  1.00  0.00     0.049 A 
ATOM     40  N   UNL A   1      39.617  32.211  34.386  1.00  0.00    -0.248 NA
ATOM     41  C   UNL A   1      37.670  33.497  34.412  1.00  0.00     0.031 C 
ATOM     42  C   UNL A   1      38.619  30.829  30.233  1.00  0.00     0.029 A 
ATOM     43  N   UNL A   1      40.043  30.598  31.939  1.00  0.00    -0.354 N 
ATOM     44  C   UNL A   1      39.534  32.915  35.581  1.00  0.00     0.074 A 
ATOM     45  C   UNL A   1      38.367  33.760  35.505  1.00  0.00     0.031 C 
ATOM     46  C   UNL A   1      39.555  29.945  29.857  1.00  0.00     0.029 A 
ATOM     47  C   UNL A   1      40.521  29.785  30.938  1.00  0.00     0.049 A 
ATOM     48  H   UNL A   1      40.488  30.696  32.812  1.00  0.00     0.167 HD
ATOM     49  C   UNL A   1      40.334  32.833  36.668  1.00  0.00     0.031 A 
ATOM     50  C   UNL A   1      41.619  29.007  30.899  1.00  0.00     0.031 A 
ATOM     51  C   UNL A   1      41.480  31.971  36.746  1.00  0.00     0.049 A 
ATOM     52  C   UNL A   1      42.504  28.947  32.116  1.00  0.00     0.074 A 
ATOM     53  C   UNL A   1      42.339  31.780  37.812  1.00  0.00     0.029 A 
ATOM     54  N   UNL A   1      41.917  31.148  35.720  1.00  0.00    -0.354 N 
ATOM     55  N   UNL A   1      42.373  29.575  33.262  1.00  0.00    -0.248 NA
ATOM     56  C   UNL A   1      43.676  28.065  32.042  1.00  0.00     0.031 C 
ATOM     57  C   UNL A   1      43.329  30.880  37.412  1.00  0.00     0.029 A 
ATOM     58  C   UNL A   1      43.046  30.458  36.122  1.00  0.00     0.049 A 
ATOM     59  H   UNL A   1      41.489  31.067  34.837  1.00  0.00     0.167 HD
ATOM     60  C   UNL A   1      43.429  29.137  34.055  1.00  0.00     0.074 A 
ATOM     61  C   UNL A   1      44.172  28.175  33.266  1.00  0.00     0.031 C 
ATOM     62  C   UNL A   1      43.758  29.496  35.320  1.00  0.00     0.031 A 
BRANCH  49  63
ATOM     63  C   UNL A   1      39.977  33.674  37.864  1.00  0.00    -0.014 A 
ATOM     64  C   UNL A   1      39.062  33.207  38.827  1.00  0.00     0.010 A 
ATOM     65  C   UNL A   1      40.601  34.919  38.059  1.00  0.00     0.010 A 
ATOM     66  C   UNL A   1      38.762  33.977  39.950  1.00  0.00     0.020 A 
ATOM     67  C   UNL A   1      40.327  35.679  39.199  1.00  0.00     0.020 A 
ATOM     68  C   UNL A   1      39.402  35.207  40.134  1.00  0.00     0.054 A 
BRANCH  68  69
ATOM     69  S   UNL A   1      39.039  36.153  41.637  1.00  0.00     0.124 S 
ATOM     70  O   UNL A   1      38.859  37.502  41.108  1.00  0.00    -0.237 OA
ATOM     71  O   UNL A   1      37.827  35.507  42.134  1.00  0.00    -0.237 OA
ATOM     72  O   UNL A   1      40.228  35.962  42.463  1.00  0.00    -0.744 OA
ENDBRANCH  68  69
ENDBRANCH  49  63
BRANCH  50  73
ATOM     73  C   UNL A   1      41.950  28.229  29.672  1.00  0.00    -0.014 A 
ATOM     74  C   UNL A   1      42.733  28.791  28.648  1.00  0.00     0.010 A 
ATOM     75  C   UNL A   1      41.454  26.921  29.509  1.00  0.00     0.010 A 
ATOM     76  C   UNL A   1      42.974  28.081  27.468  1.00  0.00     0.020 A 
ATOM     77  C   UNL A   1      41.723  26.194  28.347  1.00  0.00     0.020 A 
ATOM     78  C   UNL A   1      42.462  26.788  27.323  1.00  0.00     0.054 A 
BRANCH  78  79
ATOM     79  S   UNL A   1      42.788  25.883  25.785  1.00  0.00     0.124 S 
ATOM     80  O   UNL A   1      42.321  24.541  26.119  1.00  0.00    -0.237 OA
ATOM     81  O   UNL A   1      41.978  26.613  24.813  1.00  0.00    -0.237 OA
ATOM     82  O   UNL A   1      44.232  26.018  25.608  1.00  0.00    -0.744 OA
ENDBRANCH  78  79
ENDBRANCH  50  73
BRANCH  62  83
ATOM     83  C   UNL A   1      44.943  28.814  35.948  1.00  0.00    -0.014 A 
ATOM     84  C   UNL A   1      46.232  29.368  35.871  1.00  0.00     0.010 A 
ATOM     85  C   UNL A   1      44.746  27.629  36.682  1.00  0.00     0.010 A 
ATOM     86  C   UNL A   1      47.311  28.729  36.486  1.00  0.00     0.020 A 
ATOM     87  C   UNL A   1      45.815  27.007  37.328  1.00  0.00     0.020 A 
ATOM     88  C   UNL A   1      47.094  27.553  37.213  1.00  0.00     0.054 A 
BRANCH  88  89
ATOM     89  S   UNL A   1      48.504  26.770  38.039  1.00  0.00     0.124 S 
ATOM     90  O   UNL A   1      49.476  26.672  36.954  1.00  0.00    -0.237 OA
ATOM     91  O   UNL A   1      48.830  27.729  39.091  1.00  0.00    -0.237 OA
ATOM     92  O   UNL A   1      47.967  25.496  38.510  1.00  0.00    -0.744 OA
ENDBRANCH  88  89
ENDBRANCH  62  83
ENDBRANCH  36  37
ENDBRANCH  28  31
ENDBRANCH  26  27
ENDBRANCH  25  26
ENDBRANCH   1  25
TORSDOF 17
ENDMDL
