MODEL 1
REMARK VINA RESULT:     -11.9      0.000      0.000
REMARK SMILES Cc1n[nH]c(C(=O)Nc2cc(C(=O)NCCCCNC(=O)c3ccc(-c4c5nc(c(-c6ccc(S(=O)(=O)[O-])cc6)c6ccc([nH]6)c(-c6ccc(S(=O)(=O)[O-])cc6)c6nc(c(-c7ccc(S(=O)(=O)[O-])cc7)c7ccc4[nH]7)C=C6)C=C5)cc3)[nH]n2)n1
REMARK SMILES IDX 17 1 16 2 15 3 14 4 12 5 13 6 11 8 9 9 10 10 83 11 82 12
REMARK SMILES IDX 8 14 6 15 7 16 5 18 1 19 2 20 3 21 84 22 4 23 18 25 19 26
REMARK SMILES IDX 20 27 21 29 22 30 23 31 81 32 24 33 80 34 25 35 26 36 27 37
REMARK SMILES IDX 74 38 28 39 79 40 73 41 75 42 29 43 78 44 72 45 71 46 30 48
REMARK SMILES IDX 60 49 41 50 59 51 42 52 45 53 58 54 76 55 43 56 44 57 57 59
REMARK SMILES IDX 77 60 46 61 31 62 32 63 40 64 33 65 39 66 34 67 35 68 36 69
REMARK SMILES IDX 37 70 38 71 61 72 62 73 70 74 63 75 69 76 64 77 65 78 66 79
REMARK SMILES IDX 67 80 68 81 47 82 48 83 56 84 49 85 55 86 50 87 51 88 52 89
REMARK SMILES IDX 53 90 54 91
REMARK H PARENT 14 7 82 13 8 17 4 24 19 28 75 47 45 58
REMARK Flexibility Score: inf
ROOT
ATOM      1  C   UNL A   1      37.909  19.695  24.844  1.00  0.00     0.023 C 
ENDROOT
BRANCH   1   2
ATOM      2  C   UNL A   1      36.581  20.424  25.097  1.00  0.00     0.023 C 
BRANCH   2   3
ATOM      3  C   UNL A   1      36.504  21.841  24.520  1.00  0.00     0.116 C 
BRANCH   3   4
ATOM      4  N   UNL A   1      35.787  22.745  25.403  1.00  0.00    -0.351 N 
ATOM      5  C   UNL A   1      34.454  22.861  25.714  1.00  0.00     0.269 C 
ATOM      6  O   UNL A   1      34.128  23.695  26.542  1.00  0.00    -0.268 OA
ATOM      7  H   UNL A   1      36.364  23.397  25.862  1.00  0.00     0.163 HD
BRANCH   5   8
ATOM      8  C   UNL A   1      33.480  21.973  25.132  1.00  0.00     0.125 A 
ATOM      9  C   UNL A   1      32.304  20.503  23.967  1.00  0.00     0.155 A 
ATOM     10  C   UNL A   1      33.060  21.685  23.851  1.00  0.00     0.082 A 
ATOM     11  N   UNL A   1      31.988  20.251  25.231  1.00  0.00    -0.157 NA
ATOM     12  N   UNL A   1      32.721  21.146  25.926  1.00  0.00    -0.271 N 
ATOM     13  H   UNL A   1      32.714  21.200  26.910  1.00  0.00     0.190 HD
BRANCH   9  14
ATOM     14  N   UNL A   1      31.952  19.643  22.964  1.00  0.00    -0.302 N 
ATOM     15  C   UNL A   1      32.492  18.398  22.700  1.00  0.00     0.294 C 
ATOM     16  O   UNL A   1      32.355  17.956  21.557  1.00  0.00    -0.265 OA
ATOM     17  H   UNL A   1      31.233  19.945  22.362  1.00  0.00     0.172 HD
BRANCH  15  18
ATOM     18  C   UNL A   1      33.066  17.613  23.795  1.00  0.00     0.214 A 
ATOM     19  C   UNL A   1      35.607  15.725  25.405  1.00  0.00     0.092 C 
ATOM     20  C   UNL A   1      34.386  16.445  24.986  1.00  0.00     0.148 A 
ATOM     21  N   UNL A   1      33.210  16.272  25.594  1.00  0.00    -0.159 NA
ATOM     22  N   UNL A   1      34.348  17.300  23.912  1.00  0.00    -0.207 NA
ATOM     23  N   UNL A   1      32.387  16.941  24.776  1.00  0.00    -0.255 N 
ATOM     24  H   UNL A   1      31.407  16.949  24.870  1.00  0.00     0.192 HD
ENDBRANCH  15  18
ENDBRANCH   9  14
ENDBRANCH   5   8
ENDBRANCH   3   4
ENDBRANCH   2   3
ENDBRANCH   1   2
BRANCH   1  25
ATOM     25  C   UNL A   1      39.070  20.160  25.717  1.00  0.00     0.116 C 
BRANCH  25  26
ATOM     26  N   UNL A   1      40.169  19.194  25.778  1.00  0.00    -0.352 N 
ATOM     27  C   UNL A   1      41.525  19.465  25.874  1.00  0.00     0.251 C 
ATOM     28  H   UNL A   1      39.917  18.243  25.746  1.00  0.00     0.163 HD
ATOM     29  O   UNL A   1      42.359  18.652  25.493  1.00  0.00    -0.269 OA
BRANCH  27  30
ATOM     30  C   UNL A   1      41.938  20.750  26.465  1.00  0.00     0.039 A 
ATOM     31  C   UNL A   1      42.295  21.853  25.685  1.00  0.00     0.014 A 
ATOM     32  C   UNL A   1      41.902  20.840  27.852  1.00  0.00     0.014 A 
ATOM     33  C   UNL A   1      42.527  23.072  26.322  1.00  0.00     0.010 A 
ATOM     34  C   UNL A   1      41.947  22.069  28.453  1.00  0.00     0.010 A 
ATOM     35  C   UNL A   1      42.323  23.179  27.709  1.00  0.00    -0.014 A 
BRANCH  35  36
ATOM     36  C   UNL A   1      42.392  24.465  28.394  1.00  0.00     0.031 A 
ATOM     37  C   UNL A   1      41.190  25.324  28.220  1.00  0.00     0.074 A 
ATOM     38  C   UNL A   1      43.357  24.781  29.288  1.00  0.00     0.049 A 
ATOM     39  N   UNL A   1      41.100  26.397  27.508  1.00  0.00    -0.248 NA
ATOM     40  C   UNL A   1      39.903  24.866  28.768  1.00  0.00     0.031 C 
ATOM     41  C   UNL A   1      44.446  23.946  29.812  1.00  0.00     0.029 A 
ATOM     42  N   UNL A   1      43.497  25.921  30.013  1.00  0.00    -0.354 N 
ATOM     43  C   UNL A   1      39.813  26.884  27.703  1.00  0.00     0.074 A 
ATOM     44  C   UNL A   1      39.072  25.812  28.323  1.00  0.00     0.031 C 
ATOM     45  C   UNL A   1      44.956  24.508  30.932  1.00  0.00     0.029 A 
ATOM     46  C   UNL A   1      44.367  25.825  31.096  1.00  0.00     0.049 A 
ATOM     47  H   UNL A   1      43.019  26.752  29.791  1.00  0.00     0.167 HD
ATOM     48  C   UNL A   1      39.528  28.208  27.560  1.00  0.00     0.031 A 
ATOM     49  C   UNL A   1      44.571  26.760  32.060  1.00  0.00     0.031 A 
ATOM     50  C   UNL A   1      40.613  28.917  26.926  1.00  0.00     0.049 A 
ATOM     51  C   UNL A   1      44.125  28.056  31.489  1.00  0.00     0.074 A 
ATOM     52  C   UNL A   1      41.273  28.796  25.718  1.00  0.00     0.029 A 
ATOM     53  N   UNL A   1      41.455  29.635  27.745  1.00  0.00    -0.354 N 
ATOM     54  N   UNL A   1      44.723  28.632  30.484  1.00  0.00    -0.248 NA
ATOM     55  C   UNL A   1      42.742  28.456  31.706  1.00  0.00     0.031 C 
ATOM     56  C   UNL A   1      42.650  28.983  26.039  1.00  0.00     0.029 A 
ATOM     57  C   UNL A   1      42.739  29.300  27.397  1.00  0.00     0.049 A 
ATOM     58  H   UNL A   1      41.187  30.268  28.449  1.00  0.00     0.167 HD
ATOM     59  C   UNL A   1      43.694  29.108  29.685  1.00  0.00     0.074 A 
ATOM     60  C   UNL A   1      42.500  29.046  30.531  1.00  0.00     0.031 C 
ATOM     61  C   UNL A   1      43.843  29.238  28.333  1.00  0.00     0.031 A 
BRANCH  48  62
ATOM     62  C   UNL A   1      38.465  28.937  28.345  1.00  0.00    -0.014 A 
ATOM     63  C   UNL A   1      37.542  29.742  27.646  1.00  0.00     0.010 A 
ATOM     64  C   UNL A   1      38.512  29.084  29.746  1.00  0.00     0.010 A 
ATOM     65  C   UNL A   1      36.763  30.699  28.308  1.00  0.00     0.020 A 
ATOM     66  C   UNL A   1      37.709  30.007  30.421  1.00  0.00     0.020 A 
ATOM     67  C   UNL A   1      36.865  30.834  29.692  1.00  0.00     0.054 A 
BRANCH  67  68
ATOM     68  S   UNL A   1      35.931  32.142  30.524  1.00  0.00     0.124 S 
ATOM     69  O   UNL A   1      36.867  33.259  30.470  1.00  0.00    -0.237 OA
ATOM     70  O   UNL A   1      34.748  32.261  29.676  1.00  0.00    -0.237 OA
ATOM     71  O   UNL A   1      35.684  31.591  31.854  1.00  0.00    -0.744 OA
ENDBRANCH  67  68
ENDBRANCH  48  62
BRANCH  49  72
ATOM     72  C   UNL A   1      44.810  26.569  33.516  1.00  0.00    -0.014 A 
ATOM     73  C   UNL A   1      45.863  27.243  34.167  1.00  0.00     0.010 A 
ATOM     74  C   UNL A   1      43.820  25.976  34.324  1.00  0.00     0.010 A 
ATOM     75  C   UNL A   1      45.874  27.398  35.565  1.00  0.00     0.020 A 
ATOM     76  C   UNL A   1      43.828  26.120  35.719  1.00  0.00     0.020 A 
ATOM     77  C   UNL A   1      44.837  26.861  36.331  1.00  0.00     0.054 A 
BRANCH  77  78
ATOM     78  S   UNL A   1      44.734  27.256  38.104  1.00  0.00     0.124 S 
ATOM     79  O   UNL A   1      46.023  26.792  38.605  1.00  0.00    -0.237 OA
ATOM     80  O   UNL A   1      44.543  28.704  38.097  1.00  0.00    -0.237 OA
ATOM     81  O   UNL A   1      43.576  26.487  38.561  1.00  0.00    -0.744 OA
ENDBRANCH  77  78
ENDBRANCH  49  72
BRANCH  61  82
ATOM     82  C   UNL A   1      45.223  29.090  27.730  1.00  0.00    -0.014 A 
ATOM     83  C   UNL A   1      46.129  30.155  27.552  1.00  0.00     0.010 A 
ATOM     84  C   UNL A   1      45.678  27.782  27.488  1.00  0.00     0.010 A 
ATOM     85  C   UNL A   1      47.444  29.914  27.118  1.00  0.00     0.020 A 
ATOM     86  C   UNL A   1      46.988  27.534  27.076  1.00  0.00     0.020 A 
ATOM     87  C   UNL A   1      47.865  28.601  26.882  1.00  0.00     0.054 A 
BRANCH  87  88
ATOM     88  S   UNL A   1      49.573  28.285  26.357  1.00  0.00     0.124 S 
ATOM     89  O   UNL A   1      50.278  29.470  26.838  1.00  0.00    -0.237 OA
ATOM     90  O   UNL A   1      49.900  27.037  27.043  1.00  0.00    -0.237 OA
ATOM     91  O   UNL A   1      49.475  28.174  24.902  1.00  0.00    -0.744 OA
ENDBRANCH  87  88
ENDBRANCH  61  82
ENDBRANCH  35  36
ENDBRANCH  27  30
ENDBRANCH  25  26
ENDBRANCH   1  25
TORSDOF 16
ENDMDL
MODEL 2
REMARK VINA RESULT:     -11.9      3.387      8.031
REMARK SMILES Cc1n[nH]c(C(=O)Nc2cc(C(=O)NCCCCNC(=O)c3ccc(-c4c5nc(c(-c6ccc(S(=O)(=O)[O-])cc6)c6ccc([nH]6)c(-c6ccc(S(=O)(=O)[O-])cc6)c6nc(c(-c7ccc(S(=O)(=O)[O-])cc7)c7ccc4[nH]7)C=C6)C=C5)cc3)[nH]n2)n1
REMARK SMILES IDX 17 1 16 2 15 3 14 4 12 5 13 6 11 8 9 9 10 10 83 11 82 12
REMARK SMILES IDX 8 14 6 15 7 16 5 18 1 19 2 20 3 21 84 22 4 23 18 25 19 26
REMARK SMILES IDX 20 27 21 29 22 30 23 31 81 32 24 33 80 34 25 35 26 36 27 37
REMARK SMILES IDX 74 38 28 39 79 40 73 41 75 42 29 43 78 44 72 45 71 46 30 48
REMARK SMILES IDX 60 49 41 50 59 51 42 52 45 53 58 54 76 55 43 56 44 57 57 59
REMARK SMILES IDX 77 60 46 61 31 62 32 63 40 64 33 65 39 66 34 67 35 68 36 69
REMARK SMILES IDX 37 70 38 71 61 72 62 73 70 74 63 75 69 76 64 77 65 78 66 79
REMARK SMILES IDX 67 80 68 81 47 82 48 83 56 84 49 85 55 86 50 87 51 88 52 89
REMARK SMILES IDX 53 90 54 91
REMARK H PARENT 14 7 82 13 8 17 4 24 19 28 75 47 45 58
REMARK Flexibility Score: inf
ROOT
ATOM      1  C   UNL A   1      37.227  21.702  24.713  1.00  0.00     0.023 C 
ENDROOT
BRANCH   1   2
ATOM      2  C   UNL A   1      35.708  21.927  24.737  1.00  0.00     0.023 C 
BRANCH   2   3
ATOM      3  C   UNL A   1      34.990  21.349  25.960  1.00  0.00     0.116 C 
BRANCH   3   4
ATOM      4  N   UNL A   1      34.005  20.349  25.586  1.00  0.00    -0.351 N 
ATOM      5  C   UNL A   1      32.681  20.451  25.232  1.00  0.00     0.269 C 
ATOM      6  O   UNL A   1      32.092  19.431  24.912  1.00  0.00    -0.268 OA
ATOM      7  H   UNL A   1      34.349  19.427  25.587  1.00  0.00     0.163 HD
BRANCH   5   8
ATOM      8  C   UNL A   1      32.029  21.734  25.171  1.00  0.00     0.125 A 
ATOM      9  C   UNL A   1      30.906  23.578  24.683  1.00  0.00     0.155 A 
ATOM     10  C   UNL A   1      31.963  22.755  24.249  1.00  0.00     0.082 A 
ATOM     11  N   UNL A   1      30.557  23.301  25.933  1.00  0.00    -0.157 NA
ATOM     12  N   UNL A   1      31.240  22.170  26.210  1.00  0.00    -0.271 N 
ATOM     13  H   UNL A   1      31.178  21.701  27.074  1.00  0.00     0.190 HD
BRANCH   9  14
ATOM     14  N   UNL A   1      30.236  24.521  23.953  1.00  0.00    -0.302 N 
ATOM     15  C   UNL A   1      29.941  25.818  24.330  1.00  0.00     0.294 C 
ATOM     16  O   UNL A   1      29.008  26.374  23.747  1.00  0.00    -0.265 OA
ATOM     17  H   UNL A   1      29.929  24.244  23.059  1.00  0.00     0.172 HD
BRANCH  15  18
ATOM     18  C   UNL A   1      30.815  26.511  25.279  1.00  0.00     0.214 A 
ATOM     19  C   UNL A   1      33.841  28.047  26.327  1.00  0.00     0.092 C 
ATOM     20  C   UNL A   1      32.488  27.470  26.177  1.00  0.00     0.148 A 
ATOM     21  N   UNL A   1      31.699  27.216  27.223  1.00  0.00    -0.159 NA
ATOM     22  N   UNL A   1      31.959  27.100  24.965  1.00  0.00    -0.207 NA
ATOM     23  N   UNL A   1      30.701  26.536  26.643  1.00  0.00    -0.255 N 
ATOM     24  H   UNL A   1      29.969  26.105  27.141  1.00  0.00     0.192 HD
ENDBRANCH  15  18
ENDBRANCH   9  14
ENDBRANCH   5   8
ENDBRANCH   3   4
ENDBRANCH   2   3
ENDBRANCH   1   2
BRANCH   1  25
ATOM     25  C   UNL A   1      38.001  22.458  25.789  1.00  0.00     0.116 C 
BRANCH  25  26
ATOM     26  N   UNL A   1      39.057  21.656  26.410  1.00  0.00    -0.352 N 
ATOM     27  C   UNL A   1      40.304  22.088  26.836  1.00  0.00     0.251 C 
ATOM     28  H   UNL A   1      38.860  20.701  26.540  1.00  0.00     0.163 HD
ATOM     29  O   UNL A   1      41.242  21.307  26.934  1.00  0.00    -0.269 OA
BRANCH  27  30
ATOM     30  C   UNL A   1      40.464  23.510  27.187  1.00  0.00     0.039 A 
ATOM     31  C   UNL A   1      39.434  24.441  27.033  1.00  0.00     0.014 A 
ATOM     32  C   UNL A   1      41.685  23.883  27.741  1.00  0.00     0.014 A 
ATOM     33  C   UNL A   1      39.623  25.731  27.529  1.00  0.00     0.010 A 
ATOM     34  C   UNL A   1      41.798  25.085  28.387  1.00  0.00     0.010 A 
ATOM     35  C   UNL A   1      40.802  26.039  28.231  1.00  0.00    -0.014 A 
BRANCH  35  36
ATOM     36  C   UNL A   1      40.975  27.319  28.909  1.00  0.00     0.031 A 
ATOM     37  C   UNL A   1      41.999  28.209  28.298  1.00  0.00     0.074 A 
ATOM     38  C   UNL A   1      40.142  27.768  29.876  1.00  0.00     0.049 A 
ATOM     39  N   UNL A   1      43.165  28.490  28.774  1.00  0.00    -0.248 NA
ATOM     40  C   UNL A   1      41.775  28.722  26.937  1.00  0.00     0.031 C 
ATOM     41  C   UNL A   1      38.905  27.164  30.388  1.00  0.00     0.029 A 
ATOM     42  N   UNL A   1      40.179  28.952  30.541  1.00  0.00    -0.354 N 
ATOM     43  C   UNL A   1      43.733  29.404  27.894  1.00  0.00     0.074 A 
ATOM     44  C   UNL A   1      42.924  29.360  26.700  1.00  0.00     0.031 C 
ATOM     45  C   UNL A   1      38.196  28.088  31.076  1.00  0.00     0.029 A 
ATOM     46  C   UNL A   1      39.007  29.283  31.214  1.00  0.00     0.049 A 
ATOM     47  H   UNL A   1      40.974  29.532  30.545  1.00  0.00     0.167 HD
ATOM     48  C   UNL A   1      44.676  30.295  28.309  1.00  0.00     0.031 A 
ATOM     49  C   UNL A   1      38.728  30.464  31.826  1.00  0.00     0.031 A 
ATOM     50  C   UNL A   1      45.175  29.963  29.621  1.00  0.00     0.049 A 
ATOM     51  C   UNL A   1      40.034  31.114  32.100  1.00  0.00     0.074 A 
ATOM     52  C   UNL A   1      45.793  28.857  30.171  1.00  0.00     0.029 A 
ATOM     53  N   UNL A   1      44.664  30.676  30.683  1.00  0.00    -0.354 N 
ATOM     54  N   UNL A   1      40.908  30.626  32.936  1.00  0.00    -0.248 NA
ATOM     55  C   UNL A   1      40.570  32.018  31.093  1.00  0.00     0.031 C 
ATOM     56  C   UNL A   1      45.179  28.698  31.448  1.00  0.00     0.029 A 
ATOM     57  C   UNL A   1      44.298  29.765  31.642  1.00  0.00     0.049 A 
ATOM     58  H   UNL A   1      44.577  31.654  30.744  1.00  0.00     0.167 HD
ATOM     59  C   UNL A   1      42.132  30.791  32.305  1.00  0.00     0.074 A 
ATOM     60  C   UNL A   1      41.870  31.730  31.212  1.00  0.00     0.031 C 
ATOM     61  C   UNL A   1      43.175  29.940  32.539  1.00  0.00     0.031 A 
BRANCH  48  62
ATOM     62  C   UNL A   1      44.854  31.675  27.725  1.00  0.00    -0.014 A 
ATOM     63  C   UNL A   1      46.047  31.965  27.030  1.00  0.00     0.010 A 
ATOM     64  C   UNL A   1      44.031  32.766  28.070  1.00  0.00     0.010 A 
ATOM     65  C   UNL A   1      46.432  33.285  26.765  1.00  0.00     0.020 A 
ATOM     66  C   UNL A   1      44.386  34.084  27.772  1.00  0.00     0.020 A 
ATOM     67  C   UNL A   1      45.603  34.337  27.153  1.00  0.00     0.054 A 
BRANCH  67  68
ATOM     68  S   UNL A   1      46.157  36.040  26.898  1.00  0.00     0.124 S 
ATOM     69  O   UNL A   1      44.892  36.763  26.848  1.00  0.00    -0.237 OA
ATOM     70  O   UNL A   1      46.978  36.276  28.082  1.00  0.00    -0.237 OA
ATOM     71  O   UNL A   1      46.895  35.974  25.638  1.00  0.00    -0.744 OA
ENDBRANCH  67  68
ENDBRANCH  48  62
BRANCH  49  72
ATOM     72  C   UNL A   1      37.438  31.203  31.893  1.00  0.00    -0.014 A 
ATOM     73  C   UNL A   1      36.901  31.600  33.135  1.00  0.00     0.010 A 
ATOM     74  C   UNL A   1      36.897  31.791  30.733  1.00  0.00     0.010 A 
ATOM     75  C   UNL A   1      35.927  32.612  33.217  1.00  0.00     0.020 A 
ATOM     76  C   UNL A   1      35.921  32.796  30.806  1.00  0.00     0.020 A 
ATOM     77  C   UNL A   1      35.466  33.227  32.050  1.00  0.00     0.054 A 
BRANCH  77  78
ATOM     78  S   UNL A   1      34.383  34.684  32.173  1.00  0.00     0.124 S 
ATOM     79  O   UNL A   1      34.096  34.980  30.773  1.00  0.00    -0.237 OA
ATOM     80  O   UNL A   1      33.258  34.180  32.956  1.00  0.00    -0.237 OA
ATOM     81  O   UNL A   1      35.215  35.673  32.859  1.00  0.00    -0.744 OA
ENDBRANCH  77  78
ENDBRANCH  49  72
BRANCH  61  82
ATOM     82  C   UNL A   1      43.072  28.952  33.681  1.00  0.00    -0.014 A 
ATOM     83  C   UNL A   1      43.682  29.129  34.941  1.00  0.00     0.010 A 
ATOM     84  C   UNL A   1      42.179  27.878  33.519  1.00  0.00     0.010 A 
ATOM     85  C   UNL A   1      43.422  28.238  35.995  1.00  0.00     0.020 A 
ATOM     86  C   UNL A   1      41.902  27.001  34.569  1.00  0.00     0.020 A 
ATOM     87  C   UNL A   1      42.532  27.177  35.801  1.00  0.00     0.054 A 
BRANCH  87  88
ATOM     88  S   UNL A   1      42.166  26.046  37.173  1.00  0.00     0.124 S 
ATOM     89  O   UNL A   1      42.972  26.596  38.260  1.00  0.00    -0.237 OA
ATOM     90  O   UNL A   1      40.720  26.180  37.331  1.00  0.00    -0.237 OA
ATOM     91  O   UNL A   1      42.608  24.743  36.676  1.00  0.00    -0.744 OA
ENDBRANCH  87  88
ENDBRANCH  61  82
ENDBRANCH  35  36
ENDBRANCH  27  30
ENDBRANCH  25  26
ENDBRANCH   1  25
TORSDOF 16
ENDMDL
MODEL 3
REMARK VINA RESULT:     -11.7      5.027      9.996
REMARK SMILES Cc1n[nH]c(C(=O)Nc2cc(C(=O)NCCCCNC(=O)c3ccc(-c4c5nc(c(-c6ccc(S(=O)(=O)[O-])cc6)c6ccc([nH]6)c(-c6ccc(S(=O)(=O)[O-])cc6)c6nc(c(-c7ccc(S(=O)(=O)[O-])cc7)c7ccc4[nH]7)C=C6)C=C5)cc3)[nH]n2)n1
REMARK SMILES IDX 17 1 16 2 15 3 14 4 12 5 13 6 11 8 9 9 10 10 83 11 82 12
REMARK SMILES IDX 8 14 6 15 7 16 5 18 1 19 2 20 3 21 84 22 4 23 18 25 19 26
REMARK SMILES IDX 20 27 21 29 22 30 23 31 81 32 24 33 80 34 25 35 26 36 27 37
REMARK SMILES IDX 74 38 28 39 79 40 73 41 75 42 29 43 78 44 72 45 71 46 30 48
REMARK SMILES IDX 60 49 41 50 59 51 42 52 45 53 58 54 76 55 43 56 44 57 57 59
REMARK SMILES IDX 77 60 46 61 31 62 32 63 40 64 33 65 39 66 34 67 35 68 36 69
REMARK SMILES IDX 37 70 38 71 61 72 62 73 70 74 63 75 69 76 64 77 65 78 66 79
REMARK SMILES IDX 67 80 68 81 47 82 48 83 56 84 49 85 55 86 50 87 51 88 52 89
REMARK SMILES IDX 53 90 54 91
REMARK H PARENT 14 7 82 13 8 17 4 24 19 28 75 47 45 58
REMARK Flexibility Score: inf
ROOT
ATOM      1  C   UNL A   1      34.114  30.776  27.709  1.00  0.00     0.023 C 
ENDROOT
BRANCH   1   2
ATOM      2  C   UNL A   1      32.760  31.255  27.167  1.00  0.00     0.023 C 
BRANCH   2   3
ATOM      3  C   UNL A   1      32.204  30.430  26.002  1.00  0.00     0.116 C 
BRANCH   3   4
ATOM      4  N   UNL A   1      33.254  29.718  25.295  1.00  0.00    -0.351 N 
ATOM      5  C   UNL A   1      33.229  28.910  24.184  1.00  0.00     0.269 C 
ATOM      6  O   UNL A   1      34.290  28.474  23.768  1.00  0.00    -0.268 OA
ATOM      7  H   UNL A   1      34.150  29.835  25.686  1.00  0.00     0.163 HD
BRANCH   5   8
ATOM      8  C   UNL A   1      31.995  28.648  23.489  1.00  0.00     0.125 A 
ATOM      9  C   UNL A   1      29.913  28.397  22.780  1.00  0.00     0.155 A 
ATOM     10  C   UNL A   1      30.804  28.033  23.808  1.00  0.00     0.082 A 
ATOM     11  N   UNL A   1      30.557  28.908  21.738  1.00  0.00    -0.157 NA
ATOM     12  N   UNL A   1      31.819  29.064  22.190  1.00  0.00    -0.271 N 
ATOM     13  H   UNL A   1      32.544  29.443  21.642  1.00  0.00     0.190 HD
BRANCH   9  14
ATOM     14  N   UNL A   1      28.548  28.320  22.802  1.00  0.00    -0.302 N 
ATOM     15  C   UNL A   1      27.656  29.347  23.055  1.00  0.00     0.294 C 
ATOM     16  O   UNL A   1      26.526  29.029  23.431  1.00  0.00    -0.265 OA
ATOM     17  H   UNL A   1      28.157  27.436  22.616  1.00  0.00     0.172 HD
BRANCH  15  18
ATOM     18  C   UNL A   1      28.032  30.725  22.737  1.00  0.00     0.214 A 
ATOM     19  C   UNL A   1      29.350  33.943  23.460  1.00  0.00     0.092 C 
ATOM     20  C   UNL A   1      28.747  32.724  22.882  1.00  0.00     0.148 A 
ATOM     21  N   UNL A   1      28.056  32.741  21.739  1.00  0.00    -0.159 NA
ATOM     22  N   UNL A   1      28.798  31.496  23.495  1.00  0.00    -0.207 NA
ATOM     23  N   UNL A   1      27.547  31.503  21.719  1.00  0.00    -0.255 N 
ATOM     24  H   UNL A   1      26.897  31.188  21.049  1.00  0.00     0.192 HD
ENDBRANCH  15  18
ENDBRANCH   9  14
ENDBRANCH   5   8
ENDBRANCH   3   4
ENDBRANCH   2   3
ENDBRANCH   1   2
BRANCH   1  25
ATOM     25  C   UNL A   1      35.091  31.892  28.066  1.00  0.00     0.116 C 
BRANCH  25  26
ATOM     26  N   UNL A   1      34.754  32.576  29.317  1.00  0.00    -0.352 N 
ATOM     27  C   UNL A   1      35.077  32.185  30.606  1.00  0.00     0.251 C 
ATOM     28  H   UNL A   1      34.237  33.410  29.232  1.00  0.00     0.163 HD
ATOM     29  O   UNL A   1      34.412  32.559  31.564  1.00  0.00    -0.269 OA
BRANCH  27  30
ATOM     30  C   UNL A   1      36.255  31.320  30.796  1.00  0.00     0.039 A 
ATOM     31  C   UNL A   1      36.161  29.927  30.849  1.00  0.00     0.014 A 
ATOM     32  C   UNL A   1      37.491  31.954  30.863  1.00  0.00     0.014 A 
ATOM     33  C   UNL A   1      37.340  29.181  30.880  1.00  0.00     0.010 A 
ATOM     34  C   UNL A   1      38.638  31.223  30.708  1.00  0.00     0.010 A 
ATOM     35  C   UNL A   1      38.579  29.838  30.781  1.00  0.00    -0.014 A 
BRANCH  35  36
ATOM     36  C   UNL A   1      39.828  29.097  30.644  1.00  0.00     0.031 A 
ATOM     37  C   UNL A   1      40.545  28.850  31.924  1.00  0.00     0.074 A 
ATOM     38  C   UNL A   1      40.212  28.492  29.496  1.00  0.00     0.049 A 
ATOM     39  N   UNL A   1      41.633  29.415  32.325  1.00  0.00    -0.248 NA
ATOM     40  C   UNL A   1      39.908  27.998  32.942  1.00  0.00     0.031 C 
ATOM     41  C   UNL A   1      39.487  28.371  28.225  1.00  0.00     0.029 A 
ATOM     42  N   UNL A   1      41.322  27.744  29.265  1.00  0.00    -0.354 N 
ATOM     43  C   UNL A   1      41.952  28.822  33.541  1.00  0.00     0.074 A 
ATOM     44  C   UNL A   1      40.770  28.108  33.957  1.00  0.00     0.031 C 
ATOM     45  C   UNL A   1      40.049  27.400  27.468  1.00  0.00     0.029 A 
ATOM     46  C   UNL A   1      41.276  26.967  28.112  1.00  0.00     0.049 A 
ATOM     47  H   UNL A   1      42.100  27.751  29.868  1.00  0.00     0.167 HD
ATOM     48  C   UNL A   1      43.239  28.768  33.986  1.00  0.00     0.031 A 
ATOM     49  C   UNL A   1      42.179  26.026  27.730  1.00  0.00     0.031 A 
ATOM     50  C   UNL A   1      44.103  29.623  33.209  1.00  0.00     0.049 A 
ATOM     51  C   UNL A   1      43.440  26.337  28.450  1.00  0.00     0.074 A 
ATOM     52  C   UNL A   1      44.123  30.975  32.923  1.00  0.00     0.029 A 
ATOM     53  N   UNL A   1      44.875  29.021  32.241  1.00  0.00    -0.354 N 
ATOM     54  N   UNL A   1      44.133  27.419  28.232  1.00  0.00    -0.248 NA
ATOM     55  C   UNL A   1      43.659  25.703  29.742  1.00  0.00     0.031 C 
ATOM     56  C   UNL A   1      44.457  31.044  31.538  1.00  0.00     0.029 A 
ATOM     57  C   UNL A   1      44.714  29.747  31.088  1.00  0.00     0.049 A 
ATOM     58  H   UNL A   1      45.435  28.220  32.354  1.00  0.00     0.167 HD
ATOM     59  C   UNL A   1      44.522  27.849  29.492  1.00  0.00     0.074 A 
ATOM     60  C   UNL A   1      44.275  26.707  30.374  1.00  0.00     0.031 C 
ATOM     61  C   UNL A   1      44.737  29.172  29.759  1.00  0.00     0.031 A 
BRANCH  48  62
ATOM     62  C   UNL A   1      43.795  27.655  34.840  1.00  0.00    -0.014 A 
ATOM     63  C   UNL A   1      44.535  27.993  35.992  1.00  0.00     0.010 A 
ATOM     64  C   UNL A   1      43.858  26.315  34.408  1.00  0.00     0.010 A 
ATOM     65  C   UNL A   1      45.356  27.056  36.630  1.00  0.00     0.020 A 
ATOM     66  C   UNL A   1      44.642  25.361  35.063  1.00  0.00     0.020 A 
ATOM     67  C   UNL A   1      45.414  25.748  36.150  1.00  0.00     0.054 A 
BRANCH  67  68
ATOM     68  S   UNL A   1      46.556  24.574  36.919  1.00  0.00     0.124 S 
ATOM     69  O   UNL A   1      47.576  25.461  37.465  1.00  0.00    -0.237 OA
ATOM     70  O   UNL A   1      45.700  23.910  37.899  1.00  0.00    -0.237 OA
ATOM     71  O   UNL A   1      46.984  23.733  35.803  1.00  0.00    -0.744 OA
ENDBRANCH  67  68
ENDBRANCH  48  62
BRANCH  49  72
ATOM     72  C   UNL A   1      41.944  24.720  27.058  1.00  0.00    -0.014 A 
ATOM     73  C   UNL A   1      42.973  24.092  26.326  1.00  0.00     0.010 A 
ATOM     74  C   UNL A   1      40.819  23.942  27.395  1.00  0.00     0.010 A 
ATOM     75  C   UNL A   1      42.919  22.719  26.025  1.00  0.00     0.020 A 
ATOM     76  C   UNL A   1      40.755  22.573  27.093  1.00  0.00     0.020 A 
ATOM     77  C   UNL A   1      41.822  21.960  26.440  1.00  0.00     0.054 A 
BRANCH  77  78
ATOM     78  S   UNL A   1      41.860  20.150  26.252  1.00  0.00     0.124 S 
ATOM     79  O   UNL A   1      40.492  19.848  25.844  1.00  0.00    -0.237 OA
ATOM     80  O   UNL A   1      42.883  19.958  25.228  1.00  0.00    -0.237 OA
ATOM     81  O   UNL A   1      42.230  19.675  27.586  1.00  0.00    -0.744 OA
ENDBRANCH  77  78
ENDBRANCH  49  72
BRANCH  61  82
ATOM     82  C   UNL A   1      44.786  30.153  28.608  1.00  0.00    -0.014 A 
ATOM     83  C   UNL A   1      43.682  30.470  27.789  1.00  0.00     0.010 A 
ATOM     84  C   UNL A   1      45.963  30.907  28.458  1.00  0.00     0.010 A 
ATOM     85  C   UNL A   1      43.769  31.496  26.832  1.00  0.00     0.020 A 
ATOM     86  C   UNL A   1      46.049  31.939  27.523  1.00  0.00     0.020 A 
ATOM     87  C   UNL A   1      44.956  32.225  26.705  1.00  0.00     0.054 A 
BRANCH  87  88
ATOM     88  S   UNL A   1      45.058  33.574  25.495  1.00  0.00     0.124 S 
ATOM     89  O   UNL A   1      44.295  34.638  26.142  1.00  0.00    -0.237 OA
ATOM     90  O   UNL A   1      46.496  33.807  25.387  1.00  0.00    -0.237 OA
ATOM     91  O   UNL A   1      44.439  33.012  24.295  1.00  0.00    -0.744 OA
ENDBRANCH  87  88
ENDBRANCH  61  82
ENDBRANCH  35  36
ENDBRANCH  27  30
ENDBRANCH  25  26
ENDBRANCH   1  25
TORSDOF 16
ENDMDL
