MODEL 1
REMARK VINA RESULT:     -11.3      0.000      0.000
REMARK SMILES O=C(NCCCCNC(=O)c1ccc(-c2c3nc(c(-c4ccc(S(=O)(=O)[O-])cc4)c4ccc([nH]4)c(-c4ccc(S(=O)(=O)[O-])cc4)c4nc(c(-c5ccc(S(=O)(=O)[O-])cc5)c5ccc2[nH]5)C=C4)C=C3)cc1)c1ccc(Nc2ccnc(Cl)n2)cc1
REMARK SMILES IDX 6 1 5 2 4 3 3 4 1 5 2 6 71 8 72 9 84 10 73 11 83 12 74 13
REMARK SMILES IDX 75 14 76 16 77 17 82 18 78 19 80 20 79 21 81 22 7 23 8 24
REMARK SMILES IDX 9 25 10 27 11 28 12 29 70 30 13 31 69 32 14 33 15 34 16 35
REMARK SMILES IDX 63 36 17 37 68 38 62 39 64 40 18 41 67 42 61 43 60 44 19 46
REMARK SMILES IDX 49 47 30 48 48 49 31 50 34 51 47 52 65 53 32 54 33 55 46 57
REMARK SMILES IDX 66 58 35 59 20 60 21 61 29 62 22 63 28 64 23 65 24 66 25 67
REMARK SMILES IDX 26 68 27 69 50 70 51 71 59 72 52 73 58 74 53 75 54 76 55 77
REMARK SMILES IDX 56 78 57 79 36 80 37 81 45 82 38 83 44 84 39 85 40 86 41 87
REMARK SMILES IDX 42 88 43 89
REMARK H PARENT 3 7 75 15 8 26 64 45 34 56
REMARK Flexibility Score: inf
ROOT
ATOM      1  C   UNL A   1      33.797  28.265  25.390  1.00  0.00     0.023 C 
ENDROOT
BRANCH   1   2
ATOM      2  C   UNL A   1      33.293  29.402  24.503  1.00  0.00     0.023 C 
BRANCH   2   3
ATOM      3  C   UNL A   1      33.210  29.081  23.015  1.00  0.00     0.116 C 
BRANCH   3   4
ATOM      4  N   UNL A   1      31.869  29.257  22.471  1.00  0.00    -0.352 N 
ATOM      5  O   UNL A   1      29.786  28.624  21.845  1.00  0.00    -0.269 OA
ATOM      6  C   UNL A   1      30.812  28.378  22.472  1.00  0.00     0.251 C 
ATOM      7  H   UNL A   1      31.698  30.126  22.043  1.00  0.00     0.163 HD
BRANCH   6   8
ATOM      8  C   UNL A   1      30.925  27.113  23.222  1.00  0.00     0.039 A 
ATOM      9  C   UNL A   1      31.502  25.993  22.627  1.00  0.00     0.016 A 
ATOM     10  C   UNL A   1      30.413  27.036  24.517  1.00  0.00     0.016 A 
ATOM     11  C   UNL A   1      31.442  24.760  23.275  1.00  0.00     0.027 A 
ATOM     12  C   UNL A   1      30.384  25.800  25.173  1.00  0.00     0.027 A 
ATOM     13  C   UNL A   1      30.848  24.636  24.538  1.00  0.00     0.040 A 
BRANCH  13  14
ATOM     14  N   UNL A   1      30.695  23.398  25.194  1.00  0.00    -0.340 N 
ATOM     15  H   UNL A   1      29.776  23.047  25.204  1.00  0.00     0.168 HD
BRANCH  14  16
ATOM     16  C   UNL A   1      31.640  22.588  25.831  1.00  0.00     0.135 A 
ATOM     17  C   UNL A   1      32.249  22.962  27.016  1.00  0.00     0.067 A 
ATOM     18  N   UNL A   1      31.945  21.436  25.213  1.00  0.00    -0.200 NA
ATOM     19  C   UNL A   1      33.236  22.136  27.499  1.00  0.00     0.118 A 
ATOM     20  C   UNL A   1      32.929  20.720  25.770  1.00  0.00     0.224 A 
ATOM     21  N   UNL A   1      33.611  21.004  26.887  1.00  0.00    -0.226 NA
ATOM     22  Cl  UNL A   1      33.389  19.299  24.944  1.00  0.00    -0.041 Cl
ENDBRANCH  14  16
ENDBRANCH  13  14
ENDBRANCH   6   8
ENDBRANCH   3   4
ENDBRANCH   2   3
ENDBRANCH   1   2
BRANCH   1  23
ATOM     23  C   UNL A   1      33.554  28.438  26.886  1.00  0.00     0.116 C 
BRANCH  23  24
ATOM     24  N   UNL A   1      33.435  29.831  27.291  1.00  0.00    -0.352 N 
ATOM     25  C   UNL A   1      34.348  30.625  27.945  1.00  0.00     0.251 C 
ATOM     26  H   UNL A   1      32.582  30.265  27.065  1.00  0.00     0.163 HD
ATOM     27  O   UNL A   1      34.023  31.753  28.307  1.00  0.00    -0.269 OA
BRANCH  25  28
ATOM     28  C   UNL A   1      35.704  30.110  28.242  1.00  0.00     0.039 A 
ATOM     29  C   UNL A   1      36.680  30.167  27.244  1.00  0.00     0.014 A 
ATOM     30  C   UNL A   1      36.016  29.579  29.497  1.00  0.00     0.014 A 
ATOM     31  C   UNL A   1      37.986  29.755  27.525  1.00  0.00     0.010 A 
ATOM     32  C   UNL A   1      37.332  29.235  29.796  1.00  0.00     0.010 A 
ATOM     33  C   UNL A   1      38.331  29.316  28.814  1.00  0.00    -0.014 A 
BRANCH  33  34
ATOM     34  C   UNL A   1      39.723  28.920  29.152  1.00  0.00     0.031 A 
ATOM     35  C   UNL A   1      40.647  29.911  29.808  1.00  0.00     0.074 A 
ATOM     36  C   UNL A   1      40.176  27.694  28.816  1.00  0.00     0.049 A 
ATOM     37  N   UNL A   1      41.919  29.791  30.091  1.00  0.00    -0.248 NA
ATOM     38  C   UNL A   1      40.073  31.217  30.172  1.00  0.00     0.031 C 
ATOM     39  C   UNL A   1      39.396  26.652  28.146  1.00  0.00     0.029 A 
ATOM     40  N   UNL A   1      41.414  27.123  28.984  1.00  0.00    -0.354 N 
ATOM     41  C   UNL A   1      42.299  31.007  30.647  1.00  0.00     0.074 A 
ATOM     42  C   UNL A   1      41.137  31.866  30.620  1.00  0.00     0.031 C 
ATOM     43  C   UNL A   1      40.166  25.565  27.974  1.00  0.00     0.029 A 
ATOM     44  C   UNL A   1      41.504  25.843  28.488  1.00  0.00     0.049 A 
ATOM     45  H   UNL A   1      42.166  27.586  29.417  1.00  0.00     0.167 HD
ATOM     46  C   UNL A   1      43.502  31.370  31.155  1.00  0.00     0.031 A 
ATOM     47  C   UNL A   1      42.547  24.992  28.442  1.00  0.00     0.031 A 
ATOM     48  C   UNL A   1      44.653  30.510  31.204  1.00  0.00     0.049 A 
ATOM     49  C   UNL A   1      43.871  25.418  29.022  1.00  0.00     0.074 A 
ATOM     50  C   UNL A   1      45.906  30.779  31.727  1.00  0.00     0.029 A 
ATOM     51  N   UNL A   1      44.688  29.209  30.726  1.00  0.00    -0.354 N 
ATOM     52  N   UNL A   1      44.198  26.562  29.574  1.00  0.00    -0.248 NA
ATOM     53  C   UNL A   1      44.960  24.432  28.984  1.00  0.00     0.031 C 
ATOM     54  C   UNL A   1      46.709  29.649  31.540  1.00  0.00     0.029 A 
ATOM     55  C   UNL A   1      45.941  28.662  30.942  1.00  0.00     0.049 A 
ATOM     56  H   UNL A   1      43.935  28.744  30.297  1.00  0.00     0.167 HD
ATOM     57  C   UNL A   1      45.521  26.419  29.980  1.00  0.00     0.074 A 
ATOM     58  C   UNL A   1      45.928  25.077  29.621  1.00  0.00     0.031 C 
ATOM     59  C   UNL A   1      46.326  27.319  30.595  1.00  0.00     0.031 A 
BRANCH  46  60
ATOM     60  C   UNL A   1      43.629  32.761  31.714  1.00  0.00    -0.014 A 
ATOM     61  C   UNL A   1      43.918  33.851  30.872  1.00  0.00     0.010 A 
ATOM     62  C   UNL A   1      43.402  32.994  33.082  1.00  0.00     0.010 A 
ATOM     63  C   UNL A   1      44.011  35.143  31.394  1.00  0.00     0.020 A 
ATOM     64  C   UNL A   1      43.467  34.290  33.603  1.00  0.00     0.020 A 
ATOM     65  C   UNL A   1      43.784  35.354  32.756  1.00  0.00     0.054 A 
BRANCH  65  66
ATOM     66  S   UNL A   1      43.871  37.048  33.399  1.00  0.00     0.124 S 
ATOM     67  O   UNL A   1      43.981  37.831  32.170  1.00  0.00    -0.237 OA
ATOM     68  O   UNL A   1      42.607  37.184  34.119  1.00  0.00    -0.237 OA
ATOM     69  O   UNL A   1      45.066  37.039  34.240  1.00  0.00    -0.744 OA
ENDBRANCH  65  66
ENDBRANCH  46  60
BRANCH  47  70
ATOM     70  C   UNL A   1      42.391  23.642  27.835  1.00  0.00    -0.014 A 
ATOM     71  C   UNL A   1      42.156  22.517  28.645  1.00  0.00     0.010 A 
ATOM     72  C   UNL A   1      42.503  23.471  26.443  1.00  0.00     0.010 A 
ATOM     73  C   UNL A   1      42.073  21.241  28.079  1.00  0.00     0.020 A 
ATOM     74  C   UNL A   1      42.393  22.200  25.871  1.00  0.00     0.020 A 
ATOM     75  C   UNL A   1      42.198  21.091  26.696  1.00  0.00     0.054 A 
BRANCH  75  76
ATOM     76  S   UNL A   1      42.071  19.430  25.977  1.00  0.00     0.124 S 
ATOM     77  O   UNL A   1      42.566  18.591  27.064  1.00  0.00    -0.237 OA
ATOM     78  O   UNL A   1      40.643  19.316  25.688  1.00  0.00    -0.237 OA
ATOM     79  O   UNL A   1      42.931  19.503  24.799  1.00  0.00    -0.744 OA
ENDBRANCH  75  76
ENDBRANCH  47  70
BRANCH  59  80
ATOM     80  C   UNL A   1      47.710  26.868  30.972  1.00  0.00    -0.014 A 
ATOM     81  C   UNL A   1      47.980  26.314  32.235  1.00  0.00     0.010 A 
ATOM     82  C   UNL A   1      48.745  26.949  30.022  1.00  0.00     0.010 A 
ATOM     83  C   UNL A   1      49.270  25.880  32.553  1.00  0.00     0.020 A 
ATOM     84  C   UNL A   1      50.029  26.493  30.327  1.00  0.00     0.020 A 
ATOM     85  C   UNL A   1      50.287  25.974  31.597  1.00  0.00     0.054 A 
BRANCH  85  86
ATOM     86  S   UNL A   1      51.942  25.364  32.017  1.00  0.00     0.124 S 
ATOM     87  O   UNL A   1      52.730  25.809  30.872  1.00  0.00    -0.237 OA
ATOM     88  O   UNL A   1      52.225  26.042  33.280  1.00  0.00    -0.237 OA
ATOM     89  O   UNL A   1      51.759  23.917  32.124  1.00  0.00    -0.744 OA
ENDBRANCH  85  86
ENDBRANCH  59  80
ENDBRANCH  33  34
ENDBRANCH  25  28
ENDBRANCH  23  24
ENDBRANCH   1  23
TORSDOF 16
ENDMDL
MODEL 2
REMARK VINA RESULT:     -11.0      4.290      6.578
REMARK SMILES O=C(NCCCCNC(=O)c1ccc(-c2c3nc(c(-c4ccc(S(=O)(=O)[O-])cc4)c4ccc([nH]4)c(-c4ccc(S(=O)(=O)[O-])cc4)c4nc(c(-c5ccc(S(=O)(=O)[O-])cc5)c5ccc2[nH]5)C=C4)C=C3)cc1)c1ccc(Nc2ccnc(Cl)n2)cc1
REMARK SMILES IDX 6 1 5 2 4 3 3 4 1 5 2 6 71 8 72 9 84 10 73 11 83 12 74 13
REMARK SMILES IDX 75 14 76 16 77 17 82 18 78 19 80 20 79 21 81 22 7 23 8 24
REMARK SMILES IDX 9 25 10 27 11 28 12 29 70 30 13 31 69 32 14 33 15 34 16 35
REMARK SMILES IDX 63 36 17 37 68 38 62 39 64 40 18 41 67 42 61 43 60 44 19 46
REMARK SMILES IDX 49 47 30 48 48 49 31 50 34 51 47 52 65 53 32 54 33 55 46 57
REMARK SMILES IDX 66 58 35 59 20 60 21 61 29 62 22 63 28 64 23 65 24 66 25 67
REMARK SMILES IDX 26 68 27 69 50 70 51 71 59 72 52 73 58 74 53 75 54 76 55 77
REMARK SMILES IDX 56 78 57 79 36 80 37 81 45 82 38 83 44 84 39 85 40 86 41 87
REMARK SMILES IDX 42 88 43 89
REMARK H PARENT 3 7 75 15 8 26 64 45 34 56
REMARK Flexibility Score: inf
ROOT
ATOM      1  C   UNL A   1      35.173  34.059  28.551  1.00  0.00     0.023 C 
ENDROOT
BRANCH   1   2
ATOM      2  C   UNL A   1      34.321  35.319  28.682  1.00  0.00     0.023 C 
BRANCH   2   3
ATOM      3  C   UNL A   1      33.033  35.156  29.483  1.00  0.00     0.116 C 
BRANCH   3   4
ATOM      4  N   UNL A   1      32.794  36.261  30.402  1.00  0.00    -0.352 N 
ATOM      5  O   UNL A   1      32.756  37.323  32.403  1.00  0.00    -0.269 OA
ATOM      6  C   UNL A   1      33.159  36.385  31.722  1.00  0.00     0.251 C 
ATOM      7  H   UNL A   1      32.300  37.024  30.026  1.00  0.00     0.163 HD
BRANCH   6   8
ATOM      8  C   UNL A   1      34.030  35.362  32.329  1.00  0.00     0.039 A 
ATOM      9  C   UNL A   1      35.413  35.531  32.340  1.00  0.00     0.016 A 
ATOM     10  C   UNL A   1      33.461  34.203  32.858  1.00  0.00     0.016 A 
ATOM     11  C   UNL A   1      36.233  34.482  32.751  1.00  0.00     0.027 A 
ATOM     12  C   UNL A   1      34.292  33.167  33.298  1.00  0.00     0.027 A 
ATOM     13  C   UNL A   1      35.689  33.271  33.199  1.00  0.00     0.040 A 
BRANCH  13  14
ATOM     14  N   UNL A   1      36.480  32.159  33.549  1.00  0.00    -0.340 N 
ATOM     15  H   UNL A   1      36.350  31.365  32.983  1.00  0.00     0.168 HD
BRANCH  14  16
ATOM     16  C   UNL A   1      37.420  32.003  34.573  1.00  0.00     0.135 A 
ATOM     17  C   UNL A   1      38.565  31.244  34.409  1.00  0.00     0.067 A 
ATOM     18  N   UNL A   1      37.134  32.609  35.735  1.00  0.00    -0.200 NA
ATOM     19  C   UNL A   1      39.367  31.077  35.514  1.00  0.00     0.118 A 
ATOM     20  C   UNL A   1      37.981  32.364  36.743  1.00  0.00     0.224 A 
ATOM     21  N   UNL A   1      39.092  31.619  36.708  1.00  0.00    -0.226 NA
ATOM     22  Cl  UNL A   1      37.579  33.056  38.251  1.00  0.00    -0.041 Cl
ENDBRANCH  14  16
ENDBRANCH  13  14
ENDBRANCH   6   8
ENDBRANCH   3   4
ENDBRANCH   2   3
ENDBRANCH   1   2
BRANCH   1  23
ATOM     23  C   UNL A   1      34.714  32.863  29.380  1.00  0.00     0.116 C 
BRANCH  23  24
ATOM     24  N   UNL A   1      33.957  31.888  28.610  1.00  0.00    -0.352 N 
ATOM     25  C   UNL A   1      34.371  30.685  28.088  1.00  0.00     0.251 C 
ATOM     26  H   UNL A   1      33.017  32.122  28.440  1.00  0.00     0.163 HD
ATOM     27  O   UNL A   1      33.615  30.044  27.362  1.00  0.00    -0.269 OA
BRANCH  25  28
ATOM     28  C   UNL A   1      35.735  30.181  28.369  1.00  0.00     0.039 A 
ATOM     29  C   UNL A   1      36.712  30.289  27.376  1.00  0.00     0.014 A 
ATOM     30  C   UNL A   1      36.052  29.610  29.605  1.00  0.00     0.014 A 
ATOM     31  C   UNL A   1      38.024  29.887  27.646  1.00  0.00     0.010 A 
ATOM     32  C   UNL A   1      37.373  29.275  29.895  1.00  0.00     0.010 A 
ATOM     33  C   UNL A   1      38.373  29.408  28.919  1.00  0.00    -0.014 A 
BRANCH  33  34
ATOM     34  C   UNL A   1      39.770  29.021  29.246  1.00  0.00     0.031 A 
ATOM     35  C   UNL A   1      40.690  30.017  29.902  1.00  0.00     0.074 A 
ATOM     36  C   UNL A   1      40.232  27.802  28.901  1.00  0.00     0.049 A 
ATOM     37  N   UNL A   1      41.965  29.906  30.175  1.00  0.00    -0.248 NA
ATOM     38  C   UNL A   1      40.108  31.316  30.275  1.00  0.00     0.031 C 
ATOM     39  C   UNL A   1      39.455  26.757  28.230  1.00  0.00     0.029 A 
ATOM     40  N   UNL A   1      41.474  27.240  29.058  1.00  0.00    -0.354 N 
ATOM     41  C   UNL A   1      42.339  31.123  30.735  1.00  0.00     0.074 A 
ATOM     42  C   UNL A   1      41.170  31.972  30.720  1.00  0.00     0.031 C 
ATOM     43  C   UNL A   1      40.233  25.677  28.048  1.00  0.00     0.029 A 
ATOM     44  C   UNL A   1      41.572  25.963  28.555  1.00  0.00     0.049 A 
ATOM     45  H   UNL A   1      42.226  27.707  29.488  1.00  0.00     0.167 HD
ATOM     46  C   UNL A   1      43.542  31.493  31.237  1.00  0.00     0.031 A 
ATOM     47  C   UNL A   1      42.622  25.121  28.498  1.00  0.00     0.031 A 
ATOM     48  C   UNL A   1      44.700  30.642  31.274  1.00  0.00     0.049 A 
ATOM     49  C   UNL A   1      43.946  25.555  29.071  1.00  0.00     0.074 A 
ATOM     50  C   UNL A   1      45.954  30.918  31.790  1.00  0.00     0.029 A 
ATOM     51  N   UNL A   1      44.743  29.344  30.790  1.00  0.00    -0.354 N 
ATOM     52  N   UNL A   1      44.267  26.698  29.627  1.00  0.00    -0.248 NA
ATOM     53  C   UNL A   1      45.043  24.578  29.021  1.00  0.00     0.031 C 
ATOM     54  C   UNL A   1      46.766  29.797  31.593  1.00  0.00     0.029 A 
ATOM     55  C   UNL A   1      46.002  28.806  30.994  1.00  0.00     0.049 A 
ATOM     56  H   UNL A   1      43.990  28.874  30.363  1.00  0.00     0.167 HD
ATOM     57  C   UNL A   1      45.594  26.565  30.023  1.00  0.00     0.074 A 
ATOM     58  C   UNL A   1      46.010  25.228  29.655  1.00  0.00     0.031 C 
ATOM     59  C   UNL A   1      46.395  27.469  30.638  1.00  0.00     0.031 A 
BRANCH  46  60
ATOM     60  C   UNL A   1      43.661  32.882  31.802  1.00  0.00    -0.014 A 
ATOM     61  C   UNL A   1      43.925  33.980  30.963  1.00  0.00     0.010 A 
ATOM     62  C   UNL A   1      43.451  33.105  33.174  1.00  0.00     0.010 A 
ATOM     63  C   UNL A   1      44.010  35.270  31.490  1.00  0.00     0.020 A 
ATOM     64  C   UNL A   1      43.509  34.398  33.703  1.00  0.00     0.020 A 
ATOM     65  C   UNL A   1      43.802  35.471  32.858  1.00  0.00     0.054 A 
BRANCH  65  66
ATOM     66  S   UNL A   1      43.879  37.162  33.509  1.00  0.00     0.124 S 
ATOM     67  O   UNL A   1      44.912  37.043  34.535  1.00  0.00    -0.237 OA
ATOM     68  O   UNL A   1      44.251  37.943  32.331  1.00  0.00    -0.237 OA
ATOM     69  O   UNL A   1      42.528  37.402  34.010  1.00  0.00    -0.744 OA
ENDBRANCH  65  66
ENDBRANCH  46  60
BRANCH  47  70
ATOM     70  C   UNL A   1      42.473  23.772  27.885  1.00  0.00    -0.014 A 
ATOM     71  C   UNL A   1      42.090  22.670  28.668  1.00  0.00     0.010 A 
ATOM     72  C   UNL A   1      42.740  23.580  26.517  1.00  0.00     0.010 A 
ATOM     73  C   UNL A   1      42.012  21.393  28.105  1.00  0.00     0.020 A 
ATOM     74  C   UNL A   1      42.637  22.309  25.944  1.00  0.00     0.020 A 
ATOM     75  C   UNL A   1      42.292  21.221  26.746  1.00  0.00     0.054 A 
BRANCH  75  76
ATOM     76  S   UNL A   1      42.169  19.559  26.028  1.00  0.00     0.124 S 
ATOM     77  O   UNL A   1      40.747  19.468  25.714  1.00  0.00    -0.237 OA
ATOM     78  O   UNL A   1      43.068  19.641  24.879  1.00  0.00    -0.237 OA
ATOM     79  O   UNL A   1      42.631  18.688  27.107  1.00  0.00    -0.744 OA
ENDBRANCH  75  76
ENDBRANCH  47  70
BRANCH  59  80
ATOM     80  C   UNL A   1      47.786  27.026  31.004  1.00  0.00    -0.014 A 
ATOM     81  C   UNL A   1      48.048  26.369  32.218  1.00  0.00     0.010 A 
ATOM     82  C   UNL A   1      48.836  27.225  30.088  1.00  0.00     0.010 A 
ATOM     83  C   UNL A   1      49.345  25.946  32.524  1.00  0.00     0.020 A 
ATOM     84  C   UNL A   1      50.128  26.783  30.380  1.00  0.00     0.020 A 
ATOM     85  C   UNL A   1      50.377  26.158  31.603  1.00  0.00     0.054 A 
BRANCH  85  86
ATOM     86  S   UNL A   1      52.042  25.562  32.004  1.00  0.00     0.124 S 
ATOM     87  O   UNL A   1      52.355  26.322  33.210  1.00  0.00    -0.237 OA
ATOM     88  O   UNL A   1      51.834  24.129  32.199  1.00  0.00    -0.237 OA
ATOM     89  O   UNL A   1      52.828  25.914  30.823  1.00  0.00    -0.744 OA
ENDBRANCH  85  86
ENDBRANCH  59  80
ENDBRANCH  33  34
ENDBRANCH  25  28
ENDBRANCH  23  24
ENDBRANCH   1  23
TORSDOF 16
ENDMDL
MODEL 3
REMARK VINA RESULT:     -10.9      4.930     11.619
REMARK SMILES O=C(NCCCCNC(=O)c1ccc(-c2c3nc(c(-c4ccc(S(=O)(=O)[O-])cc4)c4ccc([nH]4)c(-c4ccc(S(=O)(=O)[O-])cc4)c4nc(c(-c5ccc(S(=O)(=O)[O-])cc5)c5ccc2[nH]5)C=C4)C=C3)cc1)c1ccc(Nc2ccnc(Cl)n2)cc1
REMARK SMILES IDX 6 1 5 2 4 3 3 4 1 5 2 6 71 8 72 9 84 10 73 11 83 12 74 13
REMARK SMILES IDX 75 14 76 16 77 17 82 18 78 19 80 20 79 21 81 22 7 23 8 24
REMARK SMILES IDX 9 25 10 27 11 28 12 29 70 30 13 31 69 32 14 33 15 34 16 35
REMARK SMILES IDX 63 36 17 37 68 38 62 39 64 40 18 41 67 42 61 43 60 44 19 46
REMARK SMILES IDX 49 47 30 48 48 49 31 50 34 51 47 52 65 53 32 54 33 55 46 57
REMARK SMILES IDX 66 58 35 59 20 60 21 61 29 62 22 63 28 64 23 65 24 66 25 67
REMARK SMILES IDX 26 68 27 69 50 70 51 71 59 72 52 73 58 74 53 75 54 76 55 77
REMARK SMILES IDX 56 78 57 79 36 80 37 81 45 82 38 83 44 84 39 85 40 86 41 87
REMARK SMILES IDX 42 88 43 89
REMARK H PARENT 3 7 75 15 8 26 64 45 34 56
REMARK Flexibility Score: inf
ROOT
ATOM      1  C   UNL A   1      42.219  22.437  26.593  1.00  0.00     0.023 C 
ENDROOT
BRANCH   1   2
ATOM      2  C   UNL A   1      42.835  23.501  27.499  1.00  0.00     0.023 C 
BRANCH   2   3
ATOM      3  C   UNL A   1      44.360  23.537  27.520  1.00  0.00     0.116 C 
BRANCH   3   4
ATOM      4  N   UNL A   1      44.948  23.356  26.199  1.00  0.00    -0.352 N 
ATOM      5  O   UNL A   1      45.653  23.983  24.139  1.00  0.00    -0.269 OA
ATOM      6  C   UNL A   1      45.298  24.306  25.268  1.00  0.00     0.251 C 
ATOM      7  H   UNL A   1      45.118  22.423  25.936  1.00  0.00     0.163 HD
BRANCH   6   8
ATOM      8  C   UNL A   1      45.222  25.733  25.630  1.00  0.00     0.039 A 
ATOM      9  C   UNL A   1      46.300  26.359  26.252  1.00  0.00     0.016 A 
ATOM     10  C   UNL A   1      44.048  26.443  25.380  1.00  0.00     0.016 A 
ATOM     11  C   UNL A   1      46.153  27.653  26.750  1.00  0.00     0.027 A 
ATOM     12  C   UNL A   1      43.919  27.752  25.856  1.00  0.00     0.027 A 
ATOM     13  C   UNL A   1      44.950  28.355  26.596  1.00  0.00     0.040 A 
BRANCH  13  14
ATOM     14  N   UNL A   1      44.732  29.632  27.150  1.00  0.00    -0.340 N 
ATOM     15  H   UNL A   1      44.164  29.641  27.954  1.00  0.00     0.168 HD
BRANCH  14  16
ATOM     16  C   UNL A   1      45.192  30.887  26.741  1.00  0.00     0.135 A 
ATOM     17  C   UNL A   1      46.478  31.322  27.011  1.00  0.00     0.067 A 
ATOM     18  N   UNL A   1      44.306  31.660  26.095  1.00  0.00    -0.200 NA
ATOM     19  C   UNL A   1      46.789  32.612  26.652  1.00  0.00     0.118 A 
ATOM     20  C   UNL A   1      44.718  32.901  25.805  1.00  0.00     0.224 A 
ATOM     21  N   UNL A   1      45.919  33.437  26.053  1.00  0.00    -0.226 NA
ATOM     22  Cl  UNL A   1      43.569  33.924  25.065  1.00  0.00    -0.041 Cl
ENDBRANCH  14  16
ENDBRANCH  13  14
ENDBRANCH   6   8
ENDBRANCH   3   4
ENDBRANCH   2   3
ENDBRANCH   1   2
BRANCH   1  23
ATOM     23  C   UNL A   1      41.018  21.694  27.171  1.00  0.00     0.116 C 
BRANCH  23  24
ATOM     24  N   UNL A   1      39.818  21.822  26.358  1.00  0.00    -0.352 N 
ATOM     25  C   UNL A   1      38.990  22.908  26.198  1.00  0.00     0.251 C 
ATOM     26  H   UNL A   1      39.564  21.018  25.852  1.00  0.00     0.163 HD
ATOM     27  O   UNL A   1      37.950  22.791  25.554  1.00  0.00    -0.269 OA
BRANCH  25  28
ATOM     28  C   UNL A   1      39.332  24.203  26.828  1.00  0.00     0.039 A 
ATOM     29  C   UNL A   1      38.985  24.416  28.165  1.00  0.00     0.014 A 
ATOM     30  C   UNL A   1      39.995  25.203  26.110  1.00  0.00     0.014 A 
ATOM     31  C   UNL A   1      39.363  25.602  28.801  1.00  0.00     0.010 A 
ATOM     32  C   UNL A   1      40.431  26.353  26.764  1.00  0.00     0.010 A 
ATOM     33  C   UNL A   1      40.118  26.567  28.115  1.00  0.00    -0.014 A 
BRANCH  33  34
ATOM     34  C   UNL A   1      40.575  27.814  28.783  1.00  0.00     0.031 A 
ATOM     35  C   UNL A   1      41.959  27.887  29.371  1.00  0.00     0.074 A 
ATOM     36  C   UNL A   1      39.729  28.856  28.917  1.00  0.00     0.049 A 
ATOM     37  N   UNL A   1      42.507  28.843  30.076  1.00  0.00    -0.248 NA
ATOM     38  C   UNL A   1      42.834  26.722  29.159  1.00  0.00     0.031 C 
ATOM     39  C   UNL A   1      38.351  28.902  28.425  1.00  0.00     0.029 A 
ATOM     40  N   UNL A   1      39.905  30.077  29.521  1.00  0.00    -0.354 N 
ATOM     41  C   UNL A   1      43.779  28.389  30.406  1.00  0.00     0.074 A 
ATOM     42  C   UNL A   1      43.906  27.055  29.864  1.00  0.00     0.031 C 
ATOM     43  C   UNL A   1      37.812  30.095  28.732  1.00  0.00     0.029 A 
ATOM     44  C   UNL A   1      38.792  30.884  29.473  1.00  0.00     0.049 A 
ATOM     45  H   UNL A   1      40.748  30.349  29.949  1.00  0.00     0.167 HD
ATOM     46  C   UNL A   1      44.762  29.033  31.081  1.00  0.00     0.031 A 
ATOM     47  C   UNL A   1      38.579  32.115  29.976  1.00  0.00     0.031 A 
ATOM     48  C   UNL A   1      44.647  30.368  31.601  1.00  0.00     0.049 A 
ATOM     49  C   UNL A   1      39.692  32.811  30.715  1.00  0.00     0.074 A 
ATOM     50  C   UNL A   1      45.599  31.115  32.272  1.00  0.00     0.029 A 
ATOM     51  N   UNL A   1      43.516  31.162  31.495  1.00  0.00    -0.354 N 
ATOM     52  N   UNL A   1      40.899  32.376  30.985  1.00  0.00    -0.248 NA
ATOM     53  C   UNL A   1      39.416  34.170  31.203  1.00  0.00     0.031 C 
ATOM     54  C   UNL A   1      45.035  32.353  32.598  1.00  0.00     0.029 A 
ATOM     55  C   UNL A   1      43.746  32.392  32.089  1.00  0.00     0.049 A 
ATOM     56  H   UNL A   1      42.674  30.893  31.063  1.00  0.00     0.167 HD
ATOM     57  C   UNL A   1      41.537  33.421  31.645  1.00  0.00     0.074 A 
ATOM     58  C   UNL A   1      40.589  34.511  31.722  1.00  0.00     0.031 C 
ATOM     59  C   UNL A   1      42.798  33.473  32.141  1.00  0.00     0.031 A 
BRANCH  46  60
ATOM     60  C   UNL A   1      46.060  28.300  31.283  1.00  0.00    -0.014 A 
ATOM     61  C   UNL A   1      46.280  27.532  32.440  1.00  0.00     0.010 A 
ATOM     62  C   UNL A   1      47.050  28.331  30.284  1.00  0.00     0.010 A 
ATOM     63  C   UNL A   1      47.477  26.834  32.611  1.00  0.00     0.020 A 
ATOM     64  C   UNL A   1      48.240  27.613  30.439  1.00  0.00     0.020 A 
ATOM     65  C   UNL A   1      48.450  26.879  31.608  1.00  0.00     0.054 A 
BRANCH  65  66
ATOM     66  S   UNL A   1      49.980  25.932  31.838  1.00  0.00     0.124 S 
ATOM     67  O   UNL A   1      50.931  26.980  32.200  1.00  0.00    -0.237 OA
ATOM     68  O   UNL A   1      49.626  25.007  32.913  1.00  0.00    -0.237 OA
ATOM     69  O   UNL A   1      50.202  25.312  30.535  1.00  0.00    -0.744 OA
ENDBRANCH  65  66
ENDBRANCH  46  60
BRANCH  47  70
ATOM     70  C   UNL A   1      37.261  32.784  29.796  1.00  0.00    -0.014 A 
ATOM     71  C   UNL A   1      37.006  33.562  28.653  1.00  0.00     0.010 A 
ATOM     72  C   UNL A   1      36.264  32.668  30.781  1.00  0.00     0.010 A 
ATOM     73  C   UNL A   1      35.792  34.241  28.515  1.00  0.00     0.020 A 
ATOM     74  C   UNL A   1      35.038  33.323  30.634  1.00  0.00     0.020 A 
ATOM     75  C   UNL A   1      34.818  34.122  29.510  1.00  0.00     0.054 A 
BRANCH  75  76
ATOM     76  S   UNL A   1      33.242  34.997  29.306  1.00  0.00     0.124 S 
ATOM     77  O   UNL A   1      32.709  34.983  30.666  1.00  0.00    -0.237 OA
ATOM     78  O   UNL A   1      33.665  36.303  28.806  1.00  0.00    -0.237 OA
ATOM     79  O   UNL A   1      32.519  34.174  28.340  1.00  0.00    -0.744 OA
ENDBRANCH  75  76
ENDBRANCH  47  70
BRANCH  59  80
ATOM     80  C   UNL A   1      43.245  34.768  32.762  1.00  0.00    -0.014 A 
ATOM     81  C   UNL A   1      43.709  35.834  31.974  1.00  0.00     0.010 A 
ATOM     82  C   UNL A   1      43.145  34.935  34.156  1.00  0.00     0.010 A 
ATOM     83  C   UNL A   1      44.097  37.036  32.573  1.00  0.00     0.020 A 
ATOM     84  C   UNL A   1      43.509  36.143  34.755  1.00  0.00     0.020 A 
ATOM     85  C   UNL A   1      43.996  37.182  33.960  1.00  0.00     0.054 A 
BRANCH  85  86
ATOM     86  S   UNL A   1      44.463  38.765  34.710  1.00  0.00     0.124 S 
ATOM     87  O   UNL A   1      44.025  38.589  36.091  1.00  0.00    -0.237 OA
ATOM     88  O   UNL A   1      45.910  38.803  34.508  1.00  0.00    -0.237 OA
ATOM     89  O   UNL A   1      43.708  39.749  33.937  1.00  0.00    -0.744 OA
ENDBRANCH  85  86
ENDBRANCH  59  80
ENDBRANCH  33  34
ENDBRANCH  25  28
ENDBRANCH  23  24
ENDBRANCH   1  23
TORSDOF 16
ENDMDL
