MODEL 1
REMARK VINA RESULT:     -11.4      0.000      0.000
REMARK SMILES CC1(C)[C@H]2CC[C@]1(C)[C@H](NC(=O)CCC(=O)NCCCCNC(=O)c1ccc(-c3c4nc(c(-c5ccc(S(=O)(=O)[O-])cc5)c5ccc([nH]5)c(-c5ccc(S(=O)(=O)[O-])cc5)c5nc(c(-c6ccc(S(=O)(=O)[O-])cc6)c6ccc3[nH]6)C=C5)C=C4)cc1)C2
REMARK SMILES IDX 19 1 18 2 17 3 15 4 16 5 14 7 13 8 11 9 10 10 12 12 9 13
REMARK SMILES IDX 1 14 2 15 3 16 4 17 7 18 5 19 85 20 6 21 8 22 20 23 21 24
REMARK SMILES IDX 22 25 23 26 24 28 25 29 26 30 84 31 27 32 83 33 28 34 29 35
REMARK SMILES IDX 30 36 77 37 31 38 82 39 76 40 78 41 32 42 81 43 75 44 74 45
REMARK SMILES IDX 33 47 63 48 44 49 62 50 45 51 48 52 61 53 79 54 46 55 47 56
REMARK SMILES IDX 60 58 80 59 49 60 34 61 35 62 43 63 36 64 42 65 37 66 38 67
REMARK SMILES IDX 39 68 40 69 41 70 64 71 65 72 73 73 66 74 72 75 67 76 68 77
REMARK SMILES IDX 69 78 70 79 71 80 50 81 51 82 59 83 52 84 58 85 53 86 54 87
REMARK SMILES IDX 55 88 56 89 57 90
REMARK H PARENT 17 6 10 11 22 27 78 46 48 57
REMARK Flexibility Score: inf
ROOT
ATOM      1  C   UNL A   1      35.658  21.676  25.914  1.00  0.00     0.023 C 
ENDROOT
BRANCH   1   2
ATOM      2  C   UNL A   1      34.429  21.567  26.813  1.00  0.00     0.116 C 
BRANCH   2   3
ATOM      3  N   UNL A   1      33.499  20.560  26.351  1.00  0.00    -0.356 N 
ATOM      4  C   UNL A   1      32.515  20.671  25.422  1.00  0.00     0.220 C 
ATOM      5  O   UNL A   1      31.918  19.651  25.075  1.00  0.00    -0.275 OA
ATOM      6  H   UNL A   1      33.593  19.672  26.766  1.00  0.00     0.163 HD
BRANCH   4   7
ATOM      7  C   UNL A   1      32.208  22.004  24.789  1.00  0.00     0.110 C 
BRANCH   7   8
ATOM      8  C   UNL A   1      31.017  22.814  25.277  1.00  0.00     0.110 C 
BRANCH   8   9
ATOM      9  C   UNL A   1      31.069  23.590  26.569  1.00  0.00     0.220 C 
ATOM     10  N   UNL A   1      31.352  24.916  26.637  1.00  0.00    -0.353 N 
ATOM     11  H   UNL A   1      31.783  25.180  27.482  1.00  0.00     0.163 HD
ATOM     12  O   UNL A   1      30.938  22.987  27.641  1.00  0.00    -0.275 OA
BRANCH  10  13
ATOM     13  C   UNL A   1      31.149  26.034  25.718  1.00  0.00     0.088 C 
ATOM     14  C   UNL A   1      33.090  29.233  24.584  1.00  0.00     0.012 C 
ATOM     15  C   UNL A   1      32.092  28.066  24.704  1.00  0.00    -0.025 C 
ATOM     16  C   UNL A   1      30.719  28.627  24.279  1.00  0.00     0.012 C 
ATOM     17  C   UNL A   1      32.562  26.817  23.925  1.00  0.00    -0.003 C 
ATOM     18  C   UNL A   1      32.081  27.272  26.050  1.00  0.00    -0.007 C 
ATOM     19  C   UNL A   1      33.831  26.349  24.677  1.00  0.00     0.005 C 
ATOM     20  C   UNL A   1      31.475  25.783  24.234  1.00  0.00     0.029 C 
ATOM     21  C   UNL A   1      33.540  26.750  26.132  1.00  0.00     0.010 C 
ATOM     22  C   UNL A   1      31.663  28.063  27.278  1.00  0.00     0.014 C 
ENDBRANCH  10  13
ENDBRANCH   8   9
ENDBRANCH   7   8
ENDBRANCH   4   7
ENDBRANCH   2   3
ENDBRANCH   1   2
BRANCH   1  23
ATOM     23  C   UNL A   1      35.761  22.958  25.103  1.00  0.00     0.023 C 
BRANCH  23  24
ATOM     24  C   UNL A   1      37.142  23.586  25.104  1.00  0.00     0.116 C 
BRANCH  24  25
ATOM     25  N   UNL A   1      38.195  22.668  25.505  1.00  0.00    -0.352 N 
ATOM     26  C   UNL A   1      39.309  22.916  26.283  1.00  0.00     0.251 C 
ATOM     27  H   UNL A   1      38.102  21.743  25.178  1.00  0.00     0.163 HD
ATOM     28  O   UNL A   1      40.149  22.057  26.469  1.00  0.00    -0.269 OA
BRANCH  26  29
ATOM     29  C   UNL A   1      39.461  24.273  26.837  1.00  0.00     0.039 A 
ATOM     30  C   UNL A   1      39.038  24.518  28.142  1.00  0.00     0.014 A 
ATOM     31  C   UNL A   1      40.134  25.247  26.099  1.00  0.00     0.014 A 
ATOM     32  C   UNL A   1      39.362  25.734  28.744  1.00  0.00     0.010 A 
ATOM     33  C   UNL A   1      40.549  26.405  26.734  1.00  0.00     0.010 A 
ATOM     34  C   UNL A   1      40.158  26.665  28.057  1.00  0.00    -0.014 A 
BRANCH  34  35
ATOM     35  C   UNL A   1      40.570  27.948  28.670  1.00  0.00     0.031 A 
ATOM     36  C   UNL A   1      41.975  28.083  29.191  1.00  0.00     0.074 A 
ATOM     37  C   UNL A   1      39.673  28.935  28.848  1.00  0.00     0.049 A 
ATOM     38  N   UNL A   1      42.502  29.038  29.910  1.00  0.00    -0.248 NA
ATOM     39  C   UNL A   1      42.891  26.964  28.910  1.00  0.00     0.031 C 
ATOM     40  C   UNL A   1      38.272  28.902  28.421  1.00  0.00     0.029 A 
ATOM     41  N   UNL A   1      39.809  30.162  29.445  1.00  0.00    -0.354 N 
ATOM     42  C   UNL A   1      43.789  28.608  30.212  1.00  0.00     0.074 A 
ATOM     43  C   UNL A   1      43.941  27.287  29.648  1.00  0.00     0.031 C 
ATOM     44  C   UNL A   1      37.693  30.076  28.726  1.00  0.00     0.029 A 
ATOM     45  C   UNL A   1      38.664  30.921  29.411  1.00  0.00     0.049 A 
ATOM     46  H   UNL A   1      40.648  30.470  29.857  1.00  0.00     0.167 HD
ATOM     47  C   UNL A   1      44.768  29.265  30.878  1.00  0.00     0.031 A 
ATOM     48  C   UNL A   1      38.431  32.162  29.879  1.00  0.00     0.031 A 
ATOM     49  C   UNL A   1      44.622  30.600  31.388  1.00  0.00     0.049 A 
ATOM     50  C   UNL A   1      39.543  32.896  30.574  1.00  0.00     0.074 A 
ATOM     51  C   UNL A   1      45.562  31.390  32.023  1.00  0.00     0.029 A 
ATOM     52  N   UNL A   1      43.457  31.349  31.299  1.00  0.00    -0.354 N 
ATOM     53  N   UNL A   1      40.763  32.488  30.830  1.00  0.00    -0.248 NA
ATOM     54  C   UNL A   1      39.248  34.258  31.037  1.00  0.00     0.031 C 
ATOM     55  C   UNL A   1      44.957  32.613  32.337  1.00  0.00     0.029 A 
ATOM     56  C   UNL A   1      43.653  32.595  31.866  1.00  0.00     0.049 A 
ATOM     57  H   UNL A   1      42.615  31.039  30.893  1.00  0.00     0.167 HD
ATOM     58  C   UNL A   1      41.393  33.554  31.460  1.00  0.00     0.074 A 
ATOM     59  C   UNL A   1      40.420  34.625  31.542  1.00  0.00     0.031 C 
ATOM     60  C   UNL A   1      42.664  33.642  31.927  1.00  0.00     0.031 A 
BRANCH  47  61
ATOM     61  C   UNL A   1      46.062  28.526  31.084  1.00  0.00    -0.014 A 
ATOM     62  C   UNL A   1      46.282  27.756  32.242  1.00  0.00     0.010 A 
ATOM     63  C   UNL A   1      47.094  28.646  30.137  1.00  0.00     0.010 A 
ATOM     64  C   UNL A   1      47.537  27.193  32.490  1.00  0.00     0.020 A 
ATOM     65  C   UNL A   1      48.340  28.055  30.365  1.00  0.00     0.020 A 
ATOM     66  C   UNL A   1      48.563  27.361  31.557  1.00  0.00     0.054 A 
BRANCH  66  67
ATOM     67  S   UNL A   1      50.197  26.661  31.917  1.00  0.00     0.124 S 
ATOM     68  O   UNL A   1      50.212  26.673  33.377  1.00  0.00    -0.237 OA
ATOM     69  O   UNL A   1      50.126  25.337  31.303  1.00  0.00    -0.237 OA
ATOM     70  O   UNL A   1      51.120  27.593  31.274  1.00  0.00    -0.744 OA
ENDBRANCH  66  67
ENDBRANCH  47  61
BRANCH  48  71
ATOM     71  C   UNL A   1      37.110  32.804  29.643  1.00  0.00    -0.014 A 
ATOM     72  C   UNL A   1      36.223  32.989  30.718  1.00  0.00     0.010 A 
ATOM     73  C   UNL A   1      36.751  33.276  28.368  1.00  0.00     0.010 A 
ATOM     74  C   UNL A   1      34.998  33.632  30.523  1.00  0.00     0.020 A 
ATOM     75  C   UNL A   1      35.534  33.939  28.174  1.00  0.00     0.020 A 
ATOM     76  C   UNL A   1      34.662  34.107  29.253  1.00  0.00     0.054 A 
BRANCH  76  77
ATOM     77  S   UNL A   1      33.102  35.010  29.043  1.00  0.00     0.124 S 
ATOM     78  O   UNL A   1      32.513  34.913  30.375  1.00  0.00    -0.237 OA
ATOM     79  O   UNL A   1      33.556  36.340  28.647  1.00  0.00    -0.237 OA
ATOM     80  O   UNL A   1      32.412  34.259  27.995  1.00  0.00    -0.744 OA
ENDBRANCH  76  77
ENDBRANCH  48  71
BRANCH  60  81
ATOM     81  C   UNL A   1      43.084  34.953  32.530  1.00  0.00    -0.014 A 
ATOM     82  C   UNL A   1      43.546  36.007  31.724  1.00  0.00     0.010 A 
ATOM     83  C   UNL A   1      42.950  35.147  33.916  1.00  0.00     0.010 A 
ATOM     84  C   UNL A   1      43.887  37.232  32.301  1.00  0.00     0.020 A 
ATOM     85  C   UNL A   1      43.270  36.378  34.492  1.00  0.00     0.020 A 
ATOM     86  C   UNL A   1      43.748  37.410  33.680  1.00  0.00     0.054 A 
BRANCH  86  87
ATOM     87  S   UNL A   1      44.142  39.027  34.399  1.00  0.00     0.124 S 
ATOM     88  O   UNL A   1      43.052  39.856  33.894  1.00  0.00    -0.237 OA
ATOM     89  O   UNL A   1      44.113  38.758  35.835  1.00  0.00    -0.237 OA
ATOM     90  O   UNL A   1      45.463  39.334  33.857  1.00  0.00    -0.744 OA
ENDBRANCH  86  87
ENDBRANCH  60  81
ENDBRANCH  34  35
ENDBRANCH  26  29
ENDBRANCH  24  25
ENDBRANCH  23  24
ENDBRANCH   1  23
TORSDOF 17
ENDMDL
MODEL 2
REMARK VINA RESULT:     -11.3      2.739      9.296
REMARK SMILES CC1(C)[C@H]2CC[C@]1(C)[C@H](NC(=O)CCC(=O)NCCCCNC(=O)c1ccc(-c3c4nc(c(-c5ccc(S(=O)(=O)[O-])cc5)c5ccc([nH]5)c(-c5ccc(S(=O)(=O)[O-])cc5)c5nc(c(-c6ccc(S(=O)(=O)[O-])cc6)c6ccc3[nH]6)C=C5)C=C4)cc1)C2
REMARK SMILES IDX 19 1 18 2 17 3 15 4 16 5 14 7 13 8 11 9 10 10 12 12 9 13
REMARK SMILES IDX 1 14 2 15 3 16 4 17 7 18 5 19 85 20 6 21 8 22 20 23 21 24
REMARK SMILES IDX 22 25 23 26 24 28 25 29 26 30 84 31 27 32 83 33 28 34 29 35
REMARK SMILES IDX 30 36 77 37 31 38 82 39 76 40 78 41 32 42 81 43 75 44 74 45
REMARK SMILES IDX 33 47 63 48 44 49 62 50 45 51 48 52 61 53 79 54 46 55 47 56
REMARK SMILES IDX 60 58 80 59 49 60 34 61 35 62 43 63 36 64 42 65 37 66 38 67
REMARK SMILES IDX 39 68 40 69 41 70 64 71 65 72 73 73 66 74 72 75 67 76 68 77
REMARK SMILES IDX 69 78 70 79 71 80 50 81 51 82 59 83 52 84 58 85 53 86 54 87
REMARK SMILES IDX 55 88 56 89 57 90
REMARK H PARENT 17 6 10 11 22 27 78 46 48 57
REMARK Flexibility Score: inf
ROOT
ATOM      1  C   UNL A   1      33.186  29.380  24.987  1.00  0.00     0.023 C 
ENDROOT
BRANCH   1   2
ATOM      2  C   UNL A   1      31.780  29.324  24.396  1.00  0.00     0.116 C 
BRANCH   2   3
ATOM      3  N   UNL A   1      31.714  28.490  23.216  1.00  0.00    -0.356 N 
ATOM      4  C   UNL A   1      30.729  27.640  22.827  1.00  0.00     0.220 C 
ATOM      5  O   UNL A   1      30.808  27.120  21.714  1.00  0.00    -0.275 OA
ATOM      6  H   UNL A   1      32.489  28.547  22.611  1.00  0.00     0.163 HD
BRANCH   4   7
ATOM      7  C   UNL A   1      29.539  27.391  23.718  1.00  0.00     0.110 C 
BRANCH   7   8
ATOM      8  C   UNL A   1      29.510  26.161  24.612  1.00  0.00     0.110 C 
BRANCH   8   9
ATOM      9  C   UNL A   1      30.571  25.922  25.656  1.00  0.00     0.220 C 
ATOM     10  N   UNL A   1      31.444  24.883  25.615  1.00  0.00    -0.353 N 
ATOM     11  H   UNL A   1      31.744  24.590  26.505  1.00  0.00     0.163 HD
ATOM     12  O   UNL A   1      30.606  26.647  26.658  1.00  0.00    -0.275 OA
BRANCH  10  13
ATOM     13  C   UNL A   1      32.034  24.110  24.523  1.00  0.00     0.088 C 
ATOM     14  C   UNL A   1      35.604  23.059  23.324  1.00  0.00     0.012 C 
ATOM     15  C   UNL A   1      34.081  23.189  23.521  1.00  0.00    -0.025 C 
ATOM     16  C   UNL A   1      33.447  22.996  22.127  1.00  0.00     0.012 C 
ATOM     17  C   UNL A   1      33.555  22.239  24.621  1.00  0.00    -0.003 C 
ATOM     18  C   UNL A   1      33.568  24.442  24.301  1.00  0.00    -0.007 C 
ATOM     19  C   UNL A   1      34.184  22.778  25.928  1.00  0.00     0.005 C 
ATOM     20  C   UNL A   1      32.063  22.580  24.691  1.00  0.00     0.029 C 
ATOM     21  C   UNL A   1      34.282  24.289  25.670  1.00  0.00     0.010 C 
ATOM     22  C   UNL A   1      33.832  25.784  23.639  1.00  0.00     0.014 C 
ENDBRANCH  10  13
ENDBRANCH   8   9
ENDBRANCH   7   8
ENDBRANCH   4   7
ENDBRANCH   2   3
ENDBRANCH   1   2
BRANCH   1  23
ATOM     23  C   UNL A   1      33.527  28.268  25.967  1.00  0.00     0.023 C 
BRANCH  23  24
ATOM     24  C   UNL A   1      33.416  28.667  27.426  1.00  0.00     0.116 C 
BRANCH  24  25
ATOM     25  N   UNL A   1      33.486  30.104  27.640  1.00  0.00    -0.352 N 
ATOM     26  C   UNL A   1      34.555  30.863  28.073  1.00  0.00     0.251 C 
ATOM     27  H   UNL A   1      32.658  30.603  27.450  1.00  0.00     0.163 HD
ATOM     28  O   UNL A   1      34.435  32.055  28.280  1.00  0.00    -0.269 OA
BRANCH  26  29
ATOM     29  C   UNL A   1      35.828  30.164  28.319  1.00  0.00     0.039 A 
ATOM     30  C   UNL A   1      36.797  30.158  27.317  1.00  0.00     0.014 A 
ATOM     31  C   UNL A   1      36.090  29.633  29.583  1.00  0.00     0.014 A 
ATOM     32  C   UNL A   1      38.074  29.681  27.611  1.00  0.00     0.010 A 
ATOM     33  C   UNL A   1      37.386  29.265  29.902  1.00  0.00     0.010 A 
ATOM     34  C   UNL A   1      38.386  29.273  28.918  1.00  0.00    -0.014 A 
BRANCH  34  35
ATOM     35  C   UNL A   1      39.741  28.806  29.292  1.00  0.00     0.031 A 
ATOM     36  C   UNL A   1      40.644  29.737  30.053  1.00  0.00     0.074 A 
ATOM     37  C   UNL A   1      40.187  27.609  28.868  1.00  0.00     0.049 A 
ATOM     38  N   UNL A   1      41.913  29.611  30.336  1.00  0.00    -0.248 NA
ATOM     39  C   UNL A   1      40.047  31.006  30.507  1.00  0.00     0.031 C 
ATOM     40  C   UNL A   1      39.416  26.637  28.088  1.00  0.00     0.029 A 
ATOM     41  N   UNL A   1      41.409  27.009  29.031  1.00  0.00    -0.354 N 
ATOM     42  C   UNL A   1      42.276  30.804  30.949  1.00  0.00     0.074 A 
ATOM     43  C   UNL A   1      41.112  31.659  30.945  1.00  0.00     0.031 C 
ATOM     44  C   UNL A   1      40.168  25.543  27.885  1.00  0.00     0.029 A 
ATOM     45  C   UNL A   1      41.485  25.755  28.475  1.00  0.00     0.049 A 
ATOM     46  H   UNL A   1      42.160  27.435  29.503  1.00  0.00     0.167 HD
ATOM     47  C   UNL A   1      43.468  31.150  31.492  1.00  0.00     0.031 A 
ATOM     48  C   UNL A   1      42.506  24.876  28.449  1.00  0.00     0.031 A 
ATOM     49  C   UNL A   1      44.604  30.272  31.537  1.00  0.00     0.049 A 
ATOM     50  C   UNL A   1      43.806  25.257  29.098  1.00  0.00     0.074 A 
ATOM     51  C   UNL A   1      45.840  30.487  32.116  1.00  0.00     0.029 A 
ATOM     52  N   UNL A   1      44.627  28.994  30.996  1.00  0.00    -0.354 N 
ATOM     53  N   UNL A   1      44.130  26.379  29.697  1.00  0.00    -0.248 NA
ATOM     54  C   UNL A   1      44.877  24.252  29.072  1.00  0.00     0.031 C 
ATOM     55  C   UNL A   1      46.621  29.344  31.904  1.00  0.00     0.029 A 
ATOM     56  C   UNL A   1      45.857  28.406  31.226  1.00  0.00     0.049 A 
ATOM     57  H   UNL A   1      43.878  28.569  30.517  1.00  0.00     0.167 HD
ATOM     58  C   UNL A   1      45.433  26.206  30.145  1.00  0.00     0.074 A 
ATOM     59  C   UNL A   1      45.835  24.870  29.752  1.00  0.00     0.031 C 
ATOM     60  C   UNL A   1      46.225  27.071  30.826  1.00  0.00     0.031 A 
BRANCH  47  61
ATOM     61  C   UNL A   1      43.577  32.538  32.063  1.00  0.00    -0.014 A 
ATOM     62  C   UNL A   1      43.927  33.632  31.248  1.00  0.00     0.010 A 
ATOM     63  C   UNL A   1      43.382  32.746  33.439  1.00  0.00     0.010 A 
ATOM     64  C   UNL A   1      44.165  34.888  31.813  1.00  0.00     0.020 A 
ATOM     65  C   UNL A   1      43.586  34.009  34.003  1.00  0.00     0.020 A 
ATOM     66  C   UNL A   1      44.009  35.063  33.190  1.00  0.00     0.054 A 
BRANCH  66  67
ATOM     67  S   UNL A   1      44.366  36.688  33.912  1.00  0.00     0.124 S 
ATOM     68  O   UNL A   1      44.209  36.422  35.340  1.00  0.00    -0.237 OA
ATOM     69  O   UNL A   1      45.736  36.947  33.471  1.00  0.00    -0.237 OA
ATOM     70  O   UNL A   1      43.352  37.558  33.323  1.00  0.00    -0.744 OA
ENDBRANCH  66  67
ENDBRANCH  47  61
BRANCH  48  71
ATOM     71  C   UNL A   1      42.308  23.532  27.844  1.00  0.00    -0.014 A 
ATOM     72  C   UNL A   1      42.581  23.334  26.479  1.00  0.00     0.010 A 
ATOM     73  C   UNL A   1      41.898  22.438  28.627  1.00  0.00     0.010 A 
ATOM     74  C   UNL A   1      42.445  22.068  25.905  1.00  0.00     0.020 A 
ATOM     75  C   UNL A   1      41.782  21.164  28.060  1.00  0.00     0.020 A 
ATOM     76  C   UNL A   1      42.050  20.989  26.700  1.00  0.00     0.054 A 
BRANCH  76  77
ATOM     77  S   UNL A   1      41.960  19.339  25.949  1.00  0.00     0.124 S 
ATOM     78  O   UNL A   1      42.867  19.472  24.814  1.00  0.00    -0.237 OA
ATOM     79  O   UNL A   1      42.422  18.473  27.031  1.00  0.00    -0.237 OA
ATOM     80  O   UNL A   1      40.545  19.196  25.610  1.00  0.00    -0.744 OA
ENDBRANCH  76  77
ENDBRANCH  48  71
BRANCH  60  81
ATOM     81  C   UNL A   1      47.591  26.585  31.220  1.00  0.00    -0.014 A 
ATOM     82  C   UNL A   1      47.804  25.942  32.451  1.00  0.00     0.010 A 
ATOM     83  C   UNL A   1      48.659  26.719  30.314  1.00  0.00     0.010 A 
ATOM     84  C   UNL A   1      49.073  25.457  32.778  1.00  0.00     0.020 A 
ATOM     85  C   UNL A   1      49.922  26.216  30.630  1.00  0.00     0.020 A 
ATOM     86  C   UNL A   1      50.123  25.597  31.866  1.00  0.00     0.054 A 
BRANCH  86  87
ATOM     87  S   UNL A   1      51.747  24.909  32.287  1.00  0.00     0.124 S 
ATOM     88  O   UNL A   1      52.602  25.506  31.267  1.00  0.00    -0.237 OA
ATOM     89  O   UNL A   1      51.960  25.394  33.649  1.00  0.00    -0.237 OA
ATOM     90  O   UNL A   1      51.550  23.466  32.172  1.00  0.00    -0.744 OA
ENDBRANCH  86  87
ENDBRANCH  60  81
ENDBRANCH  34  35
ENDBRANCH  26  29
ENDBRANCH  24  25
ENDBRANCH  23  24
ENDBRANCH   1  23
TORSDOF 17
ENDMDL
MODEL 3
REMARK VINA RESULT:     -10.7      4.420      9.688
REMARK SMILES CC1(C)[C@H]2CC[C@]1(C)[C@H](NC(=O)CCC(=O)NCCCCNC(=O)c1ccc(-c3c4nc(c(-c5ccc(S(=O)(=O)[O-])cc5)c5ccc([nH]5)c(-c5ccc(S(=O)(=O)[O-])cc5)c5nc(c(-c6ccc(S(=O)(=O)[O-])cc6)c6ccc3[nH]6)C=C5)C=C4)cc1)C2
REMARK SMILES IDX 19 1 18 2 17 3 15 4 16 5 14 7 13 8 11 9 10 10 12 12 9 13
REMARK SMILES IDX 1 14 2 15 3 16 4 17 7 18 5 19 85 20 6 21 8 22 20 23 21 24
REMARK SMILES IDX 22 25 23 26 24 28 25 29 26 30 84 31 27 32 83 33 28 34 29 35
REMARK SMILES IDX 30 36 77 37 31 38 82 39 76 40 78 41 32 42 81 43 75 44 74 45
REMARK SMILES IDX 33 47 63 48 44 49 62 50 45 51 48 52 61 53 79 54 46 55 47 56
REMARK SMILES IDX 60 58 80 59 49 60 34 61 35 62 43 63 36 64 42 65 37 66 38 67
REMARK SMILES IDX 39 68 40 69 41 70 64 71 65 72 73 73 66 74 72 75 67 76 68 77
REMARK SMILES IDX 69 78 70 79 71 80 50 81 51 82 59 83 52 84 58 85 53 86 54 87
REMARK SMILES IDX 55 88 56 89 57 90
REMARK H PARENT 17 6 10 11 22 27 78 46 48 57
REMARK Flexibility Score: inf
ROOT
ATOM      1  C   UNL A   1      33.416  28.196  26.640  1.00  0.00     0.023 C 
ENDROOT
BRANCH   1   2
ATOM      2  C   UNL A   1      31.978  28.211  26.130  1.00  0.00     0.116 C 
BRANCH   2   3
ATOM      3  N   UNL A   1      31.217  27.074  26.600  1.00  0.00    -0.356 N 
ATOM      4  C   UNL A   1      30.548  26.140  25.876  1.00  0.00     0.220 C 
ATOM      5  O   UNL A   1      30.071  25.171  26.468  1.00  0.00    -0.275 OA
ATOM      6  H   UNL A   1      31.180  26.962  27.577  1.00  0.00     0.163 HD
BRANCH   4   7
ATOM      7  C   UNL A   1      30.448  26.260  24.377  1.00  0.00     0.110 C 
BRANCH   7   8
ATOM      8  C   UNL A   1      31.178  25.264  23.490  1.00  0.00     0.110 C 
BRANCH   8   9
ATOM      9  C   UNL A   1      32.597  25.504  23.039  1.00  0.00     0.220 C 
ATOM     10  N   UNL A   1      33.684  25.228  23.804  1.00  0.00    -0.353 N 
ATOM     11  H   UNL A   1      34.454  25.811  23.612  1.00  0.00     0.163 HD
ATOM     12  O   UNL A   1      32.799  26.063  21.954  1.00  0.00    -0.275 OA
BRANCH  10  13
ATOM     13  C   UNL A   1      33.950  24.246  24.853  1.00  0.00     0.088 C 
ATOM     14  C   UNL A   1      35.757  20.796  25.192  1.00  0.00     0.012 C 
ATOM     15  C   UNL A   1      35.052  22.137  25.470  1.00  0.00    -0.025 C 
ATOM     16  C   UNL A   1      34.174  21.912  26.719  1.00  0.00     0.012 C 
ATOM     17  C   UNL A   1      36.055  23.309  25.573  1.00  0.00    -0.003 C 
ATOM     18  C   UNL A   1      34.317  22.818  24.272  1.00  0.00    -0.007 C 
ATOM     19  C   UNL A   1      36.639  23.443  24.147  1.00  0.00     0.005 C 
ATOM     20  C   UNL A   1      35.147  24.526  25.781  1.00  0.00     0.029 C 
ATOM     21  C   UNL A   1      35.469  23.011  23.250  1.00  0.00     0.010 C 
ATOM     22  C   UNL A   1      33.137  22.049  23.701  1.00  0.00     0.014 C 
ENDBRANCH  10  13
ENDBRANCH   8   9
ENDBRANCH   7   8
ENDBRANCH   4   7
ENDBRANCH   2   3
ENDBRANCH   1   2
BRANCH   1  23
ATOM     23  C   UNL A   1      33.950  29.534  27.127  1.00  0.00     0.023 C 
BRANCH  23  24
ATOM     24  C   UNL A   1      35.352  29.473  27.704  1.00  0.00     0.116 C 
BRANCH  24  25
ATOM     25  N   UNL A   1      35.399  29.724  29.136  1.00  0.00    -0.352 N 
ATOM     26  C   UNL A   1      36.461  29.572  30.005  1.00  0.00     0.251 C 
ATOM     27  H   UNL A   1      34.560  30.045  29.540  1.00  0.00     0.163 HD
ATOM     28  O   UNL A   1      36.323  29.749  31.200  1.00  0.00    -0.269 OA
BRANCH  26  29
ATOM     29  C   UNL A   1      37.749  29.142  29.435  1.00  0.00     0.039 A 
ATOM     30  C   UNL A   1      38.078  29.541  28.140  1.00  0.00     0.014 A 
ATOM     31  C   UNL A   1      38.664  28.458  30.236  1.00  0.00     0.014 A 
ATOM     32  C   UNL A   1      39.371  29.315  27.669  1.00  0.00     0.010 A 
ATOM     33  C   UNL A   1      39.974  28.336  29.807  1.00  0.00     0.010 A 
ATOM     34  C   UNL A   1      40.337  28.752  28.516  1.00  0.00    -0.014 A 
BRANCH  34  35
ATOM     35  C   UNL A   1      41.736  28.538  28.080  1.00  0.00     0.031 A 
ATOM     36  C   UNL A   1      42.150  27.168  27.618  1.00  0.00     0.074 A 
ATOM     37  C   UNL A   1      42.641  29.528  28.192  1.00  0.00     0.049 A 
ATOM     38  N   UNL A   1      43.344  26.709  27.355  1.00  0.00    -0.248 NA
ATOM     39  C   UNL A   1      41.077  26.166  27.491  1.00  0.00     0.031 C 
ATOM     40  C   UNL A   1      42.366  30.887  28.665  1.00  0.00     0.029 A 
ATOM     41  N   UNL A   1      43.985  29.537  27.919  1.00  0.00    -0.354 N 
ATOM     42  C   UNL A   1      43.171  25.356  27.087  1.00  0.00     0.074 A 
ATOM     43  C   UNL A   1      41.770  25.059  27.275  1.00  0.00     0.031 C 
ATOM     44  C   UNL A   1      43.496  31.611  28.601  1.00  0.00     0.029 A 
ATOM     45  C   UNL A   1      44.581  30.757  28.131  1.00  0.00     0.049 A 
ATOM     46  H   UNL A   1      44.475  28.746  27.600  1.00  0.00     0.167 HD
ATOM     47  C   UNL A   1      44.093  24.445  26.694  1.00  0.00     0.031 A 
ATOM     48  C   UNL A   1      45.862  31.139  27.962  1.00  0.00     0.031 A 
ATOM     49  C   UNL A   1      45.474  24.764  26.460  1.00  0.00     0.049 A 
ATOM     50  C   UNL A   1      46.862  30.127  27.479  1.00  0.00     0.074 A 
ATOM     51  C   UNL A   1      46.485  23.941  26.000  1.00  0.00     0.029 A 
ATOM     52  N   UNL A   1      46.030  26.021  26.650  1.00  0.00    -0.354 N 
ATOM     53  N   UNL A   1      46.681  28.857  27.205  1.00  0.00    -0.248 NA
ATOM     54  C   UNL A   1      48.238  30.601  27.279  1.00  0.00     0.031 C 
ATOM     55  C   UNL A   1      47.660  24.698  25.933  1.00  0.00     0.029 A 
ATOM     56  C   UNL A   1      47.371  25.999  26.316  1.00  0.00     0.049 A 
ATOM     57  H   UNL A   1      45.541  26.812  26.976  1.00  0.00     0.167 HD
ATOM     58  C   UNL A   1      47.913  28.384  26.771  1.00  0.00     0.074 A 
ATOM     59  C   UNL A   1      48.829  29.507  26.816  1.00  0.00     0.031 C 
ATOM     60  C   UNL A   1      48.256  27.136  26.367  1.00  0.00     0.031 A 
BRANCH  47  61
ATOM     61  C   UNL A   1      43.613  23.031  26.509  1.00  0.00    -0.014 A 
ATOM     62  C   UNL A   1      42.897  22.368  27.525  1.00  0.00     0.010 A 
ATOM     63  C   UNL A   1      43.929  22.333  25.331  1.00  0.00     0.010 A 
ATOM     64  C   UNL A   1      42.582  21.013  27.401  1.00  0.00     0.020 A 
ATOM     65  C   UNL A   1      43.585  20.986  25.188  1.00  0.00     0.020 A 
ATOM     66  C   UNL A   1      42.944  20.326  26.239  1.00  0.00     0.054 A 
BRANCH  66  67
ATOM     67  S   UNL A   1      42.567  18.557  26.115  1.00  0.00     0.124 S 
ATOM     68  O   UNL A   1      43.469  18.134  25.046  1.00  0.00    -0.237 OA
ATOM     69  O   UNL A   1      42.901  18.058  27.448  1.00  0.00    -0.237 OA
ATOM     70  O   UNL A   1      41.146  18.529  25.782  1.00  0.00    -0.744 OA
ENDBRANCH  66  67
ENDBRANCH  47  61
BRANCH  48  71
ATOM     71  C   UNL A   1      46.245  32.558  28.188  1.00  0.00    -0.014 A 
ATOM     72  C   UNL A   1      46.743  32.955  29.442  1.00  0.00     0.010 A 
ATOM     73  C   UNL A   1      46.165  33.504  27.152  1.00  0.00     0.010 A 
ATOM     74  C   UNL A   1      47.152  34.273  29.658  1.00  0.00     0.020 A 
ATOM     75  C   UNL A   1      46.593  34.821  27.359  1.00  0.00     0.020 A 
ATOM     76  C   UNL A   1      47.078  35.198  28.614  1.00  0.00     0.054 A 
BRANCH  76  77
ATOM     77  S   UNL A   1      47.691  36.883  28.895  1.00  0.00     0.124 S 
ATOM     78  O   UNL A   1      47.308  37.555  27.657  1.00  0.00    -0.237 OA
ATOM     79  O   UNL A   1      46.957  37.291  30.090  1.00  0.00    -0.237 OA
ATOM     80  O   UNL A   1      49.127  36.696  29.090  1.00  0.00    -0.744 OA
ENDBRANCH  76  77
ENDBRANCH  48  71
BRANCH  60  81
ATOM     81  C   UNL A   1      49.671  26.929  25.906  1.00  0.00    -0.014 A 
ATOM     82  C   UNL A   1      50.565  26.133  26.643  1.00  0.00     0.010 A 
ATOM     83  C   UNL A   1      50.086  27.487  24.683  1.00  0.00     0.010 A 
ATOM     84  C   UNL A   1      51.862  25.916  26.171  1.00  0.00     0.020 A 
ATOM     85  C   UNL A   1      51.375  27.254  24.200  1.00  0.00     0.020 A 
ATOM     86  C   UNL A   1      52.259  26.478  24.954  1.00  0.00     0.054 A 
BRANCH  86  87
ATOM     87  S   UNL A   1      53.928  26.135  24.334  1.00  0.00     0.124 S 
ATOM     88  O   UNL A   1      53.689  25.961  22.905  1.00  0.00    -0.237 OA
ATOM     89  O   UNL A   1      54.665  27.341  24.706  1.00  0.00    -0.237 OA
ATOM     90  O   UNL A   1      54.322  24.927  25.054  1.00  0.00    -0.744 OA
ENDBRANCH  86  87
ENDBRANCH  60  81
ENDBRANCH  34  35
ENDBRANCH  26  29
ENDBRANCH  24  25
ENDBRANCH  23  24
ENDBRANCH   1  23
TORSDOF 17
ENDMDL
