MODEL 1
REMARK VINA RESULT:     -11.0      0.000      0.000
REMARK SMILES O=C(NCCCCNC(=O)[C@@H]1C=C[C@H](NS(=O)(=O)c2ccc(Cl)cc2)C1)c1ccc(-c2c3nc(c(-c4ccc(S(=O)(=O)[O-])cc4)c4ccc([nH]4)c(-c4ccc(S(=O)(=O)[O-])cc4)c4nc(c(-c5ccc(S(=O)(=O)[O-])cc5)c5ccc2[nH]5)C=C4)C=C3)cc1
REMARK SMILES IDX 5 1 4 2 3 3 1 4 2 5 27 7 28 8 86 9 29 10 85 11 30 12 31 13
REMARK SMILES IDX 32 14 79 15 33 16 84 17 78 18 80 19 34 20 83 21 77 22 76 23
REMARK SMILES IDX 35 25 65 26 46 27 64 28 47 29 50 30 63 31 81 32 48 33 49 34
REMARK SMILES IDX 62 36 82 37 51 38 36 39 37 40 45 41 38 42 44 43 39 44 40 45
REMARK SMILES IDX 41 46 42 47 43 48 66 49 67 50 75 51 68 52 74 53 69 54 70 55
REMARK SMILES IDX 71 56 72 57 73 58 52 59 53 60 61 61 54 62 60 63 55 64 56 65
REMARK SMILES IDX 57 66 58 67 59 68 6 69 7 70 8 71 9 72 10 74 11 75 12 76
REMARK SMILES IDX 26 77 13 78 14 79 15 80 16 82 17 83 18 84 19 85 20 86 25 87
REMARK SMILES IDX 21 88 24 89 22 90 23 91
REMARK H PARENT 3 6 80 24 50 35 8 73 15 81
REMARK Flexibility Score: inf
ROOT
ATOM      1  C   UNL A   1      33.102  28.041  25.631  1.00  0.00     0.023 C 
ENDROOT
BRANCH   1   2
ATOM      2  C   UNL A   1      33.403  28.326  27.095  1.00  0.00     0.116 C 
BRANCH   2   3
ATOM      3  N   UNL A   1      33.265  29.731  27.456  1.00  0.00    -0.352 N 
ATOM      4  O   UNL A   1      33.873  31.726  28.309  1.00  0.00    -0.269 OA
ATOM      5  C   UNL A   1      34.196  30.583  27.999  1.00  0.00     0.251 C 
ATOM      6  H   UNL A   1      32.379  30.125  27.286  1.00  0.00     0.163 HD
BRANCH   5   7
ATOM      7  C   UNL A   1      35.568  30.098  28.242  1.00  0.00     0.039 A 
ATOM      8  C   UNL A   1      35.937  29.617  29.501  1.00  0.00     0.014 A 
ATOM      9  C   UNL A   1      36.504  30.165  27.207  1.00  0.00     0.014 A 
ATOM     10  C   UNL A   1      37.273  29.352  29.767  1.00  0.00     0.010 A 
ATOM     11  C   UNL A   1      37.833  29.817  27.456  1.00  0.00     0.010 A 
ATOM     12  C   UNL A   1      38.235  29.445  28.747  1.00  0.00    -0.014 A 
BRANCH  12  13
ATOM     13  C   UNL A   1      39.645  29.102  29.051  1.00  0.00     0.031 A 
ATOM     14  C   UNL A   1      40.537  30.060  29.790  1.00  0.00     0.074 A 
ATOM     15  C   UNL A   1      40.102  27.889  28.687  1.00  0.00     0.049 A 
ATOM     16  N   UNL A   1      41.780  29.897  30.169  1.00  0.00    -0.248 NA
ATOM     17  C   UNL A   1      39.969  31.370  30.147  1.00  0.00     0.031 C 
ATOM     18  C   UNL A   1      39.324  26.879  27.964  1.00  0.00     0.029 A 
ATOM     19  N   UNL A   1      41.315  27.289  28.897  1.00  0.00    -0.354 N 
ATOM     20  C   UNL A   1      42.151  31.086  30.783  1.00  0.00     0.074 A 
ATOM     21  C   UNL A   1      41.007  31.970  30.715  1.00  0.00     0.031 C 
ATOM     22  C   UNL A   1      40.058  25.763  27.844  1.00  0.00     0.029 A 
ATOM     23  C   UNL A   1      41.375  25.999  28.425  1.00  0.00     0.049 A 
ATOM     24  H   UNL A   1      42.070  27.735  29.344  1.00  0.00     0.167 HD
ATOM     25  C   UNL A   1      43.338  31.411  31.352  1.00  0.00     0.031 A 
ATOM     26  C   UNL A   1      42.379  25.105  28.446  1.00  0.00     0.031 A 
ATOM     27  C   UNL A   1      44.471  30.525  31.421  1.00  0.00     0.049 A 
ATOM     28  C   UNL A   1      43.685  25.492  29.072  1.00  0.00     0.074 A 
ATOM     29  C   UNL A   1      45.707  30.751  31.999  1.00  0.00     0.029 A 
ATOM     30  N   UNL A   1      44.506  29.243  30.892  1.00  0.00    -0.354 N 
ATOM     31  N   UNL A   1      44.011  26.618  29.660  1.00  0.00    -0.248 NA
ATOM     32  C   UNL A   1      44.759  24.492  29.029  1.00  0.00     0.031 C 
ATOM     33  C   UNL A   1      46.505  29.620  31.784  1.00  0.00     0.029 A 
ATOM     34  C   UNL A   1      45.750  28.673  31.110  1.00  0.00     0.049 A 
ATOM     35  H   UNL A   1      43.757  28.803  30.429  1.00  0.00     0.167 HD
ATOM     36  C   UNL A   1      45.331  26.463  30.062  1.00  0.00     0.074 A 
ATOM     37  C   UNL A   1      45.734  25.126  29.670  1.00  0.00     0.031 C 
ATOM     38  C   UNL A   1      46.137  27.350  30.695  1.00  0.00     0.031 A 
BRANCH  25  39
ATOM     39  C   UNL A   1      43.479  32.800  31.915  1.00  0.00    -0.014 A 
ATOM     40  C   UNL A   1      43.897  33.875  31.111  1.00  0.00     0.010 A 
ATOM     41  C   UNL A   1      43.165  33.037  33.266  1.00  0.00     0.010 A 
ATOM     42  C   UNL A   1      44.041  35.153  31.658  1.00  0.00     0.020 A 
ATOM     43  C   UNL A   1      43.287  34.319  33.812  1.00  0.00     0.020 A 
ATOM     44  C   UNL A   1      43.744  35.365  33.009  1.00  0.00     0.054 A 
BRANCH  44  45
ATOM     45  S   UNL A   1      43.938  37.032  33.698  1.00  0.00     0.124 S 
ATOM     46  O   UNL A   1      44.154  37.831  32.494  1.00  0.00    -0.237 OA
ATOM     47  O   UNL A   1      42.663  37.252  34.376  1.00  0.00    -0.237 OA
ATOM     48  O   UNL A   1      45.095  36.908  34.582  1.00  0.00    -0.744 OA
ENDBRANCH  44  45
ENDBRANCH  25  39
BRANCH  26  49
ATOM     49  C   UNL A   1      42.169  23.762  27.848  1.00  0.00    -0.014 A 
ATOM     50  C   UNL A   1      42.363  23.556  26.472  1.00  0.00     0.010 A 
ATOM     51  C   UNL A   1      41.849  22.665  28.669  1.00  0.00     0.010 A 
ATOM     52  C   UNL A   1      42.245  22.275  25.927  1.00  0.00     0.020 A 
ATOM     53  C   UNL A   1      41.753  21.379  28.131  1.00  0.00     0.020 A 
ATOM     54  C   UNL A   1      41.948  21.194  26.762  1.00  0.00     0.054 A 
BRANCH  54  55
ATOM     55  S   UNL A   1      41.896  19.524  26.054  1.00  0.00     0.124 S 
ATOM     56  O   UNL A   1      40.486  19.387  25.705  1.00  0.00    -0.237 OA
ATOM     57  O   UNL A   1      42.821  19.625  24.928  1.00  0.00    -0.237 OA
ATOM     58  O   UNL A   1      42.357  18.676  27.152  1.00  0.00    -0.744 OA
ENDBRANCH  54  55
ENDBRANCH  26  49
BRANCH  38  59
ATOM     59  C   UNL A   1      47.536  26.894  31.002  1.00  0.00    -0.014 A 
ATOM     60  C   UNL A   1      47.814  26.160  32.168  1.00  0.00     0.010 A 
ATOM     61  C   UNL A   1      48.576  27.178  30.101  1.00  0.00     0.010 A 
ATOM     62  C   UNL A   1      49.117  25.745  32.445  1.00  0.00     0.020 A 
ATOM     63  C   UNL A   1      49.878  26.747  30.365  1.00  0.00     0.020 A 
ATOM     64  C   UNL A   1      50.143  26.046  31.543  1.00  0.00     0.054 A 
BRANCH  64  65
ATOM     65  S   UNL A   1      51.825  25.471  31.905  1.00  0.00     0.124 S 
ATOM     66  O   UNL A   1      52.156  26.237  33.103  1.00  0.00    -0.237 OA
ATOM     67  O   UNL A   1      51.641  24.036  32.106  1.00  0.00    -0.237 OA
ATOM     68  O   UNL A   1      52.578  25.832  30.705  1.00  0.00    -0.744 OA
ENDBRANCH  64  65
ENDBRANCH  38  59
ENDBRANCH  12  13
ENDBRANCH   5   7
ENDBRANCH   2   3
ENDBRANCH   1   2
BRANCH   1  69
ATOM     69  C   UNL A   1      33.203  29.245  24.699  1.00  0.00     0.023 C 
BRANCH  69  70
ATOM     70  C   UNL A   1      33.160  28.927  23.205  1.00  0.00     0.116 C 
BRANCH  70  71
ATOM     71  N   UNL A   1      33.697  27.618  22.892  1.00  0.00    -0.356 N 
ATOM     72  C   UNL A   1      33.128  26.467  22.451  1.00  0.00     0.226 C 
ATOM     73  H   UNL A   1      34.670  27.549  23.028  1.00  0.00     0.163 HD
ATOM     74  O   UNL A   1      33.910  25.530  22.238  1.00  0.00    -0.274 OA
BRANCH  72  75
ATOM     75  C   UNL A   1      31.618  26.220  22.277  1.00  0.00     0.103 C 
ATOM     76  C   UNL A   1      30.610  27.079  22.969  1.00  0.00    -0.016 C 
ATOM     77  C   UNL A   1      31.222  24.816  22.770  1.00  0.00     0.042 C 
ATOM     78  C   UNL A   1      30.009  26.418  23.969  1.00  0.00    -0.011 C 
ATOM     79  C   UNL A   1      30.526  25.016  24.118  1.00  0.00     0.093 C 
BRANCH  79  80
ATOM     80  N   UNL A   1      31.469  25.018  25.230  1.00  0.00    -0.204 NA
ATOM     81  H   UNL A   1      31.129  25.708  25.900  1.00  0.00     0.142 HD
BRANCH  80  82
ATOM     82  S   UNL A   1      31.770  23.613  26.099  1.00  0.00     0.241 S 
ATOM     83  O   UNL A   1      31.406  23.909  27.463  1.00  0.00    -0.207 OA
ATOM     84  O   UNL A   1      31.170  22.514  25.370  1.00  0.00    -0.207 OA
BRANCH  82  85
ATOM     85  C   UNL A   1      33.531  23.408  26.067  1.00  0.00     0.082 A 
ATOM     86  C   UNL A   1      34.354  24.415  25.555  1.00  0.00     0.023 A 
ATOM     87  C   UNL A   1      34.082  22.202  26.509  1.00  0.00     0.023 A 
ATOM     88  C   UNL A   1      35.726  24.190  25.421  1.00  0.00     0.022 A 
ATOM     89  C   UNL A   1      35.459  21.992  26.404  1.00  0.00     0.022 A 
ATOM     90  C   UNL A   1      36.272  22.979  25.843  1.00  0.00     0.041 A 
ATOM     91  Cl  UNL A   1      37.958  22.688  25.659  1.00  0.00    -0.084 Cl
ENDBRANCH  82  85
ENDBRANCH  80  82
ENDBRANCH  79  80
ENDBRANCH  72  75
ENDBRANCH  70  71
ENDBRANCH  69  70
ENDBRANCH   1  69
TORSDOF 17
ENDMDL
MODEL 2
REMARK VINA RESULT:     -10.9      4.380     11.259
REMARK SMILES O=C(NCCCCNC(=O)[C@@H]1C=C[C@H](NS(=O)(=O)c2ccc(Cl)cc2)C1)c1ccc(-c2c3nc(c(-c4ccc(S(=O)(=O)[O-])cc4)c4ccc([nH]4)c(-c4ccc(S(=O)(=O)[O-])cc4)c4nc(c(-c5ccc(S(=O)(=O)[O-])cc5)c5ccc2[nH]5)C=C4)C=C3)cc1
REMARK SMILES IDX 5 1 4 2 3 3 1 4 2 5 27 7 28 8 86 9 29 10 85 11 30 12 31 13
REMARK SMILES IDX 32 14 79 15 33 16 84 17 78 18 80 19 34 20 83 21 77 22 76 23
REMARK SMILES IDX 35 25 65 26 46 27 64 28 47 29 50 30 63 31 81 32 48 33 49 34
REMARK SMILES IDX 62 36 82 37 51 38 36 39 37 40 45 41 38 42 44 43 39 44 40 45
REMARK SMILES IDX 41 46 42 47 43 48 66 49 67 50 75 51 68 52 74 53 69 54 70 55
REMARK SMILES IDX 71 56 72 57 73 58 52 59 53 60 61 61 54 62 60 63 55 64 56 65
REMARK SMILES IDX 57 66 58 67 59 68 6 69 7 70 8 71 9 72 10 74 11 75 12 76
REMARK SMILES IDX 26 77 13 78 14 79 15 80 16 82 17 83 18 84 19 85 20 86 25 87
REMARK SMILES IDX 21 88 24 89 22 90 23 91
REMARK H PARENT 3 6 80 24 50 35 8 73 15 81
REMARK Flexibility Score: inf
ROOT
ATOM      1  C   UNL A   1      41.262  20.616  26.153  1.00  0.00     0.023 C 
ENDROOT
BRANCH   1   2
ATOM      2  C   UNL A   1      40.266  21.412  26.986  1.00  0.00     0.116 C 
BRANCH   2   3
ATOM      3  N   UNL A   1      39.069  21.798  26.251  1.00  0.00    -0.352 N 
ATOM      4  O   UNL A   1      37.411  23.152  25.547  1.00  0.00    -0.269 OA
ATOM      5  C   UNL A   1      38.468  23.030  26.158  1.00  0.00     0.251 C 
ATOM      6  H   UNL A   1      38.629  21.074  25.750  1.00  0.00     0.163 HD
BRANCH   5   7
ATOM      7  C   UNL A   1      39.083  24.190  26.833  1.00  0.00     0.039 A 
ATOM      8  C   UNL A   1      38.837  24.434  28.186  1.00  0.00     0.014 A 
ATOM      9  C   UNL A   1      39.880  25.062  26.089  1.00  0.00     0.014 A 
ATOM     10  C   UNL A   1      39.258  25.629  28.753  1.00  0.00     0.010 A 
ATOM     11  C   UNL A   1      40.374  26.224  26.686  1.00  0.00     0.010 A 
ATOM     12  C   UNL A   1      40.034  26.535  28.011  1.00  0.00    -0.014 A 
BRANCH  12  13
ATOM     13  C   UNL A   1      40.514  27.777  28.663  1.00  0.00     0.031 A 
ATOM     14  C   UNL A   1      41.948  27.930  29.085  1.00  0.00     0.074 A 
ATOM     15  C   UNL A   1      39.644  28.791  28.829  1.00  0.00     0.049 A 
ATOM     16  N   UNL A   1      42.537  28.965  29.630  1.00  0.00    -0.248 NA
ATOM     17  C   UNL A   1      42.838  26.775  28.878  1.00  0.00     0.031 C 
ATOM     18  C   UNL A   1      38.227  28.754  28.456  1.00  0.00     0.029 A 
ATOM     19  N   UNL A   1      39.825  30.054  29.326  1.00  0.00    -0.354 N 
ATOM     20  C   UNL A   1      43.853  28.581  29.855  1.00  0.00     0.074 A 
ATOM     21  C   UNL A   1      43.976  27.212  29.401  1.00  0.00     0.031 C 
ATOM     22  C   UNL A   1      37.683  29.958  28.681  1.00  0.00     0.029 A 
ATOM     23  C   UNL A   1      38.692  30.831  29.270  1.00  0.00     0.049 A 
ATOM     24  H   UNL A   1      40.682  30.376  29.687  1.00  0.00     0.167 HD
ATOM     25  C   UNL A   1      44.866  29.305  30.391  1.00  0.00     0.031 A 
ATOM     26  C   UNL A   1      38.481  32.101  29.656  1.00  0.00     0.031 A 
ATOM     27  C   UNL A   1      44.739  30.668  30.837  1.00  0.00     0.049 A 
ATOM     28  C   UNL A   1      39.615  32.877  30.256  1.00  0.00     0.074 A 
ATOM     29  C   UNL A   1      45.712  31.495  31.369  1.00  0.00     0.029 A 
ATOM     30  N   UNL A   1      43.564  31.405  30.803  1.00  0.00    -0.354 N 
ATOM     31  N   UNL A   1      40.856  32.500  30.447  1.00  0.00    -0.248 NA
ATOM     32  C   UNL A   1      39.318  34.245  30.699  1.00  0.00     0.031 C 
ATOM     33  C   UNL A   1      45.115  32.720  31.695  1.00  0.00     0.029 A 
ATOM     34  C   UNL A   1      43.781  32.669  31.325  1.00  0.00     0.049 A 
ATOM     35  H   UNL A   1      42.702  31.077  30.459  1.00  0.00     0.167 HD
ATOM     36  C   UNL A   1      41.493  33.586  31.032  1.00  0.00     0.074 A 
ATOM     37  C   UNL A   1      40.505  34.642  31.141  1.00  0.00     0.031 C 
ATOM     38  C   UNL A   1      42.779  33.698  31.444  1.00  0.00     0.031 A 
BRANCH  25  39
ATOM     39  C   UNL A   1      46.196  28.619  30.556  1.00  0.00    -0.014 A 
ATOM     40  C   UNL A   1      46.472  27.823  31.682  1.00  0.00     0.010 A 
ATOM     41  C   UNL A   1      47.177  28.754  29.556  1.00  0.00     0.010 A 
ATOM     42  C   UNL A   1      47.721  27.210  31.825  1.00  0.00     0.020 A 
ATOM     43  C   UNL A   1      48.419  28.126  29.686  1.00  0.00     0.020 A 
ATOM     44  C   UNL A   1      48.690  27.374  30.830  1.00  0.00     0.054 A 
BRANCH  44  45
ATOM     45  S   UNL A   1      50.304  26.571  31.037  1.00  0.00     0.124 S 
ATOM     46  O   UNL A   1      50.842  27.274  32.199  1.00  0.00    -0.237 OA
ATOM     47  O   UNL A   1      49.943  25.173  31.262  1.00  0.00    -0.237 OA
ATOM     48  O   UNL A   1      50.987  26.837  29.774  1.00  0.00    -0.744 OA
ENDBRANCH  44  45
ENDBRANCH  25  39
BRANCH  26  49
ATOM     49  C   UNL A   1      37.133  32.700  29.483  1.00  0.00    -0.014 A 
ATOM     50  C   UNL A   1      36.327  32.976  30.599  1.00  0.00     0.010 A 
ATOM     51  C   UNL A   1      36.683  33.067  28.201  1.00  0.00     0.010 A 
ATOM     52  C   UNL A   1      35.095  33.615  30.437  1.00  0.00     0.020 A 
ATOM     53  C   UNL A   1      35.463  33.726  28.038  1.00  0.00     0.020 A 
ATOM     54  C   UNL A   1      34.673  33.992  29.159  1.00  0.00     0.054 A 
BRANCH  54  55
ATOM     55  S   UNL A   1      33.118  34.907  28.979  1.00  0.00     0.124 S 
ATOM     56  O   UNL A   1      33.587  36.220  28.548  1.00  0.00    -0.237 OA
ATOM     57  O   UNL A   1      32.403  34.128  27.972  1.00  0.00    -0.237 OA
ATOM     58  O   UNL A   1      32.537  34.856  30.320  1.00  0.00    -0.744 OA
ENDBRANCH  54  55
ENDBRANCH  26  49
BRANCH  38  59
ATOM     59  C   UNL A   1      43.185  35.012  32.049  1.00  0.00    -0.014 A 
ATOM     60  C   UNL A   1      43.691  36.049  31.246  1.00  0.00     0.010 A 
ATOM     61  C   UNL A   1      43.032  35.221  33.431  1.00  0.00     0.010 A 
ATOM     62  C   UNL A   1      44.067  37.264  31.820  1.00  0.00     0.020 A 
ATOM     63  C   UNL A   1      43.389  36.443  34.005  1.00  0.00     0.020 A 
ATOM     64  C   UNL A   1      43.919  37.452  33.198  1.00  0.00     0.054 A 
BRANCH  64  65
ATOM     65  S   UNL A   1      44.384  39.049  33.921  1.00  0.00     0.124 S 
ATOM     66  O   UNL A   1      43.099  39.739  33.985  1.00  0.00    -0.237 OA
ATOM     67  O   UNL A   1      44.959  38.668  35.209  1.00  0.00    -0.237 OA
ATOM     68  O   UNL A   1      45.339  39.597  32.959  1.00  0.00    -0.744 OA
ENDBRANCH  64  65
ENDBRANCH  38  59
ENDBRANCH  12  13
ENDBRANCH   5   7
ENDBRANCH   2   3
ENDBRANCH   1   2
BRANCH   1  69
ATOM     69  C   UNL A   1      42.647  21.240  26.022  1.00  0.00     0.023 C 
BRANCH  69  70
ATOM     70  C   UNL A   1      42.887  22.496  26.859  1.00  0.00     0.116 C 
BRANCH  70  71
ATOM     71  N   UNL A   1      43.173  23.664  26.050  1.00  0.00    -0.356 N 
ATOM     72  C   UNL A   1      44.324  24.310  25.734  1.00  0.00     0.226 C 
ATOM     73  H   UNL A   1      42.370  24.072  25.650  1.00  0.00     0.163 HD
ATOM     74  O   UNL A   1      44.205  25.271  24.960  1.00  0.00    -0.274 OA
BRANCH  72  75
ATOM     75  C   UNL A   1      45.717  23.999  26.311  1.00  0.00     0.103 C 
ATOM     76  C   UNL A   1      46.009  24.180  27.764  1.00  0.00    -0.016 C 
ATOM     77  C   UNL A   1      46.799  24.882  25.662  1.00  0.00     0.042 C 
ATOM     78  C   UNL A   1      46.803  25.240  27.975  1.00  0.00    -0.011 C 
ATOM     79  C   UNL A   1      47.159  25.948  26.699  1.00  0.00     0.093 C 
BRANCH  79  80
ATOM     80  N   UNL A   1      46.301  27.123  26.602  1.00  0.00    -0.204 NA
ATOM     81  H   UNL A   1      46.199  27.489  27.549  1.00  0.00     0.142 HD
BRANCH  80  82
ATOM     82  S   UNL A   1      46.735  28.422  25.630  1.00  0.00     0.241 S 
ATOM     83  O   UNL A   1      48.164  28.561  25.774  1.00  0.00    -0.207 OA
ATOM     84  O   UNL A   1      46.114  28.222  24.336  1.00  0.00    -0.207 OA
BRANCH  82  85
ATOM     85  C   UNL A   1      45.998  29.844  26.389  1.00  0.00     0.082 A 
ATOM     86  C   UNL A   1      44.629  29.872  26.669  1.00  0.00     0.023 A 
ATOM     87  C   UNL A   1      46.796  30.962  26.652  1.00  0.00     0.023 A 
ATOM     88  C   UNL A   1      44.042  31.043  27.152  1.00  0.00     0.022 A 
ATOM     89  C   UNL A   1      46.210  32.121  27.166  1.00  0.00     0.022 A 
ATOM     90  C   UNL A   1      44.834  32.164  27.396  1.00  0.00     0.041 A 
ATOM     91  Cl  UNL A   1      44.111  33.616  27.968  1.00  0.00    -0.084 Cl
ENDBRANCH  82  85
ENDBRANCH  80  82
ENDBRANCH  79  80
ENDBRANCH  72  75
ENDBRANCH  70  71
ENDBRANCH  69  70
ENDBRANCH   1  69
TORSDOF 17
ENDMDL
MODEL 3
REMARK VINA RESULT:     -10.7      2.996      3.874
REMARK SMILES O=C(NCCCCNC(=O)[C@@H]1C=C[C@H](NS(=O)(=O)c2ccc(Cl)cc2)C1)c1ccc(-c2c3nc(c(-c4ccc(S(=O)(=O)[O-])cc4)c4ccc([nH]4)c(-c4ccc(S(=O)(=O)[O-])cc4)c4nc(c(-c5ccc(S(=O)(=O)[O-])cc5)c5ccc2[nH]5)C=C4)C=C3)cc1
REMARK SMILES IDX 5 1 4 2 3 3 1 4 2 5 27 7 28 8 86 9 29 10 85 11 30 12 31 13
REMARK SMILES IDX 32 14 79 15 33 16 84 17 78 18 80 19 34 20 83 21 77 22 76 23
REMARK SMILES IDX 35 25 65 26 46 27 64 28 47 29 50 30 63 31 81 32 48 33 49 34
REMARK SMILES IDX 62 36 82 37 51 38 36 39 37 40 45 41 38 42 44 43 39 44 40 45
REMARK SMILES IDX 41 46 42 47 43 48 66 49 67 50 75 51 68 52 74 53 69 54 70 55
REMARK SMILES IDX 71 56 72 57 73 58 52 59 53 60 61 61 54 62 60 63 55 64 56 65
REMARK SMILES IDX 57 66 58 67 59 68 6 69 7 70 8 71 9 72 10 74 11 75 12 76
REMARK SMILES IDX 26 77 13 78 14 79 15 80 16 82 17 83 18 84 19 85 20 86 25 87
REMARK SMILES IDX 21 88 24 89 22 90 23 91
REMARK H PARENT 3 6 80 24 50 35 8 73 15 81
REMARK Flexibility Score: inf
ROOT
ATOM      1  C   UNL A   1      34.378  29.241  27.180  1.00  0.00     0.023 C 
ENDROOT
BRANCH   1   2
ATOM      2  C   UNL A   1      35.453  30.151  27.756  1.00  0.00     0.116 C 
BRANCH   2   3
ATOM      3  N   UNL A   1      35.396  30.275  29.206  1.00  0.00    -0.352 N 
ATOM      4  O   UNL A   1      36.104  30.082  31.337  1.00  0.00    -0.269 OA
ATOM      5  C   UNL A   1      36.361  29.986  30.140  1.00  0.00     0.251 C 
ATOM      6  H   UNL A   1      34.545  30.613  29.567  1.00  0.00     0.163 HD
BRANCH   5   7
ATOM      7  C   UNL A   1      37.688  29.521  29.692  1.00  0.00     0.039 A 
ATOM      8  C   UNL A   1      38.586  28.958  30.602  1.00  0.00     0.014 A 
ATOM      9  C   UNL A   1      38.048  29.690  28.353  1.00  0.00     0.014 A 
ATOM     10  C   UNL A   1      39.893  28.710  30.208  1.00  0.00     0.010 A 
ATOM     11  C   UNL A   1      39.341  29.360  27.940  1.00  0.00     0.010 A 
ATOM     12  C   UNL A   1      40.284  28.904  28.872  1.00  0.00    -0.014 A 
BRANCH  12  13
ATOM     13  C   UNL A   1      41.674  28.578  28.472  1.00  0.00     0.031 A 
ATOM     14  C   UNL A   1      42.769  29.603  28.556  1.00  0.00     0.074 A 
ATOM     15  C   UNL A   1      41.946  27.322  28.070  1.00  0.00     0.049 A 
ATOM     16  N   UNL A   1      44.043  29.467  28.282  1.00  0.00    -0.248 NA
ATOM     17  C   UNL A   1      42.392  30.956  28.996  1.00  0.00     0.031 C 
ATOM     18  C   UNL A   1      40.960  26.244  27.950  1.00  0.00     0.029 A 
ATOM     19  N   UNL A   1      43.130  26.731  27.716  1.00  0.00    -0.354 N 
ATOM     20  C   UNL A   1      44.614  30.716  28.491  1.00  0.00     0.074 A 
ATOM     21  C   UNL A   1      43.547  31.604  28.900  1.00  0.00     0.031 C 
ATOM     22  C   UNL A   1      41.589  25.111  27.609  1.00  0.00     0.029 A 
ATOM     23  C   UNL A   1      43.009  25.393  27.427  1.00  0.00     0.049 A 
ATOM     24  H   UNL A   1      43.986  27.217  27.674  1.00  0.00     0.167 HD
ATOM     25  C   UNL A   1      45.910  31.088  28.353  1.00  0.00     0.031 A 
ATOM     26  C   UNL A   1      43.931  24.492  27.048  1.00  0.00     0.031 A 
ATOM     27  C   UNL A   1      46.968  30.198  27.950  1.00  0.00     0.049 A 
ATOM     28  C   UNL A   1      45.356  24.930  26.893  1.00  0.00     0.074 A 
ATOM     29  C   UNL A   1      48.317  30.473  27.807  1.00  0.00     0.029 A 
ATOM     30  N   UNL A   1      46.796  28.861  27.624  1.00  0.00    -0.354 N 
ATOM     31  N   UNL A   1      45.878  26.114  27.108  1.00  0.00    -0.248 NA
ATOM     32  C   UNL A   1      46.314  23.915  26.436  1.00  0.00     0.031 C 
ATOM     33  C   UNL A   1      48.955  29.311  27.355  1.00  0.00     0.029 A 
ATOM     34  C   UNL A   1      48.010  28.302  27.258  1.00  0.00     0.049 A 
ATOM     35  H   UNL A   1      45.938  28.380  27.648  1.00  0.00     0.167 HD
ATOM     36  C   UNL A   1      47.230  25.988  26.816  1.00  0.00     0.074 A 
ATOM     37  C   UNL A   1      47.447  24.606  26.430  1.00  0.00     0.031 C 
ATOM     38  C   UNL A   1      48.201  26.931  26.859  1.00  0.00     0.031 A 
BRANCH  25  39
ATOM     39  C   UNL A   1      46.247  32.532  28.609  1.00  0.00    -0.014 A 
ATOM     40  C   UNL A   1      46.632  32.977  29.887  1.00  0.00     0.010 A 
ATOM     41  C   UNL A   1      46.201  33.455  27.548  1.00  0.00     0.010 A 
ATOM     42  C   UNL A   1      46.922  34.327  30.107  1.00  0.00     0.020 A 
ATOM     43  C   UNL A   1      46.511  34.802  27.760  1.00  0.00     0.020 A 
ATOM     44  C   UNL A   1      46.850  35.233  29.043  1.00  0.00     0.054 A 
BRANCH  44  45
ATOM     45  S   UNL A   1      47.230  36.980  29.353  1.00  0.00     0.124 S 
ATOM     46  O   UNL A   1      48.182  37.274  28.284  1.00  0.00    -0.237 OA
ATOM     47  O   UNL A   1      45.925  37.624  29.223  1.00  0.00    -0.237 OA
ATOM     48  O   UNL A   1      47.787  36.979  30.703  1.00  0.00    -0.744 OA
ENDBRANCH  44  45
ENDBRANCH  25  39
BRANCH  26  49
ATOM     49  C   UNL A   1      43.515  23.089  26.790  1.00  0.00    -0.014 A 
ATOM     50  C   UNL A   1      43.726  22.503  25.532  1.00  0.00     0.010 A 
ATOM     51  C   UNL A   1      42.975  22.311  27.831  1.00  0.00     0.010 A 
ATOM     52  C   UNL A   1      43.410  21.159  25.318  1.00  0.00     0.020 A 
ATOM     53  C   UNL A   1      42.679  20.961  27.627  1.00  0.00     0.020 A 
ATOM     54  C   UNL A   1      42.894  20.395  26.369  1.00  0.00     0.054 A 
BRANCH  54  55
ATOM     55  S   UNL A   1      42.581  18.628  26.101  1.00  0.00     0.124 S 
ATOM     56  O   UNL A   1      41.168  18.623  25.737  1.00  0.00    -0.237 OA
ATOM     57  O   UNL A   1      43.514  18.298  25.027  1.00  0.00    -0.237 OA
ATOM     58  O   UNL A   1      42.899  18.028  27.396  1.00  0.00    -0.744 OA
ENDBRANCH  54  55
ENDBRANCH  26  49
BRANCH  38  59
ATOM     59  C   UNL A   1      49.588  26.493  26.480  1.00  0.00    -0.014 A 
ATOM     60  C   UNL A   1      50.452  25.932  27.437  1.00  0.00     0.010 A 
ATOM     61  C   UNL A   1      50.020  26.618  25.148  1.00  0.00     0.010 A 
ATOM     62  C   UNL A   1      51.739  25.532  27.073  1.00  0.00     0.020 A 
ATOM     63  C   UNL A   1      51.300  26.200  24.778  1.00  0.00     0.020 A 
ATOM     64  C   UNL A   1      52.157  25.674  25.746  1.00  0.00     0.054 A 
BRANCH  64  65
ATOM     65  S   UNL A   1      53.822  25.119  25.288  1.00  0.00     0.124 S 
ATOM     66  O   UNL A   1      53.570  23.756  24.826  1.00  0.00    -0.237 OA
ATOM     67  O   UNL A   1      54.209  26.073  24.252  1.00  0.00    -0.237 OA
ATOM     68  O   UNL A   1      54.576  25.225  26.535  1.00  0.00    -0.744 OA
ENDBRANCH  64  65
ENDBRANCH  38  59
ENDBRANCH  12  13
ENDBRANCH   5   7
ENDBRANCH   2   3
ENDBRANCH   1   2
BRANCH   1  69
ATOM     69  C   UNL A   1      33.091  29.940  26.754  1.00  0.00     0.023 C 
BRANCH  69  70
ATOM     70  C   UNL A   1      31.795  29.280  27.225  1.00  0.00     0.116 C 
BRANCH  70  71
ATOM     71  N   UNL A   1      31.887  27.835  27.280  1.00  0.00    -0.356 N 
ATOM     72  C   UNL A   1      31.451  26.850  26.455  1.00  0.00     0.226 C 
ATOM     73  H   UNL A   1      32.361  27.501  28.076  1.00  0.00     0.163 HD
ATOM     74  O   UNL A   1      31.753  25.696  26.792  1.00  0.00    -0.274 OA
BRANCH  72  75
ATOM     75  C   UNL A   1      30.565  27.045  25.210  1.00  0.00     0.103 C 
ATOM     76  C   UNL A   1      29.585  26.000  24.789  1.00  0.00    -0.016 C 
ATOM     77  C   UNL A   1      31.419  27.204  23.939  1.00  0.00     0.042 C 
ATOM     78  C   UNL A   1      29.992  25.367  23.679  1.00  0.00    -0.011 C 
ATOM     79  C   UNL A   1      31.317  25.876  23.186  1.00  0.00     0.093 C 
BRANCH  79  80
ATOM     80  N   UNL A   1      32.333  24.921  23.613  1.00  0.00    -0.204 NA
ATOM     81  H   UNL A   1      31.841  24.061  23.856  1.00  0.00     0.142 HD
BRANCH  80  82
ATOM     82  S   UNL A   1      33.584  24.484  22.581  1.00  0.00     0.241 S 
ATOM     83  O   UNL A   1      33.109  23.331  21.855  1.00  0.00    -0.207 OA
ATOM     84  O   UNL A   1      34.026  25.685  21.902  1.00  0.00    -0.207 OA
BRANCH  82  85
ATOM     85  C   UNL A   1      34.892  23.926  23.639  1.00  0.00     0.082 A 
ATOM     86  C   UNL A   1      35.060  24.475  24.913  1.00  0.00     0.023 A 
ATOM     87  C   UNL A   1      35.790  22.968  23.158  1.00  0.00     0.023 A 
ATOM     88  C   UNL A   1      36.167  24.115  25.685  1.00  0.00     0.022 A 
ATOM     89  C   UNL A   1      36.879  22.587  23.946  1.00  0.00     0.022 A 
ATOM     90  C   UNL A   1      37.073  23.175  25.197  1.00  0.00     0.041 A 
ATOM     91  Cl  UNL A   1      38.451  22.747  26.135  1.00  0.00    -0.084 Cl
ENDBRANCH  82  85
ENDBRANCH  80  82
ENDBRANCH  79  80
ENDBRANCH  72  75
ENDBRANCH  70  71
ENDBRANCH  69  70
ENDBRANCH   1  69
TORSDOF 17
ENDMDL
