MODEL 1
REMARK VINA RESULT:     -10.3      0.000      0.000
REMARK SMILES CCOc1ccc(NC(=O)CC2(CC(=O)NCCCCNC(=O)c3ccc(-c4c5nc(c(-c6ccc(S(=O)(=O)[O-])cc6)c6ccc([nH]6)c(-c6ccc(S(=O)(=O)[O-])cc6)c6nc(c(-c7ccc(S(=O)(=O)[O-])cc7)c7ccc4[nH]7)C=C6)C=C5)cc3)CCCCC2)cc1
REMARK SMILES IDX 17 1 16 2 14 3 15 4 13 6 12 7 84 8 88 9 85 10 87 11 86 12
REMARK SMILES IDX 11 13 9 14 8 15 10 17 7 18 4 19 5 20 90 21 6 22 89 23 3 24
REMARK SMILES IDX 2 25 1 26 18 27 19 28 20 29 21 30 22 31 23 33 24 34 25 35
REMARK SMILES IDX 83 36 26 37 82 38 27 39 28 40 29 41 76 42 30 43 81 44 75 45
REMARK SMILES IDX 77 46 31 47 80 48 74 49 73 50 32 52 62 53 43 54 61 55 44 56
REMARK SMILES IDX 47 57 60 58 78 59 45 60 46 61 59 63 79 64 48 65 33 66 34 67
REMARK SMILES IDX 42 68 35 69 41 70 36 71 37 72 38 73 39 74 40 75 63 76 64 77
REMARK SMILES IDX 72 78 65 79 71 80 66 81 67 82 68 83 69 84 70 85 49 86 50 87
REMARK SMILES IDX 58 88 51 89 57 90 52 91 53 92 54 93 55 94 56 95
REMARK H PARENT 16 5 8 16 21 32 77 51 47 62
REMARK Flexibility Score: inf
ROOT
ATOM      1  C   UNL A   1      34.849  29.290  27.368  1.00  0.00     0.116 C 
ENDROOT
BRANCH   1   2
ATOM      2  N   UNL A   1      34.192  29.464  26.100  1.00  0.00    -0.356 N 
ATOM      3  C   UNL A   1      33.260  28.694  25.492  1.00  0.00     0.220 C 
ATOM      4  O   UNL A   1      32.689  29.196  24.518  1.00  0.00    -0.275 OA
ATOM      5  H   UNL A   1      34.462  30.267  25.597  1.00  0.00     0.163 HD
BRANCH   3   6
ATOM      6  C   UNL A   1      32.855  27.316  26.022  1.00  0.00     0.107 C 
BRANCH   6   7
ATOM      7  C   UNL A   1      32.847  26.023  25.129  1.00  0.00    -0.012 C 
ATOM      8  C   UNL A   1      31.480  25.968  24.358  1.00  0.00     0.008 C 
ATOM      9  C   UNL A   1      32.838  24.707  25.966  1.00  0.00     0.008 C 
ATOM     10  C   UNL A   1      30.242  25.799  25.239  1.00  0.00     0.001 C 
ATOM     11  C   UNL A   1      31.634  24.521  26.892  1.00  0.00     0.001 C 
ATOM     12  C   UNL A   1      30.329  24.559  26.114  1.00  0.00     0.000 C 
BRANCH   7  13
ATOM     13  C   UNL A   1      33.997  25.898  24.057  1.00  0.00     0.108 C 
BRANCH  13  14
ATOM     14  C   UNL A   1      33.736  25.385  22.650  1.00  0.00     0.224 C 
ATOM     15  N   UNL A   1      33.477  24.075  22.374  1.00  0.00    -0.326 N 
ATOM     16  H   UNL A   1      33.333  23.877  21.420  1.00  0.00     0.169 HD
ATOM     17  O   UNL A   1      33.708  26.192  21.712  1.00  0.00    -0.275 OA
BRANCH  15  18
ATOM     18  C   UNL A   1      33.380  22.966  23.220  1.00  0.00     0.041 A 
ATOM     19  C   UNL A   1      33.434  20.516  24.533  1.00  0.00     0.119 A 
ATOM     20  C   UNL A   1      32.216  21.053  24.125  1.00  0.00     0.048 A 
ATOM     21  C   UNL A   1      34.611  21.238  24.384  1.00  0.00     0.048 A 
ATOM     22  C   UNL A   1      32.189  22.291  23.476  1.00  0.00     0.030 A 
ATOM     23  C   UNL A   1      34.576  22.487  23.768  1.00  0.00     0.030 A 
BRANCH  19  24
ATOM     24  O   UNL A   1      33.501  19.210  24.928  1.00  0.00    -0.494 OA
BRANCH  24  25
ATOM     25  C   UNL A   1      33.262  18.304  23.850  1.00  0.00     0.226 C 
ATOM     26  C   UNL A   1      34.308  17.204  23.849  1.00  0.00     0.049 C 
ENDBRANCH  24  25
ENDBRANCH  19  24
ENDBRANCH  15  18
ENDBRANCH  13  14
ENDBRANCH   7  13
ENDBRANCH   6   7
ENDBRANCH   3   6
ENDBRANCH   1   2
BRANCH   1  27
ATOM     27  C   UNL A   1      34.957  30.612  28.122  1.00  0.00     0.023 C 
BRANCH  27  28
ATOM     28  C   UNL A   1      34.144  31.759  27.545  1.00  0.00     0.023 C 
BRANCH  28  29
ATOM     29  C   UNL A   1      34.615  33.145  27.953  1.00  0.00     0.116 C 
BRANCH  29  30
ATOM     30  N   UNL A   1      33.588  33.979  28.569  1.00  0.00    -0.352 N 
ATOM     31  C   UNL A   1      33.543  34.409  29.878  1.00  0.00     0.251 C 
ATOM     32  H   UNL A   1      32.848  34.266  27.986  1.00  0.00     0.163 HD
ATOM     33  O   UNL A   1      32.610  35.073  30.300  1.00  0.00    -0.269 OA
BRANCH  31  34
ATOM     34  C   UNL A   1      34.643  33.982  30.764  1.00  0.00     0.039 A 
ATOM     35  C   UNL A   1      34.548  32.747  31.405  1.00  0.00     0.014 A 
ATOM     36  C   UNL A   1      35.829  34.720  30.788  1.00  0.00     0.014 A 
ATOM     37  C   UNL A   1      35.685  32.204  32.003  1.00  0.00     0.010 A 
ATOM     38  C   UNL A   1      36.977  34.134  31.299  1.00  0.00     0.010 A 
ATOM     39  C   UNL A   1      36.919  32.870  31.906  1.00  0.00    -0.014 A 
BRANCH  39  40
ATOM     40  C   UNL A   1      38.166  32.275  32.447  1.00  0.00     0.031 A 
ATOM     41  C   UNL A   1      38.573  32.585  33.861  1.00  0.00     0.074 A 
ATOM     42  C   UNL A   1      38.961  31.529  31.655  1.00  0.00     0.049 A 
ATOM     43  N   UNL A   1      39.675  32.269  34.490  1.00  0.00    -0.248 NA
ATOM     44  C   UNL A   1      37.632  33.387  34.663  1.00  0.00     0.031 C 
ATOM     45  C   UNL A   1      38.701  31.196  30.250  1.00  0.00     0.029 A 
ATOM     46  N   UNL A   1      40.160  30.915  31.918  1.00  0.00    -0.354 N 
ATOM     47  C   UNL A   1      39.568  32.851  35.747  1.00  0.00     0.074 A 
ATOM     48  C   UNL A   1      38.325  33.588  35.773  1.00  0.00     0.031 C 
ATOM     49  C   UNL A   1      39.691  30.411  29.791  1.00  0.00     0.029 A 
ATOM     50  C   UNL A   1      40.674  30.215  30.850  1.00  0.00     0.049 A 
ATOM     51  H   UNL A   1      40.611  30.969  32.793  1.00  0.00     0.167 HD
ATOM     52  C   UNL A   1      40.413  32.755  36.800  1.00  0.00     0.031 A 
ATOM     53  C   UNL A   1      41.810  29.499  30.742  1.00  0.00     0.031 A 
ATOM     54  C   UNL A   1      41.627  31.990  36.787  1.00  0.00     0.049 A 
ATOM     55  C   UNL A   1      42.722  29.394  31.935  1.00  0.00     0.074 A 
ATOM     56  C   UNL A   1      42.538  31.801  37.812  1.00  0.00     0.029 A 
ATOM     57  N   UNL A   1      42.090  31.267  35.698  1.00  0.00    -0.354 N 
ATOM     58  N   UNL A   1      42.587  29.928  33.125  1.00  0.00    -0.248 NA
ATOM     59  C   UNL A   1      43.935  28.579  31.773  1.00  0.00     0.031 C 
ATOM     60  C   UNL A   1      43.563  30.977  37.336  1.00  0.00     0.029 A 
ATOM     61  C   UNL A   1      43.269  30.625  36.027  1.00  0.00     0.049 A 
ATOM     62  H   UNL A   1      41.645  31.219  34.821  1.00  0.00     0.167 HD
ATOM     63  C   UNL A   1      43.681  29.487  33.862  1.00  0.00     0.074 A 
ATOM     64  C   UNL A   1      44.460  28.635  32.988  1.00  0.00     0.031 C 
ATOM     65  C   UNL A   1      44.013  29.764  35.147  1.00  0.00     0.031 A 
BRANCH  52  66
ATOM     66  C   UNL A   1      40.025  33.475  38.062  1.00  0.00    -0.014 A 
ATOM     67  C   UNL A   1      39.152  32.875  38.987  1.00  0.00     0.010 A 
ATOM     68  C   UNL A   1      40.553  34.747  38.340  1.00  0.00     0.010 A 
ATOM     69  C   UNL A   1      38.784  33.550  40.153  1.00  0.00     0.020 A 
ATOM     70  C   UNL A   1      40.208  35.415  39.519  1.00  0.00     0.020 A 
ATOM     71  C   UNL A   1      39.312  34.818  40.410  1.00  0.00     0.054 A 
BRANCH  71  72
ATOM     72  S   UNL A   1      38.841  35.660  41.945  1.00  0.00     0.124 S 
ATOM     73  O   UNL A   1      37.461  35.213  42.120  1.00  0.00    -0.237 OA
ATOM     74  O   UNL A   1      39.799  35.128  42.911  1.00  0.00    -0.237 OA
ATOM     75  O   UNL A   1      39.002  37.076  41.627  1.00  0.00    -0.744 OA
ENDBRANCH  71  72
ENDBRANCH  52  66
BRANCH  53  76
ATOM     76  C   UNL A   1      42.148  28.801  29.471  1.00  0.00    -0.014 A 
ATOM     77  C   UNL A   1      42.913  29.456  28.487  1.00  0.00     0.010 A 
ATOM     78  C   UNL A   1      41.682  27.499  29.220  1.00  0.00     0.010 A 
ATOM     79  C   UNL A   1      43.168  28.838  27.260  1.00  0.00     0.020 A 
ATOM     80  C   UNL A   1      41.957  26.868  28.003  1.00  0.00     0.020 A 
ATOM     81  C   UNL A   1      42.681  27.549  27.022  1.00  0.00     0.054 A 
BRANCH  81  82
ATOM     82  S   UNL A   1      43.028  26.759  25.425  1.00  0.00     0.124 S 
ATOM     83  O   UNL A   1      44.464  26.519  25.514  1.00  0.00    -0.237 OA
ATOM     84  O   UNL A   1      42.182  25.569  25.466  1.00  0.00    -0.237 OA
ATOM     85  O   UNL A   1      42.619  27.771  24.452  1.00  0.00    -0.744 OA
ENDBRANCH  81  82
ENDBRANCH  53  76
BRANCH  65  86
ATOM     86  C   UNL A   1      45.241  29.100  35.700  1.00  0.00    -0.014 A 
ATOM     87  C   UNL A   1      46.497  29.728  35.640  1.00  0.00     0.010 A 
ATOM     88  C   UNL A   1      45.121  27.857  36.347  1.00  0.00     0.010 A 
ATOM     89  C   UNL A   1      47.618  29.112  36.199  1.00  0.00     0.020 A 
ATOM     90  C   UNL A   1      46.237  27.247  36.925  1.00  0.00     0.020 A 
ATOM     91  C   UNL A   1      47.482  27.875  36.836  1.00  0.00     0.054 A 
BRANCH  91  92
ATOM     92  S   UNL A   1      48.942  27.118  37.602  1.00  0.00     0.124 S 
ATOM     93  O   UNL A   1      49.257  28.073  38.662  1.00  0.00    -0.237 OA
ATOM     94  O   UNL A   1      48.437  25.823  38.051  1.00  0.00    -0.237 OA
ATOM     95  O   UNL A   1      49.911  27.056  36.510  1.00  0.00    -0.744 OA
ENDBRANCH  91  92
ENDBRANCH  65  86
ENDBRANCH  39  40
ENDBRANCH  31  34
ENDBRANCH  29  30
ENDBRANCH  28  29
ENDBRANCH  27  28
ENDBRANCH   1  27
TORSDOF 20
ENDMDL
MODEL 2
REMARK VINA RESULT:      -9.9      4.751     10.054
REMARK SMILES CCOc1ccc(NC(=O)CC2(CC(=O)NCCCCNC(=O)c3ccc(-c4c5nc(c(-c6ccc(S(=O)(=O)[O-])cc6)c6ccc([nH]6)c(-c6ccc(S(=O)(=O)[O-])cc6)c6nc(c(-c7ccc(S(=O)(=O)[O-])cc7)c7ccc4[nH]7)C=C6)C=C5)cc3)CCCCC2)cc1
REMARK SMILES IDX 17 1 16 2 14 3 15 4 13 6 12 7 84 8 88 9 85 10 87 11 86 12
REMARK SMILES IDX 11 13 9 14 8 15 10 17 7 18 4 19 5 20 90 21 6 22 89 23 3 24
REMARK SMILES IDX 2 25 1 26 18 27 19 28 20 29 21 30 22 31 23 33 24 34 25 35
REMARK SMILES IDX 83 36 26 37 82 38 27 39 28 40 29 41 76 42 30 43 81 44 75 45
REMARK SMILES IDX 77 46 31 47 80 48 74 49 73 50 32 52 62 53 43 54 61 55 44 56
REMARK SMILES IDX 47 57 60 58 78 59 45 60 46 61 59 63 79 64 48 65 33 66 34 67
REMARK SMILES IDX 42 68 35 69 41 70 36 71 37 72 38 73 39 74 40 75 63 76 64 77
REMARK SMILES IDX 72 78 65 79 71 80 66 81 67 82 68 83 69 84 70 85 49 86 50 87
REMARK SMILES IDX 58 88 51 89 57 90 52 91 53 92 54 93 55 94 56 95
REMARK H PARENT 16 5 8 16 21 32 77 51 47 62
REMARK Flexibility Score: inf
ROOT
ATOM      1  C   UNL A   1      36.695  34.162  29.991  1.00  0.00     0.116 C 
ENDROOT
BRANCH   1   2
ATOM      2  N   UNL A   1      38.005  34.127  30.584  1.00  0.00    -0.356 N 
ATOM      3  C   UNL A   1      38.372  34.195  31.885  1.00  0.00     0.220 C 
ATOM      4  O   UNL A   1      39.546  33.902  32.137  1.00  0.00    -0.275 OA
ATOM      5  H   UNL A   1      38.750  34.040  29.945  1.00  0.00     0.163 HD
BRANCH   3   6
ATOM      6  C   UNL A   1      37.381  34.521  33.006  1.00  0.00     0.107 C 
BRANCH   6   7
ATOM      7  C   UNL A   1      36.743  33.424  33.932  1.00  0.00    -0.012 C 
ATOM      8  C   UNL A   1      36.138  32.302  33.016  1.00  0.00     0.008 C 
ATOM      9  C   UNL A   1      35.505  33.944  34.725  1.00  0.00     0.008 C 
ATOM     10  C   UNL A   1      34.971  32.742  32.131  1.00  0.00     0.001 C 
ATOM     11  C   UNL A   1      34.332  34.434  33.873  1.00  0.00     0.001 C 
ATOM     12  C   UNL A   1      33.833  33.341  32.942  1.00  0.00     0.000 C 
BRANCH   7  13
ATOM     13  C   UNL A   1      37.709  32.721  34.962  1.00  0.00     0.108 C 
BRANCH  13  14
ATOM     14  C   UNL A   1      39.089  32.225  34.565  1.00  0.00     0.224 C 
ATOM     15  N   UNL A   1      40.239  32.864  34.924  1.00  0.00    -0.326 N 
ATOM     16  H   UNL A   1      41.064  32.440  34.594  1.00  0.00     0.169 HD
ATOM     17  O   UNL A   1      39.187  31.169  33.927  1.00  0.00    -0.275 OA
BRANCH  15  18
ATOM     18  C   UNL A   1      40.442  34.020  35.685  1.00  0.00     0.041 A 
ATOM     19  C   UNL A   1      40.388  36.211  37.396  1.00  0.00     0.119 A 
ATOM     20  C   UNL A   1      40.360  36.410  36.018  1.00  0.00     0.048 A 
ATOM     21  C   UNL A   1      40.546  34.935  37.923  1.00  0.00     0.048 A 
ATOM     22  C   UNL A   1      40.400  35.308  35.158  1.00  0.00     0.030 A 
ATOM     23  C   UNL A   1      40.620  33.842  37.061  1.00  0.00     0.030 A 
BRANCH  19  24
ATOM     24  O   UNL A   1      40.092  37.245  38.237  1.00  0.00    -0.494 OA
BRANCH  24  25
ATOM     25  C   UNL A   1      39.098  36.893  39.200  1.00  0.00     0.226 C 
ATOM     26  C   UNL A   1      39.656  37.040  40.605  1.00  0.00     0.049 C 
ENDBRANCH  24  25
ENDBRANCH  19  24
ENDBRANCH  15  18
ENDBRANCH  13  14
ENDBRANCH   7  13
ENDBRANCH   6   7
ENDBRANCH   3   6
ENDBRANCH   1   2
BRANCH   1  27
ATOM     27  C   UNL A   1      36.673  33.433  28.652  1.00  0.00     0.023 C 
BRANCH  27  28
ATOM     28  C   UNL A   1      35.296  33.234  28.041  1.00  0.00     0.023 C 
BRANCH  28  29
ATOM     29  C   UNL A   1      34.392  32.277  28.799  1.00  0.00     0.116 C 
BRANCH  29  30
ATOM     30  N   UNL A   1      33.928  31.133  28.020  1.00  0.00    -0.352 N 
ATOM     31  C   UNL A   1      34.643  29.997  27.706  1.00  0.00     0.251 C 
ATOM     32  H   UNL A   1      33.004  31.178  27.682  1.00  0.00     0.163 HD
ATOM     33  O   UNL A   1      34.168  29.115  27.010  1.00  0.00    -0.269 OA
BRANCH  31  34
ATOM     34  C   UNL A   1      36.031  29.919  28.202  1.00  0.00     0.039 A 
ATOM     35  C   UNL A   1      36.255  29.482  29.507  1.00  0.00     0.014 A 
ATOM     36  C   UNL A   1      37.089  30.093  27.306  1.00  0.00     0.014 A 
ATOM     37  C   UNL A   1      37.548  29.127  29.891  1.00  0.00     0.010 A 
ATOM     38  C   UNL A   1      38.354  29.651  27.663  1.00  0.00     0.010 A 
ATOM     39  C   UNL A   1      38.596  29.159  28.955  1.00  0.00    -0.014 A 
BRANCH  39  40
ATOM     40  C   UNL A   1      39.962  28.699  29.304  1.00  0.00     0.031 A 
ATOM     41  C   UNL A   1      40.881  29.627  30.050  1.00  0.00     0.074 A 
ATOM     42  C   UNL A   1      40.398  27.492  28.891  1.00  0.00     0.049 A 
ATOM     43  N   UNL A   1      42.144  29.472  30.349  1.00  0.00    -0.248 NA
ATOM     44  C   UNL A   1      40.313  30.916  30.485  1.00  0.00     0.031 C 
ATOM     45  C   UNL A   1      39.618  26.518  28.118  1.00  0.00     0.029 A 
ATOM     46  N   UNL A   1      41.613  26.876  29.060  1.00  0.00    -0.354 N 
ATOM     47  C   UNL A   1      42.525  30.648  30.984  1.00  0.00     0.074 A 
ATOM     48  C   UNL A   1      41.379  31.529  30.974  1.00  0.00     0.031 C 
ATOM     49  C   UNL A   1      40.364  25.418  27.914  1.00  0.00     0.029 A 
ATOM     50  C   UNL A   1      41.682  25.620  28.503  1.00  0.00     0.049 A 
ATOM     51  H   UNL A   1      42.367  27.295  29.537  1.00  0.00     0.167 HD
ATOM     52  C   UNL A   1      43.712  30.956  31.556  1.00  0.00     0.031 A 
ATOM     53  C   UNL A   1      42.697  24.734  28.474  1.00  0.00     0.031 A 
ATOM     54  C   UNL A   1      44.836  30.066  31.601  1.00  0.00     0.049 A 
ATOM     55  C   UNL A   1      44.001  25.096  29.133  1.00  0.00     0.074 A 
ATOM     56  C   UNL A   1      46.074  30.269  32.184  1.00  0.00     0.029 A 
ATOM     57  N   UNL A   1      44.851  28.789  31.058  1.00  0.00    -0.354 N 
ATOM     58  N   UNL A   1      44.331  26.203  29.755  1.00  0.00    -0.248 NA
ATOM     59  C   UNL A   1      45.067  24.084  29.096  1.00  0.00     0.031 C 
ATOM     60  C   UNL A   1      46.846  29.121  31.978  1.00  0.00     0.029 A 
ATOM     61  C   UNL A   1      46.073  28.191  31.299  1.00  0.00     0.049 A 
ATOM     62  H   UNL A   1      44.102  28.373  30.574  1.00  0.00     0.167 HD
ATOM     63  C   UNL A   1      45.629  26.006  30.210  1.00  0.00     0.074 A 
ATOM     64  C   UNL A   1      46.021  24.673  29.803  1.00  0.00     0.031 C 
ATOM     65  C   UNL A   1      46.430  26.854  30.903  1.00  0.00     0.031 A 
BRANCH  52  66
ATOM     66  C   UNL A   1      43.833  32.308  32.204  1.00  0.00    -0.014 A 
ATOM     67  C   UNL A   1      44.246  33.425  31.456  1.00  0.00     0.010 A 
ATOM     68  C   UNL A   1      43.511  32.471  33.562  1.00  0.00     0.010 A 
ATOM     69  C   UNL A   1      44.369  34.676  32.063  1.00  0.00     0.020 A 
ATOM     70  C   UNL A   1      43.607  33.728  34.168  1.00  0.00     0.020 A 
ATOM     71  C   UNL A   1      44.052  34.819  33.416  1.00  0.00     0.054 A 
BRANCH  71  72
ATOM     72  S   UNL A   1      44.193  36.461  34.173  1.00  0.00     0.124 S 
ATOM     73  O   UNL A   1      45.488  36.913  33.668  1.00  0.00    -0.237 OA
ATOM     74  O   UNL A   1      43.031  37.164  33.634  1.00  0.00    -0.237 OA
ATOM     75  O   UNL A   1      44.144  36.188  35.606  1.00  0.00    -0.744 OA
ENDBRANCH  71  72
ENDBRANCH  52  66
BRANCH  53  76
ATOM     76  C   UNL A   1      42.526  23.406  27.822  1.00  0.00    -0.014 A 
ATOM     77  C   UNL A   1      41.925  22.345  28.523  1.00  0.00     0.010 A 
ATOM     78  C   UNL A   1      42.995  23.183  26.515  1.00  0.00     0.010 A 
ATOM     79  C   UNL A   1      41.832  21.075  27.947  1.00  0.00     0.020 A 
ATOM     80  C   UNL A   1      42.881  21.919  25.926  1.00  0.00     0.020 A 
ATOM     81  C   UNL A   1      42.319  20.868  26.654  1.00  0.00     0.054 A 
BRANCH  81  82
ATOM     82  S   UNL A   1      42.185  19.214  25.919  1.00  0.00     0.124 S 
ATOM     83  O   UNL A   1      42.715  18.368  26.982  1.00  0.00    -0.237 OA
ATOM     84  O   UNL A   1      40.751  19.091  25.667  1.00  0.00    -0.237 OA
ATOM     85  O   UNL A   1      43.014  19.309  24.719  1.00  0.00    -0.744 OA
ENDBRANCH  81  82
ENDBRANCH  53  76
BRANCH  65  86
ATOM     86  C   UNL A   1      47.784  26.348  31.308  1.00  0.00    -0.014 A 
ATOM     87  C   UNL A   1      47.968  25.651  32.514  1.00  0.00     0.010 A 
ATOM     88  C   UNL A   1      48.875  26.519  30.436  1.00  0.00     0.010 A 
ATOM     89  C   UNL A   1      49.228  25.153  32.853  1.00  0.00     0.020 A 
ATOM     90  C   UNL A   1      50.131  26.004  30.762  1.00  0.00     0.020 A 
ATOM     91  C   UNL A   1      50.301  25.333  31.976  1.00  0.00     0.054 A 
BRANCH  91  92
ATOM     92  S   UNL A   1      51.916  24.630  32.411  1.00  0.00     0.124 S 
ATOM     93  O   UNL A   1      52.063  25.048  33.803  1.00  0.00    -0.237 OA
ATOM     94  O   UNL A   1      51.712  23.199  32.201  1.00  0.00    -0.237 OA
ATOM     95  O   UNL A   1      52.834  25.265  31.469  1.00  0.00    -0.744 OA
ENDBRANCH  91  92
ENDBRANCH  65  86
ENDBRANCH  39  40
ENDBRANCH  31  34
ENDBRANCH  29  30
ENDBRANCH  28  29
ENDBRANCH  27  28
ENDBRANCH   1  27
TORSDOF 20
ENDMDL
MODEL 3
REMARK VINA RESULT:      -9.9      5.133      6.115
REMARK SMILES CCOc1ccc(NC(=O)CC2(CC(=O)NCCCCNC(=O)c3ccc(-c4c5nc(c(-c6ccc(S(=O)(=O)[O-])cc6)c6ccc([nH]6)c(-c6ccc(S(=O)(=O)[O-])cc6)c6nc(c(-c7ccc(S(=O)(=O)[O-])cc7)c7ccc4[nH]7)C=C6)C=C5)cc3)CCCCC2)cc1
REMARK SMILES IDX 17 1 16 2 14 3 15 4 13 6 12 7 84 8 88 9 85 10 87 11 86 12
REMARK SMILES IDX 11 13 9 14 8 15 10 17 7 18 4 19 5 20 90 21 6 22 89 23 3 24
REMARK SMILES IDX 2 25 1 26 18 27 19 28 20 29 21 30 22 31 23 33 24 34 25 35
REMARK SMILES IDX 83 36 26 37 82 38 27 39 28 40 29 41 76 42 30 43 81 44 75 45
REMARK SMILES IDX 77 46 31 47 80 48 74 49 73 50 32 52 62 53 43 54 61 55 44 56
REMARK SMILES IDX 47 57 60 58 78 59 45 60 46 61 59 63 79 64 48 65 33 66 34 67
REMARK SMILES IDX 42 68 35 69 41 70 36 71 37 72 38 73 39 74 40 75 63 76 64 77
REMARK SMILES IDX 72 78 65 79 71 80 66 81 67 82 68 83 69 84 70 85 49 86 50 87
REMARK SMILES IDX 58 88 51 89 57 90 52 91 53 92 54 93 55 94 56 95
REMARK H PARENT 16 5 8 16 21 32 77 51 47 62
REMARK Flexibility Score: inf
ROOT
ATOM      1  C   UNL A   1      35.075  29.037  27.191  1.00  0.00     0.116 C 
ENDROOT
BRANCH   1   2
ATOM      2  N   UNL A   1      34.345  29.309  25.982  1.00  0.00    -0.356 N 
ATOM      3  C   UNL A   1      33.296  28.652  25.434  1.00  0.00     0.220 C 
ATOM      4  O   UNL A   1      32.706  29.234  24.518  1.00  0.00    -0.275 OA
ATOM      5  H   UNL A   1      34.656  30.093  25.473  1.00  0.00     0.163 HD
BRANCH   3   6
ATOM      6  C   UNL A   1      32.794  27.307  25.969  1.00  0.00     0.107 C 
BRANCH   6   7
ATOM      7  C   UNL A   1      32.812  25.987  25.119  1.00  0.00    -0.012 C 
ATOM      8  C   UNL A   1      31.462  25.898  24.323  1.00  0.00     0.008 C 
ATOM      9  C   UNL A   1      32.793  24.699  25.998  1.00  0.00     0.008 C 
ATOM     10  C   UNL A   1      30.206  25.750  25.183  1.00  0.00     0.001 C 
ATOM     11  C   UNL A   1      31.571  24.535  26.905  1.00  0.00     0.001 C 
ATOM     12  C   UNL A   1      30.282  24.539  26.100  1.00  0.00     0.000 C 
BRANCH   7  13
ATOM     13  C   UNL A   1      33.985  25.834  24.075  1.00  0.00     0.108 C 
BRANCH  13  14
ATOM     14  C   UNL A   1      33.753  25.288  22.676  1.00  0.00     0.224 C 
ATOM     15  N   UNL A   1      33.522  23.968  22.423  1.00  0.00    -0.326 N 
ATOM     16  H   UNL A   1      33.396  23.749  21.472  1.00  0.00     0.169 HD
ATOM     17  O   UNL A   1      33.722  26.076  21.722  1.00  0.00    -0.275 OA
BRANCH  15  18
ATOM     18  C   UNL A   1      33.434  22.875  23.291  1.00  0.00     0.041 A 
ATOM     19  C   UNL A   1      33.510  20.451  24.650  1.00  0.00     0.119 A 
ATOM     20  C   UNL A   1      32.287  20.968  24.230  1.00  0.00     0.048 A 
ATOM     21  C   UNL A   1      34.680  21.181  24.489  1.00  0.00     0.048 A 
ATOM     22  C   UNL A   1      32.250  22.194  23.558  1.00  0.00     0.030 A 
ATOM     23  C   UNL A   1      34.634  22.418  23.849  1.00  0.00     0.030 A 
BRANCH  19  24
ATOM     24  O   UNL A   1      33.588  19.154  25.070  1.00  0.00    -0.494 OA
BRANCH  24  25
ATOM     25  C   UNL A   1      33.500  18.227  23.988  1.00  0.00     0.226 C 
ATOM     26  C   UNL A   1      34.532  17.125  24.157  1.00  0.00     0.049 C 
ENDBRANCH  24  25
ENDBRANCH  19  24
ENDBRANCH  15  18
ENDBRANCH  13  14
ENDBRANCH   7  13
ENDBRANCH   6   7
ENDBRANCH   3   6
ENDBRANCH   1   2
BRANCH   1  27
ATOM     27  C   UNL A   1      35.279  30.306  28.012  1.00  0.00     0.023 C 
BRANCH  27  28
ATOM     28  C   UNL A   1      34.349  31.458  27.672  1.00  0.00     0.023 C 
BRANCH  28  29
ATOM     29  C   UNL A   1      34.606  32.739  28.447  1.00  0.00     0.116 C 
BRANCH  29  30
ATOM     30  N   UNL A   1      34.015  32.771  29.782  1.00  0.00    -0.352 N 
ATOM     31  C   UNL A   1      34.682  32.714  30.987  1.00  0.00     0.251 C 
ATOM     32  H   UNL A   1      33.034  32.841  29.825  1.00  0.00     0.163 HD
ATOM     33  O   UNL A   1      34.083  32.707  32.049  1.00  0.00    -0.269 OA
BRANCH  31  34
ATOM     34  C   UNL A   1      36.153  32.603  30.935  1.00  0.00     0.039 A 
ATOM     35  C   UNL A   1      36.791  31.726  31.811  1.00  0.00     0.014 A 
ATOM     36  C   UNL A   1      36.850  33.221  29.894  1.00  0.00     0.014 A 
ATOM     37  C   UNL A   1      38.127  31.394  31.584  1.00  0.00     0.010 A 
ATOM     38  C   UNL A   1      38.148  32.816  29.618  1.00  0.00     0.010 A 
ATOM     39  C   UNL A   1      38.797  31.896  30.455  1.00  0.00    -0.014 A 
BRANCH  39  40
ATOM     40  C   UNL A   1      40.186  31.488  30.133  1.00  0.00     0.031 A 
ATOM     41  C   UNL A   1      41.301  32.484  30.299  1.00  0.00     0.074 A 
ATOM     42  C   UNL A   1      40.434  30.264  29.625  1.00  0.00     0.049 A 
ATOM     43  N   UNL A   1      42.560  32.376  29.966  1.00  0.00    -0.248 NA
ATOM     44  C   UNL A   1      40.944  33.789  30.885  1.00  0.00     0.031 C 
ATOM     45  C   UNL A   1      39.431  29.224  29.371  1.00  0.00     0.029 A 
ATOM     46  N   UNL A   1      41.613  29.686  29.225  1.00  0.00    -0.354 N 
ATOM     47  C   UNL A   1      43.137  33.601  30.280  1.00  0.00     0.074 A 
ATOM     48  C   UNL A   1      42.081  34.456  30.773  1.00  0.00     0.031 C 
ATOM     49  C   UNL A   1      40.044  28.127  28.893  1.00  0.00     0.029 A 
ATOM     50  C   UNL A   1      41.473  28.395  28.769  1.00  0.00     0.049 A 
ATOM     51  H   UNL A   1      42.480  30.152  29.261  1.00  0.00     0.167 HD
ATOM     52  C   UNL A   1      44.435  33.971  30.197  1.00  0.00     0.031 A 
ATOM     53  C   UNL A   1      42.395  27.529  28.305  1.00  0.00     0.031 A 
ATOM     54  C   UNL A   1      45.490  33.108  29.746  1.00  0.00     0.049 A 
ATOM     55  C   UNL A   1      43.835  27.962  28.241  1.00  0.00     0.074 A 
ATOM     56  C   UNL A   1      46.844  33.376  29.655  1.00  0.00     0.029 A 
ATOM     57  N   UNL A   1      45.309  31.798  29.330  1.00  0.00    -0.354 N 
ATOM     58  N   UNL A   1      44.364  29.116  28.571  1.00  0.00    -0.248 NA
ATOM     59  C   UNL A   1      44.805  26.972  27.752  1.00  0.00     0.031 C 
ATOM     60  C   UNL A   1      47.482  32.232  29.166  1.00  0.00     0.029 A 
ATOM     61  C   UNL A   1      46.528  31.242  28.989  1.00  0.00     0.049 A 
ATOM     62  H   UNL A   1      44.443  31.333  29.286  1.00  0.00     0.167 HD
ATOM     63  C   UNL A   1      45.731  28.978  28.360  1.00  0.00     0.074 A 
ATOM     64  C   UNL A   1      45.949  27.627  27.885  1.00  0.00     0.031 C 
ATOM     65  C   UNL A   1      46.720  29.887  28.540  1.00  0.00     0.031 A 
BRANCH  52  66
ATOM     66  C   UNL A   1      44.782  35.367  30.638  1.00  0.00    -0.014 A 
ATOM     67  C   UNL A   1      44.743  36.435  29.723  1.00  0.00     0.010 A 
ATOM     68  C   UNL A   1      45.126  35.621  31.976  1.00  0.00     0.010 A 
ATOM     69  C   UNL A   1      45.076  37.728  30.131  1.00  0.00     0.020 A 
ATOM     70  C   UNL A   1      45.434  36.919  32.395  1.00  0.00     0.020 A 
ATOM     71  C   UNL A   1      45.423  37.961  31.464  1.00  0.00     0.054 A 
BRANCH  71  72
ATOM     72  S   UNL A   1      45.824  39.655  31.975  1.00  0.00     0.124 S 
ATOM     73  O   UNL A   1      46.428  40.198  30.760  1.00  0.00    -0.237 OA
ATOM     74  O   UNL A   1      44.515  40.203  32.323  1.00  0.00    -0.237 OA
ATOM     75  O   UNL A   1      46.739  39.471  33.098  1.00  0.00    -0.744 OA
ENDBRANCH  71  72
ENDBRANCH  52  66
BRANCH  53  76
ATOM     76  C   UNL A   1      42.002  26.156  27.883  1.00  0.00    -0.014 A 
ATOM     77  C   UNL A   1      41.475  25.934  26.597  1.00  0.00     0.010 A 
ATOM     78  C   UNL A   1      42.116  25.072  28.772  1.00  0.00     0.010 A 
ATOM     79  C   UNL A   1      41.031  24.664  26.222  1.00  0.00     0.020 A 
ATOM     80  C   UNL A   1      41.695  23.794  28.390  1.00  0.00     0.020 A 
ATOM     81  C   UNL A   1      41.136  23.602  27.125  1.00  0.00     0.054 A 
BRANCH  81  82
ATOM     82  S   UNL A   1      40.560  21.957  26.618  1.00  0.00     0.124 S 
ATOM     83  O   UNL A   1      41.562  21.579  25.627  1.00  0.00    -0.237 OA
ATOM     84  O   UNL A   1      40.592  21.206  27.870  1.00  0.00    -0.237 OA
ATOM     85  O   UNL A   1      39.222  22.216  26.090  1.00  0.00    -0.744 OA
ENDBRANCH  81  82
ENDBRANCH  53  76
BRANCH  65  86
ATOM     86  C   UNL A   1      48.128  29.438  28.275  1.00  0.00    -0.014 A 
ATOM     87  C   UNL A   1      48.690  29.530  26.990  1.00  0.00     0.010 A 
ATOM     88  C   UNL A   1      48.919  28.978  29.343  1.00  0.00     0.010 A 
ATOM     89  C   UNL A   1      50.015  29.146  26.774  1.00  0.00     0.020 A 
ATOM     90  C   UNL A   1      50.250  28.613  29.134  1.00  0.00     0.020 A 
ATOM     91  C   UNL A   1      50.786  28.688  27.847  1.00  0.00     0.054 A 
BRANCH  91  92
ATOM     92  S   UNL A   1      52.521  28.247  27.553  1.00  0.00     0.124 S 
ATOM     93  O   UNL A   1      53.100  29.531  27.170  1.00  0.00    -0.237 OA
ATOM     94  O   UNL A   1      52.946  27.726  28.850  1.00  0.00    -0.237 OA
ATOM     95  O   UNL A   1      52.448  27.252  26.485  1.00  0.00    -0.744 OA
ENDBRANCH  91  92
ENDBRANCH  65  86
ENDBRANCH  39  40
ENDBRANCH  31  34
ENDBRANCH  29  30
ENDBRANCH  28  29
ENDBRANCH  27  28
ENDBRANCH   1  27
TORSDOF 20
ENDMDL
