MODEL 1
REMARK VINA RESULT:     -11.4      0.000      0.000
REMARK SMILES Cc1ccc2occ(/C=N/NC(=O)CCC(=O)Nc3ccc(C(=O)NCCCCNC(=O)c4ccc(-c5c6nc(c(-c7ccc(S(=O)(=O)[O-])cc7)c7ccc([nH]7)c(-c7ccc(S(=O)(=O)[O-])cc7)c7nc(c(-c8ccc(S(=O)(=O)[O-])cc8)c8ccc5[nH]8)C=C7)C=C6)cc4)cc3)c(=O)c2c1
REMARK SMILES IDX 26 1 25 2 23 3 24 4 22 6 19 7 20 8 94 9 21 10 93 11 18 12
REMARK SMILES IDX 16 13 17 14 15 16 14 17 12 18 11 19 13 21 10 22 9 23 8 24
REMARK SMILES IDX 1 25 2 26 3 27 98 28 4 29 97 30 5 31 95 32 6 33 96 34 7 35
REMARK SMILES IDX 27 36 28 37 29 38 30 39 31 40 32 42 33 43 34 44 92 45 35 46
REMARK SMILES IDX 91 47 36 48 37 49 38 50 85 51 39 52 90 53 84 54 86 55 40 56
REMARK SMILES IDX 89 57 83 58 82 59 41 61 71 62 52 63 70 64 53 65 56 66 69 67
REMARK SMILES IDX 87 68 54 69 55 70 68 72 88 73 57 74 42 75 43 76 51 77 44 78
REMARK SMILES IDX 50 79 45 80 46 81 47 82 48 83 49 84 72 85 73 86 81 87 74 88
REMARK SMILES IDX 80 89 75 90 76 91 77 92 78 93 79 94 58 95 59 96 67 97 60 98
REMARK SMILES IDX 66 99 61 100 62 101 63 102 64 103 65 104
REMARK H PARENT 25 5 18 15 11 20 30 41 86 60 56 71
REMARK Flexibility Score: inf
ROOT
ATOM      1  C   UNL A   1      38.885  24.099  27.196  1.00  0.00     0.116 C 
ENDROOT
BRANCH   1   2
ATOM      2  N   UNL A   1      39.285  22.745  26.814  1.00  0.00    -0.352 N 
ATOM      3  C   UNL A   1      38.724  21.791  25.987  1.00  0.00     0.251 C 
ATOM      4  O   UNL A   1      39.342  20.745  25.791  1.00  0.00    -0.269 OA
ATOM      5  H   UNL A   1      40.126  22.452  27.233  1.00  0.00     0.163 HD
BRANCH   3   6
ATOM      6  C   UNL A   1      37.423  21.987  25.291  1.00  0.00     0.039 A 
ATOM      7  C   UNL A   1      34.861  22.394  24.132  1.00  0.00     0.041 A 
ATOM      8  C   UNL A   1      35.845  23.380  24.033  1.00  0.00     0.027 A 
ATOM      9  C   UNL A   1      35.199  21.248  24.808  1.00  0.00     0.027 A 
ATOM     10  C   UNL A   1      37.107  23.194  24.648  1.00  0.00     0.016 A 
ATOM     11  C   UNL A   1      36.477  20.992  25.259  1.00  0.00     0.016 A 
BRANCH   7  12
ATOM     12  N   UNL A   1      33.630  22.519  23.463  1.00  0.00    -0.326 N 
ATOM     13  C   UNL A   1      32.368  22.828  23.913  1.00  0.00     0.224 C 
ATOM     14  O   UNL A   1      31.413  22.578  23.166  1.00  0.00    -0.275 OA
ATOM     15  H   UNL A   1      33.681  22.356  22.494  1.00  0.00     0.169 HD
BRANCH  13  16
ATOM     16  C   UNL A   1      32.121  23.583  25.218  1.00  0.00     0.110 C 
BRANCH  16  17
ATOM     17  C   UNL A   1      32.020  25.117  25.193  1.00  0.00     0.112 C 
BRANCH  17  18
ATOM     18  C   UNL A   1      30.713  25.792  25.624  1.00  0.00     0.240 C 
ATOM     19  N   UNL A   1      30.735  26.847  26.512  1.00  0.00    -0.247 N 
ATOM     20  H   UNL A   1      29.875  27.276  26.726  1.00  0.00     0.193 HD
ATOM     21  O   UNL A   1      29.635  25.454  25.124  1.00  0.00    -0.273 OA
BRANCH  19  22
ATOM     22  N   UNL A   1      31.847  27.343  27.116  1.00  0.00    -0.180 NA
ATOM     23  C   UNL A   1      32.370  28.326  26.461  1.00  0.00     0.148 C 
BRANCH  23  24
ATOM     24  C   UNL A   1      33.362  29.264  26.989  1.00  0.00     0.078 A 
ATOM     25  C   UNL A   1      34.344  35.308  28.118  1.00  0.00     0.044 C 
ATOM     26  C   UNL A   1      34.689  33.854  28.010  1.00  0.00    -0.050 A 
ATOM     27  C   UNL A   1      36.010  33.395  28.121  1.00  0.00     0.007 A 
ATOM     28  C   UNL A   1      33.667  32.930  27.796  1.00  0.00     0.019 A 
ATOM     29  C   UNL A   1      36.308  32.030  28.007  1.00  0.00     0.048 A 
ATOM     30  C   UNL A   1      33.978  31.578  27.648  1.00  0.00     0.066 A 
ATOM     31  C   UNL A   1      35.287  31.118  27.762  1.00  0.00     0.137 A 
ATOM     32  C   UNL A   1      32.925  30.637  27.279  1.00  0.00     0.201 A 
ATOM     33  O   UNL A   1      35.627  29.792  27.617  1.00  0.00    -0.463 OA
ATOM     34  O   UNL A   1      31.756  30.989  27.167  1.00  0.00    -0.288 OA
ATOM     35  C   UNL A   1      34.639  28.929  27.193  1.00  0.00     0.209 A 
ENDBRANCH  23  24
ENDBRANCH  19  22
ENDBRANCH  17  18
ENDBRANCH  16  17
ENDBRANCH  13  16
ENDBRANCH   7  12
ENDBRANCH   3   6
ENDBRANCH   1   2
BRANCH   1  36
ATOM     36  C   UNL A   1      39.948  25.142  26.802  1.00  0.00     0.023 C 
BRANCH  36  37
ATOM     37  C   UNL A   1      41.372  24.722  27.160  1.00  0.00     0.023 C 
BRANCH  37  38
ATOM     38  C   UNL A   1      42.355  25.884  27.211  1.00  0.00     0.116 C 
BRANCH  38  39
ATOM     39  N   UNL A   1      42.379  26.683  25.995  1.00  0.00    -0.352 N 
ATOM     40  C   UNL A   1      42.089  28.028  25.873  1.00  0.00     0.251 C 
ATOM     41  H   UNL A   1      42.629  26.212  25.168  1.00  0.00     0.163 HD
ATOM     42  O   UNL A   1      42.045  28.565  24.778  1.00  0.00    -0.269 OA
BRANCH  40  43
ATOM     43  C   UNL A   1      41.779  28.795  27.102  1.00  0.00     0.039 A 
ATOM     44  C   UNL A   1      40.580  28.541  27.772  1.00  0.00     0.014 A 
ATOM     45  C   UNL A   1      42.705  29.700  27.628  1.00  0.00     0.014 A 
ATOM     46  C   UNL A   1      40.349  29.134  29.017  1.00  0.00     0.010 A 
ATOM     47  C   UNL A   1      42.505  30.230  28.899  1.00  0.00     0.010 A 
ATOM     48  C   UNL A   1      41.329  29.947  29.610  1.00  0.00    -0.014 A 
BRANCH  48  49
ATOM     49  C   UNL A   1      41.156  30.494  30.980  1.00  0.00     0.031 A 
ATOM     50  C   UNL A   1      42.166  30.186  32.052  1.00  0.00     0.074 A 
ATOM     51  C   UNL A   1      40.050  31.203  31.282  1.00  0.00     0.049 A 
ATOM     52  N   UNL A   1      42.149  30.513  33.319  1.00  0.00    -0.248 NA
ATOM     53  C   UNL A   1      43.334  29.382  31.655  1.00  0.00     0.031 C 
ATOM     54  C   UNL A   1      38.970  31.531  30.346  1.00  0.00     0.029 A 
ATOM     55  N   UNL A   1      39.643  31.769  32.464  1.00  0.00    -0.354 N 
ATOM     56  C   UNL A   1      43.289  29.941  33.872  1.00  0.00     0.074 A 
ATOM     57  C   UNL A   1      43.949  29.207  32.815  1.00  0.00     0.031 C 
ATOM     58  C   UNL A   1      38.040  32.260  30.984  1.00  0.00     0.029 A 
ATOM     59  C   UNL A   1      38.433  32.419  32.381  1.00  0.00     0.049 A 
ATOM     60  H   UNL A   1      40.168  31.715  33.296  1.00  0.00     0.167 HD
ATOM     61  C   UNL A   1      43.754  30.034  35.141  1.00  0.00     0.031 A 
ATOM     62  C   UNL A   1      37.716  33.066  33.321  1.00  0.00     0.031 A 
ATOM     63  C   UNL A   1      43.105  30.777  36.187  1.00  0.00     0.049 A 
ATOM     64  C   UNL A   1      38.255  33.157  34.723  1.00  0.00     0.074 A 
ATOM     65  C   UNL A   1      43.530  30.979  37.489  1.00  0.00     0.029 A 
ATOM     66  N   UNL A   1      41.894  31.438  36.054  1.00  0.00    -0.354 N 
ATOM     67  N   UNL A   1      39.370  32.667  35.209  1.00  0.00    -0.248 NA
ATOM     68  C   UNL A   1      37.445  33.900  35.699  1.00  0.00     0.031 C 
ATOM     69  C   UNL A   1      42.554  31.725  38.156  1.00  0.00     0.029 A 
ATOM     70  C   UNL A   1      41.547  32.034  37.255  1.00  0.00     0.049 A 
ATOM     71  H   UNL A   1      41.360  31.479  35.228  1.00  0.00     0.167 HD
ATOM     72  C   UNL A   1      39.409  33.066  36.541  1.00  0.00     0.074 A 
ATOM     73  C   UNL A   1      38.212  33.846  36.779  1.00  0.00     0.031 C 
ATOM     74  C   UNL A   1      40.355  32.813  37.478  1.00  0.00     0.031 A 
BRANCH  61  75
ATOM     75  C   UNL A   1      45.033  29.308  35.465  1.00  0.00    -0.014 A 
ATOM     76  C   UNL A   1      46.285  29.916  35.261  1.00  0.00     0.010 A 
ATOM     77  C   UNL A   1      44.984  28.013  36.012  1.00  0.00     0.010 A 
ATOM     78  C   UNL A   1      47.464  29.228  35.556  1.00  0.00     0.020 A 
ATOM     79  C   UNL A   1      46.161  27.330  36.335  1.00  0.00     0.020 A 
ATOM     80  C   UNL A   1      47.394  27.936  36.087  1.00  0.00     0.054 A 
BRANCH  80  81
ATOM     81  S   UNL A   1      48.940  27.070  36.473  1.00  0.00     0.124 S 
ATOM     82  O   UNL A   1      48.642  26.494  37.782  1.00  0.00    -0.237 OA
ATOM     83  O   UNL A   1      49.054  26.112  35.376  1.00  0.00    -0.237 OA
ATOM     84  O   UNL A   1      49.942  28.133  36.474  1.00  0.00    -0.744 OA
ENDBRANCH  80  81
ENDBRANCH  61  75
BRANCH  62  85
ATOM     85  C   UNL A   1      36.418  33.699  32.960  1.00  0.00    -0.014 A 
ATOM     86  C   UNL A   1      36.296  35.099  32.914  1.00  0.00     0.010 A 
ATOM     87  C   UNL A   1      35.301  32.904  32.642  1.00  0.00     0.010 A 
ATOM     88  C   UNL A   1      35.078  35.694  32.576  1.00  0.00     0.020 A 
ATOM     89  C   UNL A   1      34.088  33.496  32.277  1.00  0.00     0.020 A 
ATOM     90  C   UNL A   1      33.981  34.888  32.257  1.00  0.00     0.054 A 
BRANCH  90  91
ATOM     91  S   UNL A   1      32.426  35.682  31.765  1.00  0.00     0.124 S 
ATOM     92  O   UNL A   1      32.271  35.217  30.390  1.00  0.00    -0.237 OA
ATOM     93  O   UNL A   1      31.473  35.134  32.728  1.00  0.00    -0.237 OA
ATOM     94  O   UNL A   1      32.705  37.107  31.918  1.00  0.00    -0.744 OA
ENDBRANCH  90  91
ENDBRANCH  62  85
BRANCH  74  95
ATOM     95  C   UNL A   1      40.161  33.414  38.844  1.00  0.00    -0.014 A 
ATOM     96  C   UNL A   1      39.434  32.742  39.841  1.00  0.00     0.010 A 
ATOM     97  C   UNL A   1      40.781  34.639  39.153  1.00  0.00     0.010 A 
ATOM     98  C   UNL A   1      39.313  33.295  41.118  1.00  0.00     0.020 A 
ATOM     99  C   UNL A   1      40.683  35.183  40.435  1.00  0.00     0.020 A 
ATOM    100  C   UNL A   1      39.940  34.511  41.408  1.00  0.00     0.054 A 
BRANCH 100 101
ATOM    101  S   UNL A   1      39.818  35.178  43.091  1.00  0.00     0.124 S 
ATOM    102  O   UNL A   1      38.690  36.096  42.974  1.00  0.00    -0.237 OA
ATOM    103  O   UNL A   1      39.576  33.982  43.895  1.00  0.00    -0.237 OA
ATOM    104  O   UNL A   1      41.118  35.812  43.307  1.00  0.00    -0.744 OA
ENDBRANCH 100 101
ENDBRANCH  74  95
ENDBRANCH  48  49
ENDBRANCH  40  43
ENDBRANCH  38  39
ENDBRANCH  37  38
ENDBRANCH  36  37
ENDBRANCH   1  36
TORSDOF 20
ENDMDL
MODEL 2
REMARK VINA RESULT:     -11.1      4.429      8.989
REMARK SMILES Cc1ccc2occ(/C=N/NC(=O)CCC(=O)Nc3ccc(C(=O)NCCCCNC(=O)c4ccc(-c5c6nc(c(-c7ccc(S(=O)(=O)[O-])cc7)c7ccc([nH]7)c(-c7ccc(S(=O)(=O)[O-])cc7)c7nc(c(-c8ccc(S(=O)(=O)[O-])cc8)c8ccc5[nH]8)C=C7)C=C6)cc4)cc3)c(=O)c2c1
REMARK SMILES IDX 26 1 25 2 23 3 24 4 22 6 19 7 20 8 94 9 21 10 93 11 18 12
REMARK SMILES IDX 16 13 17 14 15 16 14 17 12 18 11 19 13 21 10 22 9 23 8 24
REMARK SMILES IDX 1 25 2 26 3 27 98 28 4 29 97 30 5 31 95 32 6 33 96 34 7 35
REMARK SMILES IDX 27 36 28 37 29 38 30 39 31 40 32 42 33 43 34 44 92 45 35 46
REMARK SMILES IDX 91 47 36 48 37 49 38 50 85 51 39 52 90 53 84 54 86 55 40 56
REMARK SMILES IDX 89 57 83 58 82 59 41 61 71 62 52 63 70 64 53 65 56 66 69 67
REMARK SMILES IDX 87 68 54 69 55 70 68 72 88 73 57 74 42 75 43 76 51 77 44 78
REMARK SMILES IDX 50 79 45 80 46 81 47 82 48 83 49 84 72 85 73 86 81 87 74 88
REMARK SMILES IDX 80 89 75 90 76 91 77 92 78 93 79 94 58 95 59 96 67 97 60 98
REMARK SMILES IDX 66 99 61 100 62 101 63 102 64 103 65 104
REMARK H PARENT 25 5 18 15 11 20 30 41 86 60 56 71
REMARK Flexibility Score: inf
ROOT
ATOM      1  C   UNL A   1      43.830  23.678  24.682  1.00  0.00     0.116 C 
ENDROOT
BRANCH   1   2
ATOM      2  N   UNL A   1      42.681  23.036  25.321  1.00  0.00    -0.352 N 
ATOM      3  C   UNL A   1      41.718  23.483  26.205  1.00  0.00     0.251 C 
ATOM      4  O   UNL A   1      40.806  22.719  26.516  1.00  0.00    -0.269 OA
ATOM      5  H   UNL A   1      42.572  22.091  25.070  1.00  0.00     0.163 HD
BRANCH   3   6
ATOM      6  C   UNL A   1      41.714  24.860  26.768  1.00  0.00     0.039 A 
ATOM      7  C   UNL A   1      41.529  27.460  27.902  1.00  0.00     0.041 A 
ATOM      8  C   UNL A   1      42.271  26.463  28.539  1.00  0.00     0.027 A 
ATOM      9  C   UNL A   1      40.909  27.114  26.727  1.00  0.00     0.027 A 
ATOM     10  C   UNL A   1      42.327  25.157  27.996  1.00  0.00     0.016 A 
ATOM     11  C   UNL A   1      41.101  25.897  26.108  1.00  0.00     0.016 A 
BRANCH   7  12
ATOM     12  N   UNL A   1      41.523  28.784  28.377  1.00  0.00    -0.326 N 
ATOM     13  C   UNL A   1      40.733  29.422  29.304  1.00  0.00     0.224 C 
ATOM     14  O   UNL A   1      40.745  30.660  29.315  1.00  0.00    -0.275 OA
ATOM     15  H   UNL A   1      42.211  29.359  27.971  1.00  0.00     0.169 HD
BRANCH  13  16
ATOM     16  C   UNL A   1      39.967  28.671  30.391  1.00  0.00     0.110 C 
BRANCH  16  17
ATOM     17  C   UNL A   1      38.927  29.424  31.236  1.00  0.00     0.112 C 
BRANCH  17  18
ATOM     18  C   UNL A   1      38.229  28.698  32.393  1.00  0.00     0.240 C 
ATOM     19  N   UNL A   1      37.403  29.392  33.252  1.00  0.00    -0.247 N 
ATOM     20  H   UNL A   1      36.944  28.876  33.953  1.00  0.00     0.193 HD
ATOM     21  O   UNL A   1      38.336  27.475  32.524  1.00  0.00    -0.273 OA
BRANCH  19  22
ATOM     22  N   UNL A   1      37.169  30.731  33.208  1.00  0.00    -0.180 NA
ATOM     23  C   UNL A   1      36.129  31.029  32.502  1.00  0.00     0.148 C 
BRANCH  23  24
ATOM     24  C   UNL A   1      35.438  32.319  32.517  1.00  0.00     0.078 A 
ATOM     25  C   UNL A   1      33.157  36.751  28.784  1.00  0.00     0.044 C 
ATOM     26  C   UNL A   1      33.551  36.112  30.081  1.00  0.00    -0.050 A 
ATOM     27  C   UNL A   1      33.546  36.822  31.290  1.00  0.00     0.007 A 
ATOM     28  C   UNL A   1      33.931  34.770  30.085  1.00  0.00     0.019 A 
ATOM     29  C   UNL A   1      33.928  36.203  32.489  1.00  0.00     0.048 A 
ATOM     30  C   UNL A   1      34.345  34.174  31.277  1.00  0.00     0.066 A 
ATOM     31  C   UNL A   1      34.336  34.874  32.480  1.00  0.00     0.137 A 
ATOM     32  C   UNL A   1      34.880  32.816  31.251  1.00  0.00     0.201 A 
ATOM     33  O   UNL A   1      34.741  34.316  33.671  1.00  0.00    -0.463 OA
ATOM     34  O   UNL A   1      34.909  32.154  30.219  1.00  0.00    -0.288 OA
ATOM     35  C   UNL A   1      35.316  33.064  33.619  1.00  0.00     0.209 A 
ENDBRANCH  23  24
ENDBRANCH  19  22
ENDBRANCH  17  18
ENDBRANCH  16  17
ENDBRANCH  13  16
ENDBRANCH   7  12
ENDBRANCH   3   6
ENDBRANCH   1   2
BRANCH   1  36
ATOM     36  C   UNL A   1      45.038  23.766  25.633  1.00  0.00     0.023 C 
BRANCH  36  37
ATOM     37  C   UNL A   1      46.382  23.787  24.907  1.00  0.00     0.023 C 
BRANCH  37  38
ATOM     38  C   UNL A   1      47.263  24.969  25.288  1.00  0.00     0.116 C 
BRANCH  38  39
ATOM     39  N   UNL A   1      47.643  25.802  24.158  1.00  0.00    -0.352 N 
ATOM     40  C   UNL A   1      47.413  27.156  24.001  1.00  0.00     0.251 C 
ATOM     41  H   UNL A   1      48.116  25.352  23.422  1.00  0.00     0.163 HD
ATOM     42  O   UNL A   1      47.690  27.725  22.959  1.00  0.00    -0.269 OA
BRANCH  40  43
ATOM     43  C   UNL A   1      46.769  27.892  25.114  1.00  0.00     0.039 A 
ATOM     44  C   UNL A   1      45.384  27.803  25.272  1.00  0.00     0.014 A 
ATOM     45  C   UNL A   1      47.542  28.599  26.040  1.00  0.00     0.014 A 
ATOM     46  C   UNL A   1      44.783  28.355  26.407  1.00  0.00     0.010 A 
ATOM     47  C   UNL A   1      46.951  29.082  27.204  1.00  0.00     0.010 A 
ATOM     48  C   UNL A   1      45.568  28.958  27.404  1.00  0.00    -0.014 A 
BRANCH  48  49
ATOM     49  C   UNL A   1      44.968  29.446  28.672  1.00  0.00     0.031 A 
ATOM     50  C   UNL A   1      44.447  30.854  28.771  1.00  0.00     0.074 A 
ATOM     51  C   UNL A   1      44.963  28.649  29.759  1.00  0.00     0.049 A 
ATOM     52  N   UNL A   1      43.955  31.480  29.809  1.00  0.00    -0.248 NA
ATOM     53  C   UNL A   1      44.511  31.675  27.550  1.00  0.00     0.031 C 
ATOM     54  C   UNL A   1      45.482  27.279  29.810  1.00  0.00     0.029 A 
ATOM     55  N   UNL A   1      44.514  28.878  31.037  1.00  0.00    -0.354 N 
ATOM     56  C   UNL A   1      43.671  32.768  29.374  1.00  0.00     0.074 A 
ATOM     57  C   UNL A   1      44.089  32.850  27.991  1.00  0.00     0.031 C 
ATOM     58  C   UNL A   1      45.298  26.784  31.045  1.00  0.00     0.029 A 
ATOM     59  C   UNL A   1      44.687  27.809  31.885  1.00  0.00     0.049 A 
ATOM     60  H   UNL A   1      44.107  29.728  31.319  1.00  0.00     0.167 HD
ATOM     61  C   UNL A   1      43.096  33.788  30.057  1.00  0.00     0.031 A 
ATOM     62  C   UNL A   1      44.393  27.669  33.193  1.00  0.00     0.031 A 
ATOM     63  C   UNL A   1      42.667  33.702  31.427  1.00  0.00     0.049 A 
ATOM     64  C   UNL A   1      43.754  28.814  33.930  1.00  0.00     0.074 A 
ATOM     65  C   UNL A   1      42.021  34.661  32.188  1.00  0.00     0.029 A 
ATOM     66  N   UNL A   1      42.842  32.594  32.242  1.00  0.00    -0.354 N 
ATOM     67  N   UNL A   1      43.431  30.003  33.481  1.00  0.00    -0.248 NA
ATOM     68  C   UNL A   1      43.429  28.594  35.346  1.00  0.00     0.031 C 
ATOM     69  C   UNL A   1      41.845  34.149  33.477  1.00  0.00     0.029 A 
ATOM     70  C   UNL A   1      42.332  32.852  33.504  1.00  0.00     0.049 A 
ATOM     71  H   UNL A   1      43.264  31.749  31.966  1.00  0.00     0.167 HD
ATOM     72  C   UNL A   1      42.837  30.663  34.552  1.00  0.00     0.074 A 
ATOM     73  C   UNL A   1      42.838  29.737  35.666  1.00  0.00     0.031 C 
ATOM     74  C   UNL A   1      42.333  31.920  34.603  1.00  0.00     0.031 A 
BRANCH  61  75
ATOM     75  C   UNL A   1      42.901  35.090  29.326  1.00  0.00    -0.014 A 
ATOM     76  C   UNL A   1      41.693  35.377  28.665  1.00  0.00     0.010 A 
ATOM     77  C   UNL A   1      43.925  36.054  29.327  1.00  0.00     0.010 A 
ATOM     78  C   UNL A   1      41.528  36.583  27.981  1.00  0.00     0.020 A 
ATOM     79  C   UNL A   1      43.754  37.275  28.668  1.00  0.00     0.020 A 
ATOM     80  C   UNL A   1      42.563  37.523  27.983  1.00  0.00     0.054 A 
BRANCH  80  81
ATOM     81  S   UNL A   1      42.317  39.088  27.099  1.00  0.00     0.124 S 
ATOM     82  O   UNL A   1      41.914  39.984  28.180  1.00  0.00    -0.237 OA
ATOM     83  O   UNL A   1      43.638  39.346  26.530  1.00  0.00    -0.237 OA
ATOM     84  O   UNL A   1      41.274  38.776  26.125  1.00  0.00    -0.744 OA
ENDBRANCH  80  81
ENDBRANCH  61  75
BRANCH  62  85
ATOM     85  C   UNL A   1      44.682  26.382  33.884  1.00  0.00    -0.014 A 
ATOM     86  C   UNL A   1      43.778  25.309  33.798  1.00  0.00     0.010 A 
ATOM     87  C   UNL A   1      45.871  26.218  34.619  1.00  0.00     0.010 A 
ATOM     88  C   UNL A   1      44.047  24.101  34.447  1.00  0.00     0.020 A 
ATOM     89  C   UNL A   1      46.156  25.002  35.247  1.00  0.00     0.020 A 
ATOM     90  C   UNL A   1      45.237  23.954  35.166  1.00  0.00     0.054 A 
BRANCH  90  91
ATOM     91  S   UNL A   1      45.593  22.359  35.954  1.00  0.00     0.124 S 
ATOM     92  O   UNL A   1      44.640  21.475  35.291  1.00  0.00    -0.237 OA
ATOM     93  O   UNL A   1      46.998  22.144  35.613  1.00  0.00    -0.237 OA
ATOM     94  O   UNL A   1      45.336  22.611  37.370  1.00  0.00    -0.744 OA
ENDBRANCH  90  91
ENDBRANCH  62  85
BRANCH  74  95
ATOM     95  C   UNL A   1      41.702  32.365  35.895  1.00  0.00    -0.014 A 
ATOM     96  C   UNL A   1      40.316  32.265  36.103  1.00  0.00     0.010 A 
ATOM     97  C   UNL A   1      42.524  32.822  36.942  1.00  0.00     0.010 A 
ATOM     98  C   UNL A   1      39.760  32.635  37.331  1.00  0.00     0.020 A 
ATOM     99  C   UNL A   1      41.974  33.169  38.178  1.00  0.00     0.020 A 
ATOM    100  C   UNL A   1      40.592  33.083  38.361  1.00  0.00     0.054 A 
BRANCH 100 101
ATOM    101  S   UNL A   1      39.852  33.499  39.965  1.00  0.00     0.124 S 
ATOM    102  O   UNL A   1      39.081  32.297  40.264  1.00  0.00    -0.237 OA
ATOM    103  O   UNL A   1      41.023  33.723  40.810  1.00  0.00    -0.237 OA
ATOM    104  O   UNL A   1      39.060  34.694  39.681  1.00  0.00    -0.744 OA
ENDBRANCH 100 101
ENDBRANCH  74  95
ENDBRANCH  48  49
ENDBRANCH  40  43
ENDBRANCH  38  39
ENDBRANCH  37  38
ENDBRANCH  36  37
ENDBRANCH   1  36
TORSDOF 20
ENDMDL
MODEL 3
REMARK VINA RESULT:     -11.1      0.523      7.707
REMARK SMILES Cc1ccc2occ(/C=N/NC(=O)CCC(=O)Nc3ccc(C(=O)NCCCCNC(=O)c4ccc(-c5c6nc(c(-c7ccc(S(=O)(=O)[O-])cc7)c7ccc([nH]7)c(-c7ccc(S(=O)(=O)[O-])cc7)c7nc(c(-c8ccc(S(=O)(=O)[O-])cc8)c8ccc5[nH]8)C=C7)C=C6)cc4)cc3)c(=O)c2c1
REMARK SMILES IDX 26 1 25 2 23 3 24 4 22 6 19 7 20 8 94 9 21 10 93 11 18 12
REMARK SMILES IDX 16 13 17 14 15 16 14 17 12 18 11 19 13 21 10 22 9 23 8 24
REMARK SMILES IDX 1 25 2 26 3 27 98 28 4 29 97 30 5 31 95 32 6 33 96 34 7 35
REMARK SMILES IDX 27 36 28 37 29 38 30 39 31 40 32 42 33 43 34 44 92 45 35 46
REMARK SMILES IDX 91 47 36 48 37 49 38 50 85 51 39 52 90 53 84 54 86 55 40 56
REMARK SMILES IDX 89 57 83 58 82 59 41 61 71 62 52 63 70 64 53 65 56 66 69 67
REMARK SMILES IDX 87 68 54 69 55 70 68 72 88 73 57 74 42 75 43 76 51 77 44 78
REMARK SMILES IDX 50 79 45 80 46 81 47 82 48 83 49 84 72 85 73 86 81 87 74 88
REMARK SMILES IDX 80 89 75 90 76 91 77 92 78 93 79 94 58 95 59 96 67 97 60 98
REMARK SMILES IDX 66 99 61 100 62 101 63 102 64 103 65 104
REMARK H PARENT 25 5 18 15 11 20 30 41 86 60 56 71
REMARK Flexibility Score: inf
ROOT
ATOM      1  C   UNL A   1      38.907  24.121  27.341  1.00  0.00     0.116 C 
ENDROOT
BRANCH   1   2
ATOM      2  N   UNL A   1      39.365  22.803  26.901  1.00  0.00    -0.352 N 
ATOM      3  C   UNL A   1      38.844  21.859  26.038  1.00  0.00     0.251 C 
ATOM      4  O   UNL A   1      39.508  20.852  25.797  1.00  0.00    -0.269 OA
ATOM      5  H   UNL A   1      40.222  22.533  27.304  1.00  0.00     0.163 HD
BRANCH   3   6
ATOM      6  C   UNL A   1      37.532  22.024  25.356  1.00  0.00     0.039 A 
ATOM      7  C   UNL A   1      34.943  22.338  24.225  1.00  0.00     0.041 A 
ATOM      8  C   UNL A   1      35.825  23.420  24.282  1.00  0.00     0.027 A 
ATOM      9  C   UNL A   1      35.393  21.146  24.738  1.00  0.00     0.027 A 
ATOM     10  C   UNL A   1      37.098  23.273  24.885  1.00  0.00     0.016 A 
ATOM     11  C   UNL A   1      36.688  20.956  25.169  1.00  0.00     0.016 A 
BRANCH   7  12
ATOM     12  N   UNL A   1      33.707  22.436  23.561  1.00  0.00    -0.326 N 
ATOM     13  C   UNL A   1      32.449  22.766  24.007  1.00  0.00     0.224 C 
ATOM     14  O   UNL A   1      31.488  22.484  23.279  1.00  0.00    -0.275 OA
ATOM     15  H   UNL A   1      33.752  22.231  22.599  1.00  0.00     0.169 HD
BRANCH  13  16
ATOM     16  C   UNL A   1      32.213  23.576  25.280  1.00  0.00     0.110 C 
BRANCH  16  17
ATOM     17  C   UNL A   1      32.111  25.107  25.189  1.00  0.00     0.112 C 
BRANCH  17  18
ATOM     18  C   UNL A   1      30.794  25.797  25.565  1.00  0.00     0.240 C 
ATOM     19  N   UNL A   1      30.789  26.842  26.465  1.00  0.00    -0.247 N 
ATOM     20  H   UNL A   1      29.926  27.282  26.643  1.00  0.00     0.193 HD
ATOM     21  O   UNL A   1      29.737  25.480  25.011  1.00  0.00    -0.273 OA
BRANCH  19  22
ATOM     22  N   UNL A   1      31.878  27.316  27.127  1.00  0.00    -0.180 NA
ATOM     23  C   UNL A   1      32.489  28.247  26.472  1.00  0.00     0.148 C 
BRANCH  23  24
ATOM     24  C   UNL A   1      33.484  29.163  27.032  1.00  0.00     0.078 A 
ATOM     25  C   UNL A   1      34.574  35.189  28.161  1.00  0.00     0.044 C 
ATOM     26  C   UNL A   1      34.887  33.726  28.075  1.00  0.00    -0.050 A 
ATOM     27  C   UNL A   1      36.190  33.235  28.239  1.00  0.00     0.007 A 
ATOM     28  C   UNL A   1      33.851  32.826  27.828  1.00  0.00     0.019 A 
ATOM     29  C   UNL A   1      36.458  31.861  28.144  1.00  0.00     0.048 A 
ATOM     30  C   UNL A   1      34.133  31.466  27.700  1.00  0.00     0.066 A 
ATOM     31  C   UNL A   1      35.425  30.974  27.867  1.00  0.00     0.137 A 
ATOM     32  C   UNL A   1      33.071  30.549  27.297  1.00  0.00     0.201 A 
ATOM     33  O   UNL A   1      35.736  29.639  27.743  1.00  0.00    -0.463 OA
ATOM     34  O   UNL A   1      31.916  30.929  27.138  1.00  0.00    -0.288 OA
ATOM     35  C   UNL A   1      34.743  28.798  27.286  1.00  0.00     0.209 A 
ENDBRANCH  23  24
ENDBRANCH  19  22
ENDBRANCH  17  18
ENDBRANCH  16  17
ENDBRANCH  13  16
ENDBRANCH   7  12
ENDBRANCH   3   6
ENDBRANCH   1   2
BRANCH   1  36
ATOM     36  C   UNL A   1      39.891  25.234  26.934  1.00  0.00     0.023 C 
BRANCH  36  37
ATOM     37  C   UNL A   1      41.350  24.891  27.228  1.00  0.00     0.023 C 
BRANCH  37  38
ATOM     38  C   UNL A   1      42.243  26.113  27.390  1.00  0.00     0.116 C 
BRANCH  38  39
ATOM     39  N   UNL A   1      42.253  26.987  26.227  1.00  0.00    -0.352 N 
ATOM     40  C   UNL A   1      41.958  28.337  26.192  1.00  0.00     0.251 C 
ATOM     41  H   UNL A   1      42.497  26.571  25.369  1.00  0.00     0.163 HD
ATOM     42  O   UNL A   1      41.902  28.941  25.134  1.00  0.00    -0.269 OA
BRANCH  40  43
ATOM     43  C   UNL A   1      41.657  29.024  27.470  1.00  0.00     0.039 A 
ATOM     44  C   UNL A   1      40.505  28.667  28.174  1.00  0.00     0.014 A 
ATOM     45  C   UNL A   1      42.551  29.956  28.003  1.00  0.00     0.014 A 
ATOM     46  C   UNL A   1      40.293  29.184  29.455  1.00  0.00     0.010 A 
ATOM     47  C   UNL A   1      42.375  30.411  29.307  1.00  0.00     0.010 A 
ATOM     48  C   UNL A   1      41.249  30.024  30.049  1.00  0.00    -0.014 A 
BRANCH  48  49
ATOM     49  C   UNL A   1      41.104  30.493  31.451  1.00  0.00     0.031 A 
ATOM     50  C   UNL A   1      39.893  31.283  31.865  1.00  0.00     0.074 A 
ATOM     51  C   UNL A   1      42.100  30.275  32.335  1.00  0.00     0.049 A 
ATOM     52  N   UNL A   1      39.624  31.836  33.020  1.00  0.00    -0.248 NA
ATOM     53  C   UNL A   1      38.861  31.506  30.838  1.00  0.00     0.031 C 
ATOM     54  C   UNL A   1      43.349  29.563  32.048  1.00  0.00     0.029 A 
ATOM     55  N   UNL A   1      42.223  30.638  33.653  1.00  0.00    -0.354 N 
ATOM     56  C   UNL A   1      38.407  32.484  32.854  1.00  0.00     0.074 A 
ATOM     57  C   UNL A   1      38.012  32.298  31.475  1.00  0.00     0.031 C 
ATOM     58  C   UNL A   1      44.098  29.521  33.162  1.00  0.00     0.029 A 
ATOM     59  C   UNL A   1      43.404  30.235  34.230  1.00  0.00     0.049 A 
ATOM     60  H   UNL A   1      41.531  31.142  34.140  1.00  0.00     0.167 HD
ATOM     61  C   UNL A   1      37.673  33.159  33.771  1.00  0.00     0.031 A 
ATOM     62  C   UNL A   1      43.882  30.421  35.477  1.00  0.00     0.031 A 
ATOM     63  C   UNL A   1      38.058  33.331  35.146  1.00  0.00     0.049 A 
ATOM     64  C   UNL A   1      43.047  31.172  36.479  1.00  0.00     0.074 A 
ATOM     65  C   UNL A   1      37.354  33.948  36.166  1.00  0.00     0.029 A 
ATOM     66  N   UNL A   1      39.252  32.888  35.694  1.00  0.00    -0.354 N 
ATOM     67  N   UNL A   1      41.866  31.719  36.320  1.00  0.00    -0.248 NA
ATOM     68  C   UNL A   1      43.605  31.319  37.831  1.00  0.00     0.031 C 
ATOM     69  C   UNL A   1      38.141  33.917  37.321  1.00  0.00     0.029 A 
ATOM     70  C   UNL A   1      39.312  33.233  37.035  1.00  0.00     0.049 A 
ATOM     71  H   UNL A   1      39.952  32.399  35.205  1.00  0.00     0.167 HD
ATOM     72  C   UNL A   1      41.527  32.251  37.560  1.00  0.00     0.074 A 
ATOM     73  C   UNL A   1      42.622  31.950  38.459  1.00  0.00     0.031 C 
ATOM     74  C   UNL A   1      40.406  32.922  37.920  1.00  0.00     0.031 A 
BRANCH  61  75
ATOM     75  C   UNL A   1      36.374  33.765  33.310  1.00  0.00    -0.014 A 
ATOM     76  C   UNL A   1      35.151  33.097  33.507  1.00  0.00     0.010 A 
ATOM     77  C   UNL A   1      36.368  35.034  32.703  1.00  0.00     0.010 A 
ATOM     78  C   UNL A   1      33.954  33.664  33.065  1.00  0.00     0.020 A 
ATOM     79  C   UNL A   1      35.169  35.619  32.284  1.00  0.00     0.020 A 
ATOM     80  C   UNL A   1      33.972  34.921  32.452  1.00  0.00     0.054 A 
BRANCH  80  81
ATOM     81  S   UNL A   1      32.401  35.641  31.900  1.00  0.00     0.124 S 
ATOM     82  O   UNL A   1      32.609  37.061  32.174  1.00  0.00    -0.237 OA
ATOM     83  O   UNL A   1      32.359  35.274  30.487  1.00  0.00    -0.237 OA
ATOM     84  O   UNL A   1      31.404  34.984  32.741  1.00  0.00    -0.744 OA
ENDBRANCH  80  81
ENDBRANCH  61  75
BRANCH  62  85
ATOM     85  C   UNL A   1      45.211  29.866  35.854  1.00  0.00    -0.014 A 
ATOM     86  C   UNL A   1      45.304  28.628  36.515  1.00  0.00     0.010 A 
ATOM     87  C   UNL A   1      46.391  30.564  35.539  1.00  0.00     0.010 A 
ATOM     88  C   UNL A   1      46.551  28.106  36.869  1.00  0.00     0.020 A 
ATOM     89  C   UNL A   1      47.642  30.031  35.868  1.00  0.00     0.020 A 
ATOM     90  C   UNL A   1      47.713  28.810  36.542  1.00  0.00     0.054 A 
BRANCH  90  91
ATOM     91  S   UNL A   1      49.323  28.087  36.961  1.00  0.00     0.124 S 
ATOM     92  O   UNL A   1      50.036  28.179  35.690  1.00  0.00    -0.237 OA
ATOM     93  O   UNL A   1      49.801  28.973  38.020  1.00  0.00    -0.237 OA
ATOM     94  O   UNL A   1      48.987  26.733  37.395  1.00  0.00    -0.744 OA
ENDBRANCH  90  91
ENDBRANCH  62  85
BRANCH  74  95
ATOM     95  C   UNL A   1      40.281  33.349  39.358  1.00  0.00    -0.014 A 
ATOM     96  C   UNL A   1      40.926  34.502  39.836  1.00  0.00     0.010 A 
ATOM     97  C   UNL A   1      39.443  32.621  40.223  1.00  0.00     0.010 A 
ATOM     98  C   UNL A   1      40.752  34.909  41.162  1.00  0.00     0.020 A 
ATOM     99  C   UNL A   1      39.247  33.039  41.542  1.00  0.00     0.020 A 
ATOM    100  C   UNL A   1      39.912  34.176  42.005  1.00  0.00     0.054 A 
BRANCH 100 101
ATOM    101  S   UNL A   1      39.654  34.759  43.704  1.00  0.00     0.124 S 
ATOM    102  O   UNL A   1      40.978  35.261  44.057  1.00  0.00    -0.237 OA
ATOM    103  O   UNL A   1      38.618  35.776  43.541  1.00  0.00    -0.237 OA
ATOM    104  O   UNL A   1      39.231  33.558  44.422  1.00  0.00    -0.744 OA
ENDBRANCH 100 101
ENDBRANCH  74  95
ENDBRANCH  48  49
ENDBRANCH  40  43
ENDBRANCH  38  39
ENDBRANCH  37  38
ENDBRANCH  36  37
ENDBRANCH   1  36
TORSDOF 20
ENDMDL
