MODEL 1
REMARK VINA RESULT:     -11.8      0.000      0.000
REMARK SMILES CC[C@H](NC(=O)Cc1c(C)c2cc(Cl)c(OC)cc2oc1=O)C(=O)NCCCCNC(=O)c1ccc(-c2c3nc(c(-c4ccc(S(=O)(=O)[O-])cc4)c4ccc([nH]4)c(-c4ccc(S(=O)(=O)[O-])cc4)c4nc(c(-c5ccc(S(=O)(=O)[O-])cc5)c5ccc2[nH]5)C=C4)C=C3)cc1
REMARK SMILES IDX 27 1 26 2 25 3 23 4 24 5 3 7 2 8 1 9 4 10 5 11 6 13 7 14
REMARK SMILES IDX 8 15 9 16 21 17 10 18 11 19 20 20 22 21 12 22 19 23 13 24
REMARK SMILES IDX 18 25 14 26 15 27 16 28 17 29 28 30 29 31 30 32 31 33 32 35
REMARK SMILES IDX 33 36 34 37 92 38 35 39 91 40 36 41 37 42 38 43 85 44 39 45
REMARK SMILES IDX 90 46 84 47 86 48 40 49 89 50 83 51 82 52 41 54 71 55 52 56
REMARK SMILES IDX 70 57 53 58 56 59 69 60 87 61 54 62 55 63 68 65 88 66 57 67
REMARK SMILES IDX 42 68 43 69 51 70 44 71 50 72 45 73 46 74 47 75 48 76 49 77
REMARK SMILES IDX 72 78 73 79 81 80 74 81 80 82 75 83 76 84 77 85 78 86 79 87
REMARK SMILES IDX 58 88 59 89 67 90 60 91 66 92 61 93 62 94 63 95 64 96 65 97
REMARK H PARENT 25 6 4 12 30 34 86 53 56 64
REMARK Flexibility Score: inf
ROOT
ATOM      1  C   UNL A   1      38.110  24.090  26.562  1.00  0.00     0.023 C 
ENDROOT
BRANCH   1   2
ATOM      2  C   UNL A   1      36.810  23.577  25.943  1.00  0.00     0.116 C 
BRANCH   2   3
ATOM      3  N   UNL A   1      36.656  22.134  25.881  1.00  0.00    -0.354 N 
ATOM      4  C   UNL A   1      35.702  21.361  25.298  1.00  0.00     0.242 C 
ATOM      5  O   UNL A   1      35.974  20.179  25.060  1.00  0.00    -0.273 OA
ATOM      6  H   UNL A   1      37.365  21.629  26.341  1.00  0.00     0.163 HD
BRANCH   4   7
ATOM      7  C   UNL A   1      34.355  21.928  24.832  1.00  0.00     0.171 C 
BRANCH   7   8
ATOM      8  C   UNL A   1      33.223  20.925  25.153  1.00  0.00     0.031 C 
ATOM      9  C   UNL A   1      31.800  21.451  25.006  1.00  0.00     0.006 C 
ENDBRANCH   7   8
BRANCH   7  10
ATOM     10  N   UNL A   1      34.271  22.432  23.466  1.00  0.00    -0.344 N 
ATOM     11  C   UNL A   1      33.692  23.583  23.015  1.00  0.00     0.225 C 
ATOM     12  H   UNL A   1      34.689  21.868  22.776  1.00  0.00     0.164 HD
ATOM     13  O   UNL A   1      33.360  23.608  21.827  1.00  0.00    -0.275 OA
BRANCH  11  14
ATOM     14  C   UNL A   1      33.582  24.841  23.885  1.00  0.00     0.143 C 
BRANCH  14  15
ATOM     15  C   UNL A   1      32.635  25.929  23.467  1.00  0.00     0.051 A 
ATOM     16  C   UNL A   1      31.319  25.952  23.759  1.00  0.00    -0.029 A 
ATOM     17  C   UNL A   1      33.248  26.951  22.563  1.00  0.00     0.340 A 
ATOM     18  C   UNL A   1      30.624  24.830  24.486  1.00  0.00     0.046 C 
ATOM     19  C   UNL A   1      30.513  27.097  23.303  1.00  0.00     0.023 A 
ATOM     20  O   UNL A   1      32.491  28.065  22.263  1.00  0.00    -0.422 OA
ATOM     21  O   UNL A   1      34.373  26.811  22.093  1.00  0.00    -0.246 OA
ATOM     22  C   UNL A   1      29.145  27.234  23.559  1.00  0.00     0.036 A 
ATOM     23  C   UNL A   1      31.130  28.119  22.587  1.00  0.00     0.142 A 
ATOM     24  C   UNL A   1      28.433  28.344  23.083  1.00  0.00     0.083 A 
ATOM     25  C   UNL A   1      30.440  29.239  22.116  1.00  0.00     0.095 A 
ATOM     26  Cl  UNL A   1      26.738  28.414  23.427  1.00  0.00    -0.080 Cl
ATOM     27  C   UNL A   1      29.070  29.353  22.346  1.00  0.00     0.141 A 
BRANCH  27  28
ATOM     28  O   UNL A   1      28.295  30.392  21.908  1.00  0.00    -0.495 OA
ATOM     29  C   UNL A   1      28.724  31.707  22.244  1.00  0.00     0.278 C 
ENDBRANCH  27  28
ENDBRANCH  14  15
ENDBRANCH  11  14
ENDBRANCH   7  10
ENDBRANCH   4   7
ENDBRANCH   2   3
ENDBRANCH   1   2
BRANCH   1  30
ATOM     30  C   UNL A   1      39.255  23.087  26.632  1.00  0.00     0.023 C 
BRANCH  30  31
ATOM     31  C   UNL A   1      40.580  23.689  27.051  1.00  0.00     0.116 C 
BRANCH  31  32
ATOM     32  N   UNL A   1      41.191  24.475  25.989  1.00  0.00    -0.352 N 
ATOM     33  C   UNL A   1      41.572  25.797  26.020  1.00  0.00     0.251 C 
ATOM     34  H   UNL A   1      41.351  24.001  25.141  1.00  0.00     0.163 HD
ATOM     35  O   UNL A   1      41.903  26.377  25.000  1.00  0.00    -0.269 OA
BRANCH  33  36
ATOM     36  C   UNL A   1      41.536  26.492  27.322  1.00  0.00     0.039 A 
ATOM     37  C   UNL A   1      40.586  26.114  28.271  1.00  0.00     0.014 A 
ATOM     38  C   UNL A   1      42.373  27.587  27.544  1.00  0.00     0.014 A 
ATOM     39  C   UNL A   1      40.334  26.951  29.344  1.00  0.00     0.010 A 
ATOM     40  C   UNL A   1      42.200  28.354  28.698  1.00  0.00     0.010 A 
ATOM     41  C   UNL A   1      41.146  28.072  29.583  1.00  0.00    -0.014 A 
BRANCH  41  42
ATOM     42  C   UNL A   1      40.868  28.914  30.776  1.00  0.00     0.031 A 
ATOM     43  C   UNL A   1      41.789  28.900  31.968  1.00  0.00     0.074 A 
ATOM     44  C   UNL A   1      39.816  29.758  30.734  1.00  0.00     0.049 A 
ATOM     45  N   UNL A   1      41.707  29.604  33.068  1.00  0.00    -0.248 NA
ATOM     46  C   UNL A   1      42.942  27.984  31.934  1.00  0.00     0.031 C 
ATOM     47  C   UNL A   1      38.877  29.870  29.613  1.00  0.00     0.029 A 
ATOM     48  N   UNL A   1      39.387  30.715  31.617  1.00  0.00    -0.354 N 
ATOM     49  C   UNL A   1      42.775  29.200  33.862  1.00  0.00     0.074 A 
ATOM     50  C   UNL A   1      43.480  28.170  33.133  1.00  0.00     0.031 C 
ATOM     51  C   UNL A   1      38.051  30.902  29.830  1.00  0.00     0.029 A 
ATOM     52  C   UNL A   1      38.331  31.461  31.148  1.00  0.00     0.049 A 
ATOM     53  H   UNL A   1      39.794  30.853  32.502  1.00  0.00     0.167 HD
ATOM     54  C   UNL A   1      43.137  29.662  35.081  1.00  0.00     0.031 A 
ATOM     55  C   UNL A   1      37.650  32.479  31.710  1.00  0.00     0.031 A 
ATOM     56  C   UNL A   1      42.446  30.718  35.776  1.00  0.00     0.049 A 
ATOM     57  C   UNL A   1      38.055  32.945  33.077  1.00  0.00     0.074 A 
ATOM     58  C   UNL A   1      42.747  31.265  37.012  1.00  0.00     0.029 A 
ATOM     59  N   UNL A   1      41.337  31.398  35.297  1.00  0.00    -0.354 N 
ATOM     60  N   UNL A   1      39.061  32.539  33.815  1.00  0.00    -0.248 NA
ATOM     61  C   UNL A   1      37.237  33.996  33.694  1.00  0.00     0.031 C 
ATOM     62  C   UNL A   1      41.781  32.227  37.308  1.00  0.00     0.029 A 
ATOM     63  C   UNL A   1      40.927  32.341  36.223  1.00  0.00     0.049 A 
ATOM     64  H   UNL A   1      40.905  31.235  34.427  1.00  0.00     0.167 HD
ATOM     65  C   UNL A   1      39.008  33.300  34.976  1.00  0.00     0.074 A 
ATOM     66  C   UNL A   1      37.884  34.203  34.834  1.00  0.00     0.031 C 
ATOM     67  C   UNL A   1      39.815  33.246  36.062  1.00  0.00     0.031 A 
BRANCH  54  68
ATOM     68  C   UNL A   1      44.335  29.053  35.767  1.00  0.00    -0.014 A 
ATOM     69  C   UNL A   1      44.151  27.978  36.659  1.00  0.00     0.010 A 
ATOM     70  C   UNL A   1      45.608  29.641  35.662  1.00  0.00     0.010 A 
ATOM     71  C   UNL A   1      45.200  27.539  37.471  1.00  0.00     0.020 A 
ATOM     72  C   UNL A   1      46.669  29.184  36.452  1.00  0.00     0.020 A 
ATOM     73  C   UNL A   1      46.450  28.156  37.373  1.00  0.00     0.054 A 
BRANCH  73  74
ATOM     74  S   UNL A   1      47.780  27.618  38.484  1.00  0.00     0.124 S 
ATOM     75  O   UNL A   1      47.507  26.191  38.624  1.00  0.00    -0.237 OA
ATOM     76  O   UNL A   1      48.983  27.961  37.729  1.00  0.00    -0.237 OA
ATOM     77  O   UNL A   1      47.563  28.418  39.688  1.00  0.00    -0.744 OA
ENDBRANCH  73  74
ENDBRANCH  54  68
BRANCH  55  78
ATOM     78  C   UNL A   1      36.534  33.121  30.957  1.00  0.00    -0.014 A 
ATOM     79  C   UNL A   1      36.793  33.837  29.773  1.00  0.00     0.010 A 
ATOM     80  C   UNL A   1      35.222  33.085  31.457  1.00  0.00     0.010 A 
ATOM     81  C   UNL A   1      35.776  34.556  29.138  1.00  0.00     0.020 A 
ATOM     82  C   UNL A   1      34.192  33.771  30.803  1.00  0.00     0.020 A 
ATOM     83  C   UNL A   1      34.483  34.525  29.665  1.00  0.00     0.054 A 
BRANCH  83  84
ATOM     84  S   UNL A   1      33.187  35.489  28.841  1.00  0.00     0.124 S 
ATOM     85  O   UNL A   1      32.531  34.472  28.023  1.00  0.00    -0.237 OA
ATOM     86  O   UNL A   1      32.403  35.995  29.965  1.00  0.00    -0.237 OA
ATOM     87  O   UNL A   1      33.933  36.504  28.100  1.00  0.00    -0.744 OA
ENDBRANCH  83  84
ENDBRANCH  55  78
BRANCH  67  88
ATOM     88  C   UNL A   1      39.546  34.198  37.196  1.00  0.00    -0.014 A 
ATOM     89  C   UNL A   1      40.165  35.463  37.201  1.00  0.00     0.010 A 
ATOM     90  C   UNL A   1      38.811  33.790  38.322  1.00  0.00     0.010 A 
ATOM     91  C   UNL A   1      40.092  36.283  38.327  1.00  0.00     0.020 A 
ATOM     92  C   UNL A   1      38.708  34.623  39.440  1.00  0.00     0.020 A 
ATOM     93  C   UNL A   1      39.376  35.850  39.445  1.00  0.00     0.054 A 
BRANCH  93  94
ATOM     94  S   UNL A   1      39.338  36.907  40.919  1.00  0.00     0.124 S 
ATOM     95  O   UNL A   1      38.743  36.021  41.916  1.00  0.00    -0.237 OA
ATOM     96  O   UNL A   1      40.748  37.227  41.122  1.00  0.00    -0.237 OA
ATOM     97  O   UNL A   1      38.504  38.036  40.510  1.00  0.00    -0.744 OA
ENDBRANCH  93  94
ENDBRANCH  67  88
ENDBRANCH  41  42
ENDBRANCH  33  36
ENDBRANCH  31  32
ENDBRANCH  30  31
ENDBRANCH   1  30
TORSDOF 19
ENDMDL
MODEL 2
REMARK VINA RESULT:     -11.5      2.849      8.663
REMARK SMILES CC[C@H](NC(=O)Cc1c(C)c2cc(Cl)c(OC)cc2oc1=O)C(=O)NCCCCNC(=O)c1ccc(-c2c3nc(c(-c4ccc(S(=O)(=O)[O-])cc4)c4ccc([nH]4)c(-c4ccc(S(=O)(=O)[O-])cc4)c4nc(c(-c5ccc(S(=O)(=O)[O-])cc5)c5ccc2[nH]5)C=C4)C=C3)cc1
REMARK SMILES IDX 27 1 26 2 25 3 23 4 24 5 3 7 2 8 1 9 4 10 5 11 6 13 7 14
REMARK SMILES IDX 8 15 9 16 21 17 10 18 11 19 20 20 22 21 12 22 19 23 13 24
REMARK SMILES IDX 18 25 14 26 15 27 16 28 17 29 28 30 29 31 30 32 31 33 32 35
REMARK SMILES IDX 33 36 34 37 92 38 35 39 91 40 36 41 37 42 38 43 85 44 39 45
REMARK SMILES IDX 90 46 84 47 86 48 40 49 89 50 83 51 82 52 41 54 71 55 52 56
REMARK SMILES IDX 70 57 53 58 56 59 69 60 87 61 54 62 55 63 68 65 88 66 57 67
REMARK SMILES IDX 42 68 43 69 51 70 44 71 50 72 45 73 46 74 47 75 48 76 49 77
REMARK SMILES IDX 72 78 73 79 81 80 74 81 80 82 75 83 76 84 77 85 78 86 79 87
REMARK SMILES IDX 58 88 59 89 67 90 60 91 66 92 61 93 62 94 63 95 64 96 65 97
REMARK H PARENT 25 6 4 12 30 34 86 53 56 64
REMARK Flexibility Score: inf
ROOT
ATOM      1  C   UNL A   1      38.580  22.943  26.176  1.00  0.00     0.023 C 
ENDROOT
BRANCH   1   2
ATOM      2  C   UNL A   1      37.069  23.060  26.377  1.00  0.00     0.116 C 
BRANCH   2   3
ATOM      3  N   UNL A   1      36.299  21.847  26.169  1.00  0.00    -0.354 N 
ATOM      4  C   UNL A   1      35.294  21.564  25.298  1.00  0.00     0.242 C 
ATOM      5  O   UNL A   1      35.052  20.377  25.052  1.00  0.00    -0.273 OA
ATOM      6  H   UNL A   1      36.549  21.100  26.760  1.00  0.00     0.163 HD
BRANCH   4   7
ATOM      7  C   UNL A   1      34.532  22.657  24.539  1.00  0.00     0.171 C 
BRANCH   7   8
ATOM      8  C   UNL A   1      35.129  22.826  23.122  1.00  0.00     0.031 C 
ATOM      9  C   UNL A   1      36.647  22.936  23.044  1.00  0.00     0.006 C 
ENDBRANCH   7   8
BRANCH   7  10
ATOM     10  N   UNL A   1      34.341  23.938  25.211  1.00  0.00    -0.344 N 
ATOM     11  C   UNL A   1      34.200  25.178  24.658  1.00  0.00     0.225 C 
ATOM     12  H   UNL A   1      34.308  23.904  26.194  1.00  0.00     0.164 HD
ATOM     13  O   UNL A   1      34.478  26.141  25.379  1.00  0.00    -0.275 OA
BRANCH  11  14
ATOM     14  C   UNL A   1      33.593  25.392  23.266  1.00  0.00     0.143 C 
BRANCH  14  15
ATOM     15  C   UNL A   1      32.509  26.418  23.100  1.00  0.00     0.051 A 
ATOM     16  C   UNL A   1      31.208  26.209  23.383  1.00  0.00    -0.029 A 
ATOM     17  C   UNL A   1      32.969  27.686  22.452  1.00  0.00     0.340 A 
ATOM     18  C   UNL A   1      30.674  24.874  23.834  1.00  0.00     0.046 C 
ATOM     19  C   UNL A   1      30.255  27.316  23.194  1.00  0.00     0.023 A 
ATOM     20  O   UNL A   1      32.073  28.734  22.409  1.00  0.00    -0.422 OA
ATOM     21  O   UNL A   1      34.092  27.798  21.969  1.00  0.00    -0.246 OA
ATOM     22  C   UNL A   1      28.888  27.218  23.467  1.00  0.00     0.036 A 
ATOM     23  C   UNL A   1      30.724  28.542  22.730  1.00  0.00     0.142 A 
ATOM     24  C   UNL A   1      28.032  28.308  23.250  1.00  0.00     0.083 A 
ATOM     25  C   UNL A   1      29.889  29.643  22.520  1.00  0.00     0.095 A 
ATOM     26  Cl  UNL A   1      26.350  28.085  23.593  1.00  0.00    -0.080 Cl
ATOM     27  C   UNL A   1      28.522  29.529  22.763  1.00  0.00     0.141 A 
BRANCH  27  28
ATOM     28  O   UNL A   1      27.614  30.534  22.567  1.00  0.00    -0.495 OA
ATOM     29  C   UNL A   1      27.642  31.620  23.486  1.00  0.00     0.278 C 
ENDBRANCH  27  28
ENDBRANCH  14  15
ENDBRANCH  11  14
ENDBRANCH   7  10
ENDBRANCH   4   7
ENDBRANCH   2   3
ENDBRANCH   1   2
BRANCH   1  30
ATOM     30  C   UNL A   1      39.084  21.589  25.694  1.00  0.00     0.023 C 
BRANCH  30  31
ATOM     31  C   UNL A   1      39.971  20.869  26.688  1.00  0.00     0.116 C 
BRANCH  31  32
ATOM     32  N   UNL A   1      41.183  20.347  26.070  1.00  0.00    -0.352 N 
ATOM     33  C   UNL A   1      42.419  20.946  25.983  1.00  0.00     0.251 C 
ATOM     34  H   UNL A   1      41.108  19.454  25.663  1.00  0.00     0.163 HD
ATOM     35  O   UNL A   1      43.295  20.474  25.278  1.00  0.00    -0.269 OA
BRANCH  33  36
ATOM     36  C   UNL A   1      42.635  22.191  26.747  1.00  0.00     0.039 A 
ATOM     37  C   UNL A   1      42.579  22.155  28.140  1.00  0.00     0.014 A 
ATOM     38  C   UNL A   1      42.779  23.402  26.068  1.00  0.00     0.014 A 
ATOM     39  C   UNL A   1      42.460  23.343  28.841  1.00  0.00     0.010 A 
ATOM     40  C   UNL A   1      42.791  24.594  26.795  1.00  0.00     0.010 A 
ATOM     41  C   UNL A   1      42.581  24.578  28.183  1.00  0.00    -0.014 A 
BRANCH  41  42
ATOM     42  C   UNL A   1      42.496  25.825  28.986  1.00  0.00     0.031 A 
ATOM     43  C   UNL A   1      41.266  26.693  28.945  1.00  0.00     0.074 A 
ATOM     44  C   UNL A   1      43.514  26.120  29.821  1.00  0.00     0.049 A 
ATOM     45  N   UNL A   1      41.021  27.790  29.615  1.00  0.00    -0.248 NA
ATOM     46  C   UNL A   1      40.174  26.294  28.042  1.00  0.00     0.031 C 
ATOM     47  C   UNL A   1      44.741  25.329  29.958  1.00  0.00     0.029 A 
ATOM     48  N   UNL A   1      43.665  27.120  30.748  1.00  0.00    -0.354 N 
ATOM     49  C   UNL A   1      39.767  28.224  29.198  1.00  0.00     0.074 A 
ATOM     50  C   UNL A   1      39.308  27.288  28.197  1.00  0.00     0.031 C 
ATOM     51  C   UNL A   1      45.467  25.810  30.975  1.00  0.00     0.029 A 
ATOM     52  C   UNL A   1      44.813  27.004  31.498  1.00  0.00     0.049 A 
ATOM     53  H   UNL A   1      43.016  27.850  30.864  1.00  0.00     0.167 HD
ATOM     54  C   UNL A   1      39.063  29.296  29.627  1.00  0.00     0.031 A 
ATOM     55  C   UNL A   1      45.298  27.773  32.493  1.00  0.00     0.031 A 
ATOM     56  C   UNL A   1      39.519  30.196  30.656  1.00  0.00     0.049 A 
ATOM     57  C   UNL A   1      44.510  28.975  32.921  1.00  0.00     0.074 A 
ATOM     58  C   UNL A   1      38.869  31.305  31.168  1.00  0.00     0.029 A 
ATOM     59  N   UNL A   1      40.720  30.084  31.339  1.00  0.00    -0.354 N 
ATOM     60  N   UNL A   1      43.332  29.372  32.503  1.00  0.00    -0.248 NA
ATOM     61  C   UNL A   1      45.110  29.837  33.946  1.00  0.00     0.031 C 
ATOM     62  C   UNL A   1      39.705  31.901  32.112  1.00  0.00     0.029 A 
ATOM     63  C   UNL A   1      40.840  31.119  32.250  1.00  0.00     0.049 A 
ATOM     64  H   UNL A   1      41.388  29.375  31.198  1.00  0.00     0.167 HD
ATOM     65  C   UNL A   1      43.041  30.520  33.229  1.00  0.00     0.074 A 
ATOM     66  C   UNL A   1      44.157  30.743  34.125  1.00  0.00     0.031 C 
ATOM     67  C   UNL A   1      41.950  31.319  33.150  1.00  0.00     0.031 A 
BRANCH  54  68
ATOM     68  C   UNL A   1      37.717  29.581  29.009  1.00  0.00    -0.014 A 
ATOM     69  C   UNL A   1      36.548  29.386  29.772  1.00  0.00     0.010 A 
ATOM     70  C   UNL A   1      37.594  29.876  27.640  1.00  0.00     0.010 A 
ATOM     71  C   UNL A   1      35.288  29.428  29.169  1.00  0.00     0.020 A 
ATOM     72  C   UNL A   1      36.333  29.948  27.039  1.00  0.00     0.020 A 
ATOM     73  C   UNL A   1      35.190  29.694  27.801  1.00  0.00     0.054 A 
BRANCH  73  74
ATOM     74  S   UNL A   1      33.551  29.675  27.023  1.00  0.00     0.124 S 
ATOM     75  O   UNL A   1      32.901  28.556  27.698  1.00  0.00    -0.237 OA
ATOM     76  O   UNL A   1      33.028  30.999  27.350  1.00  0.00    -0.237 OA
ATOM     77  O   UNL A   1      33.847  29.465  25.607  1.00  0.00    -0.744 OA
ENDBRANCH  73  74
ENDBRANCH  54  68
BRANCH  55  78
ATOM     78  C   UNL A   1      46.586  27.401  33.146  1.00  0.00    -0.014 A 
ATOM     79  C   UNL A   1      47.802  27.938  32.683  1.00  0.00     0.010 A 
ATOM     80  C   UNL A   1      46.613  26.453  34.182  1.00  0.00     0.010 A 
ATOM     81  C   UNL A   1      49.021  27.490  33.197  1.00  0.00     0.020 A 
ATOM     82  C   UNL A   1      47.830  26.030  34.728  1.00  0.00     0.020 A 
ATOM     83  C   UNL A   1      49.027  26.531  34.211  1.00  0.00     0.054 A 
BRANCH  83  84
ATOM     84  S   UNL A   1      50.621  25.943  34.843  1.00  0.00     0.124 S 
ATOM     85  O   UNL A   1      51.043  27.062  35.681  1.00  0.00    -0.237 OA
ATOM     86  O   UNL A   1      50.251  24.725  35.560  1.00  0.00    -0.237 OA
ATOM     87  O   UNL A   1      51.413  25.733  33.633  1.00  0.00    -0.744 OA
ENDBRANCH  83  84
ENDBRANCH  55  78
BRANCH  67  88
ATOM     88  C   UNL A   1      41.875  32.512  34.066  1.00  0.00    -0.014 A 
ATOM     89  C   UNL A   1      41.292  32.371  35.339  1.00  0.00     0.010 A 
ATOM     90  C   UNL A   1      42.236  33.792  33.614  1.00  0.00     0.010 A 
ATOM     91  C   UNL A   1      41.029  33.493  36.127  1.00  0.00     0.020 A 
ATOM     92  C   UNL A   1      42.006  34.915  34.414  1.00  0.00     0.020 A 
ATOM     93  C   UNL A   1      41.376  34.760  35.651  1.00  0.00     0.054 A 
BRANCH  93  94
ATOM     94  S   UNL A   1      40.978  36.210  36.666  1.00  0.00     0.124 S 
ATOM     95  O   UNL A   1      40.603  35.600  37.938  1.00  0.00    -0.237 OA
ATOM     96  O   UNL A   1      42.236  36.953  36.670  1.00  0.00    -0.237 OA
ATOM     97  O   UNL A   1      39.888  36.851  35.934  1.00  0.00    -0.744 OA
ENDBRANCH  93  94
ENDBRANCH  67  88
ENDBRANCH  41  42
ENDBRANCH  33  36
ENDBRANCH  31  32
ENDBRANCH  30  31
ENDBRANCH   1  30
TORSDOF 19
ENDMDL
MODEL 3
REMARK VINA RESULT:     -11.3      4.002      5.089
REMARK SMILES CC[C@H](NC(=O)Cc1c(C)c2cc(Cl)c(OC)cc2oc1=O)C(=O)NCCCCNC(=O)c1ccc(-c2c3nc(c(-c4ccc(S(=O)(=O)[O-])cc4)c4ccc([nH]4)c(-c4ccc(S(=O)(=O)[O-])cc4)c4nc(c(-c5ccc(S(=O)(=O)[O-])cc5)c5ccc2[nH]5)C=C4)C=C3)cc1
REMARK SMILES IDX 27 1 26 2 25 3 23 4 24 5 3 7 2 8 1 9 4 10 5 11 6 13 7 14
REMARK SMILES IDX 8 15 9 16 21 17 10 18 11 19 20 20 22 21 12 22 19 23 13 24
REMARK SMILES IDX 18 25 14 26 15 27 16 28 17 29 28 30 29 31 30 32 31 33 32 35
REMARK SMILES IDX 33 36 34 37 92 38 35 39 91 40 36 41 37 42 38 43 85 44 39 45
REMARK SMILES IDX 90 46 84 47 86 48 40 49 89 50 83 51 82 52 41 54 71 55 52 56
REMARK SMILES IDX 70 57 53 58 56 59 69 60 87 61 54 62 55 63 68 65 88 66 57 67
REMARK SMILES IDX 42 68 43 69 51 70 44 71 50 72 45 73 46 74 47 75 48 76 49 77
REMARK SMILES IDX 72 78 73 79 81 80 74 81 80 82 75 83 76 84 77 85 78 86 79 87
REMARK SMILES IDX 58 88 59 89 67 90 60 91 66 92 61 93 62 94 63 95 64 96 65 97
REMARK H PARENT 25 6 4 12 30 34 86 53 56 64
REMARK Flexibility Score: inf
ROOT
ATOM      1  C   UNL A   1      38.603  22.923  26.142  1.00  0.00     0.023 C 
ENDROOT
BRANCH   1   2
ATOM      2  C   UNL A   1      37.092  23.063  26.326  1.00  0.00     0.116 C 
BRANCH   2   3
ATOM      3  N   UNL A   1      36.309  21.856  26.132  1.00  0.00    -0.354 N 
ATOM      4  C   UNL A   1      35.297  21.576  25.268  1.00  0.00     0.242 C 
ATOM      5  O   UNL A   1      35.042  20.389  25.034  1.00  0.00    -0.273 OA
ATOM      6  H   UNL A   1      36.552  21.112  26.730  1.00  0.00     0.163 HD
BRANCH   4   7
ATOM      7  C   UNL A   1      34.545  22.670  24.499  1.00  0.00     0.171 C 
BRANCH   7   8
ATOM      8  C   UNL A   1      35.155  22.834  23.088  1.00  0.00     0.031 C 
ATOM      9  C   UNL A   1      36.675  22.919  23.020  1.00  0.00     0.006 C 
ENDBRANCH   7   8
BRANCH   7  10
ATOM     10  N   UNL A   1      34.352  23.952  25.167  1.00  0.00    -0.344 N 
ATOM     11  C   UNL A   1      34.202  25.189  24.611  1.00  0.00     0.225 C 
ATOM     12  H   UNL A   1      34.325  23.922  26.151  1.00  0.00     0.164 HD
ATOM     13  O   UNL A   1      34.480  26.156  25.326  1.00  0.00    -0.275 OA
BRANCH  11  14
ATOM     14  C   UNL A   1      33.586  25.395  23.222  1.00  0.00     0.143 C 
BRANCH  14  15
ATOM     15  C   UNL A   1      32.502  26.421  23.056  1.00  0.00     0.051 A 
ATOM     16  C   UNL A   1      31.204  26.220  23.360  1.00  0.00    -0.029 A 
ATOM     17  C   UNL A   1      32.956  27.678  22.384  1.00  0.00     0.340 A 
ATOM     18  C   UNL A   1      30.674  24.893  23.838  1.00  0.00     0.046 C 
ATOM     19  C   UNL A   1      30.252  27.327  23.168  1.00  0.00     0.023 A 
ATOM     20  O   UNL A   1      32.063  28.729  22.338  1.00  0.00    -0.422 OA
ATOM     21  O   UNL A   1      34.073  27.780  21.884  1.00  0.00    -0.246 OA
ATOM     22  C   UNL A   1      28.888  27.237  23.461  1.00  0.00     0.036 A 
ATOM     23  C   UNL A   1      30.718  28.545  22.680  1.00  0.00     0.142 A 
ATOM     24  C   UNL A   1      28.033  28.326  23.241  1.00  0.00     0.083 A 
ATOM     25  C   UNL A   1      29.883  29.645  22.466  1.00  0.00     0.095 A 
ATOM     26  Cl  UNL A   1      26.355  28.112  23.610  1.00  0.00    -0.080 Cl
ATOM     27  C   UNL A   1      28.520  29.538  22.729  1.00  0.00     0.141 A 
BRANCH  27  28
ATOM     28  O   UNL A   1      27.611  30.543  22.532  1.00  0.00    -0.495 OA
ATOM     29  C   UNL A   1      27.659  31.646  23.431  1.00  0.00     0.278 C 
ENDBRANCH  27  28
ENDBRANCH  14  15
ENDBRANCH  11  14
ENDBRANCH   7  10
ENDBRANCH   4   7
ENDBRANCH   2   3
ENDBRANCH   1   2
BRANCH   1  30
ATOM     30  C   UNL A   1      39.095  21.551  25.699  1.00  0.00     0.023 C 
BRANCH  30  31
ATOM     31  C   UNL A   1      39.920  20.823  26.740  1.00  0.00     0.116 C 
BRANCH  31  32
ATOM     32  N   UNL A   1      41.084  20.167  26.163  1.00  0.00    -0.352 N 
ATOM     33  C   UNL A   1      42.362  20.661  26.031  1.00  0.00     0.251 C 
ATOM     34  H   UNL A   1      40.940  19.254  25.823  1.00  0.00     0.163 HD
ATOM     35  O   UNL A   1      43.195  20.074  25.363  1.00  0.00    -0.269 OA
BRANCH  33  36
ATOM     36  C   UNL A   1      42.676  21.940  26.700  1.00  0.00     0.039 A 
ATOM     37  C   UNL A   1      42.559  22.031  28.087  1.00  0.00     0.014 A 
ATOM     38  C   UNL A   1      42.975  23.066  25.932  1.00  0.00     0.014 A 
ATOM     39  C   UNL A   1      42.537  23.280  28.682  1.00  0.00     0.010 A 
ATOM     40  C   UNL A   1      43.082  24.310  26.560  1.00  0.00     0.010 A 
ATOM     41  C   UNL A   1      42.814  24.435  27.932  1.00  0.00    -0.014 A 
BRANCH  41  42
ATOM     42  C   UNL A   1      42.829  25.750  28.625  1.00  0.00     0.031 A 
ATOM     43  C   UNL A   1      44.099  26.304  29.213  1.00  0.00     0.074 A 
ATOM     44  C   UNL A   1      41.693  26.478  28.640  1.00  0.00     0.049 A 
ATOM     45  N   UNL A   1      44.286  27.451  29.814  1.00  0.00    -0.248 NA
ATOM     46  C   UNL A   1      45.313  25.475  29.128  1.00  0.00     0.031 C 
ATOM     47  C   UNL A   1      40.412  26.045  28.072  1.00  0.00     0.029 A 
ATOM     48  N   UNL A   1      41.436  27.747  29.095  1.00  0.00    -0.354 N 
ATOM     49  C   UNL A   1      45.622  27.471  30.199  1.00  0.00     0.074 A 
ATOM     50  C   UNL A   1      46.199  26.211  29.789  1.00  0.00     0.031 C 
ATOM     51  C   UNL A   1      39.541  27.061  28.119  1.00  0.00     0.029 A 
ATOM     52  C   UNL A   1      40.162  28.183  28.812  1.00  0.00     0.049 A 
ATOM     53  H   UNL A   1      42.099  28.291  29.577  1.00  0.00     0.167 HD
ATOM     54  C   UNL A   1      46.302  28.460  30.823  1.00  0.00     0.031 A 
ATOM     55  C   UNL A   1      39.550  29.352  29.084  1.00  0.00     0.031 A 
ATOM     56  C   UNL A   1      45.720  29.727  31.188  1.00  0.00     0.049 A 
ATOM     57  C   UNL A   1      40.321  30.416  29.808  1.00  0.00     0.074 A 
ATOM     58  C   UNL A   1      46.334  30.798  31.812  1.00  0.00     0.029 A 
ATOM     59  N   UNL A   1      44.407  30.101  30.949  1.00  0.00    -0.354 N 
ATOM     60  N   UNL A   1      41.581  30.407  30.174  1.00  0.00    -0.248 NA
ATOM     61  C   UNL A   1      39.596  31.642  30.165  1.00  0.00     0.031 C 
ATOM     62  C   UNL A   1      45.376  31.793  32.011  1.00  0.00     0.029 A 
ATOM     63  C   UNL A   1      44.186  31.377  31.437  1.00  0.00     0.049 A 
ATOM     64  H   UNL A   1      43.732  29.542  30.500  1.00  0.00     0.167 HD
ATOM     65  C   UNL A   1      41.805  31.633  30.785  1.00  0.00     0.074 A 
ATOM     66  C   UNL A   1      40.557  32.367  30.724  1.00  0.00     0.031 C 
ATOM     67  C   UNL A   1      42.942  32.102  31.353  1.00  0.00     0.031 A 
BRANCH  54  68
ATOM     68  C   UNL A   1      47.757  28.246  31.159  1.00  0.00    -0.014 A 
ATOM     69  C   UNL A   1      48.735  28.443  30.164  1.00  0.00     0.010 A 
ATOM     70  C   UNL A   1      48.143  27.697  32.395  1.00  0.00     0.010 A 
ATOM     71  C   UNL A   1      50.058  28.045  30.377  1.00  0.00     0.020 A 
ATOM     72  C   UNL A   1      49.473  27.325  32.622  1.00  0.00     0.020 A 
ATOM     73  C   UNL A   1      50.415  27.474  31.601  1.00  0.00     0.054 A 
BRANCH  73  74
ATOM     74  S   UNL A   1      52.120  26.900  31.833  1.00  0.00     0.124 S 
ATOM     75  O   UNL A   1      52.072  26.319  33.171  1.00  0.00    -0.237 OA
ATOM     76  O   UNL A   1      52.287  25.949  30.736  1.00  0.00    -0.237 OA
ATOM     77  O   UNL A   1      52.912  28.123  31.710  1.00  0.00    -0.744 OA
ENDBRANCH  73  74
ENDBRANCH  54  68
BRANCH  55  78
ATOM     78  C   UNL A   1      38.140  29.562  28.646  1.00  0.00    -0.014 A 
ATOM     79  C   UNL A   1      37.078  29.384  29.553  1.00  0.00     0.010 A 
ATOM     80  C   UNL A   1      37.846  29.863  27.306  1.00  0.00     0.010 A 
ATOM     81  C   UNL A   1      35.751  29.443  29.118  1.00  0.00     0.020 A 
ATOM     82  C   UNL A   1      36.519  29.962  26.873  1.00  0.00     0.020 A 
ATOM     83  C   UNL A   1      35.481  29.722  27.777  1.00  0.00     0.054 A 
BRANCH  83  84
ATOM     84  S   UNL A   1      33.753  29.764  27.229  1.00  0.00     0.124 S 
ATOM     85  O   UNL A   1      33.303  31.050  27.755  1.00  0.00    -0.237 OA
ATOM     86  O   UNL A   1      33.878  29.688  25.775  1.00  0.00    -0.237 OA
ATOM     87  O   UNL A   1      33.165  28.587  27.862  1.00  0.00    -0.744 OA
ENDBRANCH  83  84
ENDBRANCH  55  78
BRANCH  67  88
ATOM     88  C   UNL A   1      42.922  33.486  31.946  1.00  0.00    -0.014 A 
ATOM     89  C   UNL A   1      43.334  34.581  31.163  1.00  0.00     0.010 A 
ATOM     90  C   UNL A   1      42.646  33.683  33.310  1.00  0.00     0.010 A 
ATOM     91  C   UNL A   1      43.514  35.838  31.742  1.00  0.00     0.020 A 
ATOM     92  C   UNL A   1      42.793  34.948  33.886  1.00  0.00     0.020 A 
ATOM     93  C   UNL A   1      43.256  36.009  33.104  1.00  0.00     0.054 A 
BRANCH  93  94
ATOM     94  S   UNL A   1      43.548  37.637  33.849  1.00  0.00     0.124 S 
ATOM     95  O   UNL A   1      43.819  38.466  32.678  1.00  0.00    -0.237 OA
ATOM     96  O   UNL A   1      42.286  37.907  34.534  1.00  0.00    -0.237 OA
ATOM     97  O   UNL A   1      44.690  37.410  34.732  1.00  0.00    -0.744 OA
ENDBRANCH  93  94
ENDBRANCH  67  88
ENDBRANCH  41  42
ENDBRANCH  33  36
ENDBRANCH  31  32
ENDBRANCH  30  31
ENDBRANCH   1  30
TORSDOF 19
ENDMDL
