MODEL 1
REMARK VINA RESULT:     -11.2      0.000      0.000
REMARK SMILES CCC[C@@H]1C[N@@H+](Cc2cc(OC)c3c(c2)OCO3)C[C@H]1C(=O)NCCCCNC(=O)c1ccc(-c2c3nc(c(-c4ccc(S(=O)(=O)[O-])cc4)c4ccc([nH]4)c(-c4ccc(S(=O)(=O)[O-])cc4)c4nc(c(-c5ccc(S(=O)(=O)[O-])cc5)c5ccc2[nH]5)C=C4)C=C3)cc1
REMARK SMILES IDX 25 1 24 2 23 3 21 4 22 5 20 7 4 8 5 9 6 10 19 11 3 13 2 14
REMARK SMILES IDX 1 15 7 16 8 17 9 18 15 19 10 20 14 21 13 22 16 23 18 24
REMARK SMILES IDX 17 25 11 26 12 27 26 28 27 29 28 30 29 31 30 33 31 34 32 35
REMARK SMILES IDX 90 36 33 37 89 38 34 39 35 40 36 41 83 42 37 43 88 44 82 45
REMARK SMILES IDX 84 46 38 47 87 48 81 49 80 50 39 52 69 53 50 54 68 55 51 56
REMARK SMILES IDX 54 57 67 58 85 59 52 60 53 61 66 63 86 64 55 65 40 66 41 67
REMARK SMILES IDX 49 68 42 69 48 70 43 71 44 72 45 73 46 74 47 75 70 76 71 77
REMARK SMILES IDX 79 78 72 79 78 80 73 81 74 82 75 83 76 84 77 85 56 86 57 87
REMARK SMILES IDX 65 88 58 89 64 90 59 91 60 92 61 93 62 94 63 95
REMARK H PARENT 23 6 6 12 28 32 84 51 54 62
REMARK Flexibility Score: inf
ROOT
ATOM      1  C   UNL A   1      33.953  26.385  25.660  1.00  0.00     0.023 C 
ENDROOT
BRANCH   1   2
ATOM      2  C   UNL A   1      33.360  25.060  26.187  1.00  0.00     0.116 C 
BRANCH   2   3
ATOM      3  N   UNL A   1      31.919  24.978  26.499  1.00  0.00    -0.356 N 
ATOM      4  C   UNL A   1      30.713  24.823  25.866  1.00  0.00     0.229 C 
ATOM      5  O   UNL A   1      29.779  24.513  26.624  1.00  0.00    -0.275 OA
ATOM      6  H   UNL A   1      31.780  25.062  27.471  1.00  0.00     0.163 HD
BRANCH   4   7
ATOM      7  C   UNL A   1      30.358  25.046  24.363  1.00  0.00     0.142 C 
ATOM      8  C   UNL A   1      30.830  26.404  23.729  1.00  0.00     0.062 C 
ATOM      9  C   UNL A   1      31.150  26.055  22.276  1.00  0.00     0.267 C 
ATOM     10  N   UNL A   1      31.697  24.705  22.342  1.00  0.00    -0.330 N 
ATOM     11  C   UNL A   1      30.886  24.013  23.358  1.00  0.00     0.276 C 
ATOM     12  H   UNL A   1      31.606  24.217  21.451  1.00  0.00     0.348 HD
BRANCH   8  13
ATOM     13  C   UNL A   1      30.189  27.774  23.949  1.00  0.00     0.010 C 
BRANCH  13  14
ATOM     14  C   UNL A   1      29.334  28.397  22.862  1.00  0.00    -0.003 C 
ATOM     15  C   UNL A   1      30.007  29.592  22.229  1.00  0.00     0.004 C 
ENDBRANCH  13  14
ENDBRANCH   8  13
BRANCH  10  16
ATOM     16  C   UNL A   1      33.181  24.580  22.398  1.00  0.00     0.299 C 
BRANCH  16  17
ATOM     17  C   UNL A   1      33.867  23.463  23.189  1.00  0.00     0.014 A 
ATOM     18  C   UNL A   1      33.173  22.286  23.467  1.00  0.00     0.060 A 
ATOM     19  C   UNL A   1      35.207  23.439  23.559  1.00  0.00     0.060 A 
ATOM     20  C   UNL A   1      33.587  21.191  24.218  1.00  0.00     0.165 A 
ATOM     21  C   UNL A   1      35.691  22.292  24.204  1.00  0.00     0.170 A 
ATOM     22  C   UNL A   1      34.900  21.204  24.552  1.00  0.00     0.207 A 
ATOM     23  O   UNL A   1      36.997  22.085  24.547  1.00  0.00    -0.453 OA
ATOM     24  O   UNL A   1      35.602  20.224  25.171  1.00  0.00    -0.450 OA
ATOM     25  C   UNL A   1      36.942  20.710  24.987  1.00  0.00     0.468 C 
BRANCH  20  26
ATOM     26  O   UNL A   1      32.592  20.303  24.450  1.00  0.00    -0.493 OA
ATOM     27  C   UNL A   1      32.347  19.277  23.510  1.00  0.00     0.278 C 
ENDBRANCH  20  26
ENDBRANCH  16  17
ENDBRANCH  10  16
ENDBRANCH   4   7
ENDBRANCH   2   3
ENDBRANCH   1   2
BRANCH   1  28
ATOM     28  C   UNL A   1      33.444  27.680  26.306  1.00  0.00     0.023 C 
BRANCH  28  29
ATOM     29  C   UNL A   1      34.527  28.731  26.433  1.00  0.00     0.116 C 
BRANCH  29  30
ATOM     30  N   UNL A   1      34.061  29.935  27.123  1.00  0.00    -0.352 N 
ATOM     31  C   UNL A   1      34.690  30.639  28.128  1.00  0.00     0.251 C 
ATOM     32  H   UNL A   1      33.187  30.285  26.833  1.00  0.00     0.163 HD
ATOM     33  O   UNL A   1      34.114  31.534  28.725  1.00  0.00    -0.269 OA
BRANCH  31  34
ATOM     34  C   UNL A   1      36.074  30.258  28.479  1.00  0.00     0.039 A 
ATOM     35  C   UNL A   1      36.329  29.545  29.652  1.00  0.00     0.014 A 
ATOM     36  C   UNL A   1      37.105  30.555  27.589  1.00  0.00     0.014 A 
ATOM     37  C   UNL A   1      37.625  29.092  29.901  1.00  0.00     0.010 A 
ATOM     38  C   UNL A   1      38.343  29.970  27.757  1.00  0.00     0.010 A 
ATOM     39  C   UNL A   1      38.633  29.285  28.942  1.00  0.00    -0.014 A 
BRANCH  39  40
ATOM     40  C   UNL A   1      40.037  28.883  29.177  1.00  0.00     0.031 A 
ATOM     41  C   UNL A   1      40.969  29.869  29.837  1.00  0.00     0.074 A 
ATOM     42  C   UNL A   1      40.478  27.692  28.734  1.00  0.00     0.049 A 
ATOM     43  N   UNL A   1      42.253  29.774  30.057  1.00  0.00    -0.248 NA
ATOM     44  C   UNL A   1      40.390  31.162  30.252  1.00  0.00     0.031 C 
ATOM     45  C   UNL A   1      39.670  26.692  28.032  1.00  0.00     0.029 A 
ATOM     46  N   UNL A   1      41.718  27.118  28.815  1.00  0.00    -0.354 N 
ATOM     47  C   UNL A   1      42.632  31.002  30.588  1.00  0.00     0.074 A 
ATOM     48  C   UNL A   1      41.469  31.855  30.570  1.00  0.00     0.031 C 
ATOM     49  C   UNL A   1      40.420  25.601  27.808  1.00  0.00     0.029 A 
ATOM     50  C   UNL A   1      41.769  25.843  28.304  1.00  0.00     0.049 A 
ATOM     51  H   UNL A   1      42.500  27.575  29.203  1.00  0.00     0.167 HD
ATOM     52  C   UNL A   1      43.831  31.375  31.090  1.00  0.00     0.031 A 
ATOM     53  C   UNL A   1      42.793  24.970  28.262  1.00  0.00     0.031 A 
ATOM     54  C   UNL A   1      44.961  30.491  31.145  1.00  0.00     0.049 A 
ATOM     55  C   UNL A   1      44.114  25.392  28.845  1.00  0.00     0.074 A 
ATOM     56  C   UNL A   1      46.207  30.713  31.698  1.00  0.00     0.029 A 
ATOM     57  N   UNL A   1      44.968  29.201  30.632  1.00  0.00    -0.354 N 
ATOM     58  N   UNL A   1      44.439  26.531  29.411  1.00  0.00    -0.248 NA
ATOM     59  C   UNL A   1      45.201  24.407  28.796  1.00  0.00     0.031 C 
ATOM     60  C   UNL A   1      46.987  29.575  31.469  1.00  0.00     0.029 A 
ATOM     61  C   UNL A   1      46.206  28.621  30.831  1.00  0.00     0.049 A 
ATOM     62  H   UNL A   1      44.205  28.764  30.190  1.00  0.00     0.167 HD
ATOM     63  C   UNL A   1      45.761  26.390  29.814  1.00  0.00     0.074 A 
ATOM     64  C   UNL A   1      46.166  25.048  29.437  1.00  0.00     0.031 C 
ATOM     65  C   UNL A   1      46.570  27.282  30.440  1.00  0.00     0.031 A 
BRANCH  52  66
ATOM     66  C   UNL A   1      43.961  32.785  31.609  1.00  0.00    -0.014 A 
ATOM     67  C   UNL A   1      43.765  33.088  32.970  1.00  0.00     0.010 A 
ATOM     68  C   UNL A   1      44.258  33.832  30.717  1.00  0.00     0.010 A 
ATOM     69  C   UNL A   1      43.791  34.412  33.416  1.00  0.00     0.020 A 
ATOM     70  C   UNL A   1      44.324  35.155  31.165  1.00  0.00     0.020 A 
ATOM     71  C   UNL A   1      44.063  35.439  32.508  1.00  0.00     0.054 A 
BRANCH  71  72
ATOM     72  S   UNL A   1      44.081  37.149  33.111  1.00  0.00     0.124 S 
ATOM     73  O   UNL A   1      42.787  37.245  33.781  1.00  0.00    -0.237 OA
ATOM     74  O   UNL A   1      45.246  37.165  33.992  1.00  0.00    -0.237 OA
ATOM     75  O   UNL A   1      44.212  37.945  31.893  1.00  0.00    -0.744 OA
ENDBRANCH  71  72
ENDBRANCH  52  66
BRANCH  53  76
ATOM     76  C   UNL A   1      42.583  23.603  27.711  1.00  0.00    -0.014 A 
ATOM     77  C   UNL A   1      42.937  23.318  26.379  1.00  0.00     0.010 A 
ATOM     78  C   UNL A   1      42.069  22.570  28.515  1.00  0.00     0.010 A 
ATOM     79  C   UNL A   1      42.769  22.032  25.859  1.00  0.00     0.020 A 
ATOM     80  C   UNL A   1      41.926  21.275  28.006  1.00  0.00     0.020 A 
ATOM     81  C   UNL A   1      42.267  21.016  26.677  1.00  0.00     0.054 A 
BRANCH  81  82
ATOM     82  S   UNL A   1      42.114  19.343  25.994  1.00  0.00     0.124 S 
ATOM     83  O   UNL A   1      40.679  19.244  25.750  1.00  0.00    -0.237 OA
ATOM     84  O   UNL A   1      42.956  19.412  24.802  1.00  0.00    -0.237 OA
ATOM     85  O   UNL A   1      42.629  18.489  27.062  1.00  0.00    -0.744 OA
ENDBRANCH  81  82
ENDBRANCH  53  76
BRANCH  65  86
ATOM     86  C   UNL A   1      47.959  26.822  30.785  1.00  0.00    -0.014 A 
ATOM     87  C   UNL A   1      49.053  27.131  29.959  1.00  0.00     0.010 A 
ATOM     88  C   UNL A   1      48.175  26.126  31.988  1.00  0.00     0.010 A 
ATOM     89  C   UNL A   1      50.339  26.721  30.317  1.00  0.00     0.020 A 
ATOM     90  C   UNL A   1      49.463  25.745  32.365  1.00  0.00     0.020 A 
ATOM     91  C   UNL A   1      50.535  26.033  31.519  1.00  0.00     0.054 A 
BRANCH  91  92
ATOM     92  S   UNL A   1      52.221  25.556  31.982  1.00  0.00     0.124 S 
ATOM     93  O   UNL A   1      52.057  24.142  32.307  1.00  0.00    -0.237 OA
ATOM     94  O   UNL A   1      52.978  25.838  30.765  1.00  0.00    -0.237 OA
ATOM     95  O   UNL A   1      52.528  26.425  33.115  1.00  0.00    -0.744 OA
ENDBRANCH  91  92
ENDBRANCH  65  86
ENDBRANCH  39  40
ENDBRANCH  31  34
ENDBRANCH  29  30
ENDBRANCH  28  29
ENDBRANCH   1  28
TORSDOF 19
ENDMDL
MODEL 2
REMARK VINA RESULT:     -10.5      3.386      9.416
REMARK SMILES CCC[C@@H]1C[N@@H+](Cc2cc(OC)c3c(c2)OCO3)C[C@H]1C(=O)NCCCCNC(=O)c1ccc(-c2c3nc(c(-c4ccc(S(=O)(=O)[O-])cc4)c4ccc([nH]4)c(-c4ccc(S(=O)(=O)[O-])cc4)c4nc(c(-c5ccc(S(=O)(=O)[O-])cc5)c5ccc2[nH]5)C=C4)C=C3)cc1
REMARK SMILES IDX 25 1 24 2 23 3 21 4 22 5 20 7 4 8 5 9 6 10 19 11 3 13 2 14
REMARK SMILES IDX 1 15 7 16 8 17 9 18 15 19 10 20 14 21 13 22 16 23 18 24
REMARK SMILES IDX 17 25 11 26 12 27 26 28 27 29 28 30 29 31 30 33 31 34 32 35
REMARK SMILES IDX 90 36 33 37 89 38 34 39 35 40 36 41 83 42 37 43 88 44 82 45
REMARK SMILES IDX 84 46 38 47 87 48 81 49 80 50 39 52 69 53 50 54 68 55 51 56
REMARK SMILES IDX 54 57 67 58 85 59 52 60 53 61 66 63 86 64 55 65 40 66 41 67
REMARK SMILES IDX 49 68 42 69 48 70 43 71 44 72 45 73 46 74 47 75 70 76 71 77
REMARK SMILES IDX 79 78 72 79 78 80 73 81 74 82 75 83 76 84 77 85 56 86 57 87
REMARK SMILES IDX 65 88 58 89 64 90 59 91 60 92 61 93 62 94 63 95
REMARK H PARENT 23 6 6 12 28 32 84 51 54 62
REMARK Flexibility Score: inf
ROOT
ATOM      1  C   UNL A   1      38.844  22.302  26.033  1.00  0.00     0.023 C 
ENDROOT
BRANCH   1   2
ATOM      2  C   UNL A   1      37.478  22.875  25.600  1.00  0.00     0.116 C 
BRANCH   2   3
ATOM      3  N   UNL A   1      36.254  22.468  26.319  1.00  0.00    -0.356 N 
ATOM      4  C   UNL A   1      35.096  21.762  26.111  1.00  0.00     0.229 C 
ATOM      5  O   UNL A   1      34.500  21.447  27.154  1.00  0.00    -0.275 OA
ATOM      6  H   UNL A   1      36.275  22.814  27.242  1.00  0.00     0.163 HD
BRANCH   4   7
ATOM      7  C   UNL A   1      34.414  21.374  24.762  1.00  0.00     0.142 C 
ATOM      8  C   UNL A   1      33.215  20.364  24.853  1.00  0.00     0.062 C 
ATOM      9  C   UNL A   1      32.270  20.792  23.729  1.00  0.00     0.267 C 
ATOM     10  N   UNL A   1      32.392  22.245  23.691  1.00  0.00    -0.330 N 
ATOM     11  C   UNL A   1      33.821  22.515  23.924  1.00  0.00     0.276 C 
ATOM     12  H   UNL A   1      32.124  22.621  22.781  1.00  0.00     0.348 HD
BRANCH   8  13
ATOM     13  C   UNL A   1      33.319  18.856  25.083  1.00  0.00     0.010 C 
BRANCH  13  14
ATOM     14  C   UNL A   1      34.287  18.026  24.262  1.00  0.00    -0.003 C 
ATOM     15  C   UNL A   1      33.591  17.290  23.142  1.00  0.00     0.004 C 
ENDBRANCH  13  14
ENDBRANCH   8  13
BRANCH  10  16
ATOM     16  C   UNL A   1      31.378  23.027  24.452  1.00  0.00     0.299 C 
BRANCH  16  17
ATOM     17  C   UNL A   1      31.636  24.470  24.891  1.00  0.00     0.014 A 
ATOM     18  C   UNL A   1      31.930  25.442  23.935  1.00  0.00     0.060 A 
ATOM     19  C   UNL A   1      31.472  24.966  26.180  1.00  0.00     0.060 A 
ATOM     20  C   UNL A   1      32.257  26.780  24.129  1.00  0.00     0.165 A 
ATOM     21  C   UNL A   1      31.667  26.339  26.386  1.00  0.00     0.170 A 
ATOM     22  C   UNL A   1      32.076  27.224  25.396  1.00  0.00     0.207 A 
ATOM     23  O   UNL A   1      31.456  26.985  27.571  1.00  0.00    -0.453 OA
ATOM     24  O   UNL A   1      32.198  28.495  25.848  1.00  0.00    -0.450 OA
ATOM     25  C   UNL A   1      31.622  28.360  27.158  1.00  0.00     0.468 C 
BRANCH  20  26
ATOM     26  O   UNL A   1      32.673  27.391  22.995  1.00  0.00    -0.493 OA
ATOM     27  C   UNL A   1      32.105  28.633  22.629  1.00  0.00     0.278 C 
ENDBRANCH  20  26
ENDBRANCH  16  17
ENDBRANCH  10  16
ENDBRANCH   4   7
ENDBRANCH   2   3
ENDBRANCH   1   2
BRANCH   1  28
ATOM     28  C   UNL A   1      39.150  20.853  25.630  1.00  0.00     0.023 C 
BRANCH  28  29
ATOM     29  C   UNL A   1      39.982  20.125  26.665  1.00  0.00     0.116 C 
BRANCH  29  30
ATOM     30  N   UNL A   1      41.084  19.371  26.066  1.00  0.00    -0.352 N 
ATOM     31  C   UNL A   1      42.341  19.825  25.725  1.00  0.00     0.251 C 
ATOM     32  H   UNL A   1      40.906  18.420  25.884  1.00  0.00     0.163 HD
ATOM     33  O   UNL A   1      43.111  19.127  25.086  1.00  0.00    -0.269 OA
BRANCH  31  34
ATOM     34  C   UNL A   1      42.717  21.195  26.134  1.00  0.00     0.039 A 
ATOM     35  C   UNL A   1      43.070  21.459  27.458  1.00  0.00     0.014 A 
ATOM     36  C   UNL A   1      42.784  22.196  25.166  1.00  0.00     0.014 A 
ATOM     37  C   UNL A   1      43.536  22.731  27.793  1.00  0.00     0.010 A 
ATOM     38  C   UNL A   1      43.395  23.396  25.465  1.00  0.00     0.010 A 
ATOM     39  C   UNL A   1      43.721  23.699  26.792  1.00  0.00    -0.014 A 
BRANCH  39  40
ATOM     40  C   UNL A   1      44.151  25.081  27.096  1.00  0.00     0.031 A 
ATOM     41  C   UNL A   1      45.601  25.446  26.894  1.00  0.00     0.074 A 
ATOM     42  C   UNL A   1      43.275  25.959  27.615  1.00  0.00     0.049 A 
ATOM     43  N   UNL A   1      46.221  26.559  27.181  1.00  0.00    -0.248 NA
ATOM     44  C   UNL A   1      46.486  24.397  26.352  1.00  0.00     0.031 C 
ATOM     45  C   UNL A   1      41.864  25.685  27.902  1.00  0.00     0.029 A 
ATOM     46  N   UNL A   1      43.441  27.265  27.990  1.00  0.00    -0.354 N 
ATOM     47  C   UNL A   1      47.562  26.323  26.897  1.00  0.00     0.074 A 
ATOM     48  C   UNL A   1      47.681  24.938  26.508  1.00  0.00     0.031 C 
ATOM     49  C   UNL A   1      41.280  26.810  28.345  1.00  0.00     0.029 A 
ATOM     50  C   UNL A   1      42.282  27.867  28.418  1.00  0.00     0.049 A 
ATOM     51  H   UNL A   1      44.309  27.729  27.955  1.00  0.00     0.167 HD
ATOM     52  C   UNL A   1      48.598  27.192  26.913  1.00  0.00     0.031 A 
ATOM     53  C   UNL A   1      42.061  29.136  28.808  1.00  0.00     0.031 A 
ATOM     54  C   UNL A   1      48.446  28.578  27.254  1.00  0.00     0.049 A 
ATOM     55  C   UNL A   1      43.220  30.096  28.799  1.00  0.00     0.074 A 
ATOM     56  C   UNL A   1      49.394  29.582  27.235  1.00  0.00     0.029 A 
ATOM     57  N   UNL A   1      47.252  29.153  27.667  1.00  0.00    -0.354 N 
ATOM     58  N   UNL A   1      44.469  29.877  28.458  1.00  0.00    -0.248 NA
ATOM     59  C   UNL A   1      42.936  31.475  29.214  1.00  0.00     0.031 C 
ATOM     60  C   UNL A   1      48.785  30.756  27.691  1.00  0.00     0.029 A 
ATOM     61  C   UNL A   1      47.443  30.497  27.931  1.00  0.00     0.049 A 
ATOM     62  H   UNL A   1      46.397  28.676  27.759  1.00  0.00     0.167 HD
ATOM     63  C   UNL A   1      45.116  31.100  28.588  1.00  0.00     0.074 A 
ATOM     64  C   UNL A   1      44.113  32.053  29.025  1.00  0.00     0.031 C 
ATOM     65  C   UNL A   1      46.418  31.412  28.366  1.00  0.00     0.031 A 
BRANCH  52  66
ATOM     66  C   UNL A   1      49.961  26.656  26.555  1.00  0.00    -0.014 A 
ATOM     67  C   UNL A   1      50.389  26.575  25.215  1.00  0.00     0.010 A 
ATOM     68  C   UNL A   1      50.822  26.201  27.570  1.00  0.00     0.010 A 
ATOM     69  C   UNL A   1      51.615  25.985  24.893  1.00  0.00     0.020 A 
ATOM     70  C   UNL A   1      52.066  25.645  27.256  1.00  0.00     0.020 A 
ATOM     71  C   UNL A   1      52.443  25.516  25.917  1.00  0.00     0.054 A 
BRANCH  71  72
ATOM     72  S   UNL A   1      54.022  24.746  25.472  1.00  0.00     0.124 S 
ATOM     73  O   UNL A   1      53.598  23.416  25.041  1.00  0.00    -0.237 OA
ATOM     74  O   UNL A   1      54.517  25.620  24.411  1.00  0.00    -0.237 OA
ATOM     75  O   UNL A   1      54.789  24.783  26.714  1.00  0.00    -0.744 OA
ENDBRANCH  71  72
ENDBRANCH  52  66
BRANCH  53  76
ATOM     76  C   UNL A   1      40.685  29.575  29.168  1.00  0.00    -0.014 A 
ATOM     77  C   UNL A   1      39.693  29.668  28.175  1.00  0.00     0.010 A 
ATOM     78  C   UNL A   1      40.344  29.864  30.501  1.00  0.00     0.010 A 
ATOM     79  C   UNL A   1      38.391  30.055  28.505  1.00  0.00     0.020 A 
ATOM     80  C   UNL A   1      39.036  30.225  30.840  1.00  0.00     0.020 A 
ATOM     81  C   UNL A   1      38.069  30.327  29.838  1.00  0.00     0.054 A 
BRANCH  81  82
ATOM     82  S   UNL A   1      36.358  30.770  30.247  1.00  0.00     0.124 S 
ATOM     83  O   UNL A   1      35.700  30.677  28.948  1.00  0.00    -0.237 OA
ATOM     84  O   UNL A   1      35.992  29.742  31.218  1.00  0.00    -0.237 OA
ATOM     85  O   UNL A   1      36.476  32.120  30.795  1.00  0.00    -0.744 OA
ENDBRANCH  81  82
ENDBRANCH  53  76
BRANCH  65  86
ATOM     86  C   UNL A   1      46.820  32.848  28.560  1.00  0.00    -0.014 A 
ATOM     87  C   UNL A   1      47.326  33.301  29.790  1.00  0.00     0.010 A 
ATOM     88  C   UNL A   1      46.749  33.735  27.471  1.00  0.00     0.010 A 
ATOM     89  C   UNL A   1      47.724  34.631  29.936  1.00  0.00     0.020 A 
ATOM     90  C   UNL A   1      47.177  35.056  27.605  1.00  0.00     0.020 A 
ATOM     91  C   UNL A   1      47.649  35.499  28.842  1.00  0.00     0.054 A 
BRANCH  91  92
ATOM     92  S   UNL A   1      48.218  37.208  29.047  1.00  0.00     0.124 S 
ATOM     93  O   UNL A   1      47.310  37.937  28.166  1.00  0.00    -0.237 OA
ATOM     94  O   UNL A   1      48.028  37.437  30.477  1.00  0.00    -0.237 OA
ATOM     95  O   UNL A   1      49.611  37.163  28.609  1.00  0.00    -0.744 OA
ENDBRANCH  91  92
ENDBRANCH  65  86
ENDBRANCH  39  40
ENDBRANCH  31  34
ENDBRANCH  29  30
ENDBRANCH  28  29
ENDBRANCH   1  28
TORSDOF 19
ENDMDL
MODEL 3
REMARK VINA RESULT:     -10.5      2.465      8.328
REMARK SMILES CCC[C@@H]1C[N@@H+](Cc2cc(OC)c3c(c2)OCO3)C[C@H]1C(=O)NCCCCNC(=O)c1ccc(-c2c3nc(c(-c4ccc(S(=O)(=O)[O-])cc4)c4ccc([nH]4)c(-c4ccc(S(=O)(=O)[O-])cc4)c4nc(c(-c5ccc(S(=O)(=O)[O-])cc5)c5ccc2[nH]5)C=C4)C=C3)cc1
REMARK SMILES IDX 25 1 24 2 23 3 21 4 22 5 20 7 4 8 5 9 6 10 19 11 3 13 2 14
REMARK SMILES IDX 1 15 7 16 8 17 9 18 15 19 10 20 14 21 13 22 16 23 18 24
REMARK SMILES IDX 17 25 11 26 12 27 26 28 27 29 28 30 29 31 30 33 31 34 32 35
REMARK SMILES IDX 90 36 33 37 89 38 34 39 35 40 36 41 83 42 37 43 88 44 82 45
REMARK SMILES IDX 84 46 38 47 87 48 81 49 80 50 39 52 69 53 50 54 68 55 51 56
REMARK SMILES IDX 54 57 67 58 85 59 52 60 53 61 66 63 86 64 55 65 40 66 41 67
REMARK SMILES IDX 49 68 42 69 48 70 43 71 44 72 45 73 46 74 47 75 70 76 71 77
REMARK SMILES IDX 79 78 72 79 78 80 73 81 74 82 75 83 76 84 77 85 56 86 57 87
REMARK SMILES IDX 65 88 58 89 64 90 59 91 60 92 61 93 62 94 63 95
REMARK H PARENT 23 6 6 12 28 32 84 51 54 62
REMARK Flexibility Score: inf
ROOT
ATOM      1  C   UNL A   1      33.782  26.598  25.580  1.00  0.00     0.023 C 
ENDROOT
BRANCH   1   2
ATOM      2  C   UNL A   1      33.013  25.409  26.196  1.00  0.00     0.116 C 
BRANCH   2   3
ATOM      3  N   UNL A   1      31.562  25.530  26.447  1.00  0.00    -0.356 N 
ATOM      4  C   UNL A   1      30.371  25.497  25.769  1.00  0.00     0.229 C 
ATOM      5  O   UNL A   1      29.376  25.352  26.498  1.00  0.00    -0.275 OA
ATOM      6  H   UNL A   1      31.398  25.683  27.407  1.00  0.00     0.163 HD
BRANCH   4   7
ATOM      7  C   UNL A   1      30.106  25.684  24.243  1.00  0.00     0.142 C 
ATOM      8  C   UNL A   1      30.728  26.964  23.578  1.00  0.00     0.062 C 
ATOM      9  C   UNL A   1      31.080  26.522  22.157  1.00  0.00     0.267 C 
ATOM     10  N   UNL A   1      31.497  25.133  22.305  1.00  0.00    -0.330 N 
ATOM     11  C   UNL A   1      30.581  24.564  23.307  1.00  0.00     0.276 C 
ATOM     12  H   UNL A   1      31.401  24.616  21.431  1.00  0.00     0.348 HD
BRANCH   8  13
ATOM     13  C   UNL A   1      30.207  28.395  23.710  1.00  0.00     0.010 C 
BRANCH  13  14
ATOM     14  C   UNL A   1      29.496  29.056  22.545  1.00  0.00    -0.003 C 
ATOM     15  C   UNL A   1      27.998  29.081  22.738  1.00  0.00     0.004 C 
ENDBRANCH  13  14
ENDBRANCH   8  13
BRANCH  10  16
ATOM     16  C   UNL A   1      32.959  24.877  22.438  1.00  0.00     0.299 C 
BRANCH  16  17
ATOM     17  C   UNL A   1      33.499  23.586  23.059  1.00  0.00     0.014 A 
ATOM     18  C   UNL A   1      34.739  23.592  23.696  1.00  0.00     0.060 A 
ATOM     19  C   UNL A   1      32.799  22.391  23.177  1.00  0.00     0.060 A 
ATOM     20  C   UNL A   1      35.430  22.525  24.260  1.00  0.00     0.165 A 
ATOM     21  C   UNL A   1      33.417  21.332  23.857  1.00  0.00     0.170 A 
ATOM     22  C   UNL A   1      34.710  21.382  24.363  1.00  0.00     0.207 A 
ATOM     23  O   UNL A   1      32.824  20.132  24.131  1.00  0.00    -0.453 OA
ATOM     24  O   UNL A   1      35.079  20.229  24.972  1.00  0.00    -0.450 OA
ATOM     25  C   UNL A   1      33.823  19.530  24.984  1.00  0.00     0.468 C 
BRANCH  20  26
ATOM     26  O   UNL A   1      36.694  22.847  24.622  1.00  0.00    -0.493 OA
ATOM     27  C   UNL A   1      36.910  23.553  25.828  1.00  0.00     0.278 C 
ENDBRANCH  20  26
ENDBRANCH  16  17
ENDBRANCH  10  16
ENDBRANCH   4   7
ENDBRANCH   2   3
ENDBRANCH   1   2
BRANCH   1  28
ATOM     28  C   UNL A   1      33.229  28.002  25.855  1.00  0.00     0.023 C 
BRANCH  28  29
ATOM     29  C   UNL A   1      34.050  28.760  26.877  1.00  0.00     0.116 C 
BRANCH  29  30
ATOM     30  N   UNL A   1      33.606  30.145  27.036  1.00  0.00    -0.352 N 
ATOM     31  C   UNL A   1      34.203  31.155  27.761  1.00  0.00     0.251 C 
ATOM     32  H   UNL A   1      32.775  30.386  26.565  1.00  0.00     0.163 HD
ATOM     33  O   UNL A   1      33.639  32.222  27.937  1.00  0.00    -0.269 OA
BRANCH  31  34
ATOM     34  C   UNL A   1      35.536  30.894  28.343  1.00  0.00     0.039 A 
ATOM     35  C   UNL A   1      36.581  31.796  28.137  1.00  0.00     0.014 A 
ATOM     36  C   UNL A   1      35.712  29.776  29.158  1.00  0.00     0.014 A 
ATOM     37  C   UNL A   1      37.794  31.589  28.794  1.00  0.00     0.010 A 
ATOM     38  C   UNL A   1      36.851  29.664  29.929  1.00  0.00     0.010 A 
ATOM     39  C   UNL A   1      37.926  30.533  29.711  1.00  0.00    -0.014 A 
BRANCH  39  40
ATOM     40  C   UNL A   1      39.204  30.228  30.389  1.00  0.00     0.031 A 
ATOM     41  C   UNL A   1      40.065  29.116  29.842  1.00  0.00     0.074 A 
ATOM     42  C   UNL A   1      39.541  30.883  31.515  1.00  0.00     0.049 A 
ATOM     43  N   UNL A   1      41.170  28.612  30.322  1.00  0.00    -0.248 NA
ATOM     44  C   UNL A   1      39.584  28.438  28.622  1.00  0.00     0.031 C 
ATOM     45  C   UNL A   1      38.748  31.935  32.157  1.00  0.00     0.029 A 
ATOM     46  N   UNL A   1      40.643  30.763  32.317  1.00  0.00    -0.354 N 
ATOM     47  C   UNL A   1      41.482  27.541  29.492  1.00  0.00     0.074 A 
ATOM     48  C   UNL A   1      40.407  27.407  28.540  1.00  0.00     0.031 C 
ATOM     49  C   UNL A   1      39.425  32.409  33.216  1.00  0.00     0.029 A 
ATOM     50  C   UNL A   1      40.670  31.664  33.355  1.00  0.00     0.049 A 
ATOM     51  H   UNL A   1      41.351  30.094  32.165  1.00  0.00     0.167 HD
ATOM     52  C   UNL A   1      42.589  26.764  29.492  1.00  0.00     0.031 A 
ATOM     53  C   UNL A   1      41.610  31.868  34.297  1.00  0.00     0.031 A 
ATOM     54  C   UNL A   1      43.671  26.949  30.417  1.00  0.00     0.049 A 
ATOM     55  C   UNL A   1      42.845  31.010  34.268  1.00  0.00     0.074 A 
ATOM     56  C   UNL A   1      44.881  26.286  30.477  1.00  0.00     0.029 A 
ATOM     57  N   UNL A   1      43.668  27.884  31.444  1.00  0.00    -0.354 N 
ATOM     58  N   UNL A   1      43.162  30.048  33.433  1.00  0.00    -0.248 NA
ATOM     59  C   UNL A   1      43.854  31.274  35.301  1.00  0.00     0.031 C 
ATOM     60  C   UNL A   1      45.588  26.784  31.577  1.00  0.00     0.029 A 
ATOM     61  C   UNL A   1      44.846  27.800  32.161  1.00  0.00     0.049 A 
ATOM     62  H   UNL A   1      42.935  28.513  31.633  1.00  0.00     0.167 HD
ATOM     63  C   UNL A   1      44.423  29.611  33.819  1.00  0.00     0.074 A 
ATOM     64  C   UNL A   1      44.812  30.426  34.956  1.00  0.00     0.031 C 
ATOM     65  C   UNL A   1      45.194  28.629  33.288  1.00  0.00     0.031 A 
BRANCH  52  66
ATOM     66  C   UNL A   1      42.666  25.663  28.464  1.00  0.00    -0.014 A 
ATOM     67  C   UNL A   1      42.167  24.373  28.732  1.00  0.00     0.010 A 
ATOM     68  C   UNL A   1      43.269  25.911  27.218  1.00  0.00     0.010 A 
ATOM     69  C   UNL A   1      42.335  23.338  27.807  1.00  0.00     0.020 A 
ATOM     70  C   UNL A   1      43.404  24.889  26.273  1.00  0.00     0.020 A 
ATOM     71  C   UNL A   1      42.960  23.602  26.585  1.00  0.00     0.054 A 
BRANCH  71  72
ATOM     72  S   UNL A   1      43.174  22.240  25.408  1.00  0.00     0.124 S 
ATOM     73  O   UNL A   1      41.928  21.497  25.579  1.00  0.00    -0.237 OA
ATOM     74  O   UNL A   1      43.317  22.939  24.133  1.00  0.00    -0.237 OA
ATOM     75  O   UNL A   1      44.375  21.557  25.880  1.00  0.00    -0.744 OA
ENDBRANCH  71  72
ENDBRANCH  52  66
BRANCH  53  76
ATOM     76  C   UNL A   1      41.443  32.965  35.289  1.00  0.00    -0.014 A 
ATOM     77  C   UNL A   1      40.824  32.708  36.526  1.00  0.00     0.010 A 
ATOM     78  C   UNL A   1      41.932  34.257  35.027  1.00  0.00     0.010 A 
ATOM     79  C   UNL A   1      40.684  33.724  37.476  1.00  0.00     0.020 A 
ATOM     80  C   UNL A   1      41.819  35.269  35.987  1.00  0.00     0.020 A 
ATOM     81  C   UNL A   1      41.187  34.999  37.202  1.00  0.00     0.054 A 
BRANCH  81  82
ATOM     82  S   UNL A   1      41.046  36.283  38.475  1.00  0.00     0.124 S 
ATOM     83  O   UNL A   1      39.817  36.966  38.083  1.00  0.00    -0.237 OA
ATOM     84  O   UNL A   1      40.969  35.499  39.705  1.00  0.00    -0.237 OA
ATOM     85  O   UNL A   1      42.274  37.059  38.316  1.00  0.00    -0.744 OA
ENDBRANCH  81  82
ENDBRANCH  53  76
BRANCH  65  86
ATOM     86  C   UNL A   1      46.546  28.408  33.908  1.00  0.00    -0.014 A 
ATOM     87  C   UNL A   1      46.715  27.519  34.983  1.00  0.00     0.010 A 
ATOM     88  C   UNL A   1      47.668  29.054  33.361  1.00  0.00     0.010 A 
ATOM     89  C   UNL A   1      47.985  27.305  35.521  1.00  0.00     0.020 A 
ATOM     90  C   UNL A   1      48.944  28.816  33.874  1.00  0.00     0.020 A 
ATOM     91  C   UNL A   1      49.091  27.953  34.962  1.00  0.00     0.054 A 
BRANCH  91  92
ATOM     92  S   UNL A   1      50.735  27.619  35.649  1.00  0.00     0.124 S 
ATOM     93  O   UNL A   1      50.410  26.864  36.856  1.00  0.00    -0.237 OA
ATOM     94  O   UNL A   1      51.377  26.856  34.582  1.00  0.00    -0.237 OA
ATOM     95  O   UNL A   1      51.292  28.950  35.877  1.00  0.00    -0.744 OA
ENDBRANCH  91  92
ENDBRANCH  65  86
ENDBRANCH  39  40
ENDBRANCH  31  34
ENDBRANCH  29  30
ENDBRANCH  28  29
ENDBRANCH   1  28
TORSDOF 19
ENDMDL
