MODEL 1
REMARK VINA RESULT:     -12.6      0.000      0.000
REMARK SMILES O=C(NCCCCNC(=O)[C@]1(NC(=O)C2CCN(C(=O)C3CC3)CC2)CCCc2ccccc21)c1ccc(-c2c3nc(c(-c4ccc(S(=O)(=O)[O-])cc4)c4ccc([nH]4)c(-c4ccc(S(=O)(=O)[O-])cc4)c4nc(c(-c5ccc(S(=O)(=O)[O-])cc5)c5ccc2[nH]5)C=C4)C=C3)cc1
REMARK SMILES IDX 5 1 4 2 3 3 1 4 2 5 35 7 36 8 94 9 37 10 93 11 38 12 39 13
REMARK SMILES IDX 40 14 87 15 41 16 92 17 86 18 88 19 42 20 91 21 85 22 84 23
REMARK SMILES IDX 43 25 73 26 54 27 72 28 55 29 58 30 71 31 89 32 56 33 57 34
REMARK SMILES IDX 70 36 90 37 59 38 44 39 45 40 53 41 46 42 52 43 47 44 48 45
REMARK SMILES IDX 49 46 50 47 51 48 74 49 75 50 83 51 76 52 82 53 77 54 78 55
REMARK SMILES IDX 79 56 80 57 81 58 60 59 61 60 69 61 62 62 68 63 63 64 64 65
REMARK SMILES IDX 65 66 66 67 67 68 6 69 7 70 8 71 9 72 10 74 11 75 26 76
REMARK SMILES IDX 34 77 27 78 29 79 33 80 28 81 30 82 32 83 31 84 12 85 13 86
REMARK SMILES IDX 14 88 15 89 16 90 25 91 17 92 24 93 18 94 19 95 20 96 21 97
REMARK SMILES IDX 22 98 23 99
REMARK H PARENT 3 6 88 24 58 35 8 73 12 87
REMARK Flexibility Score: inf
ROOT
ATOM      1  C   UNL A   1      37.751  23.713  25.889  1.00  0.00     0.023 C 
ENDROOT
BRANCH   1   2
ATOM      2  C   UNL A   1      38.812  23.917  26.959  1.00  0.00     0.116 C 
BRANCH   2   3
ATOM      3  N   UNL A   1      40.179  23.893  26.453  1.00  0.00    -0.352 N 
ATOM      4  O   UNL A   1      42.286  24.681  26.196  1.00  0.00    -0.269 OA
ATOM      5  C   UNL A   1      41.196  24.775  26.742  1.00  0.00     0.251 C 
ATOM      6  H   UNL A   1      40.400  23.162  25.831  1.00  0.00     0.163 HD
BRANCH   5   7
ATOM      7  C   UNL A   1      40.908  25.872  27.685  1.00  0.00     0.039 A 
ATOM      8  C   UNL A   1      41.859  26.871  27.899  1.00  0.00     0.014 A 
ATOM      9  C   UNL A   1      39.738  25.821  28.445  1.00  0.00     0.014 A 
ATOM     10  C   UNL A   1      41.721  27.714  28.990  1.00  0.00     0.010 A 
ATOM     11  C   UNL A   1      39.558  26.734  29.485  1.00  0.00     0.010 A 
ATOM     12  C   UNL A   1      40.571  27.655  29.795  1.00  0.00    -0.014 A 
BRANCH  12  13
ATOM     13  C   UNL A   1      40.449  28.593  30.938  1.00  0.00     0.031 A 
ATOM     14  C   UNL A   1      41.391  28.523  32.108  1.00  0.00     0.074 A 
ATOM     15  C   UNL A   1      39.506  29.553  30.875  1.00  0.00     0.049 A 
ATOM     16  N   UNL A   1      41.446  29.298  33.161  1.00  0.00    -0.248 NA
ATOM     17  C   UNL A   1      42.392  27.444  32.105  1.00  0.00     0.031 C 
ATOM     18  C   UNL A   1      38.542  29.715  29.781  1.00  0.00     0.029 A 
ATOM     19  N   UNL A   1      39.228  30.593  31.721  1.00  0.00    -0.354 N 
ATOM     20  C   UNL A   1      42.458  28.782  33.963  1.00  0.00     0.074 A 
ATOM     21  C   UNL A   1      42.987  27.622  33.278  1.00  0.00     0.031 C 
ATOM     22  C   UNL A   1      37.831  30.832  29.987  1.00  0.00     0.029 A 
ATOM     23  C   UNL A   1      38.239  31.424  31.254  1.00  0.00     0.049 A 
ATOM     24  H   UNL A   1      39.690  30.731  32.578  1.00  0.00     0.167 HD
ATOM     25  C   UNL A   1      42.899  29.232  35.163  1.00  0.00     0.031 A 
ATOM     26  C   UNL A   1      37.710  32.540  31.789  1.00  0.00     0.031 A 
ATOM     27  C   UNL A   1      42.379  30.399  35.827  1.00  0.00     0.049 A 
ATOM     28  C   UNL A   1      38.224  33.021  33.112  1.00  0.00     0.074 A 
ATOM     29  C   UNL A   1      42.779  30.957  37.030  1.00  0.00     0.029 A 
ATOM     30  N   UNL A   1      41.348  31.192  35.343  1.00  0.00    -0.354 N 
ATOM     31  N   UNL A   1      39.184  32.520  33.852  1.00  0.00    -0.248 NA
ATOM     32  C   UNL A   1      37.578  34.213  33.675  1.00  0.00     0.031 C 
ATOM     33  C   UNL A   1      41.963  32.064  37.292  1.00  0.00     0.029 A 
ATOM     34  C   UNL A   1      41.084  32.222  36.232  1.00  0.00     0.049 A 
ATOM     35  H   UNL A   1      40.873  31.044  34.494  1.00  0.00     0.167 HD
ATOM     36  C   UNL A   1      39.263  33.339  34.969  1.00  0.00     0.074 A 
ATOM     37  C   UNL A   1      38.268  34.381  34.795  1.00  0.00     0.031 C 
ATOM     38  C   UNL A   1      40.080  33.237  36.045  1.00  0.00     0.031 A 
BRANCH  25  39
ATOM     39  C   UNL A   1      43.972  28.436  35.855  1.00  0.00    -0.014 A 
ATOM     40  C   UNL A   1      43.658  27.364  36.710  1.00  0.00     0.010 A 
ATOM     41  C   UNL A   1      45.325  28.747  35.618  1.00  0.00     0.010 A 
ATOM     42  C   UNL A   1      44.675  26.645  37.347  1.00  0.00     0.020 A 
ATOM     43  C   UNL A   1      46.344  28.016  36.236  1.00  0.00     0.020 A 
ATOM     44  C   UNL A   1      46.013  26.982  37.112  1.00  0.00     0.054 A 
BRANCH  44  45
ATOM     45  S   UNL A   1      47.315  26.030  37.943  1.00  0.00     0.124 S 
ATOM     46  O   UNL A   1      48.024  27.074  38.679  1.00  0.00    -0.237 OA
ATOM     47  O   UNL A   1      46.557  25.089  38.764  1.00  0.00    -0.237 OA
ATOM     48  O   UNL A   1      48.061  25.429  36.840  1.00  0.00    -0.744 OA
ENDBRANCH  44  45
ENDBRANCH  25  39
BRANCH  26  49
ATOM     49  C   UNL A   1      36.636  33.263  31.060  1.00  0.00    -0.014 A 
ATOM     50  C   UNL A   1      36.920  33.933  29.858  1.00  0.00     0.010 A 
ATOM     51  C   UNL A   1      35.313  33.233  31.537  1.00  0.00     0.010 A 
ATOM     52  C   UNL A   1      35.897  34.564  29.145  1.00  0.00     0.020 A 
ATOM     53  C   UNL A   1      34.284  33.840  30.813  1.00  0.00     0.020 A 
ATOM     54  C   UNL A   1      34.585  34.509  29.625  1.00  0.00     0.054 A 
BRANCH  54  55
ATOM     55  S   UNL A   1      33.257  35.263  28.646  1.00  0.00     0.124 S 
ATOM     56  O   UNL A   1      34.002  36.145  27.754  1.00  0.00    -0.237 OA
ATOM     57  O   UNL A   1      32.628  34.105  28.014  1.00  0.00    -0.237 OA
ATOM     58  O   UNL A   1      32.435  35.934  29.651  1.00  0.00    -0.744 OA
ENDBRANCH  54  55
ENDBRANCH  26  49
BRANCH  38  59
ATOM     59  C   UNL A   1      39.937  34.293  37.104  1.00  0.00    -0.014 A 
ATOM     60  C   UNL A   1      39.109  34.086  38.222  1.00  0.00     0.010 A 
ATOM     61  C   UNL A   1      40.648  35.499  36.984  1.00  0.00     0.010 A 
ATOM     62  C   UNL A   1      38.965  35.087  39.184  1.00  0.00     0.020 A 
ATOM     63  C   UNL A   1      40.523  36.494  37.956  1.00  0.00     0.020 A 
ATOM     64  C   UNL A   1      39.667  36.288  39.042  1.00  0.00     0.054 A 
BRANCH  64  65
ATOM     65  S   UNL A   1      39.482  37.570  40.312  1.00  0.00     0.124 S 
ATOM     66  O   UNL A   1      38.548  38.494  39.674  1.00  0.00    -0.237 OA
ATOM     67  O   UNL A   1      38.949  36.824  41.450  1.00  0.00    -0.237 OA
ATOM     68  O   UNL A   1      40.840  38.078  40.488  1.00  0.00    -0.744 OA
ENDBRANCH  64  65
ENDBRANCH  38  59
ENDBRANCH  12  13
ENDBRANCH   5   7
ENDBRANCH   2   3
ENDBRANCH   1   2
BRANCH   1  69
ATOM     69  C   UNL A   1      37.762  22.327  25.254  1.00  0.00     0.023 C 
BRANCH  69  70
ATOM     70  C   UNL A   1      36.680  22.080  24.197  1.00  0.00     0.116 C 
BRANCH  70  71
ATOM     71  N   UNL A   1      36.074  23.323  23.771  1.00  0.00    -0.354 N 
ATOM     72  C   UNL A   1      34.763  23.604  23.525  1.00  0.00     0.250 C 
ATOM     73  H   UNL A   1      36.698  24.073  23.640  1.00  0.00     0.163 HD
ATOM     74  O   UNL A   1      34.602  24.290  22.503  1.00  0.00    -0.272 OA
BRANCH  72  75
ATOM     75  C   UNL A   1      33.529  23.227  24.472  1.00  0.00     0.145 C 
ATOM     76  C   UNL A   1      33.767  23.218  26.007  1.00  0.00     0.044 C 
ATOM     77  C   UNL A   1      33.026  21.838  23.997  1.00  0.00    -0.010 A 
ATOM     78  C   UNL A   1      34.353  21.938  26.597  1.00  0.00     0.008 C 
ATOM     79  C   UNL A   1      33.150  20.669  24.764  1.00  0.00    -0.042 A 
ATOM     80  C   UNL A   1      32.439  21.733  22.712  1.00  0.00     0.007 A 
ATOM     81  C   UNL A   1      33.597  20.685  26.197  1.00  0.00     0.036 C 
ATOM     82  C   UNL A   1      32.754  19.435  24.211  1.00  0.00     0.004 A 
ATOM     83  C   UNL A   1      32.039  20.511  22.183  1.00  0.00     0.000 A 
ATOM     84  C   UNL A   1      32.215  19.356  22.928  1.00  0.00     0.000 A 
BRANCH  75  85
ATOM     85  N   UNL A   1      32.333  24.130  24.293  1.00  0.00    -0.338 N 
ATOM     86  C   UNL A   1      31.608  25.023  24.998  1.00  0.00     0.224 C 
ATOM     87  H   UNL A   1      31.971  24.040  23.382  1.00  0.00     0.164 HD
ATOM     88  O   UNL A   1      30.498  25.298  24.525  1.00  0.00    -0.275 OA
BRANCH  86  89
ATOM     89  C   UNL A   1      32.110  25.735  26.241  1.00  0.00     0.082 C 
ATOM     90  C   UNL A   1      31.120  26.797  26.727  1.00  0.00     0.035 C 
ATOM     91  C   UNL A   1      33.523  26.302  25.995  1.00  0.00     0.035 C 
ATOM     92  C   UNL A   1      31.241  28.114  25.960  1.00  0.00     0.120 C 
ATOM     93  C   UNL A   1      33.508  27.628  25.242  1.00  0.00     0.120 C 
ATOM     94  N   UNL A   1      32.633  28.566  25.930  1.00  0.00    -0.342 N 
ATOM     95  C   UNL A   1      32.963  29.733  26.620  1.00  0.00     0.225 C 
ATOM     96  O   UNL A   1      32.091  30.388  27.192  1.00  0.00    -0.275 OA
BRANCH  95  97
ATOM     97  C   UNL A   1      34.345  30.299  26.728  1.00  0.00     0.079 C 
ATOM     98  C   UNL A   1      34.897  31.182  27.808  1.00  0.00     0.014 C 
ATOM     99  C   UNL A   1      35.406  29.770  27.654  1.00  0.00     0.014 C 
ENDBRANCH  95  97
ENDBRANCH  86  89
ENDBRANCH  75  85
ENDBRANCH  72  75
ENDBRANCH  70  71
ENDBRANCH  69  70
ENDBRANCH   1  69
TORSDOF 17
ENDMDL
MODEL 2
REMARK VINA RESULT:     -12.5      1.646      2.413
REMARK SMILES O=C(NCCCCNC(=O)[C@]1(NC(=O)C2CCN(C(=O)C3CC3)CC2)CCCc2ccccc21)c1ccc(-c2c3nc(c(-c4ccc(S(=O)(=O)[O-])cc4)c4ccc([nH]4)c(-c4ccc(S(=O)(=O)[O-])cc4)c4nc(c(-c5ccc(S(=O)(=O)[O-])cc5)c5ccc2[nH]5)C=C4)C=C3)cc1
REMARK SMILES IDX 5 1 4 2 3 3 1 4 2 5 35 7 36 8 94 9 37 10 93 11 38 12 39 13
REMARK SMILES IDX 40 14 87 15 41 16 92 17 86 18 88 19 42 20 91 21 85 22 84 23
REMARK SMILES IDX 43 25 73 26 54 27 72 28 55 29 58 30 71 31 89 32 56 33 57 34
REMARK SMILES IDX 70 36 90 37 59 38 44 39 45 40 53 41 46 42 52 43 47 44 48 45
REMARK SMILES IDX 49 46 50 47 51 48 74 49 75 50 83 51 76 52 82 53 77 54 78 55
REMARK SMILES IDX 79 56 80 57 81 58 60 59 61 60 69 61 62 62 68 63 63 64 64 65
REMARK SMILES IDX 65 66 66 67 67 68 6 69 7 70 8 71 9 72 10 74 11 75 26 76
REMARK SMILES IDX 34 77 27 78 29 79 33 80 28 81 30 82 32 83 31 84 12 85 13 86
REMARK SMILES IDX 14 88 15 89 16 90 25 91 17 92 24 93 18 94 19 95 20 96 21 97
REMARK SMILES IDX 22 98 23 99
REMARK H PARENT 3 6 88 24 58 35 8 73 12 87
REMARK Flexibility Score: inf
ROOT
ATOM      1  C   UNL A   1      39.007  23.189  26.415  1.00  0.00     0.023 C 
ENDROOT
BRANCH   1   2
ATOM      2  C   UNL A   1      40.328  23.714  26.956  1.00  0.00     0.116 C 
BRANCH   2   3
ATOM      3  N   UNL A   1      41.176  24.340  25.949  1.00  0.00    -0.352 N 
ATOM      4  O   UNL A   1      42.255  26.069  24.962  1.00  0.00    -0.269 OA
ATOM      5  C   UNL A   1      41.595  25.652  25.903  1.00  0.00     0.251 C 
ATOM      6  H   UNL A   1      41.484  23.759  25.216  1.00  0.00     0.163 HD
BRANCH   5   7
ATOM      7  C   UNL A   1      41.169  26.549  26.993  1.00  0.00     0.039 A 
ATOM      8  C   UNL A   1      41.708  27.833  27.086  1.00  0.00     0.014 A 
ATOM      9  C   UNL A   1      40.329  26.050  27.990  1.00  0.00     0.014 A 
ATOM     10  C   UNL A   1      41.548  28.551  28.260  1.00  0.00     0.010 A 
ATOM     11  C   UNL A   1      40.093  26.817  29.132  1.00  0.00     0.010 A 
ATOM     12  C   UNL A   1      40.740  28.052  29.296  1.00  0.00    -0.014 A 
BRANCH  12  13
ATOM     13  C   UNL A   1      40.571  28.863  30.526  1.00  0.00     0.031 A 
ATOM     14  C   UNL A   1      41.507  28.713  31.693  1.00  0.00     0.074 A 
ATOM     15  C   UNL A   1      39.590  29.786  30.550  1.00  0.00     0.049 A 
ATOM     16  N   UNL A   1      41.524  29.378  32.820  1.00  0.00    -0.248 NA
ATOM     17  C   UNL A   1      42.552  27.681  31.592  1.00  0.00     0.031 C 
ATOM     18  C   UNL A   1      38.628  30.020  29.468  1.00  0.00     0.029 A 
ATOM     19  N   UNL A   1      39.264  30.723  31.494  1.00  0.00    -0.354 N 
ATOM     20  C   UNL A   1      42.549  28.824  33.577  1.00  0.00     0.074 A 
ATOM     21  C   UNL A   1      43.130  27.762  32.784  1.00  0.00     0.031 C 
ATOM     22  C   UNL A   1      37.871  31.081  29.777  1.00  0.00     0.029 A 
ATOM     23  C   UNL A   1      38.245  31.557  31.102  1.00  0.00     0.049 A 
ATOM     24  H   UNL A   1      39.715  30.792  32.365  1.00  0.00     0.167 HD
ATOM     25  C   UNL A   1      42.964  29.168  34.821  1.00  0.00     0.031 A 
ATOM     26  C   UNL A   1      37.667  32.590  31.742  1.00  0.00     0.031 A 
ATOM     27  C   UNL A   1      42.392  30.240  35.594  1.00  0.00     0.049 A 
ATOM     28  C   UNL A   1      38.152  32.955  33.112  1.00  0.00     0.074 A 
ATOM     29  C   UNL A   1      42.760  30.688  36.852  1.00  0.00     0.029 A 
ATOM     30  N   UNL A   1      41.333  31.035  35.182  1.00  0.00    -0.354 N 
ATOM     31  N   UNL A   1      39.126  32.420  33.808  1.00  0.00    -0.248 NA
ATOM     32  C   UNL A   1      37.454  34.057  33.786  1.00  0.00     0.031 C 
ATOM     33  C   UNL A   1      41.897  31.729  37.215  1.00  0.00     0.029 A 
ATOM     34  C   UNL A   1      41.021  31.958  36.167  1.00  0.00     0.049 A 
ATOM     35  H   UNL A   1      40.870  30.955  34.316  1.00  0.00     0.167 HD
ATOM     36  C   UNL A   1      39.164  33.124  35.003  1.00  0.00     0.074 A 
ATOM     37  C   UNL A   1      38.129  34.138  34.924  1.00  0.00     0.031 C 
ATOM     38  C   UNL A   1      39.978  32.947  36.072  1.00  0.00     0.031 A 
BRANCH  25  39
ATOM     39  C   UNL A   1      44.064  28.349  35.441  1.00  0.00    -0.014 A 
ATOM     40  C   UNL A   1      43.790  27.165  36.149  1.00  0.00     0.010 A 
ATOM     41  C   UNL A   1      45.402  28.757  35.283  1.00  0.00     0.010 A 
ATOM     42  C   UNL A   1      44.831  26.426  36.722  1.00  0.00     0.020 A 
ATOM     43  C   UNL A   1      46.446  28.009  35.836  1.00  0.00     0.020 A 
ATOM     44  C   UNL A   1      46.153  26.858  36.569  1.00  0.00     0.054 A 
BRANCH  44  45
ATOM     45  S   UNL A   1      47.487  25.881  37.314  1.00  0.00     0.124 S 
ATOM     46  O   UNL A   1      46.786  24.655  37.688  1.00  0.00    -0.237 OA
ATOM     47  O   UNL A   1      48.444  25.747  36.218  1.00  0.00    -0.237 OA
ATOM     48  O   UNL A   1      47.938  26.707  38.432  1.00  0.00    -0.744 OA
ENDBRANCH  44  45
ENDBRANCH  25  39
BRANCH  26  49
ATOM     49  C   UNL A   1      36.570  33.341  31.077  1.00  0.00    -0.014 A 
ATOM     50  C   UNL A   1      36.834  34.134  29.948  1.00  0.00     0.010 A 
ATOM     51  C   UNL A   1      35.247  33.216  31.539  1.00  0.00     0.010 A 
ATOM     52  C   UNL A   1      35.790  34.792  29.292  1.00  0.00     0.020 A 
ATOM     53  C   UNL A   1      34.199  33.851  30.869  1.00  0.00     0.020 A 
ATOM     54  C   UNL A   1      34.479  34.643  29.754  1.00  0.00     0.054 A 
BRANCH  54  55
ATOM     55  S   UNL A   1      33.127  35.438  28.842  1.00  0.00     0.124 S 
ATOM     56  O   UNL A   1      33.850  36.368  27.980  1.00  0.00    -0.237 OA
ATOM     57  O   UNL A   1      32.491  34.310  28.165  1.00  0.00    -0.237 OA
ATOM     58  O   UNL A   1      32.324  36.053  29.896  1.00  0.00    -0.744 OA
ENDBRANCH  54  55
ENDBRANCH  26  49
BRANCH  38  59
ATOM     59  C   UNL A   1      39.784  33.883  37.231  1.00  0.00    -0.014 A 
ATOM     60  C   UNL A   1      40.349  35.171  37.222  1.00  0.00     0.010 A 
ATOM     61  C   UNL A   1      39.017  33.473  38.335  1.00  0.00     0.010 A 
ATOM     62  C   UNL A   1      40.182  36.019  38.318  1.00  0.00     0.020 A 
ATOM     63  C   UNL A   1      38.831  34.327  39.424  1.00  0.00     0.020 A 
ATOM     64  C   UNL A   1      39.430  35.589  39.415  1.00  0.00     0.054 A 
BRANCH  64  65
ATOM     65  S   UNL A   1      39.209  36.712  40.823  1.00  0.00     0.124 S 
ATOM     66  O   UNL A   1      40.588  36.945  41.242  1.00  0.00    -0.237 OA
ATOM     67  O   UNL A   1      38.533  37.858  40.220  1.00  0.00    -0.237 OA
ATOM     68  O   UNL A   1      38.395  35.937  41.757  1.00  0.00    -0.744 OA
ENDBRANCH  64  65
ENDBRANCH  38  59
ENDBRANCH  12  13
ENDBRANCH   5   7
ENDBRANCH   2   3
ENDBRANCH   1   2
BRANCH   1  69
ATOM     69  C   UNL A   1      37.855  24.185  26.506  1.00  0.00     0.023 C 
BRANCH  69  70
ATOM     70  C   UNL A   1      36.681  23.918  25.558  1.00  0.00     0.116 C 
BRANCH  70  71
ATOM     71  N   UNL A   1      35.781  22.927  26.108  1.00  0.00    -0.354 N 
ATOM     72  C   UNL A   1      34.569  23.100  26.708  1.00  0.00     0.250 C 
ATOM     73  H   UNL A   1      36.089  21.994  26.040  1.00  0.00     0.163 HD
ATOM     74  O   UNL A   1      34.427  22.392  27.718  1.00  0.00    -0.272 OA
BRANCH  72  75
ATOM     75  C   UNL A   1      33.371  24.007  26.157  1.00  0.00     0.145 C 
ATOM     76  C   UNL A   1      32.060  24.062  26.988  1.00  0.00     0.044 C 
ATOM     77  C   UNL A   1      33.077  23.508  24.717  1.00  0.00    -0.010 A 
ATOM     78  C   UNL A   1      31.055  22.938  26.747  1.00  0.00     0.008 C 
ATOM     79  C   UNL A   1      31.893  22.844  24.358  1.00  0.00    -0.042 A 
ATOM     80  C   UNL A   1      34.062  23.702  23.718  1.00  0.00     0.007 A 
ATOM     81  C   UNL A   1      30.716  22.732  25.283  1.00  0.00     0.036 C 
ATOM     82  C   UNL A   1      31.754  22.339  23.050  1.00  0.00     0.004 A 
ATOM     83  C   UNL A   1      33.907  23.211  22.426  1.00  0.00     0.000 A 
ATOM     84  C   UNL A   1      32.757  22.511  22.097  1.00  0.00     0.000 A 
BRANCH  75  85
ATOM     85  N   UNL A   1      33.747  25.457  25.972  1.00  0.00    -0.338 N 
ATOM     86  C   UNL A   1      33.198  26.612  25.543  1.00  0.00     0.224 C 
ATOM     87  H   UNL A   1      34.680  25.606  26.249  1.00  0.00     0.164 HD
ATOM     88  O   UNL A   1      34.000  27.515  25.274  1.00  0.00    -0.275 OA
BRANCH  86  89
ATOM     89  C   UNL A   1      31.703  26.865  25.464  1.00  0.00     0.082 C 
ATOM     90  C   UNL A   1      31.150  26.567  24.068  1.00  0.00     0.035 C 
ATOM     91  C   UNL A   1      31.379  28.295  25.943  1.00  0.00     0.035 C 
ATOM     92  C   UNL A   1      31.367  27.719  23.086  1.00  0.00     0.120 C 
ATOM     93  C   UNL A   1      31.615  29.350  24.866  1.00  0.00     0.120 C 
ATOM     94  N   UNL A   1      30.891  28.979  23.659  1.00  0.00    -0.342 N 
ATOM     95  C   UNL A   1      29.787  29.597  23.071  1.00  0.00     0.225 C 
ATOM     96  O   UNL A   1      29.264  29.115  22.065  1.00  0.00    -0.275 OA
BRANCH  95  97
ATOM     97  C   UNL A   1      29.150  30.858  23.566  1.00  0.00     0.079 C 
ATOM     98  C   UNL A   1      28.618  32.002  22.753  1.00  0.00     0.014 C 
ATOM     99  C   UNL A   1      27.670  31.128  23.537  1.00  0.00     0.014 C 
ENDBRANCH  95  97
ENDBRANCH  86  89
ENDBRANCH  75  85
ENDBRANCH  72  75
ENDBRANCH  70  71
ENDBRANCH  69  70
ENDBRANCH   1  69
TORSDOF 17
ENDMDL
MODEL 3
REMARK VINA RESULT:     -12.5      6.067     11.811
REMARK SMILES O=C(NCCCCNC(=O)[C@]1(NC(=O)C2CCN(C(=O)C3CC3)CC2)CCCc2ccccc21)c1ccc(-c2c3nc(c(-c4ccc(S(=O)(=O)[O-])cc4)c4ccc([nH]4)c(-c4ccc(S(=O)(=O)[O-])cc4)c4nc(c(-c5ccc(S(=O)(=O)[O-])cc5)c5ccc2[nH]5)C=C4)C=C3)cc1
REMARK SMILES IDX 5 1 4 2 3 3 1 4 2 5 35 7 36 8 94 9 37 10 93 11 38 12 39 13
REMARK SMILES IDX 40 14 87 15 41 16 92 17 86 18 88 19 42 20 91 21 85 22 84 23
REMARK SMILES IDX 43 25 73 26 54 27 72 28 55 29 58 30 71 31 89 32 56 33 57 34
REMARK SMILES IDX 70 36 90 37 59 38 44 39 45 40 53 41 46 42 52 43 47 44 48 45
REMARK SMILES IDX 49 46 50 47 51 48 74 49 75 50 83 51 76 52 82 53 77 54 78 55
REMARK SMILES IDX 79 56 80 57 81 58 60 59 61 60 69 61 62 62 68 63 63 64 64 65
REMARK SMILES IDX 65 66 66 67 67 68 6 69 7 70 8 71 9 72 10 74 11 75 26 76
REMARK SMILES IDX 34 77 27 78 29 79 33 80 28 81 30 82 32 83 31 84 12 85 13 86
REMARK SMILES IDX 14 88 15 89 16 90 25 91 17 92 24 93 18 94 19 95 20 96 21 97
REMARK SMILES IDX 22 98 23 99
REMARK H PARENT 3 6 88 24 58 35 8 73 12 87
REMARK Flexibility Score: inf
ROOT
ATOM      1  C   UNL A   1      34.877  31.593  27.816  1.00  0.00     0.023 C 
ENDROOT
BRANCH   1   2
ATOM      2  C   UNL A   1      36.085  31.567  28.739  1.00  0.00     0.116 C 
BRANCH   2   3
ATOM      3  N   UNL A   1      35.794  31.089  30.086  1.00  0.00    -0.352 N 
ATOM      4  O   UNL A   1      36.127  29.813  31.927  1.00  0.00    -0.269 OA
ATOM      5  C   UNL A   1      36.517  30.182  30.829  1.00  0.00     0.251 C 
ATOM      6  H   UNL A   1      34.986  31.456  30.513  1.00  0.00     0.163 HD
BRANCH   5   7
ATOM      7  C   UNL A   1      37.744  29.625  30.229  1.00  0.00     0.039 A 
ATOM      8  C   UNL A   1      38.737  29.089  31.051  1.00  0.00     0.014 A 
ATOM      9  C   UNL A   1      37.948  29.761  28.854  1.00  0.00     0.014 A 
ATOM     10  C   UNL A   1      39.997  28.853  30.525  1.00  0.00     0.010 A 
ATOM     11  C   UNL A   1      39.191  29.432  28.312  1.00  0.00     0.010 A 
ATOM     12  C   UNL A   1      40.238  29.022  29.151  1.00  0.00    -0.014 A 
BRANCH  12  13
ATOM     13  C   UNL A   1      41.593  28.733  28.622  1.00  0.00     0.031 A 
ATOM     14  C   UNL A   1      42.681  29.771  28.654  1.00  0.00     0.074 A 
ATOM     15  C   UNL A   1      41.846  27.492  28.164  1.00  0.00     0.049 A 
ATOM     16  N   UNL A   1      43.928  29.662  28.275  1.00  0.00    -0.248 NA
ATOM     17  C   UNL A   1      42.326  31.105  29.166  1.00  0.00     0.031 C 
ATOM     18  C   UNL A   1      40.864  26.405  28.094  1.00  0.00     0.029 A 
ATOM     19  N   UNL A   1      43.006  26.922  27.712  1.00  0.00    -0.354 N 
ATOM     20  C   UNL A   1      44.498  30.916  28.464  1.00  0.00     0.074 A 
ATOM     21  C   UNL A   1      43.458  31.775  28.988  1.00  0.00     0.031 C 
ATOM     22  C   UNL A   1      41.480  25.283  27.698  1.00  0.00     0.029 A 
ATOM     23  C   UNL A   1      42.878  25.585  27.422  1.00  0.00     0.049 A 
ATOM     24  H   UNL A   1      43.848  27.420  27.606  1.00  0.00     0.167 HD
ATOM     25  C   UNL A   1      45.771  31.313  28.219  1.00  0.00     0.031 A 
ATOM     26  C   UNL A   1      43.786  24.697  26.975  1.00  0.00     0.031 A 
ATOM     27  C   UNL A   1      46.804  30.444  27.717  1.00  0.00     0.049 A 
ATOM     28  C   UNL A   1      45.188  25.161  26.722  1.00  0.00     0.074 A 
ATOM     29  C   UNL A   1      48.132  30.742  27.463  1.00  0.00     0.029 A 
ATOM     30  N   UNL A   1      46.626  29.107  27.394  1.00  0.00    -0.354 N 
ATOM     31  N   UNL A   1      45.706  26.351  26.912  1.00  0.00    -0.248 NA
ATOM     32  C   UNL A   1      46.124  24.166  26.187  1.00  0.00     0.031 C 
ATOM     33  C   UNL A   1      48.748  29.593  26.951  1.00  0.00     0.029 A 
ATOM     34  C   UNL A   1      47.814  28.569  26.926  1.00  0.00     0.049 A 
ATOM     35  H   UNL A   1      45.780  28.612  27.484  1.00  0.00     0.167 HD
ATOM     36  C   UNL A   1      47.035  26.247  26.525  1.00  0.00     0.074 A 
ATOM     37  C   UNL A   1      47.243  24.872  26.111  1.00  0.00     0.031 C 
ATOM     38  C   UNL A   1      47.995  27.203  26.507  1.00  0.00     0.031 A 
BRANCH  25  39
ATOM     39  C   UNL A   1      46.106  32.761  28.452  1.00  0.00    -0.014 A 
ATOM     40  C   UNL A   1      46.545  33.223  29.706  1.00  0.00     0.010 A 
ATOM     41  C   UNL A   1      46.011  33.673  27.383  1.00  0.00     0.010 A 
ATOM     42  C   UNL A   1      46.843  34.576  29.897  1.00  0.00     0.020 A 
ATOM     43  C   UNL A   1      46.329  35.022  27.565  1.00  0.00     0.020 A 
ATOM     44  C   UNL A   1      46.725  35.469  28.827  1.00  0.00     0.054 A 
BRANCH  44  45
ATOM     45  S   UNL A   1      47.124  37.218  29.096  1.00  0.00     0.124 S 
ATOM     46  O   UNL A   1      47.136  37.301  30.555  1.00  0.00    -0.237 OA
ATOM     47  O   UNL A   1      48.426  37.358  28.449  1.00  0.00    -0.237 OA
ATOM     48  O   UNL A   1      46.028  37.928  28.440  1.00  0.00    -0.744 OA
ENDBRANCH  44  45
ENDBRANCH  25  39
BRANCH  26  49
ATOM     49  C   UNL A   1      43.378  23.287  26.746  1.00  0.00    -0.014 A 
ATOM     50  C   UNL A   1      43.567  22.687  25.490  1.00  0.00     0.010 A 
ATOM     51  C   UNL A   1      42.851  22.522  27.803  1.00  0.00     0.010 A 
ATOM     52  C   UNL A   1      43.235  21.344  25.294  1.00  0.00     0.020 A 
ATOM     53  C   UNL A   1      42.543  21.173  27.617  1.00  0.00     0.020 A 
ATOM     54  C   UNL A   1      42.730  20.594  26.360  1.00  0.00     0.054 A 
BRANCH  54  55
ATOM     55  S   UNL A   1      42.381  18.832  26.111  1.00  0.00     0.124 S 
ATOM     56  O   UNL A   1      40.974  18.854  25.723  1.00  0.00    -0.237 OA
ATOM     57  O   UNL A   1      43.324  18.465  25.057  1.00  0.00    -0.237 OA
ATOM     58  O   UNL A   1      42.663  18.243  27.418  1.00  0.00    -0.744 OA
ENDBRANCH  54  55
ENDBRANCH  26  49
BRANCH  38  59
ATOM     59  C   UNL A   1      49.359  26.782  26.039  1.00  0.00    -0.014 A 
ATOM     60  C   UNL A   1      50.251  26.128  26.908  1.00  0.00     0.010 A 
ATOM     61  C   UNL A   1      49.746  27.032  24.712  1.00  0.00     0.010 A 
ATOM     62  C   UNL A   1      51.525  25.768  26.466  1.00  0.00     0.020 A 
ATOM     63  C   UNL A   1      51.012  26.653  24.260  1.00  0.00     0.020 A 
ATOM     64  C   UNL A   1      51.900  26.038  25.147  1.00  0.00     0.054 A 
BRANCH  64  65
ATOM     65  S   UNL A   1      53.553  25.545  24.585  1.00  0.00     0.124 S 
ATOM     66  O   UNL A   1      54.416  26.301  25.487  1.00  0.00    -0.237 OA
ATOM     67  O   UNL A   1      53.545  24.098  24.788  1.00  0.00    -0.237 OA
ATOM     68  O   UNL A   1      53.583  25.972  23.188  1.00  0.00    -0.744 OA
ENDBRANCH  64  65
ENDBRANCH  38  59
ENDBRANCH  12  13
ENDBRANCH   5   7
ENDBRANCH   2   3
ENDBRANCH   1   2
BRANCH   1  69
ATOM     69  C   UNL A   1      34.569  30.255  27.152  1.00  0.00     0.023 C 
BRANCH  69  70
ATOM     70  C   UNL A   1      33.110  30.053  26.728  1.00  0.00     0.116 C 
BRANCH  70  71
ATOM     71  N   UNL A   1      32.420  29.167  27.641  1.00  0.00    -0.354 N 
ATOM     72  C   UNL A   1      31.736  28.018  27.377  1.00  0.00     0.250 C 
ATOM     73  H   UNL A   1      32.447  29.434  28.589  1.00  0.00     0.163 HD
ATOM     74  O   UNL A   1      30.671  27.935  28.010  1.00  0.00    -0.272 OA
BRANCH  72  75
ATOM     75  C   UNL A   1      32.250  26.811  26.459  1.00  0.00     0.145 C 
ATOM     76  C   UNL A   1      33.774  26.707  26.181  1.00  0.00     0.044 C 
ATOM     77  C   UNL A   1      31.463  26.916  25.125  1.00  0.00    -0.010 A 
ATOM     78  C   UNL A   1      34.313  27.550  25.028  1.00  0.00     0.008 C 
ATOM     79  C   UNL A   1      32.062  27.260  23.902  1.00  0.00    -0.042 A 
ATOM     80  C   UNL A   1      30.066  26.684  25.142  1.00  0.00     0.007 A 
ATOM     81  C   UNL A   1      33.550  27.361  23.730  1.00  0.00     0.036 C 
ATOM     82  C   UNL A   1      31.253  27.427  22.761  1.00  0.00     0.004 A 
ATOM     83  C   UNL A   1      29.281  26.840  24.005  1.00  0.00     0.000 A 
ATOM     84  C   UNL A   1      29.874  27.231  22.815  1.00  0.00     0.000 A 
BRANCH  75  85
ATOM     85  N   UNL A   1      31.883  25.448  26.994  1.00  0.00    -0.338 N 
ATOM     86  C   UNL A   1      31.753  24.177  26.560  1.00  0.00     0.224 C 
ATOM     87  H   UNL A   1      31.673  25.502  27.954  1.00  0.00     0.164 HD
ATOM     88  O   UNL A   1      31.116  23.423  27.305  1.00  0.00    -0.275 OA
BRANCH  86  89
ATOM     89  C   UNL A   1      32.400  23.640  25.295  1.00  0.00     0.082 C 
ATOM     90  C   UNL A   1      32.118  22.147  25.104  1.00  0.00     0.035 C 
ATOM     91  C   UNL A   1      33.907  23.971  25.288  1.00  0.00     0.035 C 
ATOM     92  C   UNL A   1      33.052  21.258  25.924  1.00  0.00     0.120 C 
ATOM     93  C   UNL A   1      34.732  22.998  26.125  1.00  0.00     0.120 C 
ATOM     94  N   UNL A   1      34.449  21.634  25.702  1.00  0.00    -0.342 N 
ATOM     95  C   UNL A   1      35.282  20.725  25.047  1.00  0.00     0.225 C 
ATOM     96  O   UNL A   1      34.859  19.617  24.716  1.00  0.00    -0.275 OA
BRANCH  95  97
ATOM     97  C   UNL A   1      36.716  20.979  24.700  1.00  0.00     0.079 C 
ATOM     98  C   UNL A   1      37.878  21.131  25.639  1.00  0.00     0.014 C 
ATOM     99  C   UNL A   1      37.793  19.928  24.731  1.00  0.00     0.014 C 
ENDBRANCH  95  97
ENDBRANCH  86  89
ENDBRANCH  75  85
ENDBRANCH  72  75
ENDBRANCH  70  71
ENDBRANCH  69  70
ENDBRANCH   1  69
TORSDOF 17
ENDMDL
