MODEL 1
REMARK VINA RESULT:     -10.8      0.000      0.000
REMARK SMILES C/C(C(=O)NCCCCNC(=O)c1ccc(-c2c3nc(c(-c4ccc(S(=O)(=O)[O-])cc4)c4ccc([nH]4)c(-c4ccc(S(=O)(=O)[O-])cc4)c4nc(c(-c5ccc(S(=O)(=O)[O-])cc5)c5ccc2[nH]5)C=C4)C=C3)cc1)=C(\C)C(=O)N[C@H]1CCCC1(C)C
REMARK SMILES IDX 8 1 7 2 6 3 5 4 3 5 4 6 2 8 1 9 73 10 74 11 75 12 76 13
REMARK SMILES IDX 77 14 78 16 79 17 82 18 80 19 81 20 83 21 84 22 9 23 10 24
REMARK SMILES IDX 11 25 12 27 13 28 14 29 72 30 15 31 71 32 16 33 17 34 18 35
REMARK SMILES IDX 65 36 19 37 70 38 64 39 66 40 20 41 69 42 63 43 62 44 21 46
REMARK SMILES IDX 51 47 32 48 50 49 33 50 36 51 49 52 67 53 34 54 35 55 48 57
REMARK SMILES IDX 68 58 37 59 22 60 23 61 31 62 24 63 30 64 25 65 26 66 27 67
REMARK SMILES IDX 28 68 29 69 52 70 53 71 61 72 54 73 60 74 55 75 56 76 57 77
REMARK SMILES IDX 58 78 59 79 38 80 39 81 47 82 40 83 46 84 41 85 42 86 43 87
REMARK SMILES IDX 44 88 45 89
REMARK H PARENT 5 7 77 15 10 26 66 45 36 56
REMARK Flexibility Score: inf
ROOT
ATOM      1  C   UNL A   1      35.472  23.001  25.067  1.00  0.00     0.023 C 
ENDROOT
BRANCH   1   2
ATOM      2  C   UNL A   1      34.615  22.097  25.960  1.00  0.00     0.023 C 
BRANCH   2   3
ATOM      3  C   UNL A   1      33.495  22.841  26.698  1.00  0.00     0.116 C 
BRANCH   3   4
ATOM      4  N   UNL A   1      32.228  22.155  26.480  1.00  0.00    -0.352 N 
ATOM      5  C   UNL A   1      31.091  22.527  25.809  1.00  0.00     0.247 C 
ATOM      6  O   UNL A   1      30.035  21.977  26.101  1.00  0.00    -0.270 OA
ATOM      7  H   UNL A   1      32.180  21.262  26.889  1.00  0.00     0.163 HD
BRANCH   5   8
ATOM      8  C   UNL A   1      31.180  23.563  24.733  1.00  0.00     0.022 C 
ATOM      9  C   UNL A   1      31.971  23.229  23.498  1.00  0.00     0.051 C 
ATOM     10  C   UNL A   1      30.687  24.818  24.876  1.00  0.00     0.022 C 
ATOM     11  C   UNL A   1      30.358  25.635  23.667  1.00  0.00     0.051 C 
BRANCH  10  12
ATOM     12  C   UNL A   1      30.353  25.426  26.197  1.00  0.00     0.247 C 
ATOM     13  O   UNL A   1      29.344  25.131  26.826  1.00  0.00    -0.270 OA
ATOM     14  N   UNL A   1      31.281  26.293  26.743  1.00  0.00    -0.349 N 
ATOM     15  H   UNL A   1      31.646  26.044  27.623  1.00  0.00     0.164 HD
BRANCH  14  16
ATOM     16  C   UNL A   1      31.787  27.546  26.157  1.00  0.00     0.088 C 
ATOM     17  C   UNL A   1      31.712  28.688  27.208  1.00  0.00     0.025 C 
ATOM     18  C   UNL A   1      33.263  27.572  25.635  1.00  0.00    -0.015 C 
ATOM     19  C   UNL A   1      33.036  29.435  27.158  1.00  0.00     0.003 C 
ATOM     20  C   UNL A   1      34.027  28.384  26.700  1.00  0.00     0.008 C 
ATOM     21  C   UNL A   1      33.941  26.210  25.462  1.00  0.00     0.013 C 
ATOM     22  C   UNL A   1      33.328  28.345  24.292  1.00  0.00     0.013 C 
ENDBRANCH  14  16
ENDBRANCH  10  12
ENDBRANCH   5   8
ENDBRANCH   3   4
ENDBRANCH   2   3
ENDBRANCH   1   2
BRANCH   1  23
ATOM     23  C   UNL A   1      36.685  23.611  25.760  1.00  0.00     0.116 C 
BRANCH  23  24
ATOM     24  N   UNL A   1      37.792  22.676  25.909  1.00  0.00    -0.352 N 
ATOM     25  C   UNL A   1      39.043  22.925  26.418  1.00  0.00     0.251 C 
ATOM     26  H   UNL A   1      37.622  21.753  25.609  1.00  0.00     0.163 HD
ATOM     27  O   UNL A   1      39.915  22.063  26.381  1.00  0.00    -0.269 OA
BRANCH  25  28
ATOM     28  C   UNL A   1      39.329  24.263  26.969  1.00  0.00     0.039 A 
ATOM     29  C   UNL A   1      38.947  24.549  28.281  1.00  0.00     0.014 A 
ATOM     30  C   UNL A   1      40.035  25.199  26.210  1.00  0.00     0.014 A 
ATOM     31  C   UNL A   1      39.333  25.760  28.856  1.00  0.00     0.010 A 
ATOM     32  C   UNL A   1      40.478  26.373  26.808  1.00  0.00     0.010 A 
ATOM     33  C   UNL A   1      40.131  26.664  28.136  1.00  0.00    -0.014 A 
BRANCH  33  34
ATOM     34  C   UNL A   1      40.616  27.922  28.754  1.00  0.00     0.031 A 
ATOM     35  C   UNL A   1      42.025  28.010  29.273  1.00  0.00     0.074 A 
ATOM     36  C   UNL A   1      39.769  28.959  28.906  1.00  0.00     0.049 A 
ATOM     37  N   UNL A   1      42.615  28.999  29.891  1.00  0.00    -0.248 NA
ATOM     38  C   UNL A   1      42.873  26.818  29.100  1.00  0.00     0.031 C 
ATOM     39  C   UNL A   1      38.364  28.978  28.486  1.00  0.00     0.029 A 
ATOM     40  N   UNL A   1      39.962  30.198  29.463  1.00  0.00    -0.354 N 
ATOM     41  C   UNL A   1      43.892  28.546  30.196  1.00  0.00     0.074 A 
ATOM     42  C   UNL A   1      43.975  27.176  29.741  1.00  0.00     0.031 C 
ATOM     43  C   UNL A   1      37.833  30.176  28.777  1.00  0.00     0.029 A 
ATOM     44  C   UNL A   1      38.843  30.997  29.436  1.00  0.00     0.049 A 
ATOM     45  H   UNL A   1      40.821  30.488  29.846  1.00  0.00     0.167 HD
ATOM     46  C   UNL A   1      44.912  29.216  30.782  1.00  0.00     0.031 A 
ATOM     47  C   UNL A   1      38.650  32.250  29.894  1.00  0.00     0.031 A 
ATOM     48  C   UNL A   1      44.827  30.583  31.220  1.00  0.00     0.049 A 
ATOM     49  C   UNL A   1      39.799  32.976  30.540  1.00  0.00     0.074 A 
ATOM     50  C   UNL A   1      45.820  31.374  31.771  1.00  0.00     0.029 A 
ATOM     51  N   UNL A   1      43.682  31.365  31.157  1.00  0.00    -0.354 N 
ATOM     52  N   UNL A   1      41.023  32.554  30.754  1.00  0.00    -0.248 NA
ATOM     53  C   UNL A   1      39.545  34.349  30.994  1.00  0.00     0.031 C 
ATOM     54  C   UNL A   1      45.264  32.616  32.087  1.00  0.00     0.029 A 
ATOM     55  C   UNL A   1      43.939  32.621  31.679  1.00  0.00     0.049 A 
ATOM     56  H   UNL A   1      42.816  31.069  30.795  1.00  0.00     0.167 HD
ATOM     57  C   UNL A   1      41.693  33.621  31.342  1.00  0.00     0.074 A 
ATOM     58  C   UNL A   1      40.743  34.711  31.436  1.00  0.00     0.031 C 
ATOM     59  C   UNL A   1      42.980  33.694  31.763  1.00  0.00     0.031 A 
BRANCH  46  60
ATOM     60  C   UNL A   1      46.206  28.474  30.986  1.00  0.00    -0.014 A 
ATOM     61  C   UNL A   1      46.425  27.699  32.140  1.00  0.00     0.010 A 
ATOM     62  C   UNL A   1      47.206  28.524  29.998  1.00  0.00     0.010 A 
ATOM     63  C   UNL A   1      47.634  27.024  32.323  1.00  0.00     0.020 A 
ATOM     64  C   UNL A   1      48.406  27.826  30.163  1.00  0.00     0.020 A 
ATOM     65  C   UNL A   1      48.619  27.095  31.333  1.00  0.00     0.054 A 
BRANCH  65  66
ATOM     66  S   UNL A   1      50.170  26.191  31.586  1.00  0.00     0.124 S 
ATOM     67  O   UNL A   1      50.708  26.844  32.777  1.00  0.00    -0.237 OA
ATOM     68  O   UNL A   1      49.713  24.817  31.779  1.00  0.00    -0.237 OA
ATOM     69  O   UNL A   1      50.917  26.430  30.355  1.00  0.00    -0.744 OA
ENDBRANCH  65  66
ENDBRANCH  46  60
BRANCH  47  70
ATOM     70  C   UNL A   1      37.322  32.904  29.737  1.00  0.00    -0.014 A 
ATOM     71  C   UNL A   1      36.411  32.931  30.807  1.00  0.00     0.010 A 
ATOM     72  C   UNL A   1      36.968  33.516  28.521  1.00  0.00     0.010 A 
ATOM     73  C   UNL A   1      35.161  33.542  30.658  1.00  0.00     0.020 A 
ATOM     74  C   UNL A   1      35.730  34.150  28.376  1.00  0.00     0.020 A 
ATOM     75  C   UNL A   1      34.830  34.149  29.444  1.00  0.00     0.054 A 
BRANCH  75  76
ATOM     76  S   UNL A   1      33.223  34.978  29.290  1.00  0.00     0.124 S 
ATOM     77  O   UNL A   1      32.531  34.122  28.331  1.00  0.00    -0.237 OA
ATOM     78  O   UNL A   1      32.714  34.935  30.659  1.00  0.00    -0.237 OA
ATOM     79  O   UNL A   1      33.571  36.310  28.803  1.00  0.00    -0.744 OA
ENDBRANCH  75  76
ENDBRANCH  47  70
BRANCH  59  80
ATOM     80  C   UNL A   1      43.451  35.006  32.331  1.00  0.00    -0.014 A 
ATOM     81  C   UNL A   1      43.367  35.279  33.707  1.00  0.00     0.010 A 
ATOM     82  C   UNL A   1      44.044  35.955  31.477  1.00  0.00     0.010 A 
ATOM     83  C   UNL A   1      43.841  36.491  34.216  1.00  0.00     0.020 A 
ATOM     84  C   UNL A   1      44.544  37.156  31.986  1.00  0.00     0.020 A 
ATOM     85  C   UNL A   1      44.427  37.421  33.351  1.00  0.00     0.054 A 
BRANCH  85  86
ATOM     86  S   UNL A   1      45.079  38.967  34.043  1.00  0.00     0.124 S 
ATOM     87  O   UNL A   1      43.925  39.481  34.776  1.00  0.00    -0.237 OA
ATOM     88  O   UNL A   1      46.192  38.504  34.868  1.00  0.00    -0.237 OA
ATOM     89  O   UNL A   1      45.463  39.739  32.864  1.00  0.00    -0.744 OA
ENDBRANCH  85  86
ENDBRANCH  59  80
ENDBRANCH  33  34
ENDBRANCH  25  28
ENDBRANCH  23  24
ENDBRANCH   1  23
TORSDOF 16
ENDMDL
MODEL 2
REMARK VINA RESULT:     -10.6      3.755     10.680
REMARK SMILES C/C(C(=O)NCCCCNC(=O)c1ccc(-c2c3nc(c(-c4ccc(S(=O)(=O)[O-])cc4)c4ccc([nH]4)c(-c4ccc(S(=O)(=O)[O-])cc4)c4nc(c(-c5ccc(S(=O)(=O)[O-])cc5)c5ccc2[nH]5)C=C4)C=C3)cc1)=C(\C)C(=O)N[C@H]1CCCC1(C)C
REMARK SMILES IDX 8 1 7 2 6 3 5 4 3 5 4 6 2 8 1 9 73 10 74 11 75 12 76 13
REMARK SMILES IDX 77 14 78 16 79 17 82 18 80 19 81 20 83 21 84 22 9 23 10 24
REMARK SMILES IDX 11 25 12 27 13 28 14 29 72 30 15 31 71 32 16 33 17 34 18 35
REMARK SMILES IDX 65 36 19 37 70 38 64 39 66 40 20 41 69 42 63 43 62 44 21 46
REMARK SMILES IDX 51 47 32 48 50 49 33 50 36 51 49 52 67 53 34 54 35 55 48 57
REMARK SMILES IDX 68 58 37 59 22 60 23 61 31 62 24 63 30 64 25 65 26 66 27 67
REMARK SMILES IDX 28 68 29 69 52 70 53 71 61 72 54 73 60 74 55 75 56 76 57 77
REMARK SMILES IDX 58 78 59 79 38 80 39 81 47 82 40 83 46 84 41 85 42 86 43 87
REMARK SMILES IDX 44 88 45 89
REMARK H PARENT 5 7 77 15 10 26 66 45 36 56
REMARK Flexibility Score: inf
ROOT
ATOM      1  C   UNL A   1      33.583  33.618  27.697  1.00  0.00     0.023 C 
ENDROOT
BRANCH   1   2
ATOM      2  C   UNL A   1      33.050  34.612  28.733  1.00  0.00     0.023 C 
BRANCH   2   3
ATOM      3  C   UNL A   1      34.060  34.957  29.835  1.00  0.00     0.116 C 
BRANCH   3   4
ATOM      4  N   UNL A   1      33.906  34.029  30.946  1.00  0.00    -0.352 N 
ATOM      5  C   UNL A   1      34.775  33.136  31.519  1.00  0.00     0.247 C 
ATOM      6  O   UNL A   1      34.312  32.195  32.155  1.00  0.00    -0.270 OA
ATOM      7  H   UNL A   1      33.015  34.046  31.363  1.00  0.00     0.163 HD
BRANCH   5   8
ATOM      8  C   UNL A   1      36.249  33.352  31.374  1.00  0.00     0.022 C 
ATOM      9  C   UNL A   1      36.974  32.573  30.311  1.00  0.00     0.051 C 
ATOM     10  C   UNL A   1      36.969  34.118  32.231  1.00  0.00     0.022 C 
ATOM     11  C   UNL A   1      38.280  34.696  31.799  1.00  0.00     0.051 C 
BRANCH  10  12
ATOM     12  C   UNL A   1      36.487  34.513  33.587  1.00  0.00     0.247 C 
ATOM     13  O   UNL A   1      35.780  35.495  33.778  1.00  0.00    -0.270 OA
ATOM     14  N   UNL A   1      36.801  33.670  34.636  1.00  0.00    -0.349 N 
ATOM     15  H   UNL A   1      36.040  33.289  35.133  1.00  0.00     0.164 HD
BRANCH  14  16
ATOM     16  C   UNL A   1      38.143  33.275  35.096  1.00  0.00     0.088 C 
ATOM     17  C   UNL A   1      38.244  33.443  36.637  1.00  0.00     0.025 C 
ATOM     18  C   UNL A   1      38.615  31.809  34.816  1.00  0.00    -0.015 C 
ATOM     19  C   UNL A   1      38.906  32.188  37.185  1.00  0.00     0.003 C 
ATOM     20  C   UNL A   1      38.523  31.112  36.188  1.00  0.00     0.008 C 
ATOM     21  C   UNL A   1      37.792  31.017  33.796  1.00  0.00     0.013 C 
ATOM     22  C   UNL A   1      40.102  31.815  34.371  1.00  0.00     0.013 C 
ENDBRANCH  14  16
ENDBRANCH  10  12
ENDBRANCH   5   8
ENDBRANCH   3   4
ENDBRANCH   2   3
ENDBRANCH   1   2
BRANCH   1  23
ATOM     23  C   UNL A   1      34.289  32.403  28.287  1.00  0.00     0.116 C 
BRANCH  23  24
ATOM     24  N   UNL A   1      33.681  31.139  27.895  1.00  0.00    -0.352 N 
ATOM     25  C   UNL A   1      34.287  29.911  27.787  1.00  0.00     0.251 C 
ATOM     26  H   UNL A   1      32.721  31.168  27.682  1.00  0.00     0.163 HD
ATOM     27  O   UNL A   1      33.671  28.949  27.338  1.00  0.00    -0.269 OA
BRANCH  25  28
ATOM     28  C   UNL A   1      35.702  29.783  28.182  1.00  0.00     0.039 A 
ATOM     29  C   UNL A   1      36.007  29.355  29.475  1.00  0.00     0.014 A 
ATOM     30  C   UNL A   1      36.715  30.016  27.249  1.00  0.00     0.014 A 
ATOM     31  C   UNL A   1      37.336  29.100  29.815  1.00  0.00     0.010 A 
ATOM     32  C   UNL A   1      38.028  29.693  27.569  1.00  0.00     0.010 A 
ATOM     33  C   UNL A   1      38.351  29.233  28.854  1.00  0.00    -0.014 A 
BRANCH  33  34
ATOM     34  C   UNL A   1      39.759  28.894  29.172  1.00  0.00     0.031 A 
ATOM     35  C   UNL A   1      40.653  29.920  29.812  1.00  0.00     0.074 A 
ATOM     36  C   UNL A   1      40.249  27.687  28.826  1.00  0.00     0.049 A 
ATOM     37  N   UNL A   1      41.921  29.834  30.116  1.00  0.00    -0.248 NA
ATOM     38  C   UNL A   1      40.048  31.227  30.124  1.00  0.00     0.031 C 
ATOM     39  C   UNL A   1      39.493  26.624  28.157  1.00  0.00     0.029 A 
ATOM     40  N   UNL A   1      41.503  27.152  28.980  1.00  0.00    -0.354 N 
ATOM     41  C   UNL A   1      42.270  31.074  30.637  1.00  0.00     0.074 A 
ATOM     42  C   UNL A   1      41.094  31.911  30.560  1.00  0.00     0.031 C 
ATOM     43  C   UNL A   1      40.291  25.557  27.984  1.00  0.00     0.029 A 
ATOM     44  C   UNL A   1      41.622  25.871  28.493  1.00  0.00     0.049 A 
ATOM     45  H   UNL A   1      42.248  27.638  29.401  1.00  0.00     0.167 HD
ATOM     46  C   UNL A   1      43.457  31.473  31.153  1.00  0.00     0.031 A 
ATOM     47  C   UNL A   1      42.685  25.044  28.456  1.00  0.00     0.031 A 
ATOM     48  C   UNL A   1      44.619  30.630  31.239  1.00  0.00     0.049 A 
ATOM     49  C   UNL A   1      43.993  25.509  29.037  1.00  0.00     0.074 A 
ATOM     50  C   UNL A   1      45.851  30.918  31.798  1.00  0.00     0.029 A 
ATOM     51  N   UNL A   1      44.693  29.333  30.752  1.00  0.00    -0.354 N 
ATOM     52  N   UNL A   1      44.283  26.662  29.592  1.00  0.00    -0.248 NA
ATOM     53  C   UNL A   1      45.111  24.558  29.000  1.00  0.00     0.031 C 
ATOM     54  C   UNL A   1      46.686  29.814  31.605  1.00  0.00     0.029 A 
ATOM     55  C   UNL A   1      45.957  28.815  30.979  1.00  0.00     0.049 A 
ATOM     56  H   UNL A   1      43.957  28.852  30.310  1.00  0.00     0.167 HD
ATOM     57  C   UNL A   1      45.610  26.564  29.995  1.00  0.00     0.074 A 
ATOM     58  C   UNL A   1      46.060  25.235  29.634  1.00  0.00     0.031 C 
ATOM     59  C   UNL A   1      46.386  27.489  30.613  1.00  0.00     0.031 A 
BRANCH  46  60
ATOM     60  C   UNL A   1      43.554  32.887  31.661  1.00  0.00    -0.014 A 
ATOM     61  C   UNL A   1      43.330  33.189  33.017  1.00  0.00     0.010 A 
ATOM     62  C   UNL A   1      43.907  33.925  30.779  1.00  0.00     0.010 A 
ATOM     63  C   UNL A   1      43.413  34.507  33.473  1.00  0.00     0.020 A 
ATOM     64  C   UNL A   1      44.021  35.241  31.238  1.00  0.00     0.020 A 
ATOM     65  C   UNL A   1      43.755  35.525  32.578  1.00  0.00     0.054 A 
BRANCH  65  66
ATOM     66  S   UNL A   1      43.878  37.224  33.202  1.00  0.00     0.124 S 
ATOM     67  O   UNL A   1      45.147  37.188  33.924  1.00  0.00    -0.237 OA
ATOM     68  O   UNL A   1      43.877  38.017  31.975  1.00  0.00    -0.237 OA
ATOM     69  O   UNL A   1      42.690  37.373  34.039  1.00  0.00    -0.744 OA
ENDBRANCH  65  66
ENDBRANCH  46  60
BRANCH  47  70
ATOM     70  C   UNL A   1      42.549  23.684  27.866  1.00  0.00    -0.014 A 
ATOM     71  C   UNL A   1      42.148  22.598  28.663  1.00  0.00     0.010 A 
ATOM     72  C   UNL A   1      42.807  23.470  26.499  1.00  0.00     0.010 A 
ATOM     73  C   UNL A   1      42.025  21.319  28.110  1.00  0.00     0.020 A 
ATOM     74  C   UNL A   1      42.660  22.199  25.937  1.00  0.00     0.020 A 
ATOM     75  C   UNL A   1      42.280  21.129  26.749  1.00  0.00     0.054 A 
BRANCH  75  76
ATOM     76  S   UNL A   1      42.066  19.471  26.044  1.00  0.00     0.124 S 
ATOM     77  O   UNL A   1      42.555  18.616  27.122  1.00  0.00    -0.237 OA
ATOM     78  O   UNL A   1      40.628  19.416  25.796  1.00  0.00    -0.237 OA
ATOM     79  O   UNL A   1      42.897  19.501  24.842  1.00  0.00    -0.744 OA
ENDBRANCH  75  76
ENDBRANCH  47  70
BRANCH  59  80
ATOM     80  C   UNL A   1      47.791  27.087  30.972  1.00  0.00    -0.014 A 
ATOM     81  C   UNL A   1      48.086  26.490  32.209  1.00  0.00     0.010 A 
ATOM     82  C   UNL A   1      48.821  27.256  30.028  1.00  0.00     0.010 A 
ATOM     83  C   UNL A   1      49.392  26.094  32.508  1.00  0.00     0.020 A 
ATOM     84  C   UNL A   1      50.123  26.837  30.312  1.00  0.00     0.020 A 
ATOM     85  C   UNL A   1      50.402  26.271  31.556  1.00  0.00     0.054 A 
BRANCH  85  86
ATOM     86  S   UNL A   1      52.081  25.705  31.949  1.00  0.00     0.124 S 
ATOM     87  O   UNL A   1      52.810  26.050  30.732  1.00  0.00    -0.237 OA
ATOM     88  O   UNL A   1      52.418  26.496  33.130  1.00  0.00    -0.237 OA
ATOM     89  O   UNL A   1      51.916  24.273  32.192  1.00  0.00    -0.744 OA
ENDBRANCH  85  86
ENDBRANCH  59  80
ENDBRANCH  33  34
ENDBRANCH  25  28
ENDBRANCH  23  24
ENDBRANCH   1  23
TORSDOF 16
ENDMDL
MODEL 3
REMARK VINA RESULT:     -10.6      2.721      9.416
REMARK SMILES C/C(C(=O)NCCCCNC(=O)c1ccc(-c2c3nc(c(-c4ccc(S(=O)(=O)[O-])cc4)c4ccc([nH]4)c(-c4ccc(S(=O)(=O)[O-])cc4)c4nc(c(-c5ccc(S(=O)(=O)[O-])cc5)c5ccc2[nH]5)C=C4)C=C3)cc1)=C(\C)C(=O)N[C@H]1CCCC1(C)C
REMARK SMILES IDX 8 1 7 2 6 3 5 4 3 5 4 6 2 8 1 9 73 10 74 11 75 12 76 13
REMARK SMILES IDX 77 14 78 16 79 17 82 18 80 19 81 20 83 21 84 22 9 23 10 24
REMARK SMILES IDX 11 25 12 27 13 28 14 29 72 30 15 31 71 32 16 33 17 34 18 35
REMARK SMILES IDX 65 36 19 37 70 38 64 39 66 40 20 41 69 42 63 43 62 44 21 46
REMARK SMILES IDX 51 47 32 48 50 49 33 50 36 51 49 52 67 53 34 54 35 55 48 57
REMARK SMILES IDX 68 58 37 59 22 60 23 61 31 62 24 63 30 64 25 65 26 66 27 67
REMARK SMILES IDX 28 68 29 69 52 70 53 71 61 72 54 73 60 74 55 75 56 76 57 77
REMARK SMILES IDX 58 78 59 79 38 80 39 81 47 82 40 83 46 84 41 85 42 86 43 87
REMARK SMILES IDX 44 88 45 89
REMARK H PARENT 5 7 77 15 10 26 66 45 36 56
REMARK Flexibility Score: inf
ROOT
ATOM      1  C   UNL A   1      32.372  27.902  26.248  1.00  0.00     0.023 C 
ENDROOT
BRANCH   1   2
ATOM      2  C   UNL A   1      31.383  26.892  26.840  1.00  0.00     0.023 C 
BRANCH   2   3
ATOM      3  C   UNL A   1      31.351  25.551  26.096  1.00  0.00     0.116 C 
BRANCH   3   4
ATOM      4  N   UNL A   1      31.899  24.506  26.949  1.00  0.00    -0.352 N 
ATOM      5  C   UNL A   1      32.777  23.483  26.694  1.00  0.00     0.247 C 
ATOM      6  O   UNL A   1      32.772  22.509  27.439  1.00  0.00    -0.270 OA
ATOM      7  H   UNL A   1      31.580  24.539  27.879  1.00  0.00     0.163 HD
BRANCH   5   8
ATOM      8  C   UNL A   1      33.724  23.601  25.541  1.00  0.00     0.022 C 
ATOM      9  C   UNL A   1      34.709  24.736  25.552  1.00  0.00     0.051 C 
ATOM     10  C   UNL A   1      33.648  22.809  24.442  1.00  0.00     0.022 C 
ATOM     11  C   UNL A   1      34.850  22.619  23.573  1.00  0.00     0.051 C 
BRANCH  10  12
ATOM     12  C   UNL A   1      32.437  22.015  24.080  1.00  0.00     0.247 C 
ATOM     13  O   UNL A   1      31.301  22.467  24.162  1.00  0.00    -0.270 OA
ATOM     14  N   UNL A   1      32.646  20.753  23.557  1.00  0.00    -0.349 N 
ATOM     15  H   UNL A   1      32.288  20.591  22.654  1.00  0.00     0.164 HD
BRANCH  14  16
ATOM     16  C   UNL A   1      33.343  19.624  24.196  1.00  0.00     0.088 C 
ATOM     17  C   UNL A   1      32.966  19.556  25.702  1.00  0.00     0.025 C 
ATOM     18  C   UNL A   1      33.072  18.184  23.645  1.00  0.00    -0.015 C 
ATOM     19  C   UNL A   1      32.661  18.102  26.025  1.00  0.00     0.003 C 
ATOM     20  C   UNL A   1      32.165  17.536  24.709  1.00  0.00     0.008 C 
ATOM     21  C   UNL A   1      32.381  18.103  22.281  1.00  0.00     0.013 C 
ATOM     22  C   UNL A   1      34.403  17.388  23.587  1.00  0.00     0.013 C 
ENDBRANCH  14  16
ENDBRANCH  10  12
ENDBRANCH   5   8
ENDBRANCH   3   4
ENDBRANCH   2   3
ENDBRANCH   1   2
BRANCH   1  23
ATOM     23  C   UNL A   1      33.430  28.401  27.226  1.00  0.00     0.116 C 
BRANCH  23  24
ATOM     24  N   UNL A   1      33.351  29.833  27.476  1.00  0.00    -0.352 N 
ATOM     25  C   UNL A   1      34.329  30.657  27.977  1.00  0.00     0.251 C 
ATOM     26  H   UNL A   1      32.492  30.264  27.259  1.00  0.00     0.163 HD
ATOM     27  O   UNL A   1      34.084  31.830  28.238  1.00  0.00    -0.269 OA
BRANCH  25  28
ATOM     28  C   UNL A   1      35.667  30.090  28.234  1.00  0.00     0.039 A 
ATOM     29  C   UNL A   1      36.619  30.116  27.214  1.00  0.00     0.014 A 
ATOM     30  C   UNL A   1      35.991  29.605  29.503  1.00  0.00     0.014 A 
ATOM     31  C   UNL A   1      37.925  29.708  27.488  1.00  0.00     0.010 A 
ATOM     32  C   UNL A   1      37.309  29.268  29.791  1.00  0.00     0.010 A 
ATOM     33  C   UNL A   1      38.287  29.316  28.787  1.00  0.00    -0.014 A 
BRANCH  33  34
ATOM     34  C   UNL A   1      39.686  28.953  29.118  1.00  0.00     0.031 A 
ATOM     35  C   UNL A   1      40.593  29.965  29.762  1.00  0.00     0.074 A 
ATOM     36  C   UNL A   1      40.157  27.736  28.779  1.00  0.00     0.049 A 
ATOM     37  N   UNL A   1      41.858  29.857  30.077  1.00  0.00    -0.248 NA
ATOM     38  C   UNL A   1      40.010  31.283  30.065  1.00  0.00     0.031 C 
ATOM     39  C   UNL A   1      39.387  26.685  28.108  1.00  0.00     0.029 A 
ATOM     40  N   UNL A   1      41.400  27.179  28.946  1.00  0.00    -0.354 N 
ATOM     41  C   UNL A   1      42.225  31.092  30.596  1.00  0.00     0.074 A 
ATOM     42  C   UNL A   1      41.065  31.950  30.508  1.00  0.00     0.031 C 
ATOM     43  C   UNL A   1      40.167  25.604  27.944  1.00  0.00     0.029 A 
ATOM     44  C   UNL A   1      41.499  25.895  28.463  1.00  0.00     0.049 A 
ATOM     45  H   UNL A   1      42.150  27.653  29.371  1.00  0.00     0.167 HD
ATOM     46  C   UNL A   1      43.414  31.471  31.121  1.00  0.00     0.031 A 
ATOM     47  C   UNL A   1      42.547  25.048  28.438  1.00  0.00     0.031 A 
ATOM     48  C   UNL A   1      44.560  30.607  31.219  1.00  0.00     0.049 A 
ATOM     49  C   UNL A   1      43.858  25.491  29.028  1.00  0.00     0.074 A 
ATOM     50  C   UNL A   1      45.793  30.874  31.787  1.00  0.00     0.029 A 
ATOM     51  N   UNL A   1      44.614  29.307  30.737  1.00  0.00    -0.354 N 
ATOM     52  N   UNL A   1      44.165  26.640  29.582  1.00  0.00    -0.248 NA
ATOM     53  C   UNL A   1      44.959  24.520  29.003  1.00  0.00     0.031 C 
ATOM     54  C   UNL A   1      46.609  29.755  31.605  1.00  0.00     0.029 A 
ATOM     55  C   UNL A   1      45.866  28.767  30.975  1.00  0.00     0.049 A 
ATOM     56  H   UNL A   1      43.873  28.839  30.291  1.00  0.00     0.167 HD
ATOM     57  C   UNL A   1      45.486  26.519  29.996  1.00  0.00     0.074 A 
ATOM     58  C   UNL A   1      45.915  25.181  29.643  1.00  0.00     0.031 C 
ATOM     59  C   UNL A   1      46.275  27.432  30.617  1.00  0.00     0.031 A 
BRANCH  46  60
ATOM     60  C   UNL A   1      43.533  32.884  31.625  1.00  0.00    -0.014 A 
ATOM     61  C   UNL A   1      43.999  33.916  30.789  1.00  0.00     0.010 A 
ATOM     62  C   UNL A   1      43.145  33.195  32.941  1.00  0.00     0.010 A 
ATOM     63  C   UNL A   1      44.115  35.222  31.272  1.00  0.00     0.020 A 
ATOM     64  C   UNL A   1      43.232  34.506  33.419  1.00  0.00     0.020 A 
ATOM     65  C   UNL A   1      43.733  35.507  32.586  1.00  0.00     0.054 A 
BRANCH  65  66
ATOM     66  S   UNL A   1      43.874  37.215  33.179  1.00  0.00     0.124 S 
ATOM     67  O   UNL A   1      43.823  37.973  31.931  1.00  0.00    -0.237 OA
ATOM     68  O   UNL A   1      42.704  37.352  34.043  1.00  0.00    -0.237 OA
ATOM     69  O   UNL A   1      45.161  37.239  33.869  1.00  0.00    -0.744 OA
ENDBRANCH  65  66
ENDBRANCH  46  60
BRANCH  47  70
ATOM     70  C   UNL A   1      42.391  23.689  27.851  1.00  0.00    -0.014 A 
ATOM     71  C   UNL A   1      42.747  23.445  26.513  1.00  0.00     0.010 A 
ATOM     72  C   UNL A   1      41.900  22.627  28.632  1.00  0.00     0.010 A 
ATOM     73  C   UNL A   1      42.596  22.169  25.960  1.00  0.00     0.020 A 
ATOM     74  C   UNL A   1      41.773  21.344  28.092  1.00  0.00     0.020 A 
ATOM     75  C   UNL A   1      42.112  21.126  26.755  1.00  0.00     0.054 A 
BRANCH  75  76
ATOM     76  S   UNL A   1      41.972  19.468  26.030  1.00  0.00     0.124 S 
ATOM     77  O   UNL A   1      40.542  19.381  25.746  1.00  0.00    -0.237 OA
ATOM     78  O   UNL A   1      42.845  19.559  24.863  1.00  0.00    -0.237 OA
ATOM     79  O   UNL A   1      42.454  18.590  27.094  1.00  0.00    -0.744 OA
ENDBRANCH  75  76
ENDBRANCH  47  70
BRANCH  59  80
ATOM     80  C   UNL A   1      47.669  27.006  30.989  1.00  0.00    -0.014 A 
ATOM     81  C   UNL A   1      47.936  26.371  32.214  1.00  0.00     0.010 A 
ATOM     82  C   UNL A   1      48.717  27.191  30.068  1.00  0.00     0.010 A 
ATOM     83  C   UNL A   1      49.233  25.954  32.524  1.00  0.00     0.020 A 
ATOM     84  C   UNL A   1      50.009  26.751  30.362  1.00  0.00     0.020 A 
ATOM     85  C   UNL A   1      50.261  26.147  31.595  1.00  0.00     0.054 A 
BRANCH  85  86
ATOM     86  S   UNL A   1      51.927  25.553  32.001  1.00  0.00     0.124 S 
ATOM     87  O   UNL A   1      52.215  26.276  33.236  1.00  0.00    -0.237 OA
ATOM     88  O   UNL A   1      51.728  24.113  32.147  1.00  0.00    -0.237 OA
ATOM     89  O   UNL A   1      52.728  25.951  30.845  1.00  0.00    -0.744 OA
ENDBRANCH  85  86
ENDBRANCH  59  80
ENDBRANCH  33  34
ENDBRANCH  25  28
ENDBRANCH  23  24
ENDBRANCH   1  23
TORSDOF 16
ENDMDL
