MODEL 1
REMARK VINA RESULT:     -11.3      0.000      0.000
REMARK SMILES CCOc1ccc2nc(S[C@@H](C(=O)NCCCCNC(=O)c3ccc(-c4c5nc(c(-c6ccc(S(=O)(=O)[O-])cc6)c6ccc([nH]6)c(-c6ccc(S(=O)(=O)[O-])cc6)c6nc(c(-c7ccc(S(=O)(=O)[O-])cc7)c7ccc4[nH]7)C=C6)C=C5)cc3)c3ccccc3)[nH]c2c1
REMARK SMILES IDX 16 1 15 2 14 3 12 4 13 5 11 7 10 8 9 9 4 10 5 11 90 12 6 13
REMARK SMILES IDX 89 14 7 15 88 16 8 17 3 19 2 20 1 21 82 22 83 23 87 24 84 25
REMARK SMILES IDX 86 26 85 27 17 28 18 29 19 30 20 31 21 33 22 34 23 35 81 36
REMARK SMILES IDX 24 37 80 38 25 39 26 40 27 41 74 42 28 43 79 44 73 45 75 46
REMARK SMILES IDX 29 47 78 48 72 49 71 50 30 52 60 53 41 54 59 55 42 56 45 57
REMARK SMILES IDX 58 58 76 59 43 60 44 61 57 63 77 64 46 65 31 66 32 67 40 68
REMARK SMILES IDX 33 69 39 70 34 71 35 72 36 73 37 74 38 75 61 76 62 77 70 78
REMARK SMILES IDX 63 79 69 80 64 81 65 82 66 83 67 84 68 85 47 86 48 87 56 88
REMARK SMILES IDX 49 89 55 90 50 91 51 92 52 93 53 94 54 95
REMARK H PARENT 14 6 88 18 19 32 75 51 45 62
REMARK Flexibility Score: inf
ROOT
ATOM      1  C   UNL A   1      37.056  22.179  24.401  1.00  0.00     0.023 C 
ENDROOT
BRANCH   1   2
ATOM      2  C   UNL A   1      36.085  23.034  25.222  1.00  0.00     0.116 C 
BRANCH   2   3
ATOM      3  N   UNL A   1      35.518  22.286  26.333  1.00  0.00    -0.355 N 
ATOM      4  C   UNL A   1      34.275  21.730  26.460  1.00  0.00     0.238 C 
ATOM      5  O   UNL A   1      33.933  21.363  27.591  1.00  0.00    -0.273 OA
ATOM      6  H   UNL A   1      36.116  22.163  27.105  1.00  0.00     0.163 HD
BRANCH   4   7
ATOM      7  C   UNL A   1      33.335  21.577  25.243  1.00  0.00     0.174 C 
BRANCH   7   8
ATOM      8  S   UNL A   1      31.669  22.160  25.679  1.00  0.00    -0.070 SA
BRANCH   8   9
ATOM      9  C   UNL A   1      31.489  23.730  24.976  1.00  0.00     0.167 A 
ATOM     10  C   UNL A   1      30.607  27.549  22.733  1.00  0.00     0.121 A 
ATOM     11  C   UNL A   1      31.886  27.837  23.213  1.00  0.00     0.049 A 
ATOM     12  C   UNL A   1      29.956  26.351  23.050  1.00  0.00     0.074 A 
ATOM     13  C   UNL A   1      32.593  26.899  23.971  1.00  0.00     0.034 A 
ATOM     14  C   UNL A   1      30.681  25.437  23.819  1.00  0.00     0.070 A 
ATOM     15  C   UNL A   1      31.976  25.677  24.266  1.00  0.00     0.090 A 
ATOM     16  N   UNL A   1      30.378  24.195  24.323  1.00  0.00    -0.333 N 
ATOM     17  N   UNL A   1      32.462  24.609  24.970  1.00  0.00    -0.223 NA
ATOM     18  H   UNL A   1      29.518  23.725  24.231  1.00  0.00     0.169 HD
BRANCH  10  19
ATOM     19  O   UNL A   1      29.906  28.490  22.024  1.00  0.00    -0.494 OA
BRANCH  19  20
ATOM     20  C   UNL A   1      29.220  29.425  22.865  1.00  0.00     0.226 C 
ATOM     21  C   UNL A   1      27.715  29.196  22.854  1.00  0.00     0.049 C 
ENDBRANCH  19  20
ENDBRANCH  10  19
ENDBRANCH   8   9
ENDBRANCH   7   8
BRANCH   7  22
ATOM     22  C   UNL A   1      33.403  20.185  24.593  1.00  0.00    -0.025 A 
ATOM     23  C   UNL A   1      32.407  19.827  23.664  1.00  0.00     0.005 A 
ATOM     24  C   UNL A   1      34.396  19.228  24.875  1.00  0.00     0.005 A 
ATOM     25  C   UNL A   1      32.426  18.585  23.021  1.00  0.00     0.000 A 
ATOM     26  C   UNL A   1      34.420  17.991  24.225  1.00  0.00     0.000 A 
ATOM     27  C   UNL A   1      33.437  17.670  23.297  1.00  0.00     0.000 A 
ENDBRANCH   7  22
ENDBRANCH   4   7
ENDBRANCH   2   3
ENDBRANCH   1   2
BRANCH   1  28
ATOM     28  C   UNL A   1      37.630  20.963  25.134  1.00  0.00     0.023 C 
BRANCH  28  29
ATOM     29  C   UNL A   1      38.978  21.183  25.813  1.00  0.00     0.116 C 
BRANCH  29  30
ATOM     30  N   UNL A   1      39.796  19.982  25.863  1.00  0.00    -0.352 N 
ATOM     31  C   UNL A   1      41.150  19.864  26.076  1.00  0.00     0.251 C 
ATOM     32  H   UNL A   1      39.315  19.135  25.725  1.00  0.00     0.163 HD
ATOM     33  O   UNL A   1      41.693  18.769  25.974  1.00  0.00    -0.269 OA
BRANCH  31  34
ATOM     34  C   UNL A   1      41.952  21.066  26.393  1.00  0.00     0.039 A 
ATOM     35  C   UNL A   1      42.369  21.891  25.346  1.00  0.00     0.014 A 
ATOM     36  C   UNL A   1      42.269  21.392  27.714  1.00  0.00     0.014 A 
ATOM     37  C   UNL A   1      43.035  23.087  25.630  1.00  0.00     0.010 A 
ATOM     38  C   UNL A   1      42.874  22.613  27.999  1.00  0.00     0.010 A 
ATOM     39  C   UNL A   1      43.254  23.478  26.961  1.00  0.00    -0.014 A 
BRANCH  39  40
ATOM     40  C   UNL A   1      43.847  24.799  27.291  1.00  0.00     0.031 A 
ATOM     41  C   UNL A   1      42.977  25.918  27.796  1.00  0.00     0.074 A 
ATOM     42  C   UNL A   1      45.157  25.016  27.058  1.00  0.00     0.049 A 
ATOM     43  N   UNL A   1      43.300  27.160  28.053  1.00  0.00    -0.248 NA
ATOM     44  C   UNL A   1      41.556  25.606  28.017  1.00  0.00     0.031 C 
ATOM     45  C   UNL A   1      46.101  24.026  26.534  1.00  0.00     0.029 A 
ATOM     46  N   UNL A   1      45.921  26.145  27.223  1.00  0.00    -0.354 N 
ATOM     47  C   UNL A   1      42.122  27.782  28.450  1.00  0.00     0.074 A 
ATOM     48  C   UNL A   1      41.071  26.792  28.358  1.00  0.00     0.031 C 
ATOM     49  C   UNL A   1      47.319  24.584  26.440  1.00  0.00     0.029 A 
ATOM     50  C   UNL A   1      47.236  25.980  26.856  1.00  0.00     0.049 A 
ATOM     51  H   UNL A   1      45.561  26.993  27.570  1.00  0.00     0.167 HD
ATOM     52  C   UNL A   1      41.935  29.057  28.869  1.00  0.00     0.031 A 
ATOM     53  C   UNL A   1      48.261  26.855  26.844  1.00  0.00     0.031 A 
ATOM     54  C   UNL A   1      42.984  30.036  28.971  1.00  0.00     0.049 A 
ATOM     55  C   UNL A   1      48.026  28.269  27.299  1.00  0.00     0.074 A 
ATOM     56  C   UNL A   1      42.903  31.337  29.436  1.00  0.00     0.029 A 
ATOM     57  N   UNL A   1      44.303  29.827  28.597  1.00  0.00    -0.354 N 
ATOM     58  N   UNL A   1      46.915  28.821  27.728  1.00  0.00    -0.248 NA
ATOM     59  C   UNL A   1      49.182  29.176  27.275  1.00  0.00     0.031 C 
ATOM     60  C   UNL A   1      44.163  31.929  29.302  1.00  0.00     0.029 A 
ATOM     61  C   UNL A   1      45.041  30.981  28.802  1.00  0.00     0.049 A 
ATOM     62  H   UNL A   1      44.662  28.982  28.241  1.00  0.00     0.167 HD
ATOM     63  C   UNL A   1      47.245  30.134  28.047  1.00  0.00     0.074 A 
ATOM     64  C   UNL A   1      48.660  30.289  27.774  1.00  0.00     0.031 C 
ATOM     65  C   UNL A   1      46.448  31.121  28.523  1.00  0.00     0.031 A 
BRANCH  52  66
ATOM     66  C   UNL A   1      40.536  29.465  29.245  1.00  0.00    -0.014 A 
ATOM     67  C   UNL A   1      40.141  29.544  30.594  1.00  0.00     0.010 A 
ATOM     68  C   UNL A   1      39.613  29.810  28.241  1.00  0.00     0.010 A 
ATOM     69  C   UNL A   1      38.838  29.917  30.928  1.00  0.00     0.020 A 
ATOM     70  C   UNL A   1      38.316  30.210  28.573  1.00  0.00     0.020 A 
ATOM     71  C   UNL A   1      37.930  30.243  29.915  1.00  0.00     0.054 A 
BRANCH  71  72
ATOM     72  S   UNL A   1      36.248  30.737  30.380  1.00  0.00     0.124 S 
ATOM     73  O   UNL A   1      36.017  29.929  31.575  1.00  0.00    -0.237 OA
ATOM     74  O   UNL A   1      36.386  32.172  30.609  1.00  0.00    -0.237 OA
ATOM     75  O   UNL A   1      35.445  30.369  29.215  1.00  0.00    -0.744 OA
ENDBRANCH  71  72
ENDBRANCH  52  66
BRANCH  53  76
ATOM     76  C   UNL A   1      49.608  26.413  26.395  1.00  0.00    -0.014 A 
ATOM     77  C   UNL A   1      50.013  26.611  25.063  1.00  0.00     0.010 A 
ATOM     78  C   UNL A   1      50.500  25.807  27.298  1.00  0.00     0.010 A 
ATOM     79  C   UNL A   1      51.280  26.197  24.639  1.00  0.00     0.020 A 
ATOM     80  C   UNL A   1      51.776  25.415  26.884  1.00  0.00     0.020 A 
ATOM     81  C   UNL A   1      52.154  25.602  25.553  1.00  0.00     0.054 A 
BRANCH  81  82
ATOM     82  S   UNL A   1      53.811  25.121  24.993  1.00  0.00     0.124 S 
ATOM     83  O   UNL A   1      54.653  25.619  26.076  1.00  0.00    -0.237 OA
ATOM     84  O   UNL A   1      53.702  23.668  24.893  1.00  0.00    -0.237 OA
ATOM     85  O   UNL A   1      53.955  25.816  23.716  1.00  0.00    -0.744 OA
ENDBRANCH  81  82
ENDBRANCH  53  76
BRANCH  65  86
ATOM     86  C   UNL A   1      47.088  32.453  28.807  1.00  0.00    -0.014 A 
ATOM     87  C   UNL A   1      46.956  33.529  27.913  1.00  0.00     0.010 A 
ATOM     88  C   UNL A   1      47.780  32.646  30.018  1.00  0.00     0.010 A 
ATOM     89  C   UNL A   1      47.524  34.770  28.213  1.00  0.00     0.020 A 
ATOM     90  C   UNL A   1      48.328  33.893  30.332  1.00  0.00     0.020 A 
ATOM     91  C   UNL A   1      48.205  34.944  29.422  1.00  0.00     0.054 A 
BRANCH  91  92
ATOM     92  S   UNL A   1      48.886  36.580  29.813  1.00  0.00     0.124 S 
ATOM     93  O   UNL A   1      50.015  36.668  28.891  1.00  0.00    -0.237 OA
ATOM     94  O   UNL A   1      47.765  37.472  29.523  1.00  0.00    -0.237 OA
ATOM     95  O   UNL A   1      49.242  36.477  31.226  1.00  0.00    -0.744 OA
ENDBRANCH  91  92
ENDBRANCH  65  86
ENDBRANCH  39  40
ENDBRANCH  31  34
ENDBRANCH  29  30
ENDBRANCH  28  29
ENDBRANCH   1  28
TORSDOF 19
ENDMDL
MODEL 2
REMARK VINA RESULT:     -11.0      0.944      8.100
REMARK SMILES CCOc1ccc2nc(S[C@@H](C(=O)NCCCCNC(=O)c3ccc(-c4c5nc(c(-c6ccc(S(=O)(=O)[O-])cc6)c6ccc([nH]6)c(-c6ccc(S(=O)(=O)[O-])cc6)c6nc(c(-c7ccc(S(=O)(=O)[O-])cc7)c7ccc4[nH]7)C=C6)C=C5)cc3)c3ccccc3)[nH]c2c1
REMARK SMILES IDX 16 1 15 2 14 3 12 4 13 5 11 7 10 8 9 9 4 10 5 11 90 12 6 13
REMARK SMILES IDX 89 14 7 15 88 16 8 17 3 19 2 20 1 21 82 22 83 23 87 24 84 25
REMARK SMILES IDX 86 26 85 27 17 28 18 29 19 30 20 31 21 33 22 34 23 35 81 36
REMARK SMILES IDX 24 37 80 38 25 39 26 40 27 41 74 42 28 43 79 44 73 45 75 46
REMARK SMILES IDX 29 47 78 48 72 49 71 50 30 52 60 53 41 54 59 55 42 56 45 57
REMARK SMILES IDX 58 58 76 59 43 60 44 61 57 63 77 64 46 65 31 66 32 67 40 68
REMARK SMILES IDX 33 69 39 70 34 71 35 72 36 73 37 74 38 75 61 76 62 77 70 78
REMARK SMILES IDX 63 79 69 80 64 81 65 82 66 83 67 84 68 85 47 86 48 87 56 88
REMARK SMILES IDX 49 89 55 90 50 91 51 92 52 93 53 94 54 95
REMARK H PARENT 14 6 88 18 19 32 75 51 45 62
REMARK Flexibility Score: inf
ROOT
ATOM      1  C   UNL A   1      37.222  21.892  24.374  1.00  0.00     0.023 C 
ENDROOT
BRANCH   1   2
ATOM      2  C   UNL A   1      35.993  22.654  24.881  1.00  0.00     0.116 C 
BRANCH   2   3
ATOM      3  N   UNL A   1      35.400  22.007  26.040  1.00  0.00    -0.355 N 
ATOM      4  C   UNL A   1      34.153  21.465  26.189  1.00  0.00     0.238 C 
ATOM      5  O   UNL A   1      33.785  21.200  27.339  1.00  0.00    -0.273 OA
ATOM      6  H   UNL A   1      35.981  21.951  26.833  1.00  0.00     0.163 HD
BRANCH   4   7
ATOM      7  C   UNL A   1      33.239  21.207  24.969  1.00  0.00     0.174 C 
BRANCH   7   8
ATOM      8  S   UNL A   1      31.537  21.712  25.362  1.00  0.00    -0.070 SA
BRANCH   8   9
ATOM      9  C   UNL A   1      31.454  23.422  25.120  1.00  0.00     0.167 A 
ATOM     10  C   UNL A   1      31.249  27.933  25.129  1.00  0.00     0.121 A 
ATOM     11  C   UNL A   1      30.629  27.663  23.908  1.00  0.00     0.049 A 
ATOM     12  C   UNL A   1      31.770  26.911  25.931  1.00  0.00     0.074 A 
ATOM     13  C   UNL A   1      30.439  26.346  23.479  1.00  0.00     0.034 A 
ATOM     14  C   UNL A   1      31.578  25.605  25.472  1.00  0.00     0.070 A 
ATOM     15  C   UNL A   1      30.916  25.306  24.286  1.00  0.00     0.090 A 
ATOM     16  N   UNL A   1      31.947  24.378  25.968  1.00  0.00    -0.333 N 
ATOM     17  N   UNL A   1      30.841  23.953  24.089  1.00  0.00    -0.223 NA
ATOM     18  H   UNL A   1      32.471  24.216  26.785  1.00  0.00     0.169 HD
BRANCH  10  19
ATOM     19  O   UNL A   1      31.466  29.228  25.523  1.00  0.00    -0.494 OA
BRANCH  19  20
ATOM     20  C   UNL A   1      32.843  29.502  25.809  1.00  0.00     0.226 C 
ATOM     21  C   UNL A   1      33.020  30.144  27.177  1.00  0.00     0.049 C 
ENDBRANCH  19  20
ENDBRANCH  10  19
ENDBRANCH   8   9
ENDBRANCH   7   8
BRANCH   7  22
ATOM     22  C   UNL A   1      33.394  19.796  24.381  1.00  0.00    -0.025 A 
ATOM     23  C   UNL A   1      34.543  19.050  24.710  1.00  0.00     0.005 A 
ATOM     24  C   UNL A   1      32.463  19.194  23.513  1.00  0.00     0.005 A 
ATOM     25  C   UNL A   1      34.730  17.752  24.226  1.00  0.00     0.000 A 
ATOM     26  C   UNL A   1      32.646  17.893  23.036  1.00  0.00     0.000 A 
ATOM     27  C   UNL A   1      33.778  17.171  23.395  1.00  0.00     0.000 A 
ENDBRANCH   7  22
ENDBRANCH   4   7
ENDBRANCH   2   3
ENDBRANCH   1   2
BRANCH   1  28
ATOM     28  C   UNL A   1      37.781  20.845  25.342  1.00  0.00     0.023 C 
BRANCH  28  29
ATOM     29  C   UNL A   1      39.117  21.197  25.989  1.00  0.00     0.116 C 
BRANCH  29  30
ATOM     30  N   UNL A   1      40.021  20.062  26.089  1.00  0.00    -0.352 N 
ATOM     31  C   UNL A   1      41.384  20.054  26.277  1.00  0.00     0.251 C 
ATOM     32  H   UNL A   1      39.600  19.176  26.011  1.00  0.00     0.163 HD
ATOM     33  O   UNL A   1      42.003  18.996  26.225  1.00  0.00    -0.269 OA
BRANCH  31  34
ATOM     34  C   UNL A   1      42.102  21.327  26.506  1.00  0.00     0.039 A 
ATOM     35  C   UNL A   1      42.401  22.137  25.407  1.00  0.00     0.014 A 
ATOM     36  C   UNL A   1      42.457  21.731  27.795  1.00  0.00     0.014 A 
ATOM     37  C   UNL A   1      42.982  23.392  25.611  1.00  0.00     0.010 A 
ATOM     38  C   UNL A   1      42.977  23.006  28.001  1.00  0.00     0.010 A 
ATOM     39  C   UNL A   1      43.235  23.854  26.913  1.00  0.00    -0.014 A 
BRANCH  39  40
ATOM     40  C   UNL A   1      43.737  25.230  27.160  1.00  0.00     0.031 A 
ATOM     41  C   UNL A   1      45.191  25.556  26.953  1.00  0.00     0.074 A 
ATOM     42  C   UNL A   1      42.899  26.165  27.650  1.00  0.00     0.049 A 
ATOM     43  N   UNL A   1      45.827  26.673  27.199  1.00  0.00    -0.248 NA
ATOM     44  C   UNL A   1      46.045  24.481  26.424  1.00  0.00     0.031 C 
ATOM     45  C   UNL A   1      41.475  25.965  27.931  1.00  0.00     0.029 A 
ATOM     46  N   UNL A   1      43.126  27.471  28.009  1.00  0.00    -0.354 N 
ATOM     47  C   UNL A   1      47.156  26.431  26.872  1.00  0.00     0.074 A 
ATOM     48  C   UNL A   1      47.242  25.049  26.451  1.00  0.00     0.031 C 
ATOM     49  C   UNL A   1      40.953  27.110  28.398  1.00  0.00     0.029 A 
ATOM     50  C   UNL A   1      42.009  28.113  28.490  1.00  0.00     0.049 A 
ATOM     51  H   UNL A   1      44.005  27.906  27.931  1.00  0.00     0.167 HD
ATOM     52  C   UNL A   1      48.207  27.286  26.903  1.00  0.00     0.031 A 
ATOM     53  C   UNL A   1      41.851  29.365  28.962  1.00  0.00     0.031 A 
ATOM     54  C   UNL A   1      48.117  28.663  27.311  1.00  0.00     0.049 A 
ATOM     55  C   UNL A   1      43.036  30.291  29.002  1.00  0.00     0.074 A 
ATOM     56  C   UNL A   1      49.115  29.622  27.324  1.00  0.00     0.029 A 
ATOM     57  N   UNL A   1      46.967  29.276  27.783  1.00  0.00    -0.354 N 
ATOM     58  N   UNL A   1      44.273  30.060  28.630  1.00  0.00    -0.248 NA
ATOM     59  C   UNL A   1      42.802  31.648  29.517  1.00  0.00     0.031 C 
ATOM     60  C   UNL A   1      48.578  30.804  27.846  1.00  0.00     0.029 A 
ATOM     61  C   UNL A   1      47.234  30.595  28.110  1.00  0.00     0.049 A 
ATOM     62  H   UNL A   1      46.089  28.839  27.870  1.00  0.00     0.167 HD
ATOM     63  C   UNL A   1      44.959  31.250  28.845  1.00  0.00     0.074 A 
ATOM     64  C   UNL A   1      43.998  32.201  29.365  1.00  0.00     0.031 C 
ATOM     65  C   UNL A   1      46.268  31.530  28.630  1.00  0.00     0.031 A 
BRANCH  52  66
ATOM     66  C   UNL A   1      49.550  26.749  26.486  1.00  0.00    -0.014 A 
ATOM     67  C   UNL A   1      50.396  26.114  27.413  1.00  0.00     0.010 A 
ATOM     68  C   UNL A   1      49.957  26.848  25.143  1.00  0.00     0.010 A 
ATOM     69  C   UNL A   1      51.643  25.627  27.015  1.00  0.00     0.020 A 
ATOM     70  C   UNL A   1      51.193  26.337  24.735  1.00  0.00     0.020 A 
ATOM     71  C   UNL A   1      52.037  25.746  25.678  1.00  0.00     0.054 A 
BRANCH  71  72
ATOM     72  S   UNL A   1      53.656  25.094  25.186  1.00  0.00     0.124 S 
ATOM     73  O   UNL A   1      53.791  25.617  23.829  1.00  0.00    -0.237 OA
ATOM     74  O   UNL A   1      54.554  25.680  26.177  1.00  0.00    -0.237 OA
ATOM     75  O   UNL A   1      53.488  23.645  25.281  1.00  0.00    -0.744 OA
ENDBRANCH  71  72
ENDBRANCH  52  66
BRANCH  53  76
ATOM     76  C   UNL A   1      40.513  29.819  29.427  1.00  0.00    -0.014 A 
ATOM     77  C   UNL A   1      39.528  30.197  28.498  1.00  0.00     0.010 A 
ATOM     78  C   UNL A   1      40.210  29.863  30.800  1.00  0.00     0.010 A 
ATOM     79  C   UNL A   1      38.270  30.624  28.933  1.00  0.00     0.020 A 
ATOM     80  C   UNL A   1      38.945  30.264  31.238  1.00  0.00     0.020 A 
ATOM     81  C   UNL A   1      37.986  30.654  30.301  1.00  0.00     0.054 A 
BRANCH  81  82
ATOM     82  S   UNL A   1      36.329  31.162  30.840  1.00  0.00     0.124 S 
ATOM     83  O   UNL A   1      36.598  32.447  31.477  1.00  0.00    -0.237 OA
ATOM     84  O   UNL A   1      35.592  31.222  29.580  1.00  0.00    -0.237 OA
ATOM     85  O   UNL A   1      35.920  30.087  31.741  1.00  0.00    -0.744 OA
ENDBRANCH  81  82
ENDBRANCH  53  76
BRANCH  65  86
ATOM     86  C   UNL A   1      46.737  32.927  28.930  1.00  0.00    -0.014 A 
ATOM     87  C   UNL A   1      47.291  33.255  30.180  1.00  0.00     0.010 A 
ATOM     88  C   UNL A   1      46.679  33.910  27.925  1.00  0.00     0.010 A 
ATOM     89  C   UNL A   1      47.758  34.549  30.427  1.00  0.00     0.020 A 
ATOM     90  C   UNL A   1      47.168  35.198  28.161  1.00  0.00     0.020 A 
ATOM     91  C   UNL A   1      47.695  35.512  29.415  1.00  0.00     0.054 A 
BRANCH  91  92
ATOM     92  S   UNL A   1      48.358  37.168  29.742  1.00  0.00     0.124 S 
ATOM     93  O   UNL A   1      49.769  37.005  29.397  1.00  0.00    -0.237 OA
ATOM     94  O   UNL A   1      47.582  38.011  28.836  1.00  0.00    -0.237 OA
ATOM     95  O   UNL A   1      48.084  37.376  31.163  1.00  0.00    -0.744 OA
ENDBRANCH  91  92
ENDBRANCH  65  86
ENDBRANCH  39  40
ENDBRANCH  31  34
ENDBRANCH  29  30
ENDBRANCH  28  29
ENDBRANCH   1  28
TORSDOF 19
ENDMDL
MODEL 3
REMARK VINA RESULT:     -10.9      6.295     11.179
REMARK SMILES CCOc1ccc2nc(S[C@@H](C(=O)NCCCCNC(=O)c3ccc(-c4c5nc(c(-c6ccc(S(=O)(=O)[O-])cc6)c6ccc([nH]6)c(-c6ccc(S(=O)(=O)[O-])cc6)c6nc(c(-c7ccc(S(=O)(=O)[O-])cc7)c7ccc4[nH]7)C=C6)C=C5)cc3)c3ccccc3)[nH]c2c1
REMARK SMILES IDX 16 1 15 2 14 3 12 4 13 5 11 7 10 8 9 9 4 10 5 11 90 12 6 13
REMARK SMILES IDX 89 14 7 15 88 16 8 17 3 19 2 20 1 21 82 22 83 23 87 24 84 25
REMARK SMILES IDX 86 26 85 27 17 28 18 29 19 30 20 31 21 33 22 34 23 35 81 36
REMARK SMILES IDX 24 37 80 38 25 39 26 40 27 41 74 42 28 43 79 44 73 45 75 46
REMARK SMILES IDX 29 47 78 48 72 49 71 50 30 52 60 53 41 54 59 55 42 56 45 57
REMARK SMILES IDX 58 58 76 59 43 60 44 61 57 63 77 64 46 65 31 66 32 67 40 68
REMARK SMILES IDX 33 69 39 70 34 71 35 72 36 73 37 74 38 75 61 76 62 77 70 78
REMARK SMILES IDX 63 79 69 80 64 81 65 82 66 83 67 84 68 85 47 86 48 87 56 88
REMARK SMILES IDX 49 89 55 90 50 91 51 92 52 93 53 94 54 95
REMARK H PARENT 14 6 88 18 19 32 75 51 45 62
REMARK Flexibility Score: inf
ROOT
ATOM      1  C   UNL A   1      36.976  22.590  24.589  1.00  0.00     0.023 C 
ENDROOT
BRANCH   1   2
ATOM      2  C   UNL A   1      35.595  22.522  23.927  1.00  0.00     0.116 C 
BRANCH   2   3
ATOM      3  N   UNL A   1      35.285  23.746  23.206  1.00  0.00    -0.355 N 
ATOM      4  C   UNL A   1      34.161  24.524  23.258  1.00  0.00     0.238 C 
ATOM      5  O   UNL A   1      34.019  25.373  22.370  1.00  0.00    -0.273 OA
ATOM      6  H   UNL A   1      35.986  24.060  22.590  1.00  0.00     0.163 HD
BRANCH   4   7
ATOM      7  C   UNL A   1      33.109  24.340  24.375  1.00  0.00     0.174 C 
BRANCH   7   8
ATOM      8  S   UNL A   1      31.652  23.480  23.708  1.00  0.00    -0.070 SA
BRANCH   8   9
ATOM      9  C   UNL A   1      31.992  21.787  23.786  1.00  0.00     0.167 A 
ATOM     10  C   UNL A   1      33.261  17.510  24.489  1.00  0.00     0.121 A 
ATOM     11  C   UNL A   1      32.955  17.453  23.128  1.00  0.00     0.049 A 
ATOM     12  C   UNL A   1      33.081  18.680  25.235  1.00  0.00     0.074 A 
ATOM     13  C   UNL A   1      32.526  18.595  22.444  1.00  0.00     0.034 A 
ATOM     14  C   UNL A   1      32.639  19.803  24.529  1.00  0.00     0.070 A 
ATOM     15  C   UNL A   1      32.377  19.788  23.163  1.00  0.00     0.090 A 
ATOM     16  N   UNL A   1      32.345  21.089  24.911  1.00  0.00    -0.333 N 
ATOM     17  N   UNL A   1      31.989  21.023  22.720  1.00  0.00    -0.223 NA
ATOM     18  H   UNL A   1      32.382  21.445  25.828  1.00  0.00     0.169 HD
BRANCH  10  19
ATOM     19  O   UNL A   1      33.643  16.377  25.160  1.00  0.00    -0.494 OA
BRANCH  19  20
ATOM     20  C   UNL A   1      32.543  15.696  25.776  1.00  0.00     0.226 C 
ATOM     21  C   UNL A   1      32.558  14.205  25.470  1.00  0.00     0.049 C 
ENDBRANCH  19  20
ENDBRANCH  10  19
ENDBRANCH   8   9
ENDBRANCH   7   8
BRANCH   7  22
ATOM     22  C   UNL A   1      32.818  25.632  25.155  1.00  0.00    -0.025 A 
ATOM     23  C   UNL A   1      31.481  26.056  25.281  1.00  0.00     0.005 A 
ATOM     24  C   UNL A   1      33.808  26.438  25.749  1.00  0.00     0.005 A 
ATOM     25  C   UNL A   1      31.149  27.209  25.999  1.00  0.00     0.000 A 
ATOM     26  C   UNL A   1      33.475  27.586  26.473  1.00  0.00     0.000 A 
ATOM     27  C   UNL A   1      32.146  27.971  26.601  1.00  0.00     0.000 A 
ENDBRANCH   7  22
ENDBRANCH   4   7
ENDBRANCH   2   3
ENDBRANCH   1   2
BRANCH   1  28
ATOM     28  C   UNL A   1      36.992  23.199  25.995  1.00  0.00     0.023 C 
BRANCH  28  29
ATOM     29  C   UNL A   1      38.003  24.320  26.211  1.00  0.00     0.116 C 
BRANCH  29  30
ATOM     30  N   UNL A   1      39.383  23.863  26.165  1.00  0.00    -0.352 N 
ATOM     31  C   UNL A   1      40.495  24.400  26.772  1.00  0.00     0.251 C 
ATOM     32  H   UNL A   1      39.545  23.057  25.625  1.00  0.00     0.163 HD
ATOM     33  O   UNL A   1      41.607  23.942  26.530  1.00  0.00    -0.269 OA
BRANCH  31  34
ATOM     34  C   UNL A   1      40.348  25.554  27.687  1.00  0.00     0.039 A 
ATOM     35  C   UNL A   1      39.338  25.521  28.653  1.00  0.00     0.014 A 
ATOM     36  C   UNL A   1      41.213  26.647  27.611  1.00  0.00     0.014 A 
ATOM     37  C   UNL A   1      39.250  26.549  29.595  1.00  0.00     0.010 A 
ATOM     38  C   UNL A   1      41.164  27.638  28.589  1.00  0.00     0.010 A 
ATOM     39  C   UNL A   1      40.189  27.593  29.597  1.00  0.00    -0.014 A 
BRANCH  39  40
ATOM     40  C   UNL A   1      40.190  28.630  30.661  1.00  0.00     0.031 A 
ATOM     41  C   UNL A   1      41.105  28.499  31.848  1.00  0.00     0.074 A 
ATOM     42  C   UNL A   1      39.309  29.648  30.599  1.00  0.00     0.049 A 
ATOM     43  N   UNL A   1      41.186  29.255  32.913  1.00  0.00    -0.248 NA
ATOM     44  C   UNL A   1      42.033  27.357  31.849  1.00  0.00     0.031 C 
ATOM     45  C   UNL A   1      38.342  29.868  29.520  1.00  0.00     0.029 A 
ATOM     46  N   UNL A   1      39.075  30.685  31.468  1.00  0.00    -0.354 N 
ATOM     47  C   UNL A   1      42.158  28.673  33.717  1.00  0.00     0.074 A 
ATOM     48  C   UNL A   1      42.608  27.478  33.037  1.00  0.00     0.031 C 
ATOM     49  C   UNL A   1      37.635  30.980  29.781  1.00  0.00     0.029 A 
ATOM     50  C   UNL A   1      38.068  31.529  31.062  1.00  0.00     0.049 A 
ATOM     51  H   UNL A   1      39.581  30.813  32.302  1.00  0.00     0.167 HD
ATOM     52  C   UNL A   1      42.644  29.102  34.907  1.00  0.00     0.031 A 
ATOM     53  C   UNL A   1      37.541  32.617  31.657  1.00  0.00     0.031 A 
ATOM     54  C   UNL A   1      42.204  30.297  35.576  1.00  0.00     0.049 A 
ATOM     55  C   UNL A   1      38.087  33.066  32.985  1.00  0.00     0.074 A 
ATOM     56  C   UNL A   1      42.674  30.845  36.757  1.00  0.00     0.029 A 
ATOM     57  N   UNL A   1      41.187  31.128  35.129  1.00  0.00    -0.354 N 
ATOM     58  N   UNL A   1      39.049  32.534  33.700  1.00  0.00    -0.248 NA
ATOM     59  C   UNL A   1      37.481  34.265  33.581  1.00  0.00     0.031 C 
ATOM     60  C   UNL A   1      41.913  31.981  37.047  1.00  0.00     0.029 A 
ATOM     61  C   UNL A   1      41.002  32.171  36.021  1.00  0.00     0.049 A 
ATOM     62  H   UNL A   1      40.675  30.996  34.299  1.00  0.00     0.167 HD
ATOM     63  C   UNL A   1      39.180  33.348  34.821  1.00  0.00     0.074 A 
ATOM     64  C   UNL A   1      38.208  34.413  34.681  1.00  0.00     0.031 C 
ATOM     65  C   UNL A   1      40.029  33.223  35.870  1.00  0.00     0.031 A 
BRANCH  52  66
ATOM     66  C   UNL A   1      43.710  28.266  35.563  1.00  0.00    -0.014 A 
ATOM     67  C   UNL A   1      43.373  27.230  36.454  1.00  0.00     0.010 A 
ATOM     68  C   UNL A   1      45.065  28.493  35.258  1.00  0.00     0.010 A 
ATOM     69  C   UNL A   1      44.373  26.467  37.062  1.00  0.00     0.020 A 
ATOM     70  C   UNL A   1      46.066  27.713  35.844  1.00  0.00     0.020 A 
ATOM     71  C   UNL A   1      45.715  26.717  36.757  1.00  0.00     0.054 A 
BRANCH  71  72
ATOM     72  S   UNL A   1      46.991  25.702  37.551  1.00  0.00     0.124 S 
ATOM     73  O   UNL A   1      46.189  24.803  38.377  1.00  0.00    -0.237 OA
ATOM     74  O   UNL A   1      47.660  25.078  36.412  1.00  0.00    -0.237 OA
ATOM     75  O   UNL A   1      47.797  26.673  38.288  1.00  0.00    -0.744 OA
ENDBRANCH  71  72
ENDBRANCH  52  66
BRANCH  53  76
ATOM     76  C   UNL A   1      36.439  33.365  30.994  1.00  0.00    -0.014 A 
ATOM     77  C   UNL A   1      36.706  34.194  29.890  1.00  0.00     0.010 A 
ATOM     78  C   UNL A   1      35.115  33.241  31.451  1.00  0.00     0.010 A 
ATOM     79  C   UNL A   1      35.672  34.897  29.266  1.00  0.00     0.020 A 
ATOM     80  C   UNL A   1      34.074  33.922  30.814  1.00  0.00     0.020 A 
ATOM     81  C   UNL A   1      34.362  34.756  29.731  1.00  0.00     0.054 A 
BRANCH  81  82
ATOM     82  S   UNL A   1      33.028  35.637  28.872  1.00  0.00     0.124 S 
ATOM     83  O   UNL A   1      32.465  34.587  28.030  1.00  0.00    -0.237 OA
ATOM     84  O   UNL A   1      32.183  36.086  29.976  1.00  0.00    -0.237 OA
ATOM     85  O   UNL A   1      33.728  36.705  28.161  1.00  0.00    -0.744 OA
ENDBRANCH  81  82
ENDBRANCH  53  76
BRANCH  65  86
ATOM     86  C   UNL A   1      39.967  34.278  36.941  1.00  0.00    -0.014 A 
ATOM     87  C   UNL A   1      40.822  35.393  36.913  1.00  0.00     0.010 A 
ATOM     88  C   UNL A   1      38.996  34.182  37.955  1.00  0.00     0.010 A 
ATOM     89  C   UNL A   1      40.723  36.383  37.895  1.00  0.00     0.020 A 
ATOM     90  C   UNL A   1      38.878  35.182  38.924  1.00  0.00     0.020 A 
ATOM     91  C   UNL A   1      39.750  36.272  38.893  1.00  0.00     0.054 A 
BRANCH  91  92
ATOM     92  S   UNL A   1      39.606  37.597  40.123  1.00  0.00     0.124 S 
ATOM     93  O   UNL A   1      38.224  38.035  39.939  1.00  0.00    -0.237 OA
ATOM     94  O   UNL A   1      39.883  36.902  41.378  1.00  0.00    -0.237 OA
ATOM     95  O   UNL A   1      40.625  38.561  39.715  1.00  0.00    -0.744 OA
ENDBRANCH  91  92
ENDBRANCH  65  86
ENDBRANCH  39  40
ENDBRANCH  31  34
ENDBRANCH  29  30
ENDBRANCH  28  29
ENDBRANCH   1  28
TORSDOF 19
ENDMDL
