MODEL 1
REMARK VINA RESULT:     -12.4      0.000      0.000
REMARK SMILES Cc1c(NC(=O)COc2ccc(C(C)C)cc2)cccc1C(=O)NCCCCNC(=O)c1ccc(-c2c3nc(c(-c4ccc(S(=O)(=O)[O-])cc4)c4ccc([nH]4)c(-c4ccc(S(=O)(=O)[O-])cc4)c4nc(c(-c5ccc(S(=O)(=O)[O-])cc5)c5ccc2[nH]5)C=C4)C=C3)cc1
REMARK SMILES IDX 25 1 24 2 22 3 23 4 21 6 1 7 2 8 3 9 18 10 20 11 19 12 4 13
REMARK SMILES IDX 5 14 6 16 7 17 8 18 9 19 10 20 17 21 11 22 16 23 12 24 13 25
REMARK SMILES IDX 14 26 15 27 26 28 27 29 28 30 29 31 30 32 31 34 32 35 33 36
REMARK SMILES IDX 91 37 34 38 90 39 35 40 36 41 37 42 84 43 38 44 89 45 83 46
REMARK SMILES IDX 85 47 39 48 88 49 82 50 81 51 40 53 70 54 51 55 69 56 52 57
REMARK SMILES IDX 55 58 68 59 86 60 53 61 54 62 67 64 87 65 56 66 41 67 42 68
REMARK SMILES IDX 50 69 43 70 49 71 44 72 45 73 46 74 47 75 48 76 71 77 72 78
REMARK SMILES IDX 80 79 73 80 79 81 74 82 75 83 76 84 77 85 78 86 57 87 58 88
REMARK SMILES IDX 66 89 59 90 65 91 60 92 61 93 62 94 63 95 64 96
REMARK H PARENT 24 5 4 15 29 33 85 52 55 63
REMARK Flexibility Score: inf
ROOT
ATOM      1  C   UNL A   1      33.567  27.621  25.979  1.00  0.00     0.116 C 
ENDROOT
BRANCH   1   2
ATOM      2  N   UNL A   1      33.771  27.935  24.571  1.00  0.00    -0.352 N 
ATOM      3  C   UNL A   1      33.844  27.223  23.404  1.00  0.00     0.251 C 
ATOM      4  O   UNL A   1      34.004  27.897  22.379  1.00  0.00    -0.269 OA
ATOM      5  H   UNL A   1      33.885  28.901  24.421  1.00  0.00     0.163 HD
BRANCH   3   6
ATOM      6  C   UNL A   1      33.696  25.737  23.233  1.00  0.00     0.044 A 
ATOM      7  C   UNL A   1      35.065  25.005  25.239  1.00  0.00     0.047 C 
ATOM      8  C   UNL A   1      34.178  24.703  24.070  1.00  0.00    -0.015 A 
ATOM      9  C   UNL A   1      33.956  23.335  23.731  1.00  0.00     0.045 A 
ATOM     10  C   UNL A   1      33.502  23.033  22.452  1.00  0.00     0.026 A 
ATOM     11  C   UNL A   1      33.155  25.371  21.986  1.00  0.00     0.014 A 
ATOM     12  C   UNL A   1      33.104  24.041  21.580  1.00  0.00     0.003 A 
BRANCH   9  13
ATOM     13  N   UNL A   1      34.235  22.365  24.719  1.00  0.00    -0.323 N 
ATOM     14  C   UNL A   1      33.606  21.858  25.808  1.00  0.00     0.262 C 
ATOM     15  H   UNL A   1      35.115  21.947  24.580  1.00  0.00     0.170 HD
ATOM     16  O   UNL A   1      34.202  20.955  26.415  1.00  0.00    -0.271 OA
BRANCH  14  17
ATOM     17  C   UNL A   1      32.232  22.292  26.304  1.00  0.00     0.329 C 
BRANCH  17  18
ATOM     18  O   UNL A   1      31.160  22.523  25.419  1.00  0.00    -0.484 OA
BRANCH  18  19
ATOM     19  C   UNL A   1      30.812  23.802  25.107  1.00  0.00     0.120 A 
ATOM     20  C   UNL A   1      30.891  24.912  25.941  1.00  0.00     0.047 A 
ATOM     21  C   UNL A   1      30.374  23.965  23.794  1.00  0.00     0.047 A 
ATOM     22  C   UNL A   1      30.508  26.172  25.468  1.00  0.00     0.008 A 
ATOM     23  C   UNL A   1      29.974  25.216  23.325  1.00  0.00     0.008 A 
ATOM     24  C   UNL A   1      30.029  26.336  24.163  1.00  0.00    -0.045 A 
BRANCH  24  25
ATOM     25  C   UNL A   1      29.536  27.697  23.709  1.00  0.00     0.013 C 
ATOM     26  C   UNL A   1      30.307  28.231  22.500  1.00  0.00     0.012 C 
ATOM     27  C   UNL A   1      28.033  27.636  23.422  1.00  0.00     0.012 C 
ENDBRANCH  24  25
ENDBRANCH  18  19
ENDBRANCH  17  18
ENDBRANCH  14  17
ENDBRANCH   9  13
ENDBRANCH   3   6
ENDBRANCH   1   2
BRANCH   1  28
ATOM     28  C   UNL A   1      32.751  28.717  26.696  1.00  0.00     0.023 C 
BRANCH  28  29
ATOM     29  C   UNL A   1      33.560  29.679  27.562  1.00  0.00     0.023 C 
BRANCH  29  30
ATOM     30  C   UNL A   1      34.852  30.096  26.890  1.00  0.00     0.116 C 
BRANCH  30  31
ATOM     31  N   UNL A   1      35.575  31.157  27.579  1.00  0.00    -0.352 N 
ATOM     32  C   UNL A   1      36.677  31.015  28.407  1.00  0.00     0.251 C 
ATOM     33  H   UNL A   1      35.246  32.074  27.441  1.00  0.00     0.163 HD
ATOM     34  O   UNL A   1      37.055  31.908  29.157  1.00  0.00    -0.269 OA
BRANCH  32  35
ATOM     35  C   UNL A   1      37.464  29.772  28.255  1.00  0.00     0.039 A 
ATOM     36  C   UNL A   1      37.523  28.922  29.366  1.00  0.00     0.014 A 
ATOM     37  C   UNL A   1      38.396  29.681  27.229  1.00  0.00     0.014 A 
ATOM     38  C   UNL A   1      38.649  28.127  29.554  1.00  0.00     0.010 A 
ATOM     39  C   UNL A   1      39.572  29.009  27.490  1.00  0.00     0.010 A 
ATOM     40  C   UNL A   1      39.718  28.267  28.673  1.00  0.00    -0.014 A 
BRANCH  40  41
ATOM     41  C   UNL A   1      41.053  27.728  28.911  1.00  0.00     0.031 A 
ATOM     42  C   UNL A   1      41.316  26.304  28.597  1.00  0.00     0.074 A 
ATOM     43  C   UNL A   1      42.068  28.541  29.286  1.00  0.00     0.049 A 
ATOM     44  N   UNL A   1      42.322  25.624  29.036  1.00  0.00    -0.248 NA
ATOM     45  C   UNL A   1      40.397  25.499  27.796  1.00  0.00     0.031 C 
ATOM     46  C   UNL A   1      43.496  28.239  29.219  1.00  0.00     0.029 A 
ATOM     47  N   UNL A   1      42.017  29.736  30.009  1.00  0.00    -0.354 N 
ATOM     48  C   UNL A   1      42.365  24.446  28.321  1.00  0.00     0.074 A 
ATOM     49  C   UNL A   1      41.087  24.367  27.658  1.00  0.00     0.031 C 
ATOM     50  C   UNL A   1      44.141  29.012  30.105  1.00  0.00     0.029 A 
ATOM     51  C   UNL A   1      43.129  29.723  30.868  1.00  0.00     0.049 A 
ATOM     52  H   UNL A   1      41.337  30.445  29.931  1.00  0.00     0.167 HD
ATOM     53  C   UNL A   1      43.537  23.755  28.240  1.00  0.00     0.031 A 
ATOM     54  C   UNL A   1      43.044  29.738  32.231  1.00  0.00     0.031 A 
ATOM     55  C   UNL A   1      44.531  24.290  29.173  1.00  0.00     0.049 A 
ATOM     56  C   UNL A   1      43.686  28.527  32.877  1.00  0.00     0.074 A 
ATOM     57  C   UNL A   1      45.652  25.087  29.015  1.00  0.00     0.029 A 
ATOM     58  N   UNL A   1      44.262  24.256  30.537  1.00  0.00    -0.354 N 
ATOM     59  N   UNL A   1      44.040  27.457  32.220  1.00  0.00    -0.248 NA
ATOM     60  C   UNL A   1      43.941  28.400  34.310  1.00  0.00     0.031 C 
ATOM     61  C   UNL A   1      45.985  25.627  30.287  1.00  0.00     0.029 A 
ATOM     62  C   UNL A   1      45.094  25.123  31.219  1.00  0.00     0.049 A 
ATOM     63  H   UNL A   1      43.573  23.693  30.959  1.00  0.00     0.167 HD
ATOM     64  C   UNL A   1      44.537  26.520  33.085  1.00  0.00     0.074 A 
ATOM     65  C   UNL A   1      44.466  27.163  34.385  1.00  0.00     0.031 C 
ATOM     66  C   UNL A   1      44.953  25.290  32.661  1.00  0.00     0.031 A 
BRANCH  53  67
ATOM     67  C   UNL A   1      43.873  22.800  27.108  1.00  0.00    -0.014 A 
ATOM     68  C   UNL A   1      42.958  21.782  26.761  1.00  0.00     0.010 A 
ATOM     69  C   UNL A   1      45.099  22.773  26.415  1.00  0.00     0.010 A 
ATOM     70  C   UNL A   1      43.285  20.755  25.857  1.00  0.00     0.020 A 
ATOM     71  C   UNL A   1      45.449  21.747  25.524  1.00  0.00     0.020 A 
ATOM     72  C   UNL A   1      44.543  20.730  25.263  1.00  0.00     0.054 A 
BRANCH  72  73
ATOM     73  S   UNL A   1      44.991  19.361  24.166  1.00  0.00     0.124 S 
ATOM     74  O   UNL A   1      46.450  19.373  24.227  1.00  0.00    -0.237 OA
ATOM     75  O   UNL A   1      44.340  18.220  24.805  1.00  0.00    -0.237 OA
ATOM     76  O   UNL A   1      44.426  19.751  22.875  1.00  0.00    -0.744 OA
ENDBRANCH  72  73
ENDBRANCH  53  67
BRANCH  54  77
ATOM     77  C   UNL A   1      41.864  30.474  32.762  1.00  0.00    -0.014 A 
ATOM     78  C   UNL A   1      40.780  29.695  33.222  1.00  0.00     0.010 A 
ATOM     79  C   UNL A   1      42.002  31.793  33.230  1.00  0.00     0.010 A 
ATOM     80  C   UNL A   1      39.979  30.146  34.272  1.00  0.00     0.020 A 
ATOM     81  C   UNL A   1      41.194  32.250  34.281  1.00  0.00     0.020 A 
ATOM     82  C   UNL A   1      40.244  31.390  34.843  1.00  0.00     0.054 A 
BRANCH  82  83
ATOM     83  S   UNL A   1      39.496  31.757  36.460  1.00  0.00     0.124 S 
ATOM     84  O   UNL A   1      38.827  33.030  36.216  1.00  0.00    -0.237 OA
ATOM     85  O   UNL A   1      38.615  30.604  36.643  1.00  0.00    -0.237 OA
ATOM     86  O   UNL A   1      40.648  31.812  37.354  1.00  0.00    -0.744 OA
ENDBRANCH  82  83
ENDBRANCH  54  77
BRANCH  66  87
ATOM     87  C   UNL A   1      45.337  24.134  33.552  1.00  0.00    -0.014 A 
ATOM     88  C   UNL A   1      46.623  23.935  34.074  1.00  0.00     0.010 A 
ATOM     89  C   UNL A   1      44.316  23.264  34.005  1.00  0.00     0.010 A 
ATOM     90  C   UNL A   1      46.892  22.881  34.960  1.00  0.00     0.020 A 
ATOM     91  C   UNL A   1      44.564  22.238  34.921  1.00  0.00     0.020 A 
ATOM     92  C   UNL A   1      45.861  22.037  35.374  1.00  0.00     0.054 A 
BRANCH  92  93
ATOM     93  S   UNL A   1      46.200  20.718  36.568  1.00  0.00     0.124 S 
ATOM     94  O   UNL A   1      45.447  19.602  36.002  1.00  0.00    -0.237 OA
ATOM     95  O   UNL A   1      47.653  20.586  36.510  1.00  0.00    -0.237 OA
ATOM     96  O   UNL A   1      45.680  21.252  37.823  1.00  0.00    -0.744 OA
ENDBRANCH  92  93
ENDBRANCH  66  87
ENDBRANCH  40  41
ENDBRANCH  32  35
ENDBRANCH  30  31
ENDBRANCH  29  30
ENDBRANCH  28  29
ENDBRANCH   1  28
TORSDOF 19
ENDMDL
MODEL 2
REMARK VINA RESULT:     -11.7      1.507      2.037
REMARK SMILES Cc1c(NC(=O)COc2ccc(C(C)C)cc2)cccc1C(=O)NCCCCNC(=O)c1ccc(-c2c3nc(c(-c4ccc(S(=O)(=O)[O-])cc4)c4ccc([nH]4)c(-c4ccc(S(=O)(=O)[O-])cc4)c4nc(c(-c5ccc(S(=O)(=O)[O-])cc5)c5ccc2[nH]5)C=C4)C=C3)cc1
REMARK SMILES IDX 25 1 24 2 22 3 23 4 21 6 1 7 2 8 3 9 18 10 20 11 19 12 4 13
REMARK SMILES IDX 5 14 6 16 7 17 8 18 9 19 10 20 17 21 11 22 16 23 12 24 13 25
REMARK SMILES IDX 14 26 15 27 26 28 27 29 28 30 29 31 30 32 31 34 32 35 33 36
REMARK SMILES IDX 91 37 34 38 90 39 35 40 36 41 37 42 84 43 38 44 89 45 83 46
REMARK SMILES IDX 85 47 39 48 88 49 82 50 81 51 40 53 70 54 51 55 69 56 52 57
REMARK SMILES IDX 55 58 68 59 86 60 53 61 54 62 67 64 87 65 56 66 41 67 42 68
REMARK SMILES IDX 50 69 43 70 49 71 44 72 45 73 46 74 47 75 48 76 71 77 72 78
REMARK SMILES IDX 80 79 73 80 79 81 74 82 75 83 76 84 77 85 78 86 57 87 58 88
REMARK SMILES IDX 66 89 59 90 65 91 60 92 61 93 62 94 63 95 64 96
REMARK H PARENT 24 5 4 15 29 33 85 52 55 63
REMARK Flexibility Score: inf
ROOT
ATOM      1  C   UNL A   1      33.366  28.002  25.723  1.00  0.00     0.116 C 
ENDROOT
BRANCH   1   2
ATOM      2  N   UNL A   1      33.629  28.098  24.294  1.00  0.00    -0.352 N 
ATOM      3  C   UNL A   1      33.797  27.213  23.262  1.00  0.00     0.251 C 
ATOM      4  O   UNL A   1      33.980  27.722  22.149  1.00  0.00    -0.269 OA
ATOM      5  H   UNL A   1      33.706  29.032  23.994  1.00  0.00     0.163 HD
BRANCH   3   6
ATOM      6  C   UNL A   1      33.728  25.714  23.328  1.00  0.00     0.044 A 
ATOM      7  C   UNL A   1      35.076  25.384  25.452  1.00  0.00     0.047 C 
ATOM      8  C   UNL A   1      34.237  24.852  24.329  1.00  0.00    -0.015 A 
ATOM      9  C   UNL A   1      34.093  23.438  24.210  1.00  0.00     0.045 A 
ATOM     10  C   UNL A   1      33.690  22.913  22.986  1.00  0.00     0.026 A 
ATOM     11  C   UNL A   1      33.240  25.126  22.146  1.00  0.00     0.014 A 
ATOM     12  C   UNL A   1      33.266  23.748  21.957  1.00  0.00     0.003 A 
BRANCH   9  13
ATOM     13  N   UNL A   1      34.392  22.654  25.345  1.00  0.00    -0.323 N 
ATOM     14  C   UNL A   1      33.811  22.389  26.541  1.00  0.00     0.262 C 
ATOM     15  H   UNL A   1      35.245  22.173  25.240  1.00  0.00     0.170 HD
ATOM     16  O   UNL A   1      34.406  21.583  27.274  1.00  0.00    -0.271 OA
BRANCH  14  17
ATOM     17  C   UNL A   1      32.489  22.976  27.019  1.00  0.00     0.329 C 
BRANCH  17  18
ATOM     18  O   UNL A   1      31.319  22.910  26.236  1.00  0.00    -0.484 OA
BRANCH  18  19
ATOM     19  C   UNL A   1      30.870  24.031  25.607  1.00  0.00     0.120 A 
ATOM     20  C   UNL A   1      30.765  25.306  26.153  1.00  0.00     0.047 A 
ATOM     21  C   UNL A   1      30.529  23.832  24.270  1.00  0.00     0.047 A 
ATOM     22  C   UNL A   1      30.296  26.367  25.370  1.00  0.00     0.008 A 
ATOM     23  C   UNL A   1      30.044  24.883  23.492  1.00  0.00     0.008 A 
ATOM     24  C   UNL A   1      29.915  26.166  24.038  1.00  0.00    -0.045 A 
BRANCH  24  25
ATOM     25  C   UNL A   1      29.325  27.315  23.243  1.00  0.00     0.013 C 
ATOM     26  C   UNL A   1      27.870  27.605  23.616  1.00  0.00     0.012 C 
ATOM     27  C   UNL A   1      30.196  28.563  23.407  1.00  0.00     0.012 C 
ENDBRANCH  24  25
ENDBRANCH  18  19
ENDBRANCH  17  18
ENDBRANCH  14  17
ENDBRANCH   9  13
ENDBRANCH   3   6
ENDBRANCH   1   2
BRANCH   1  28
ATOM     28  C   UNL A   1      32.362  29.077  26.191  1.00  0.00     0.023 C 
BRANCH  28  29
ATOM     29  C   UNL A   1      32.800  29.907  27.395  1.00  0.00     0.023 C 
BRANCH  29  30
ATOM     30  C   UNL A   1      33.859  30.925  27.025  1.00  0.00     0.116 C 
BRANCH  30  31
ATOM     31  N   UNL A   1      34.193  31.862  28.090  1.00  0.00    -0.352 N 
ATOM     32  C   UNL A   1      35.027  31.634  29.172  1.00  0.00     0.251 C 
ATOM     33  H   UNL A   1      33.782  32.755  28.034  1.00  0.00     0.163 HD
ATOM     34  O   UNL A   1      35.043  32.364  30.156  1.00  0.00    -0.269 OA
BRANCH  32  35
ATOM     35  C   UNL A   1      36.003  30.531  29.035  1.00  0.00     0.039 A 
ATOM     36  C   UNL A   1      36.201  29.720  30.159  1.00  0.00     0.014 A 
ATOM     37  C   UNL A   1      36.935  30.574  28.005  1.00  0.00     0.014 A 
ATOM     38  C   UNL A   1      37.440  29.119  30.353  1.00  0.00     0.010 A 
ATOM     39  C   UNL A   1      38.204  30.104  28.270  1.00  0.00     0.010 A 
ATOM     40  C   UNL A   1      38.470  29.414  29.464  1.00  0.00    -0.014 A 
BRANCH  40  41
ATOM     41  C   UNL A   1      39.875  29.099  29.703  1.00  0.00     0.031 A 
ATOM     42  C   UNL A   1      40.400  27.786  29.260  1.00  0.00     0.074 A 
ATOM     43  C   UNL A   1      40.716  30.036  30.199  1.00  0.00     0.049 A 
ATOM     44  N   UNL A   1      41.503  27.255  29.671  1.00  0.00    -0.248 NA
ATOM     45  C   UNL A   1      39.661  26.919  28.345  1.00  0.00     0.031 C 
ATOM     46  C   UNL A   1      42.177  30.003  30.162  1.00  0.00     0.029 A 
ATOM     47  N   UNL A   1      40.432  31.120  31.034  1.00  0.00    -0.354 N 
ATOM     48  C   UNL A   1      41.775  26.185  28.845  1.00  0.00     0.074 A 
ATOM     49  C   UNL A   1      40.549  25.949  28.125  1.00  0.00     0.031 C 
ATOM     50  C   UNL A   1      42.650  30.781  31.146  1.00  0.00     0.029 A 
ATOM     51  C   UNL A   1      41.508  31.215  31.933  1.00  0.00     0.049 A 
ATOM     52  H   UNL A   1      39.638  31.701  30.998  1.00  0.00     0.167 HD
ATOM     53  C   UNL A   1      43.055  25.726  28.746  1.00  0.00     0.031 A 
ATOM     54  C   UNL A   1      41.390  31.072  33.287  1.00  0.00     0.031 A 
ATOM     55  C   UNL A   1      43.914  26.328  29.767  1.00  0.00     0.049 A 
ATOM     56  C   UNL A   1      42.227  29.934  33.835  1.00  0.00     0.074 A 
ATOM     57  C   UNL A   1      44.874  27.325  29.737  1.00  0.00     0.029 A 
ATOM     58  N   UNL A   1      43.623  26.104  31.110  1.00  0.00    -0.354 N 
ATOM     59  N   UNL A   1      42.784  29.019  33.090  1.00  0.00    -0.248 NA
ATOM     60  C   UNL A   1      42.467  29.704  35.258  1.00  0.00     0.031 C 
ATOM     61  C   UNL A   1      45.074  27.778  31.069  1.00  0.00     0.029 A 
ATOM     62  C   UNL A   1      44.267  27.029  31.908  1.00  0.00     0.049 A 
ATOM     63  H   UNL A   1      43.038  25.386  31.444  1.00  0.00     0.167 HD
ATOM     64  C   UNL A   1      43.422  28.100  33.878  1.00  0.00     0.074 A 
ATOM     65  C   UNL A   1      43.206  28.580  35.231  1.00  0.00     0.031 C 
ATOM     66  C   UNL A   1      44.065  27.015  33.352  1.00  0.00     0.031 A 
BRANCH  53  67
ATOM     67  C   UNL A   1      43.585  24.970  27.539  1.00  0.00    -0.014 A 
ATOM     68  C   UNL A   1      43.437  23.568  27.476  1.00  0.00     0.010 A 
ATOM     69  C   UNL A   1      44.324  25.549  26.488  1.00  0.00     0.010 A 
ATOM     70  C   UNL A   1      44.066  22.791  26.486  1.00  0.00     0.020 A 
ATOM     71  C   UNL A   1      44.973  24.788  25.504  1.00  0.00     0.020 A 
ATOM     72  C   UNL A   1      44.855  23.407  25.519  1.00  0.00     0.054 A 
BRANCH  72  73
ATOM     73  S   UNL A   1      45.731  22.397  24.298  1.00  0.00     0.124 S 
ATOM     74  O   UNL A   1      46.344  21.363  25.127  1.00  0.00    -0.237 OA
ATOM     75  O   UNL A   1      44.649  21.950  23.425  1.00  0.00    -0.237 OA
ATOM     76  O   UNL A   1      46.673  23.333  23.685  1.00  0.00    -0.744 OA
ENDBRANCH  72  73
ENDBRANCH  53  67
BRANCH  54  77
ATOM     77  C   UNL A   1      40.084  31.526  33.838  1.00  0.00    -0.014 A 
ATOM     78  C   UNL A   1      39.240  30.532  34.379  1.00  0.00     0.010 A 
ATOM     79  C   UNL A   1      39.910  32.862  34.241  1.00  0.00     0.010 A 
ATOM     80  C   UNL A   1      38.388  30.829  35.444  1.00  0.00     0.020 A 
ATOM     81  C   UNL A   1      39.050  33.163  35.307  1.00  0.00     0.020 A 
ATOM     82  C   UNL A   1      38.360  32.129  35.948  1.00  0.00     0.054 A 
BRANCH  82  83
ATOM     83  S   UNL A   1      37.599  32.388  37.580  1.00  0.00     0.124 S 
ATOM     84  O   UNL A   1      38.644  33.101  38.306  1.00  0.00    -0.237 OA
ATOM     85  O   UNL A   1      36.419  33.178  37.232  1.00  0.00    -0.237 OA
ATOM     86  O   UNL A   1      37.328  31.029  38.040  1.00  0.00    -0.744 OA
ENDBRANCH  82  83
ENDBRANCH  54  77
BRANCH  66  87
ATOM     87  C   UNL A   1      44.632  25.860  34.139  1.00  0.00    -0.014 A 
ATOM     88  C   UNL A   1      45.989  25.504  34.151  1.00  0.00     0.010 A 
ATOM     89  C   UNL A   1      43.776  25.165  35.029  1.00  0.00     0.010 A 
ATOM     90  C   UNL A   1      46.460  24.465  34.968  1.00  0.00     0.020 A 
ATOM     91  C   UNL A   1      44.243  24.158  35.878  1.00  0.00     0.020 A 
ATOM     92  C   UNL A   1      45.583  23.796  35.822  1.00  0.00     0.054 A 
BRANCH  92  93
ATOM     93  S   UNL A   1      46.207  22.498  36.921  1.00  0.00     0.124 S 
ATOM     94  O   UNL A   1      47.652  22.687  36.814  1.00  0.00    -0.237 OA
ATOM     95  O   UNL A   1      45.624  22.850  38.212  1.00  0.00    -0.237 OA
ATOM     96  O   UNL A   1      45.690  21.269  36.326  1.00  0.00    -0.744 OA
ENDBRANCH  92  93
ENDBRANCH  66  87
ENDBRANCH  40  41
ENDBRANCH  32  35
ENDBRANCH  30  31
ENDBRANCH  29  30
ENDBRANCH  28  29
ENDBRANCH   1  28
TORSDOF 19
ENDMDL
MODEL 3
REMARK VINA RESULT:     -11.7      3.822      5.798
REMARK SMILES Cc1c(NC(=O)COc2ccc(C(C)C)cc2)cccc1C(=O)NCCCCNC(=O)c1ccc(-c2c3nc(c(-c4ccc(S(=O)(=O)[O-])cc4)c4ccc([nH]4)c(-c4ccc(S(=O)(=O)[O-])cc4)c4nc(c(-c5ccc(S(=O)(=O)[O-])cc5)c5ccc2[nH]5)C=C4)C=C3)cc1
REMARK SMILES IDX 25 1 24 2 22 3 23 4 21 6 1 7 2 8 3 9 18 10 20 11 19 12 4 13
REMARK SMILES IDX 5 14 6 16 7 17 8 18 9 19 10 20 17 21 11 22 16 23 12 24 13 25
REMARK SMILES IDX 14 26 15 27 26 28 27 29 28 30 29 31 30 32 31 34 32 35 33 36
REMARK SMILES IDX 91 37 34 38 90 39 35 40 36 41 37 42 84 43 38 44 89 45 83 46
REMARK SMILES IDX 85 47 39 48 88 49 82 50 81 51 40 53 70 54 51 55 69 56 52 57
REMARK SMILES IDX 55 58 68 59 86 60 53 61 54 62 67 64 87 65 56 66 41 67 42 68
REMARK SMILES IDX 50 69 43 70 49 71 44 72 45 73 46 74 47 75 48 76 71 77 72 78
REMARK SMILES IDX 80 79 73 80 79 81 74 82 75 83 76 84 77 85 78 86 57 87 58 88
REMARK SMILES IDX 66 89 59 90 65 91 60 92 61 93 62 94 63 95 64 96
REMARK H PARENT 24 5 4 15 29 33 85 52 55 63
REMARK Flexibility Score: inf
ROOT
ATOM      1  C   UNL A   1      34.883  29.980  27.223  1.00  0.00     0.116 C 
ENDROOT
BRANCH   1   2
ATOM      2  N   UNL A   1      33.673  30.775  27.058  1.00  0.00    -0.352 N 
ATOM      3  C   UNL A   1      32.431  30.576  26.516  1.00  0.00     0.251 C 
ATOM      4  O   UNL A   1      31.652  31.533  26.609  1.00  0.00    -0.269 OA
ATOM      5  H   UNL A   1      33.773  31.681  27.428  1.00  0.00     0.163 HD
BRANCH   3   6
ATOM      6  C   UNL A   1      31.904  29.320  25.883  1.00  0.00     0.044 A 
ATOM      7  C   UNL A   1      31.807  27.878  27.968  1.00  0.00     0.047 C 
ATOM      8  C   UNL A   1      31.551  28.100  26.508  1.00  0.00    -0.015 A 
ATOM      9  C   UNL A   1      31.085  26.997  25.732  1.00  0.00     0.045 A 
ATOM     10  C   UNL A   1      31.234  27.047  24.350  1.00  0.00     0.026 A 
ATOM     11  C   UNL A   1      31.946  29.345  24.476  1.00  0.00     0.014 A 
ATOM     12  C   UNL A   1      31.663  28.212  23.721  1.00  0.00     0.003 A 
BRANCH   9  13
ATOM     13  N   UNL A   1      30.515  25.907  26.425  1.00  0.00    -0.323 N 
ATOM     14  C   UNL A   1      30.407  24.568  26.240  1.00  0.00     0.262 C 
ATOM     15  H   UNL A   1      30.084  26.194  27.262  1.00  0.00     0.170 HD
ATOM     16  O   UNL A   1      29.835  23.934  27.139  1.00  0.00    -0.271 OA
BRANCH  14  17
ATOM     17  C   UNL A   1      30.961  23.805  25.043  1.00  0.00     0.329 C 
BRANCH  17  18
ATOM     18  O   UNL A   1      31.744  22.643  25.198  1.00  0.00    -0.484 OA
BRANCH  18  19
ATOM     19  C   UNL A   1      33.095  22.755  25.316  1.00  0.00     0.120 A 
ATOM     20  C   UNL A   1      33.802  23.124  26.455  1.00  0.00     0.047 A 
ATOM     21  C   UNL A   1      33.794  22.419  24.157  1.00  0.00     0.047 A 
ATOM     22  C   UNL A   1      35.200  23.180  26.424  1.00  0.00     0.008 A 
ATOM     23  C   UNL A   1      35.187  22.492  24.118  1.00  0.00     0.008 A 
ATOM     24  C   UNL A   1      35.907  22.882  25.252  1.00  0.00    -0.045 A 
BRANCH  24  25
ATOM     25  C   UNL A   1      37.416  23.041  25.223  1.00  0.00     0.013 C 
ATOM     26  C   UNL A   1      37.928  24.001  26.299  1.00  0.00     0.012 C 
ATOM     27  C   UNL A   1      38.086  21.670  25.342  1.00  0.00     0.012 C 
ENDBRANCH  24  25
ENDBRANCH  18  19
ENDBRANCH  17  18
ENDBRANCH  14  17
ENDBRANCH   9  13
ENDBRANCH   3   6
ENDBRANCH   1   2
BRANCH   1  28
ATOM     28  C   UNL A   1      35.567  30.258  28.579  1.00  0.00     0.023 C 
BRANCH  28  29
ATOM     29  C   UNL A   1      36.791  29.399  28.885  1.00  0.00     0.023 C 
BRANCH  29  30
ATOM     30  C   UNL A   1      37.731  30.081  29.857  1.00  0.00     0.116 C 
BRANCH  30  31
ATOM     31  N   UNL A   1      37.421  29.847  31.262  1.00  0.00    -0.352 N 
ATOM     32  C   UNL A   1      37.792  28.754  32.028  1.00  0.00     0.251 C 
ATOM     33  H   UNL A   1      36.889  30.541  31.715  1.00  0.00     0.163 HD
ATOM     34  O   UNL A   1      37.270  28.500  33.108  1.00  0.00    -0.269 OA
BRANCH  32  35
ATOM     35  C   UNL A   1      38.948  27.969  31.545  1.00  0.00     0.039 A 
ATOM     36  C   UNL A   1      40.212  28.359  32.002  1.00  0.00     0.014 A 
ATOM     37  C   UNL A   1      38.805  27.179  30.411  1.00  0.00     0.014 A 
ATOM     38  C   UNL A   1      41.324  28.142  31.193  1.00  0.00     0.010 A 
ATOM     39  C   UNL A   1      39.877  27.097  29.548  1.00  0.00     0.010 A 
ATOM     40  C   UNL A   1      41.127  27.617  29.918  1.00  0.00    -0.014 A 
BRANCH  40  41
ATOM     41  C   UNL A   1      42.142  27.611  28.869  1.00  0.00     0.031 A 
ATOM     42  C   UNL A   1      42.894  26.361  28.608  1.00  0.00     0.074 A 
ATOM     43  C   UNL A   1      42.304  28.684  28.060  1.00  0.00     0.049 A 
ATOM     44  N   UNL A   1      44.004  26.289  27.953  1.00  0.00    -0.248 NA
ATOM     45  C   UNL A   1      42.470  25.069  29.145  1.00  0.00     0.031 C 
ATOM     46  C   UNL A   1      43.000  28.708  26.775  1.00  0.00     0.029 A 
ATOM     47  N   UNL A   1      42.057  30.033  28.328  1.00  0.00    -0.354 N 
ATOM     48  C   UNL A   1      44.242  24.956  27.695  1.00  0.00     0.074 A 
ATOM     49  C   UNL A   1      43.333  24.242  28.556  1.00  0.00     0.031 C 
ATOM     50  C   UNL A   1      43.395  29.965  26.524  1.00  0.00     0.029 A 
ATOM     51  C   UNL A   1      43.094  30.752  27.709  1.00  0.00     0.049 A 
ATOM     52  H   UNL A   1      41.307  30.404  28.846  1.00  0.00     0.167 HD
ATOM     53  C   UNL A   1      45.066  24.612  26.664  1.00  0.00     0.031 A 
ATOM     54  C   UNL A   1      43.993  31.530  28.380  1.00  0.00     0.031 A 
ATOM     55  C   UNL A   1      45.774  25.781  26.140  1.00  0.00     0.049 A 
ATOM     56  C   UNL A   1      45.427  31.081  28.183  1.00  0.00     0.074 A 
ATOM     57  C   UNL A   1      45.619  26.557  25.004  1.00  0.00     0.029 A 
ATOM     58  N   UNL A   1      46.632  26.482  26.981  1.00  0.00    -0.354 N 
ATOM     59  N   UNL A   1      45.762  29.932  27.663  1.00  0.00    -0.248 NA
ATOM     60  C   UNL A   1      46.594  31.859  28.592  1.00  0.00     0.031 C 
ATOM     61  C   UNL A   1      46.300  27.786  25.220  1.00  0.00     0.029 A 
ATOM     62  C   UNL A   1      46.901  27.735  26.466  1.00  0.00     0.049 A 
ATOM     63  H   UNL A   1      46.996  26.134  27.827  1.00  0.00     0.167 HD
ATOM     64  C   UNL A   1      47.123  29.794  27.671  1.00  0.00     0.074 A 
ATOM     65  C   UNL A   1      47.603  31.036  28.253  1.00  0.00     0.031 C 
ATOM     66  C   UNL A   1      47.741  28.667  27.210  1.00  0.00     0.031 A 
BRANCH  53  67
ATOM     67  C   UNL A   1      44.995  23.276  25.944  1.00  0.00    -0.014 A 
ATOM     68  C   UNL A   1      43.798  22.530  25.974  1.00  0.00     0.010 A 
ATOM     69  C   UNL A   1      46.085  22.645  25.311  1.00  0.00     0.010 A 
ATOM     70  C   UNL A   1      43.723  21.211  25.493  1.00  0.00     0.020 A 
ATOM     71  C   UNL A   1      46.033  21.324  24.842  1.00  0.00     0.020 A 
ATOM     72  C   UNL A   1      44.853  20.605  24.952  1.00  0.00     0.054 A 
BRANCH  72  73
ATOM     73  S   UNL A   1      44.775  18.879  24.411  1.00  0.00     0.124 S 
ATOM     74  O   UNL A   1      43.533  18.413  25.021  1.00  0.00    -0.237 OA
ATOM     75  O   UNL A   1      44.758  19.006  22.956  1.00  0.00    -0.237 OA
ATOM     76  O   UNL A   1      45.993  18.286  24.965  1.00  0.00    -0.744 OA
ENDBRANCH  72  73
ENDBRANCH  53  67
BRANCH  54  77
ATOM     77  C   UNL A   1      43.451  32.168  29.611  1.00  0.00    -0.014 A 
ATOM     78  C   UNL A   1      42.751  33.382  29.445  1.00  0.00     0.010 A 
ATOM     79  C   UNL A   1      43.218  31.399  30.765  1.00  0.00     0.010 A 
ATOM     80  C   UNL A   1      41.698  33.716  30.300  1.00  0.00     0.020 A 
ATOM     81  C   UNL A   1      42.165  31.736  31.628  1.00  0.00     0.020 A 
ATOM     82  C   UNL A   1      41.367  32.847  31.339  1.00  0.00     0.054 A 
BRANCH  82  83
ATOM     83  S   UNL A   1      39.752  33.071  32.146  1.00  0.00     0.124 S 
ATOM     84  O   UNL A   1      40.019  34.147  33.093  1.00  0.00    -0.237 OA
ATOM     85  O   UNL A   1      38.903  33.426  31.009  1.00  0.00    -0.237 OA
ATOM     86  O   UNL A   1      39.492  31.762  32.737  1.00  0.00    -0.744 OA
ENDBRANCH  82  83
ENDBRANCH  54  77
BRANCH  66  87
ATOM     87  C   UNL A   1      49.209  28.348  27.347  1.00  0.00    -0.014 A 
ATOM     88  C   UNL A   1      49.849  28.093  28.569  1.00  0.00     0.010 A 
ATOM     89  C   UNL A   1      49.972  28.158  26.169  1.00  0.00     0.010 A 
ATOM     90  C   UNL A   1      51.202  27.725  28.618  1.00  0.00     0.020 A 
ATOM     91  C   UNL A   1      51.308  27.750  26.205  1.00  0.00     0.020 A 
ATOM     92  C   UNL A   1      51.924  27.561  27.435  1.00  0.00     0.054 A 
BRANCH  92  93
ATOM     93  S   UNL A   1      53.652  27.023  27.500  1.00  0.00     0.124 S 
ATOM     94  O   UNL A   1      54.348  28.285  27.739  1.00  0.00    -0.237 OA
ATOM     95  O   UNL A   1      53.663  26.081  28.616  1.00  0.00    -0.237 OA
ATOM     96  O   UNL A   1      53.873  26.424  26.187  1.00  0.00    -0.744 OA
ENDBRANCH  92  93
ENDBRANCH  66  87
ENDBRANCH  40  41
ENDBRANCH  32  35
ENDBRANCH  30  31
ENDBRANCH  29  30
ENDBRANCH  28  29
ENDBRANCH   1  28
TORSDOF 19
ENDMDL
