MODEL 1
REMARK VINA RESULT:     -12.0      0.000      0.000
REMARK SMILES COc1cccc(N2C(=O)/C(=C/c3ccccc3C(=O)NCCCCNC(=O)c3ccc(-c4c5nc(c(-c6ccc(S(=O)(=O)[O-])cc6)c6ccc([nH]6)c(-c6ccc(S(=O)(=O)[O-])cc6)c6nc(c(-c7ccc(S(=O)(=O)[O-])cc7)c7ccc4[nH]7)C=C6)C=C5)cc3)SC2=S)c1
REMARK SMILES IDX 23 1 22 2 21 3 19 4 20 5 18 7 13 8 14 9 15 10 17 11 16 12
REMARK SMILES IDX 12 13 8 14 9 15 90 16 10 17 11 18 89 19 91 20 7 21 3 22 4 23
REMARK SMILES IDX 92 24 5 25 6 26 2 27 1 28 24 29 25 30 26 31 27 32 28 34
REMARK SMILES IDX 29 35 30 36 88 37 31 38 87 39 32 40 33 41 34 42 81 43 35 44
REMARK SMILES IDX 86 45 80 46 82 47 36 48 85 49 79 50 78 51 37 53 67 54 48 55
REMARK SMILES IDX 66 56 49 57 52 58 65 59 83 60 50 61 51 62 64 64 84 65 53 66
REMARK SMILES IDX 38 67 39 68 47 69 40 70 46 71 41 72 42 73 43 74 44 75 45 76
REMARK SMILES IDX 68 77 69 78 77 79 70 80 76 81 71 82 72 83 73 84 74 85 75 86
REMARK SMILES IDX 54 87 55 88 63 89 56 90 62 91 57 92 58 93 59 94 60 95 61 96
REMARK H PARENT 21 6 26 33 82 52 52 63
REMARK Flexibility Score: inf
ROOT
ATOM      1  C   UNL A   1      35.249  23.710  26.269  1.00  0.00     0.023 C 
ENDROOT
BRANCH   1   2
ATOM      2  C   UNL A   1      34.012  24.573  26.083  1.00  0.00     0.116 C 
BRANCH   2   3
ATOM      3  N   UNL A   1      32.805  24.123  26.742  1.00  0.00    -0.352 N 
ATOM      4  C   UNL A   1      31.943  23.107  26.385  1.00  0.00     0.251 C 
ATOM      5  O   UNL A   1      31.009  22.834  27.139  1.00  0.00    -0.269 OA
ATOM      6  H   UNL A   1      32.564  24.611  27.563  1.00  0.00     0.163 HD
BRANCH   4   7
ATOM      7  C   UNL A   1      32.027  22.406  25.069  1.00  0.00     0.047 A 
ATOM      8  C   UNL A   1      31.418  22.809  23.862  1.00  0.00    -0.012 A 
ATOM      9  C   UNL A   1      31.482  21.938  22.756  1.00  0.00     0.009 A 
ATOM     10  C   UNL A   1      32.197  20.739  22.816  1.00  0.00     0.001 A 
ATOM     11  C   UNL A   1      32.793  21.224  25.095  1.00  0.00     0.014 A 
ATOM     12  C   UNL A   1      32.876  20.394  23.977  1.00  0.00     0.001 A 
BRANCH   8  13
ATOM     13  C   UNL A   1      30.619  24.032  23.673  1.00  0.00     0.030 C 
ATOM     14  N   UNL A   1      30.817  27.602  23.152  1.00  0.00    -0.261 N 
ATOM     15  C   UNL A   1      30.129  26.438  23.455  1.00  0.00     0.270 C 
ATOM     16  C   UNL A   1      32.170  27.467  22.875  1.00  0.00     0.152 C 
ATOM     17  O   UNL A   1      28.958  26.324  23.808  1.00  0.00    -0.268 OA
ATOM     18  C   UNL A   1      31.041  25.262  23.346  1.00  0.00     0.081 C 
ATOM     19  S   UNL A   1      32.607  25.758  22.874  1.00  0.00    -0.054 SA
ATOM     20  S   UNL A   1      33.331  28.650  22.658  1.00  0.00    -0.051 S 
BRANCH  14  21
ATOM     21  C   UNL A   1      30.164  28.863  23.229  1.00  0.00     0.054 A 
ATOM     22  C   UNL A   1      28.652  30.519  22.337  1.00  0.00     0.120 A 
ATOM     23  C   UNL A   1      28.998  31.419  23.335  1.00  0.00     0.046 A 
ATOM     24  C   UNL A   1      29.252  29.262  22.250  1.00  0.00     0.073 A 
ATOM     25  C   UNL A   1      29.882  31.013  24.322  1.00  0.00     0.006 A 
ATOM     26  C   UNL A   1      30.445  29.733  24.287  1.00  0.00     0.027 A 
BRANCH  22  27
ATOM     27  O   UNL A   1      27.706  30.890  21.422  1.00  0.00    -0.497 OA
ATOM     28  C   UNL A   1      28.237  31.934  20.604  1.00  0.00     0.278 C 
ENDBRANCH  22  27
ENDBRANCH  14  21
ENDBRANCH   8  13
ENDBRANCH   4   7
ENDBRANCH   2   3
ENDBRANCH   1   2
BRANCH   1  29
ATOM     29  C   UNL A   1      35.874  23.117  25.009  1.00  0.00     0.023 C 
BRANCH  29  30
ATOM     30  C   UNL A   1      37.356  23.383  24.766  1.00  0.00     0.116 C 
BRANCH  30  31
ATOM     31  N   UNL A   1      38.248  22.506  25.502  1.00  0.00    -0.352 N 
ATOM     32  C   UNL A   1      39.258  22.784  26.394  1.00  0.00     0.251 C 
ATOM     33  H   UNL A   1      38.105  21.546  25.334  1.00  0.00     0.163 HD
ATOM     34  O   UNL A   1      39.940  21.841  26.800  1.00  0.00    -0.269 OA
BRANCH  32  35
ATOM     35  C   UNL A   1      39.542  24.154  26.912  1.00  0.00     0.039 A 
ATOM     36  C   UNL A   1      38.987  24.513  28.153  1.00  0.00     0.014 A 
ATOM     37  C   UNL A   1      40.222  25.134  26.176  1.00  0.00     0.014 A 
ATOM     38  C   UNL A   1      39.186  25.792  28.681  1.00  0.00     0.010 A 
ATOM     39  C   UNL A   1      40.456  26.397  26.712  1.00  0.00     0.010 A 
ATOM     40  C   UNL A   1      39.975  26.718  27.985  1.00  0.00    -0.014 A 
BRANCH  40  41
ATOM     41  C   UNL A   1      40.555  27.896  28.663  1.00  0.00     0.031 A 
ATOM     42  C   UNL A   1      41.893  27.859  29.332  1.00  0.00     0.074 A 
ATOM     43  C   UNL A   1      39.728  28.952  28.799  1.00  0.00     0.049 A 
ATOM     44  N   UNL A   1      42.489  28.802  30.014  1.00  0.00    -0.248 NA
ATOM     45  C   UNL A   1      42.653  26.603  29.247  1.00  0.00     0.031 C 
ATOM     46  C   UNL A   1      38.366  29.023  28.253  1.00  0.00     0.029 A 
ATOM     47  N   UNL A   1      39.881  30.139  29.458  1.00  0.00    -0.354 N 
ATOM     48  C   UNL A   1      43.700  28.264  30.432  1.00  0.00     0.074 A 
ATOM     49  C   UNL A   1      43.736  26.895  29.959  1.00  0.00     0.031 C 
ATOM     50  C   UNL A   1      37.807  30.186  28.609  1.00  0.00     0.029 A 
ATOM     51  C   UNL A   1      38.756  30.929  29.422  1.00  0.00     0.049 A 
ATOM     52  H   UNL A   1      40.712  30.403  29.915  1.00  0.00     0.167 HD
ATOM     53  C   UNL A   1      44.684  28.872  31.140  1.00  0.00     0.031 A 
ATOM     54  C   UNL A   1      38.510  32.122  29.990  1.00  0.00     0.031 A 
ATOM     55  C   UNL A   1      44.583  30.224  31.638  1.00  0.00     0.049 A 
ATOM     56  C   UNL A   1      39.614  32.771  30.764  1.00  0.00     0.074 A 
ATOM     57  C   UNL A   1      45.537  30.974  32.305  1.00  0.00     0.029 A 
ATOM     58  N   UNL A   1      43.447  31.020  31.544  1.00  0.00    -0.354 N 
ATOM     59  N   UNL A   1      40.807  32.300  31.042  1.00  0.00    -0.248 NA
ATOM     60  C   UNL A   1      39.355  34.121  31.276  1.00  0.00     0.031 C 
ATOM     61  C   UNL A   1      44.957  32.194  32.668  1.00  0.00     0.029 A 
ATOM     62  C   UNL A   1      43.664  32.237  32.169  1.00  0.00     0.049 A 
ATOM     63  H   UNL A   1      42.611  30.757  31.098  1.00  0.00     0.167 HD
ATOM     64  C   UNL A   1      41.457  33.307  31.739  1.00  0.00     0.074 A 
ATOM     65  C   UNL A   1      40.526  34.418  31.824  1.00  0.00     0.031 C 
ATOM     66  C   UNL A   1      42.709  33.316  32.258  1.00  0.00     0.031 A 
BRANCH  53  67
ATOM     67  C   UNL A   1      45.946  28.091  31.425  1.00  0.00    -0.014 A 
ATOM     68  C   UNL A   1      46.096  27.368  32.623  1.00  0.00     0.010 A 
ATOM     69  C   UNL A   1      46.965  28.011  30.456  1.00  0.00     0.010 A 
ATOM     70  C   UNL A   1      47.249  26.611  32.860  1.00  0.00     0.020 A 
ATOM     71  C   UNL A   1      48.107  27.233  30.677  1.00  0.00     0.020 A 
ATOM     72  C   UNL A   1      48.248  26.548  31.885  1.00  0.00     0.054 A 
BRANCH  72  73
ATOM     73  S   UNL A   1      49.715  25.528  32.207  1.00  0.00     0.124 S 
ATOM     74  O   UNL A   1      50.649  26.506  32.761  1.00  0.00    -0.237 OA
ATOM     75  O   UNL A   1      49.212  24.536  33.155  1.00  0.00    -0.237 OA
ATOM     76  O   UNL A   1      50.072  25.003  30.892  1.00  0.00    -0.744 OA
ENDBRANCH  72  73
ENDBRANCH  53  67
BRANCH  54  77
ATOM     77  C   UNL A   1      37.190  32.769  29.783  1.00  0.00    -0.014 A 
ATOM     78  C   UNL A   1      36.208  32.710  30.786  1.00  0.00     0.010 A 
ATOM     79  C   UNL A   1      36.938  33.526  28.622  1.00  0.00     0.010 A 
ATOM     80  C   UNL A   1      34.994  33.383  30.628  1.00  0.00     0.020 A 
ATOM     81  C   UNL A   1      35.737  34.224  28.473  1.00  0.00     0.020 A 
ATOM     82  C   UNL A   1      34.768  34.139  29.475  1.00  0.00     0.054 A 
BRANCH  82  83
ATOM     83  S   UNL A   1      33.209  35.055  29.326  1.00  0.00     0.124 S 
ATOM     84  O   UNL A   1      32.504  34.290  28.303  1.00  0.00    -0.237 OA
ATOM     85  O   UNL A   1      32.660  34.965  30.677  1.00  0.00    -0.237 OA
ATOM     86  O   UNL A   1      33.636  36.395  28.925  1.00  0.00    -0.744 OA
ENDBRANCH  82  83
ENDBRANCH  54  77
BRANCH  66  87
ATOM     87  C   UNL A   1      43.139  34.580  32.950  1.00  0.00    -0.014 A 
ATOM     88  C   UNL A   1      43.898  35.555  32.278  1.00  0.00     0.010 A 
ATOM     89  C   UNL A   1      42.759  34.802  34.286  1.00  0.00     0.010 A 
ATOM     90  C   UNL A   1      44.304  36.713  32.945  1.00  0.00     0.020 A 
ATOM     91  C   UNL A   1      43.136  35.973  34.945  1.00  0.00     0.020 A 
ATOM     92  C   UNL A   1      43.921  36.914  34.274  1.00  0.00     0.054 A 
BRANCH  92  93
ATOM     93  S   UNL A   1      44.434  38.440  35.106  1.00  0.00     0.124 S 
ATOM     94  O   UNL A   1      44.104  38.153  36.498  1.00  0.00    -0.237 OA
ATOM     95  O   UNL A   1      45.860  38.507  34.798  1.00  0.00    -0.237 OA
ATOM     96  O   UNL A   1      43.617  39.472  34.471  1.00  0.00    -0.744 OA
ENDBRANCH  92  93
ENDBRANCH  66  87
ENDBRANCH  40  41
ENDBRANCH  32  35
ENDBRANCH  30  31
ENDBRANCH  29  30
ENDBRANCH   1  29
TORSDOF 17
ENDMDL
MODEL 2
REMARK VINA RESULT:     -11.8      4.200     10.330
REMARK SMILES COc1cccc(N2C(=O)/C(=C/c3ccccc3C(=O)NCCCCNC(=O)c3ccc(-c4c5nc(c(-c6ccc(S(=O)(=O)[O-])cc6)c6ccc([nH]6)c(-c6ccc(S(=O)(=O)[O-])cc6)c6nc(c(-c7ccc(S(=O)(=O)[O-])cc7)c7ccc4[nH]7)C=C6)C=C5)cc3)SC2=S)c1
REMARK SMILES IDX 23 1 22 2 21 3 19 4 20 5 18 7 13 8 14 9 15 10 17 11 16 12
REMARK SMILES IDX 12 13 8 14 9 15 90 16 10 17 11 18 89 19 91 20 7 21 3 22 4 23
REMARK SMILES IDX 92 24 5 25 6 26 2 27 1 28 24 29 25 30 26 31 27 32 28 34
REMARK SMILES IDX 29 35 30 36 88 37 31 38 87 39 32 40 33 41 34 42 81 43 35 44
REMARK SMILES IDX 86 45 80 46 82 47 36 48 85 49 79 50 78 51 37 53 67 54 48 55
REMARK SMILES IDX 66 56 49 57 52 58 65 59 83 60 50 61 51 62 64 64 84 65 53 66
REMARK SMILES IDX 38 67 39 68 47 69 40 70 46 71 41 72 42 73 43 74 44 75 45 76
REMARK SMILES IDX 68 77 69 78 77 79 70 80 76 81 71 82 72 83 73 84 74 85 75 86
REMARK SMILES IDX 54 87 55 88 63 89 56 90 62 91 57 92 58 93 59 94 60 95 61 96
REMARK H PARENT 21 6 26 33 82 52 52 63
REMARK Flexibility Score: inf
ROOT
ATOM      1  C   UNL A   1      35.479  29.674  27.250  1.00  0.00     0.023 C 
ENDROOT
BRANCH   1   2
ATOM      2  C   UNL A   1      34.363  28.828  26.659  1.00  0.00     0.116 C 
BRANCH   2   3
ATOM      3  N   UNL A   1      33.268  28.494  27.543  1.00  0.00    -0.352 N 
ATOM      4  C   UNL A   1      31.958  28.192  27.234  1.00  0.00     0.251 C 
ATOM      5  O   UNL A   1      31.201  27.854  28.143  1.00  0.00    -0.269 OA
ATOM      6  H   UNL A   1      33.488  28.480  28.503  1.00  0.00     0.163 HD
BRANCH   4   7
ATOM      7  C   UNL A   1      31.393  28.373  25.864  1.00  0.00     0.047 A 
ATOM      8  C   UNL A   1      30.990  27.351  24.978  1.00  0.00    -0.012 A 
ATOM      9  C   UNL A   1      30.624  27.707  23.665  1.00  0.00     0.009 A 
ATOM     10  C   UNL A   1      30.578  29.044  23.262  1.00  0.00     0.001 A 
ATOM     11  C   UNL A   1      31.283  29.719  25.460  1.00  0.00     0.014 A 
ATOM     12  C   UNL A   1      30.881  30.053  24.167  1.00  0.00     0.001 A 
BRANCH   8  13
ATOM     13  C   UNL A   1      31.015  25.907  25.270  1.00  0.00     0.030 C 
ATOM     14  N   UNL A   1      32.917  22.867  24.827  1.00  0.00    -0.261 N 
ATOM     15  C   UNL A   1      31.769  23.562  25.173  1.00  0.00     0.270 C 
ATOM     16  C   UNL A   1      33.998  23.627  24.408  1.00  0.00     0.152 C 
ATOM     17  O   UNL A   1      30.675  23.103  25.492  1.00  0.00    -0.268 OA
ATOM     18  C   UNL A   1      32.008  25.031  25.063  1.00  0.00     0.081 C 
ATOM     19  S   UNL A   1      33.613  25.343  24.562  1.00  0.00    -0.054 SA
ATOM     20  S   UNL A   1      35.451  23.131  23.747  1.00  0.00    -0.051 S 
BRANCH  14  21
ATOM     21  C   UNL A   1      32.918  21.445  24.815  1.00  0.00     0.054 A 
ATOM     22  C   UNL A   1      32.501  19.340  23.710  1.00  0.00     0.120 A 
ATOM     23  C   UNL A   1      32.793  18.637  24.870  1.00  0.00     0.046 A 
ATOM     24  C   UNL A   1      32.521  20.735  23.680  1.00  0.00     0.073 A 
ATOM     25  C   UNL A   1      33.214  19.340  25.987  1.00  0.00     0.006 A 
ATOM     26  C   UNL A   1      33.301  20.735  25.956  1.00  0.00     0.027 A 
BRANCH  22  27
ATOM     27  O   UNL A   1      32.181  18.636  22.583  1.00  0.00    -0.497 OA
ATOM     28  C   UNL A   1      32.930  17.419  22.568  1.00  0.00     0.278 C 
ENDBRANCH  22  27
ENDBRANCH  14  21
ENDBRANCH   8  13
ENDBRANCH   4   7
ENDBRANCH   2   3
ENDBRANCH   1   2
BRANCH   1  29
ATOM     29  C   UNL A   1      35.115  31.092  27.686  1.00  0.00     0.023 C 
BRANCH  29  30
ATOM     30  C   UNL A   1      35.827  31.656  28.912  1.00  0.00     0.116 C 
BRANCH  30  31
ATOM     31  N   UNL A   1      35.782  30.792  30.078  1.00  0.00    -0.352 N 
ATOM     32  C   UNL A   1      36.730  29.958  30.624  1.00  0.00     0.251 C 
ATOM     33  H   UNL A   1      34.924  30.806  30.561  1.00  0.00     0.163 HD
ATOM     34  O   UNL A   1      36.390  29.246  31.571  1.00  0.00    -0.269 OA
BRANCH  32  35
ATOM     35  C   UNL A   1      38.144  29.901  30.150  1.00  0.00     0.039 A 
ATOM     36  C   UNL A   1      39.157  30.216  31.072  1.00  0.00     0.014 A 
ATOM     37  C   UNL A   1      38.503  29.673  28.814  1.00  0.00     0.014 A 
ATOM     38  C   UNL A   1      40.501  30.213  30.686  1.00  0.00     0.010 A 
ATOM     39  C   UNL A   1      39.841  29.632  28.431  1.00  0.00     0.010 A 
ATOM     40  C   UNL A   1      40.847  29.861  29.374  1.00  0.00    -0.014 A 
BRANCH  40  41
ATOM     41  C   UNL A   1      42.221  29.440  29.030  1.00  0.00     0.031 A 
ATOM     42  C   UNL A   1      43.346  30.416  28.883  1.00  0.00     0.074 A 
ATOM     43  C   UNL A   1      42.360  28.146  28.678  1.00  0.00     0.049 A 
ATOM     44  N   UNL A   1      44.582  30.185  28.525  1.00  0.00    -0.248 NA
ATOM     45  C   UNL A   1      43.048  31.831  29.150  1.00  0.00     0.031 C 
ATOM     46  C   UNL A   1      41.279  27.152  28.703  1.00  0.00     0.029 A 
ATOM     47  N   UNL A   1      43.435  27.451  28.198  1.00  0.00    -0.354 N 
ATOM     48  C   UNL A   1      45.219  31.421  28.533  1.00  0.00     0.074 A 
ATOM     49  C   UNL A   1      44.219  32.404  28.894  1.00  0.00     0.031 C 
ATOM     50  C   UNL A   1      41.743  25.981  28.249  1.00  0.00     0.029 A 
ATOM     51  C   UNL A   1      43.141  26.147  27.882  1.00  0.00     0.049 A 
ATOM     52  H   UNL A   1      44.330  27.846  28.088  1.00  0.00     0.167 HD
ATOM     53  C   UNL A   1      46.521  31.691  28.267  1.00  0.00     0.031 A 
ATOM     54  C   UNL A   1      43.911  25.184  27.345  1.00  0.00     0.031 A 
ATOM     55  C   UNL A   1      47.473  30.685  27.858  1.00  0.00     0.049 A 
ATOM     56  C   UNL A   1      45.344  25.509  27.063  1.00  0.00     0.074 A 
ATOM     57  C   UNL A   1      48.831  30.820  27.629  1.00  0.00     0.029 A 
ATOM     58  N   UNL A   1      47.156  29.357  27.592  1.00  0.00    -0.354 N 
ATOM     59  N   UNL A   1      45.966  26.657  27.200  1.00  0.00    -0.248 NA
ATOM     60  C   UNL A   1      46.187  24.409  26.584  1.00  0.00     0.031 C 
ATOM     61  C   UNL A   1      49.320  29.594  27.164  1.00  0.00     0.029 A 
ATOM     62  C   UNL A   1      48.284  28.673  27.169  1.00  0.00     0.049 A 
ATOM     63  H   UNL A   1      46.260  28.961  27.690  1.00  0.00     0.167 HD
ATOM     64  C   UNL A   1      47.286  26.414  26.851  1.00  0.00     0.074 A 
ATOM     65  C   UNL A   1      47.371  25.004  26.513  1.00  0.00     0.031 C 
ATOM     66  C   UNL A   1      48.333  27.273  26.817  1.00  0.00     0.031 A 
BRANCH  53  67
ATOM     67  C   UNL A   1      46.996  33.119  28.401  1.00  0.00    -0.014 A 
ATOM     68  C   UNL A   1      47.566  33.584  29.601  1.00  0.00     0.010 A 
ATOM     69  C   UNL A   1      46.945  33.991  27.296  1.00  0.00     0.010 A 
ATOM     70  C   UNL A   1      48.044  34.895  29.704  1.00  0.00     0.020 A 
ATOM     71  C   UNL A   1      47.446  35.295  27.386  1.00  0.00     0.020 A 
ATOM     72  C   UNL A   1      47.981  35.744  28.595  1.00  0.00     0.054 A 
BRANCH  72  73
ATOM     73  S   UNL A   1      48.642  37.427  28.750  1.00  0.00     0.124 S 
ATOM     74  O   UNL A   1      50.034  37.175  29.115  1.00  0.00    -0.237 OA
ATOM     75  O   UNL A   1      48.436  37.975  27.411  1.00  0.00    -0.237 OA
ATOM     76  O   UNL A   1      47.823  38.029  29.799  1.00  0.00    -0.744 OA
ENDBRANCH  72  73
ENDBRANCH  53  67
BRANCH  54  77
ATOM     77  C   UNL A   1      43.334  23.836  27.108  1.00  0.00    -0.014 A 
ATOM     78  C   UNL A   1      43.194  23.347  25.799  1.00  0.00     0.010 A 
ATOM     79  C   UNL A   1      43.007  22.998  28.192  1.00  0.00     0.010 A 
ATOM     80  C   UNL A   1      42.725  22.050  25.575  1.00  0.00     0.020 A 
ATOM     81  C   UNL A   1      42.565  21.691  27.972  1.00  0.00     0.020 A 
ATOM     82  C   UNL A   1      42.418  21.229  26.663  1.00  0.00     0.054 A 
BRANCH  82  83
ATOM     83  S   UNL A   1      41.874  19.528  26.344  1.00  0.00     0.124 S 
ATOM     84  O   UNL A   1      40.429  19.690  26.221  1.00  0.00    -0.237 OA
ATOM     85  O   UNL A   1      42.582  19.197  25.110  1.00  0.00    -0.237 OA
ATOM     86  O   UNL A   1      42.325  18.796  27.526  1.00  0.00    -0.744 OA
ENDBRANCH  82  83
ENDBRANCH  54  77
BRANCH  66  87
ATOM     87  C   UNL A   1      49.661  26.697  26.411  1.00  0.00    -0.014 A 
ATOM     88  C   UNL A   1      50.129  26.809  25.090  1.00  0.00     0.010 A 
ATOM     89  C   UNL A   1      50.460  26.054  27.373  1.00  0.00     0.010 A 
ATOM     90  C   UNL A   1      51.357  26.250  24.728  1.00  0.00     0.020 A 
ATOM     91  C   UNL A   1      51.702  25.523  27.023  1.00  0.00     0.020 A 
ATOM     92  C   UNL A   1      52.135  25.610  25.698  1.00  0.00     0.054 A 
BRANCH  92  93
ATOM     93  S   UNL A   1      53.739  24.922  25.210  1.00  0.00     0.124 S 
ATOM     94  O   UNL A   1      54.588  25.303  26.335  1.00  0.00    -0.237 OA
ATOM     95  O   UNL A   1      53.452  23.495  25.093  1.00  0.00    -0.237 OA
ATOM     96  O   UNL A   1      54.037  25.597  23.949  1.00  0.00    -0.744 OA
ENDBRANCH  92  93
ENDBRANCH  66  87
ENDBRANCH  40  41
ENDBRANCH  32  35
ENDBRANCH  30  31
ENDBRANCH  29  30
ENDBRANCH   1  29
TORSDOF 17
ENDMDL
MODEL 3
REMARK VINA RESULT:     -10.8      1.929      2.474
REMARK SMILES COc1cccc(N2C(=O)/C(=C/c3ccccc3C(=O)NCCCCNC(=O)c3ccc(-c4c5nc(c(-c6ccc(S(=O)(=O)[O-])cc6)c6ccc([nH]6)c(-c6ccc(S(=O)(=O)[O-])cc6)c6nc(c(-c7ccc(S(=O)(=O)[O-])cc7)c7ccc4[nH]7)C=C6)C=C5)cc3)SC2=S)c1
REMARK SMILES IDX 23 1 22 2 21 3 19 4 20 5 18 7 13 8 14 9 15 10 17 11 16 12
REMARK SMILES IDX 12 13 8 14 9 15 90 16 10 17 11 18 89 19 91 20 7 21 3 22 4 23
REMARK SMILES IDX 92 24 5 25 6 26 2 27 1 28 24 29 25 30 26 31 27 32 28 34
REMARK SMILES IDX 29 35 30 36 88 37 31 38 87 39 32 40 33 41 34 42 81 43 35 44
REMARK SMILES IDX 86 45 80 46 82 47 36 48 85 49 79 50 78 51 37 53 67 54 48 55
REMARK SMILES IDX 66 56 49 57 52 58 65 59 83 60 50 61 51 62 64 64 84 65 53 66
REMARK SMILES IDX 38 67 39 68 47 69 40 70 46 71 41 72 42 73 43 74 44 75 45 76
REMARK SMILES IDX 68 77 69 78 77 79 70 80 76 81 71 82 72 83 73 84 74 85 75 86
REMARK SMILES IDX 54 87 55 88 63 89 56 90 62 91 57 92 58 93 59 94 60 95 61 96
REMARK H PARENT 21 6 26 33 82 52 52 63
REMARK Flexibility Score: inf
ROOT
ATOM      1  C   UNL A   1      34.714  23.453  26.051  1.00  0.00     0.023 C 
ENDROOT
BRANCH   1   2
ATOM      2  C   UNL A   1      33.974  22.674  27.127  1.00  0.00     0.116 C 
BRANCH   2   3
ATOM      3  N   UNL A   1      32.551  22.909  27.231  1.00  0.00    -0.352 N 
ATOM      4  C   UNL A   1      31.541  22.548  26.363  1.00  0.00     0.251 C 
ATOM      5  O   UNL A   1      30.376  22.777  26.687  1.00  0.00    -0.269 OA
ATOM      6  H   UNL A   1      32.261  23.394  28.037  1.00  0.00     0.163 HD
BRANCH   4   7
ATOM      7  C   UNL A   1      31.809  22.002  25.000  1.00  0.00     0.047 A 
ATOM      8  C   UNL A   1      31.398  22.564  23.773  1.00  0.00    -0.012 A 
ATOM      9  C   UNL A   1      31.611  21.826  22.592  1.00  0.00     0.009 A 
ATOM     10  C   UNL A   1      32.285  20.602  22.613  1.00  0.00     0.001 A 
ATOM     11  C   UNL A   1      32.539  20.797  24.997  1.00  0.00     0.014 A 
ATOM     12  C   UNL A   1      32.774  20.099  23.812  1.00  0.00     0.001 A 
BRANCH   8  13
ATOM     13  C   UNL A   1      30.661  23.830  23.616  1.00  0.00     0.030 C 
ATOM     14  N   UNL A   1      31.037  27.389  23.112  1.00  0.00    -0.261 N 
ATOM     15  C   UNL A   1      30.296  26.261  23.428  1.00  0.00     0.270 C 
ATOM     16  C   UNL A   1      32.371  27.183  22.795  1.00  0.00     0.152 C 
ATOM     17  O   UNL A   1      29.131  26.207  23.815  1.00  0.00    -0.268 OA
ATOM     18  C   UNL A   1      31.139  25.038  23.285  1.00  0.00     0.081 C 
ATOM     19  S   UNL A   1      32.715  25.453  22.769  1.00  0.00    -0.054 SA
ATOM     20  S   UNL A   1      33.588  28.303  22.551  1.00  0.00    -0.051 S 
BRANCH  14  21
ATOM     21  C   UNL A   1      30.455  28.682  23.218  1.00  0.00     0.054 A 
ATOM     22  C   UNL A   1      29.111  30.475  22.321  1.00  0.00     0.120 A 
ATOM     23  C   UNL A   1      29.438  31.297  23.390  1.00  0.00     0.046 A 
ATOM     24  C   UNL A   1      29.640  29.189  22.203  1.00  0.00     0.073 A 
ATOM     25  C   UNL A   1      30.224  30.785  24.409  1.00  0.00     0.006 A 
ATOM     26  C   UNL A   1      30.712  29.476  24.339  1.00  0.00     0.027 A 
BRANCH  22  27
ATOM     27  O   UNL A   1      28.256  30.952  21.368  1.00  0.00    -0.497 OA
ATOM     28  C   UNL A   1      28.036  32.345  21.598  1.00  0.00     0.278 C 
ENDBRANCH  22  27
ENDBRANCH  14  21
ENDBRANCH   8  13
ENDBRANCH   4   7
ENDBRANCH   2   3
ENDBRANCH   1   2
BRANCH   1  29
ATOM     29  C   UNL A   1      36.194  23.736  26.296  1.00  0.00     0.023 C 
BRANCH  29  30
ATOM     30  C   UNL A   1      37.198  23.121  25.326  1.00  0.00     0.116 C 
BRANCH  30  31
ATOM     31  N   UNL A   1      38.216  22.303  25.960  1.00  0.00    -0.352 N 
ATOM     32  C   UNL A   1      39.376  22.648  26.615  1.00  0.00     0.251 C 
ATOM     33  H   UNL A   1      38.046  21.334  25.915  1.00  0.00     0.163 HD
ATOM     34  O   UNL A   1      40.125  21.738  26.972  1.00  0.00    -0.269 OA
BRANCH  32  35
ATOM     35  C   UNL A   1      39.750  24.057  26.936  1.00  0.00     0.039 A 
ATOM     36  C   UNL A   1      39.556  24.501  28.256  1.00  0.00     0.014 A 
ATOM     37  C   UNL A   1      40.161  24.988  25.972  1.00  0.00     0.014 A 
ATOM     38  C   UNL A   1      39.855  25.817  28.618  1.00  0.00     0.010 A 
ATOM     39  C   UNL A   1      40.495  26.290  26.333  1.00  0.00     0.010 A 
ATOM     40  C   UNL A   1      40.383  26.698  27.665  1.00  0.00    -0.014 A 
BRANCH  40  41
ATOM     41  C   UNL A   1      41.092  27.931  28.068  1.00  0.00     0.031 A 
ATOM     42  C   UNL A   1      42.585  28.030  28.080  1.00  0.00     0.074 A 
ATOM     43  C   UNL A   1      40.318  28.898  28.599  1.00  0.00     0.049 A 
ATOM     44  N   UNL A   1      43.332  29.031  28.469  1.00  0.00    -0.248 NA
ATOM     45  C   UNL A   1      43.341  26.857  27.616  1.00  0.00     0.031 C 
ATOM     46  C   UNL A   1      38.854  28.830  28.711  1.00  0.00     0.029 A 
ATOM     47  N   UNL A   1      40.636  30.096  29.174  1.00  0.00    -0.354 N 
ATOM     48  C   UNL A   1      44.647  28.619  28.289  1.00  0.00     0.074 A 
ATOM     49  C   UNL A   1      44.596  27.260  27.792  1.00  0.00     0.031 C 
ATOM     50  C   UNL A   1      38.405  29.931  29.325  1.00  0.00     0.029 A 
ATOM     51  C   UNL A   1      39.544  30.768  29.669  1.00  0.00     0.049 A 
ATOM     52  H   UNL A   1      41.556  30.443  29.230  1.00  0.00     0.167 HD
ATOM     53  C   UNL A   1      45.782  29.325  28.519  1.00  0.00     0.031 A 
ATOM     54  C   UNL A   1      39.466  31.931  30.337  1.00  0.00     0.031 A 
ATOM     55  C   UNL A   1      45.788  30.661  29.067  1.00  0.00     0.049 A 
ATOM     56  C   UNL A   1      40.733  32.691  30.575  1.00  0.00     0.074 A 
ATOM     57  C   UNL A   1      46.864  31.505  29.278  1.00  0.00     0.029 A 
ATOM     58  N   UNL A   1      44.659  31.338  29.516  1.00  0.00    -0.354 N 
ATOM     59  N   UNL A   1      41.964  32.343  30.280  1.00  0.00    -0.248 NA
ATOM     60  C   UNL A   1      40.604  34.008  31.205  1.00  0.00     0.031 C 
ATOM     61  C   UNL A   1      46.395  32.662  29.911  1.00  0.00     0.029 A 
ATOM     62  C   UNL A   1      45.017  32.572  30.033  1.00  0.00     0.049 A 
ATOM     63  H   UNL A   1      43.740  30.990  29.472  1.00  0.00     0.167 HD
ATOM     64  C   UNL A   1      42.759  33.412  30.663  1.00  0.00     0.074 A 
ATOM     65  C   UNL A   1      41.863  34.424  31.195  1.00  0.00     0.031 C 
ATOM     66  C   UNL A   1      44.105  33.549  30.579  1.00  0.00     0.031 A 
BRANCH  53  67
ATOM     67  C   UNL A   1      47.105  28.677  28.186  1.00  0.00    -0.014 A 
ATOM     68  C   UNL A   1      47.712  28.869  26.931  1.00  0.00     0.010 A 
ATOM     69  C   UNL A   1      47.793  27.928  29.161  1.00  0.00     0.010 A 
ATOM     70  C   UNL A   1      48.960  28.301  26.646  1.00  0.00     0.020 A 
ATOM     71  C   UNL A   1      49.053  27.381  28.890  1.00  0.00     0.020 A 
ATOM     72  C   UNL A   1      49.623  27.560  27.628  1.00  0.00     0.054 A 
BRANCH  72  73
ATOM     73  S   UNL A   1      51.255  26.867  27.239  1.00  0.00     0.124 S 
ATOM     74  O   UNL A   1      51.439  25.900  28.319  1.00  0.00    -0.237 OA
ATOM     75  O   UNL A   1      51.050  26.290  25.912  1.00  0.00    -0.237 OA
ATOM     76  O   UNL A   1      52.145  28.024  27.281  1.00  0.00    -0.744 OA
ENDBRANCH  72  73
ENDBRANCH  53  67
BRANCH  54  77
ATOM     77  C   UNL A   1      38.136  32.442  30.760  1.00  0.00    -0.014 A 
ATOM     78  C   UNL A   1      37.651  32.170  32.050  1.00  0.00     0.010 A 
ATOM     79  C   UNL A   1      37.388  33.278  29.908  1.00  0.00     0.010 A 
ATOM     80  C   UNL A   1      36.437  32.712  32.478  1.00  0.00     0.020 A 
ATOM     81  C   UNL A   1      36.188  33.846  30.344  1.00  0.00     0.020 A 
ATOM     82  C   UNL A   1      35.715  33.551  31.624  1.00  0.00     0.054 A 
BRANCH  82  83
ATOM     83  S   UNL A   1      34.175  34.293  32.230  1.00  0.00     0.124 S 
ATOM     84  O   UNL A   1      34.663  35.483  32.919  1.00  0.00    -0.237 OA
ATOM     85  O   UNL A   1      33.433  34.533  30.995  1.00  0.00    -0.237 OA
ATOM     86  O   UNL A   1      33.612  33.256  33.093  1.00  0.00    -0.744 OA
ENDBRANCH  82  83
ENDBRANCH  54  77
BRANCH  66  87
ATOM     87  C   UNL A   1      44.679  34.852  31.065  1.00  0.00    -0.014 A 
ATOM     88  C   UNL A   1      45.128  34.999  32.389  1.00  0.00     0.010 A 
ATOM     89  C   UNL A   1      44.788  35.935  30.175  1.00  0.00     0.010 A 
ATOM     90  C   UNL A   1      45.640  36.223  32.826  1.00  0.00     0.020 A 
ATOM     91  C   UNL A   1      45.328  37.149  30.599  1.00  0.00     0.020 A 
ATOM     92  C   UNL A   1      45.736  37.291  31.928  1.00  0.00     0.054 A 
BRANCH  92  93
ATOM     93  S   UNL A   1      46.434  38.858  32.512  1.00  0.00     0.124 S 
ATOM     94  O   UNL A   1      46.874  38.510  33.860  1.00  0.00    -0.237 OA
ATOM     95  O   UNL A   1      47.501  39.111  31.548  1.00  0.00    -0.237 OA
ATOM     96  O   UNL A   1      45.308  39.785  32.444  1.00  0.00    -0.744 OA
ENDBRANCH  92  93
ENDBRANCH  66  87
ENDBRANCH  40  41
ENDBRANCH  32  35
ENDBRANCH  30  31
ENDBRANCH  29  30
ENDBRANCH   1  29
TORSDOF 17
ENDMDL
