MODEL 1
REMARK VINA RESULT:     -11.7      0.000      0.000
REMARK SMILES O=C(COc1ccc(-c2cc3cc(Br)ccc3oc2=O)cc1)NCCCCNC(=O)c1ccc(-c2c3nc(c(-c4ccc(S(=O)(=O)[O-])cc4)c4ccc([nH]4)c(-c4ccc(S(=O)(=O)[O-])cc4)c4nc(c(-c5ccc(S(=O)(=O)[O-])cc5)c5ccc2[nH]5)C=C4)C=C3)cc1
REMARK SMILES IDX 25 1 24 2 23 3 1 4 2 5 3 7 4 8 5 9 6 10 22 11 7 12 21 13
REMARK SMILES IDX 8 14 9 15 10 16 19 17 11 18 18 19 20 20 12 21 17 22 13 23
REMARK SMILES IDX 16 24 14 25 15 26 26 27 27 28 28 29 29 30 30 32 31 33 32 34
REMARK SMILES IDX 90 35 33 36 89 37 34 38 35 39 36 40 83 41 37 42 88 43 82 44
REMARK SMILES IDX 84 45 38 46 87 47 81 48 80 49 39 51 69 52 50 53 68 54 51 55
REMARK SMILES IDX 54 56 67 57 85 58 52 59 53 60 66 62 86 63 55 64 40 65 41 66
REMARK SMILES IDX 49 67 42 68 48 69 43 70 44 71 45 72 46 73 47 74 70 75 71 76
REMARK SMILES IDX 79 77 72 78 78 79 73 80 74 81 75 82 76 83 77 84 56 85 57 86
REMARK SMILES IDX 65 87 58 88 64 89 59 90 60 91 61 92 62 93 63 94
REMARK H PARENT 23 6 28 31 84 50 54 61
REMARK Flexibility Score: inf
ROOT
ATOM      1  C   UNL A   1      41.744  21.837  26.240  1.00  0.00     0.023 C 
ENDROOT
BRANCH   1   2
ATOM      2  C   UNL A   1      40.388  21.818  26.943  1.00  0.00     0.116 C 
BRANCH   2   3
ATOM      3  N   UNL A   1      39.467  22.827  26.459  1.00  0.00    -0.353 N 
ATOM      4  O   UNL A   1      38.077  21.349  25.389  1.00  0.00    -0.271 OA
ATOM      5  C   UNL A   1      38.324  22.493  25.765  1.00  0.00     0.257 C 
ATOM      6  H   UNL A   1      39.662  23.776  26.631  1.00  0.00     0.163 HD
BRANCH   5   7
ATOM      7  C   UNL A   1      37.350  23.653  25.500  1.00  0.00     0.329 C 
BRANCH   7   8
ATOM      8  O   UNL A   1      36.067  23.627  26.105  1.00  0.00    -0.484 OA
BRANCH   8   9
ATOM      9  C   UNL A   1      34.966  23.753  25.305  1.00  0.00     0.120 A 
ATOM     10  C   UNL A   1      35.218  23.676  23.935  1.00  0.00     0.047 A 
ATOM     11  C   UNL A   1      33.674  24.037  25.734  1.00  0.00     0.047 A 
ATOM     12  C   UNL A   1      34.227  24.012  23.007  1.00  0.00     0.013 A 
ATOM     13  C   UNL A   1      32.679  24.366  24.806  1.00  0.00     0.013 A 
ATOM     14  C   UNL A   1      32.968  24.451  23.438  1.00  0.00    -0.011 A 
BRANCH  14  15
ATOM     15  C   UNL A   1      32.108  25.182  22.453  1.00  0.00     0.068 A 
ATOM     16  C   UNL A   1      31.233  26.173  22.752  1.00  0.00     0.028 A 
ATOM     17  C   UNL A   1      32.913  25.688  21.276  1.00  0.00     0.344 A 
ATOM     18  C   UNL A   1      31.935  27.389  23.224  1.00  0.00     0.019 A 
ATOM     19  O   UNL A   1      33.648  26.846  21.587  1.00  0.00    -0.422 OA
ATOM     20  O   UNL A   1      32.985  25.097  20.209  1.00  0.00    -0.246 OA
ATOM     21  C   UNL A   1      31.451  28.192  24.252  1.00  0.00     0.027 A 
ATOM     22  C   UNL A   1      33.209  27.626  22.685  1.00  0.00     0.138 A 
ATOM     23  C   UNL A   1      32.294  29.166  24.789  1.00  0.00     0.018 A 
ATOM     24  C   UNL A   1      34.056  28.582  23.226  1.00  0.00     0.049 A 
ATOM     25  Br  UNL A   1      31.682  30.227  26.231  1.00  0.00    -0.051 Br
ATOM     26  C   UNL A   1      33.597  29.345  24.303  1.00  0.00     0.019 A 
ENDBRANCH  14  15
ENDBRANCH   8   9
ENDBRANCH   7   8
ENDBRANCH   5   7
ENDBRANCH   2   3
ENDBRANCH   1   2
BRANCH   1  27
ATOM     27  C   UNL A   1      42.935  22.166  27.141  1.00  0.00     0.023 C 
BRANCH  27  28
ATOM     28  C   UNL A   1      43.506  23.573  26.992  1.00  0.00     0.116 C 
BRANCH  28  29
ATOM     29  N   UNL A   1      42.930  24.310  25.878  1.00  0.00    -0.352 N 
ATOM     30  C   UNL A   1      42.220  25.492  25.882  1.00  0.00     0.251 C 
ATOM     31  H   UNL A   1      43.068  23.905  24.991  1.00  0.00     0.163 HD
ATOM     32  O   UNL A   1      41.700  25.891  24.850  1.00  0.00    -0.269 OA
BRANCH  30  33
ATOM     33  C   UNL A   1      42.059  26.258  27.142  1.00  0.00     0.039 A 
ATOM     34  C   UNL A   1      42.887  27.361  27.371  1.00  0.00     0.014 A 
ATOM     35  C   UNL A   1      41.099  25.899  28.091  1.00  0.00     0.014 A 
ATOM     36  C   UNL A   1      42.700  28.145  28.513  1.00  0.00     0.010 A 
ATOM     37  C   UNL A   1      40.864  26.724  29.189  1.00  0.00     0.010 A 
ATOM     38  C   UNL A   1      41.659  27.859  29.412  1.00  0.00    -0.014 A 
BRANCH  38  39
ATOM     39  C   UNL A   1      41.379  28.742  30.577  1.00  0.00     0.031 A 
ATOM     40  C   UNL A   1      42.185  28.613  31.842  1.00  0.00     0.074 A 
ATOM     41  C   UNL A   1      40.356  29.618  30.520  1.00  0.00     0.049 A 
ATOM     42  N   UNL A   1      42.046  29.252  32.977  1.00  0.00    -0.248 NA
ATOM     43  C   UNL A   1      43.272  27.622  31.842  1.00  0.00     0.031 C 
ATOM     44  C   UNL A   1      39.472  29.816  29.369  1.00  0.00     0.029 A 
ATOM     45  N   UNL A   1      39.880  30.504  31.456  1.00  0.00    -0.354 N 
ATOM     46  C   UNL A   1      43.017  28.734  33.826  1.00  0.00     0.074 A 
ATOM     47  C   UNL A   1      43.701  27.690  33.094  1.00  0.00     0.031 C 
ATOM     48  C   UNL A   1      38.580  30.777  29.658  1.00  0.00     0.029 A 
ATOM     49  C   UNL A   1      38.795  31.233  31.028  1.00  0.00     0.049 A 
ATOM     50  H   UNL A   1      40.278  30.607  32.351  1.00  0.00     0.167 HD
ATOM     51  C   UNL A   1      43.326  29.104  35.093  1.00  0.00     0.031 A 
ATOM     52  C   UNL A   1      38.047  32.155  31.665  1.00  0.00     0.031 A 
ATOM     53  C   UNL A   1      42.645  30.143  35.820  1.00  0.00     0.049 A 
ATOM     54  C   UNL A   1      38.394  32.535  33.079  1.00  0.00     0.074 A 
ATOM     55  C   UNL A   1      42.915  30.622  37.090  1.00  0.00     0.029 A 
ATOM     56  N   UNL A   1      41.555  30.859  35.347  1.00  0.00    -0.354 N 
ATOM     57  N   UNL A   1      39.357  32.077  33.842  1.00  0.00    -0.248 NA
ATOM     58  C   UNL A   1      37.560  33.566  33.713  1.00  0.00     0.031 C 
ATOM     59  C   UNL A   1      41.952  31.586  37.408  1.00  0.00     0.029 A 
ATOM     60  C   UNL A   1      41.125  31.758  36.310  1.00  0.00     0.049 A 
ATOM     61  H   UNL A   1      41.148  30.746  34.458  1.00  0.00     0.167 HD
ATOM     62  C   UNL A   1      39.262  32.783  35.036  1.00  0.00     0.074 A 
ATOM     63  C   UNL A   1      38.159  33.710  34.888  1.00  0.00     0.031 C 
ATOM     64  C   UNL A   1      40.024  32.674  36.153  1.00  0.00     0.031 A 
BRANCH  51  65
ATOM     65  C   UNL A   1      44.454  28.373  35.775  1.00  0.00    -0.014 A 
ATOM     66  C   UNL A   1      44.207  27.259  36.598  1.00  0.00     0.010 A 
ATOM     67  C   UNL A   1      45.784  28.780  35.561  1.00  0.00     0.010 A 
ATOM     68  C   UNL A   1      45.261  26.595  37.230  1.00  0.00     0.020 A 
ATOM     69  C   UNL A   1      46.846  28.099  36.167  1.00  0.00     0.020 A 
ATOM     70  C   UNL A   1      46.574  27.023  37.013  1.00  0.00     0.054 A 
BRANCH  70  71
ATOM     71  S   UNL A   1      47.925  26.131  37.835  1.00  0.00     0.124 S 
ATOM     72  O   UNL A   1      47.784  26.583  39.217  1.00  0.00    -0.237 OA
ATOM     73  O   UNL A   1      47.577  24.734  37.593  1.00  0.00    -0.237 OA
ATOM     74  O   UNL A   1      49.122  26.602  37.145  1.00  0.00    -0.744 OA
ENDBRANCH  70  71
ENDBRANCH  51  65
BRANCH  52  75
ATOM     75  C   UNL A   1      36.896  32.790  30.963  1.00  0.00    -0.014 A 
ATOM     76  C   UNL A   1      35.579  32.369  31.217  1.00  0.00     0.010 A 
ATOM     77  C   UNL A   1      37.113  33.834  30.044  1.00  0.00     0.010 A 
ATOM     78  C   UNL A   1      34.502  32.968  30.555  1.00  0.00     0.020 A 
ATOM     79  C   UNL A   1      36.037  34.456  29.404  1.00  0.00     0.020 A 
ATOM     80  C   UNL A   1      34.738  34.011  29.656  1.00  0.00     0.054 A 
BRANCH  80  81
ATOM     81  S   UNL A   1      33.322  34.811  28.851  1.00  0.00     0.124 S 
ATOM     82  O   UNL A   1      33.950  35.952  28.194  1.00  0.00    -0.237 OA
ATOM     83  O   UNL A   1      32.829  33.760  27.966  1.00  0.00    -0.237 OA
ATOM     84  O   UNL A   1      32.438  35.140  29.967  1.00  0.00    -0.744 OA
ENDBRANCH  80  81
ENDBRANCH  52  75
BRANCH  64  85
ATOM     85  C   UNL A   1      39.716  33.605  37.299  1.00  0.00    -0.014 A 
ATOM     86  C   UNL A   1      38.929  33.192  38.388  1.00  0.00     0.010 A 
ATOM     87  C   UNL A   1      40.272  34.898  37.308  1.00  0.00     0.010 A 
ATOM     88  C   UNL A   1      38.677  34.065  39.450  1.00  0.00     0.020 A 
ATOM     89  C   UNL A   1      40.049  35.762  38.382  1.00  0.00     0.020 A 
ATOM     90  C   UNL A   1      39.241  35.345  39.441  1.00  0.00     0.054 A 
BRANCH  90  91
ATOM     91  S   UNL A   1      38.936  36.443  40.853  1.00  0.00     0.124 S 
ATOM     92  O   UNL A   1      40.248  36.489  41.491  1.00  0.00    -0.237 OA
ATOM     93  O   UNL A   1      38.507  37.681  40.208  1.00  0.00    -0.237 OA
ATOM     94  O   UNL A   1      37.897  35.751  41.612  1.00  0.00    -0.744 OA
ENDBRANCH  90  91
ENDBRANCH  64  85
ENDBRANCH  38  39
ENDBRANCH  30  33
ENDBRANCH  28  29
ENDBRANCH  27  28
ENDBRANCH   1  27
TORSDOF 17
ENDMDL
MODEL 2
REMARK VINA RESULT:     -11.5      1.405      2.529
REMARK SMILES O=C(COc1ccc(-c2cc3cc(Br)ccc3oc2=O)cc1)NCCCCNC(=O)c1ccc(-c2c3nc(c(-c4ccc(S(=O)(=O)[O-])cc4)c4ccc([nH]4)c(-c4ccc(S(=O)(=O)[O-])cc4)c4nc(c(-c5ccc(S(=O)(=O)[O-])cc5)c5ccc2[nH]5)C=C4)C=C3)cc1
REMARK SMILES IDX 25 1 24 2 23 3 1 4 2 5 3 7 4 8 5 9 6 10 22 11 7 12 21 13
REMARK SMILES IDX 8 14 9 15 10 16 19 17 11 18 18 19 20 20 12 21 17 22 13 23
REMARK SMILES IDX 16 24 14 25 15 26 26 27 27 28 28 29 29 30 30 32 31 33 32 34
REMARK SMILES IDX 90 35 33 36 89 37 34 38 35 39 36 40 83 41 37 42 88 43 82 44
REMARK SMILES IDX 84 45 38 46 87 47 81 48 80 49 39 51 69 52 50 53 68 54 51 55
REMARK SMILES IDX 54 56 67 57 85 58 52 59 53 60 66 62 86 63 55 64 40 65 41 66
REMARK SMILES IDX 49 67 42 68 48 69 43 70 44 71 45 72 46 73 47 74 70 75 71 76
REMARK SMILES IDX 79 77 72 78 78 79 73 80 74 81 75 82 76 83 77 84 56 85 57 86
REMARK SMILES IDX 65 87 58 88 64 89 59 90 60 91 61 92 62 93 63 94
REMARK H PARENT 23 6 28 31 84 50 54 61
REMARK Flexibility Score: inf
ROOT
ATOM      1  C   UNL A   1      44.842  22.151  25.160  1.00  0.00     0.023 C 
ENDROOT
BRANCH   1   2
ATOM      2  C   UNL A   1      44.046  20.859  25.345  1.00  0.00     0.116 C 
BRANCH   2   3
ATOM      3  N   UNL A   1      42.627  21.074  25.553  1.00  0.00    -0.353 N 
ATOM      4  O   UNL A   1      42.215  18.976  26.384  1.00  0.00    -0.271 OA
ATOM      5  C   UNL A   1      41.826  20.115  26.132  1.00  0.00     0.257 C 
ATOM      6  H   UNL A   1      42.226  21.927  25.272  1.00  0.00     0.163 HD
BRANCH   5   7
ATOM      7  C   UNL A   1      40.395  20.567  26.470  1.00  0.00     0.329 C 
BRANCH   7   8
ATOM      8  O   UNL A   1      39.928  21.809  25.969  1.00  0.00    -0.484 OA
BRANCH   8   9
ATOM      9  C   UNL A   1      38.593  21.947  25.709  1.00  0.00     0.120 A 
ATOM     10  C   UNL A   1      38.038  23.167  26.096  1.00  0.00     0.047 A 
ATOM     11  C   UNL A   1      37.756  20.963  25.194  1.00  0.00     0.047 A 
ATOM     12  C   UNL A   1      36.651  23.351  26.096  1.00  0.00     0.013 A 
ATOM     13  C   UNL A   1      36.370  21.149  25.186  1.00  0.00     0.013 A 
ATOM     14  C   UNL A   1      35.794  22.308  25.726  1.00  0.00    -0.011 A 
BRANCH  14  15
ATOM     15  C   UNL A   1      34.355  22.406  26.134  1.00  0.00     0.068 A 
ATOM     16  C   UNL A   1      33.682  23.557  26.376  1.00  0.00     0.028 A 
ATOM     17  C   UNL A   1      33.460  21.592  25.225  1.00  0.00     0.344 A 
ATOM     18  C   UNL A   1      33.511  24.355  25.141  1.00  0.00     0.019 A 
ATOM     19  O   UNL A   1      33.220  22.230  23.996  1.00  0.00    -0.422 OA
ATOM     20  O   UNL A   1      33.074  20.466  25.500  1.00  0.00    -0.246 OA
ATOM     21  C   UNL A   1      33.605  25.743  25.116  1.00  0.00     0.027 A 
ATOM     22  C   UNL A   1      33.393  23.635  23.942  1.00  0.00     0.138 A 
ATOM     23  C   UNL A   1      33.675  26.384  23.878  1.00  0.00     0.018 A 
ATOM     24  C   UNL A   1      33.478  24.266  22.709  1.00  0.00     0.049 A 
ATOM     25  Br  UNL A   1      33.869  28.264  23.819  1.00  0.00    -0.051 Br
ATOM     26  C   UNL A   1      33.641  25.653  22.681  1.00  0.00     0.019 A 
ENDBRANCH  14  15
ENDBRANCH   8   9
ENDBRANCH   7   8
ENDBRANCH   5   7
ENDBRANCH   2   3
ENDBRANCH   1   2
BRANCH   1  27
ATOM     27  C   UNL A   1      45.305  22.815  26.457  1.00  0.00     0.023 C 
BRANCH  27  28
ATOM     28  C   UNL A   1      44.572  24.099  26.837  1.00  0.00     0.116 C 
BRANCH  28  29
ATOM     29  N   UNL A   1      43.631  24.544  25.822  1.00  0.00    -0.352 N 
ATOM     30  C   UNL A   1      42.605  25.460  25.919  1.00  0.00     0.251 C 
ATOM     31  H   UNL A   1      43.743  24.131  24.935  1.00  0.00     0.163 HD
ATOM     32  O   UNL A   1      41.832  25.607  24.983  1.00  0.00    -0.269 OA
BRANCH  30  33
ATOM     33  C   UNL A   1      42.420  26.239  27.168  1.00  0.00     0.039 A 
ATOM     34  C   UNL A   1      43.177  27.399  27.357  1.00  0.00     0.014 A 
ATOM     35  C   UNL A   1      41.506  25.837  28.144  1.00  0.00     0.014 A 
ATOM     36  C   UNL A   1      42.963  28.192  28.488  1.00  0.00     0.010 A 
ATOM     37  C   UNL A   1      41.240  26.668  29.232  1.00  0.00     0.010 A 
ATOM     38  C   UNL A   1      41.962  27.857  29.416  1.00  0.00    -0.014 A 
BRANCH  38  39
ATOM     39  C   UNL A   1      41.649  28.743  30.569  1.00  0.00     0.031 A 
ATOM     40  C   UNL A   1      42.442  28.642  31.845  1.00  0.00     0.074 A 
ATOM     41  C   UNL A   1      40.607  29.595  30.493  1.00  0.00     0.049 A 
ATOM     42  N   UNL A   1      42.276  29.287  32.972  1.00  0.00    -0.248 NA
ATOM     43  C   UNL A   1      43.551  27.675  31.866  1.00  0.00     0.031 C 
ATOM     44  C   UNL A   1      39.733  29.764  29.330  1.00  0.00     0.029 A 
ATOM     45  N   UNL A   1      40.100  30.477  31.416  1.00  0.00    -0.354 N 
ATOM     46  C   UNL A   1      43.248  28.798  33.837  1.00  0.00     0.074 A 
ATOM     47  C   UNL A   1      43.964  27.764  33.123  1.00  0.00     0.031 C 
ATOM     48  C   UNL A   1      38.816  30.706  29.601  1.00  0.00     0.029 A 
ATOM     49  C   UNL A   1      39.005  31.179  30.969  1.00  0.00     0.049 A 
ATOM     50  H   UNL A   1      40.486  30.597  32.315  1.00  0.00     0.167 HD
ATOM     51  C   UNL A   1      43.534  29.185  35.104  1.00  0.00     0.031 A 
ATOM     52  C   UNL A   1      38.229  32.089  31.589  1.00  0.00     0.031 A 
ATOM     53  C   UNL A   1      42.820  30.214  35.815  1.00  0.00     0.049 A 
ATOM     54  C   UNL A   1      38.550  32.488  33.004  1.00  0.00     0.074 A 
ATOM     55  C   UNL A   1      43.065  30.710  37.084  1.00  0.00     0.029 A 
ATOM     56  N   UNL A   1      41.721  30.903  35.323  1.00  0.00    -0.354 N 
ATOM     57  N   UNL A   1      39.514  32.058  33.782  1.00  0.00    -0.248 NA
ATOM     58  C   UNL A   1      37.686  33.505  33.619  1.00  0.00     0.031 C 
ATOM     59  C   UNL A   1      42.077  31.655  37.383  1.00  0.00     0.029 A 
ATOM     60  C   UNL A   1      41.260  31.799  36.273  1.00  0.00     0.049 A 
ATOM     61  H   UNL A   1      41.327  30.773  34.431  1.00  0.00     0.167 HD
ATOM     62  C   UNL A   1      39.390  32.771  34.969  1.00  0.00     0.074 A 
ATOM     63  C   UNL A   1      38.268  33.673  34.800  1.00  0.00     0.031 C 
ATOM     64  C   UNL A   1      40.140  32.689  36.096  1.00  0.00     0.031 A 
BRANCH  51  65
ATOM     65  C   UNL A   1      44.670  28.485  35.806  1.00  0.00    -0.014 A 
ATOM     66  C   UNL A   1      45.987  28.974  35.726  1.00  0.00     0.010 A 
ATOM     67  C   UNL A   1      44.413  27.344  36.589  1.00  0.00     0.010 A 
ATOM     68  C   UNL A   1      47.031  28.311  36.374  1.00  0.00     0.020 A 
ATOM     69  C   UNL A   1      45.451  26.695  37.266  1.00  0.00     0.020 A 
ATOM     70  C   UNL A   1      46.756  27.173  37.138  1.00  0.00     0.054 A 
BRANCH  70  71
ATOM     71  S   UNL A   1      48.130  26.342  37.983  1.00  0.00     0.124 S 
ATOM     72  O   UNL A   1      48.484  27.317  39.012  1.00  0.00    -0.237 OA
ATOM     73  O   UNL A   1      47.508  25.113  38.471  1.00  0.00    -0.237 OA
ATOM     74  O   UNL A   1      49.125  26.158  36.930  1.00  0.00    -0.744 OA
ENDBRANCH  70  71
ENDBRANCH  51  65
BRANCH  52  75
ATOM     75  C   UNL A   1      37.072  32.692  30.868  1.00  0.00    -0.014 A 
ATOM     76  C   UNL A   1      35.798  32.103  30.936  1.00  0.00     0.010 A 
ATOM     77  C   UNL A   1      37.239  33.873  30.121  1.00  0.00     0.010 A 
ATOM     78  C   UNL A   1      34.715  32.673  30.257  1.00  0.00     0.020 A 
ATOM     79  C   UNL A   1      36.154  34.463  29.467  1.00  0.00     0.020 A 
ATOM     80  C   UNL A   1      34.900  33.852  29.530  1.00  0.00     0.054 A 
BRANCH  80  81
ATOM     81  S   UNL A   1      33.470  34.605  28.704  1.00  0.00     0.124 S 
ATOM     82  O   UNL A   1      32.625  34.973  29.835  1.00  0.00    -0.237 OA
ATOM     83  O   UNL A   1      34.077  35.716  27.977  1.00  0.00    -0.237 OA
ATOM     84  O   UNL A   1      32.956  33.526  27.862  1.00  0.00    -0.744 OA
ENDBRANCH  80  81
ENDBRANCH  52  75
BRANCH  64  85
ATOM     85  C   UNL A   1      39.798  33.622  37.230  1.00  0.00    -0.014 A 
ATOM     86  C   UNL A   1      38.872  33.259  38.223  1.00  0.00     0.010 A 
ATOM     87  C   UNL A   1      40.458  34.861  37.329  1.00  0.00     0.010 A 
ATOM     88  C   UNL A   1      38.589  34.132  39.279  1.00  0.00     0.020 A 
ATOM     89  C   UNL A   1      40.202  35.722  38.399  1.00  0.00     0.020 A 
ATOM     90  C   UNL A   1      39.258  35.358  39.360  1.00  0.00     0.054 A 
BRANCH  90  91
ATOM     91  S   UNL A   1      38.906  36.452  40.763  1.00  0.00     0.124 S 
ATOM     92  O   UNL A   1      38.445  37.666  40.094  1.00  0.00    -0.237 OA
ATOM     93  O   UNL A   1      37.882  35.712  41.496  1.00  0.00    -0.237 OA
ATOM     94  O   UNL A   1      40.192  36.567  41.446  1.00  0.00    -0.744 OA
ENDBRANCH  90  91
ENDBRANCH  64  85
ENDBRANCH  38  39
ENDBRANCH  30  33
ENDBRANCH  28  29
ENDBRANCH  27  28
ENDBRANCH   1  27
TORSDOF 17
ENDMDL
MODEL 3
REMARK VINA RESULT:     -11.4      5.809     12.170
REMARK SMILES O=C(COc1ccc(-c2cc3cc(Br)ccc3oc2=O)cc1)NCCCCNC(=O)c1ccc(-c2c3nc(c(-c4ccc(S(=O)(=O)[O-])cc4)c4ccc([nH]4)c(-c4ccc(S(=O)(=O)[O-])cc4)c4nc(c(-c5ccc(S(=O)(=O)[O-])cc5)c5ccc2[nH]5)C=C4)C=C3)cc1
REMARK SMILES IDX 25 1 24 2 23 3 1 4 2 5 3 7 4 8 5 9 6 10 22 11 7 12 21 13
REMARK SMILES IDX 8 14 9 15 10 16 19 17 11 18 18 19 20 20 12 21 17 22 13 23
REMARK SMILES IDX 16 24 14 25 15 26 26 27 27 28 28 29 29 30 30 32 31 33 32 34
REMARK SMILES IDX 90 35 33 36 89 37 34 38 35 39 36 40 83 41 37 42 88 43 82 44
REMARK SMILES IDX 84 45 38 46 87 47 81 48 80 49 39 51 69 52 50 53 68 54 51 55
REMARK SMILES IDX 54 56 67 57 85 58 52 59 53 60 66 62 86 63 55 64 40 65 41 66
REMARK SMILES IDX 49 67 42 68 48 69 43 70 44 71 45 72 46 73 47 74 70 75 71 76
REMARK SMILES IDX 79 77 72 78 78 79 73 80 74 81 75 82 76 83 77 84 56 85 57 86
REMARK SMILES IDX 65 87 58 88 64 89 59 90 60 91 61 92 62 93 63 94
REMARK H PARENT 23 6 28 31 84 50 54 61
REMARK Flexibility Score: inf
ROOT
ATOM      1  C   UNL A   1      37.786  34.280  32.417  1.00  0.00     0.023 C 
ENDROOT
BRANCH   1   2
ATOM      2  C   UNL A   1      36.353  34.590  31.988  1.00  0.00     0.116 C 
BRANCH   2   3
ATOM      3  N   UNL A   1      35.986  34.003  30.714  1.00  0.00    -0.353 N 
ATOM      4  O   UNL A   1      34.331  32.663  31.567  1.00  0.00    -0.271 OA
ATOM      5  C   UNL A   1      34.936  33.120  30.598  1.00  0.00     0.257 C 
ATOM      6  H   UNL A   1      36.502  34.242  29.911  1.00  0.00     0.163 HD
BRANCH   5   7
ATOM      7  C   UNL A   1      34.543  32.746  29.159  1.00  0.00     0.329 C 
BRANCH   7   8
ATOM      8  O   UNL A   1      35.159  31.625  28.546  1.00  0.00    -0.484 OA
BRANCH   8   9
ATOM      9  C   UNL A   1      34.393  30.808  27.762  1.00  0.00     0.120 A 
ATOM     10  C   UNL A   1      35.032  29.653  27.308  1.00  0.00     0.047 A 
ATOM     11  C   UNL A   1      33.103  31.078  27.319  1.00  0.00     0.047 A 
ATOM     12  C   UNL A   1      34.444  28.853  26.323  1.00  0.00     0.013 A 
ATOM     13  C   UNL A   1      32.510  30.273  26.339  1.00  0.00     0.013 A 
ATOM     14  C   UNL A   1      33.211  29.207  25.760  1.00  0.00    -0.011 A 
BRANCH  14  15
ATOM     15  C   UNL A   1      32.833  28.578  24.454  1.00  0.00     0.068 A 
ATOM     16  C   UNL A   1      33.443  27.507  23.888  1.00  0.00     0.028 A 
ATOM     17  C   UNL A   1      31.350  28.289  24.382  1.00  0.00     0.344 A 
ATOM     18  C   UNL A   1      33.223  26.277  24.682  1.00  0.00     0.019 A 
ATOM     19  O   UNL A   1      30.990  27.141  25.109  1.00  0.00    -0.422 OA
ATOM     20  O   UNL A   1      30.549  29.029  23.830  1.00  0.00    -0.246 OA
ATOM     21  C   UNL A   1      34.205  25.310  24.870  1.00  0.00     0.027 A 
ATOM     22  C   UNL A   1      32.005  26.190  25.376  1.00  0.00     0.138 A 
ATOM     23  C   UNL A   1      33.988  24.317  25.826  1.00  0.00     0.018 A 
ATOM     24  C   UNL A   1      31.791  25.213  26.339  1.00  0.00     0.049 A 
ATOM     25  Br  UNL A   1      35.336  23.029  26.146  1.00  0.00    -0.051 Br
ATOM     26  C   UNL A   1      32.804  24.281  26.577  1.00  0.00     0.019 A 
ENDBRANCH  14  15
ENDBRANCH   8   9
ENDBRANCH   7   8
ENDBRANCH   5   7
ENDBRANCH   2   3
ENDBRANCH   1   2
BRANCH   1  27
ATOM     27  C   UNL A   1      38.302  32.903  31.999  1.00  0.00     0.023 C 
BRANCH  27  28
ATOM     28  C   UNL A   1      37.903  31.746  32.911  1.00  0.00     0.116 C 
BRANCH  28  29
ATOM     29  N   UNL A   1      36.785  30.970  32.396  1.00  0.00    -0.352 N 
ATOM     30  C   UNL A   1      36.770  29.994  31.423  1.00  0.00     0.251 C 
ATOM     31  H   UNL A   1      35.912  31.171  32.804  1.00  0.00     0.163 HD
ATOM     32  O   UNL A   1      35.703  29.544  31.031  1.00  0.00    -0.269 OA
BRANCH  30  33
ATOM     33  C   UNL A   1      38.043  29.517  30.828  1.00  0.00     0.039 A 
ATOM     34  C   UNL A   1      38.301  29.790  29.482  1.00  0.00     0.014 A 
ATOM     35  C   UNL A   1      38.978  28.810  31.587  1.00  0.00     0.014 A 
ATOM     36  C   UNL A   1      39.526  29.421  28.920  1.00  0.00     0.010 A 
ATOM     37  C   UNL A   1      40.228  28.511  31.047  1.00  0.00     0.010 A 
ATOM     38  C   UNL A   1      40.519  28.815  29.708  1.00  0.00    -0.014 A 
BRANCH  38  39
ATOM     39  C   UNL A   1      41.866  28.510  29.156  1.00  0.00     0.031 A 
ATOM     40  C   UNL A   1      42.902  29.597  29.028  1.00  0.00     0.074 A 
ATOM     41  C   UNL A   1      42.140  27.268  28.708  1.00  0.00     0.049 A 
ATOM     42  N   UNL A   1      44.105  29.532  28.517  1.00  0.00    -0.248 NA
ATOM     43  C   UNL A   1      42.529  30.933  29.517  1.00  0.00     0.031 C 
ATOM     44  C   UNL A   1      41.213  26.134  28.737  1.00  0.00     0.029 A 
ATOM     45  N   UNL A   1      43.275  26.751  28.134  1.00  0.00    -0.354 N 
ATOM     46  C   UNL A   1      44.628  30.817  28.611  1.00  0.00     0.074 A 
ATOM     47  C   UNL A   1      43.591  31.651  29.178  1.00  0.00     0.031 C 
ATOM     48  C   UNL A   1      41.824  25.053  28.227  1.00  0.00     0.029 A 
ATOM     49  C   UNL A   1      43.167  25.423  27.793  1.00  0.00     0.049 A 
ATOM     50  H   UNL A   1      44.090  27.282  27.980  1.00  0.00     0.167 HD
ATOM     51  C   UNL A   1      45.864  31.261  28.276  1.00  0.00     0.031 A 
ATOM     52  C   UNL A   1      44.043  24.595  27.188  1.00  0.00     0.031 A 
ATOM     53  C   UNL A   1      46.895  30.430  27.712  1.00  0.00     0.049 A 
ATOM     54  C   UNL A   1      45.402  25.114  26.804  1.00  0.00     0.074 A 
ATOM     55  C   UNL A   1      48.194  30.777  27.383  1.00  0.00     0.029 A 
ATOM     56  N   UNL A   1      46.746  29.089  27.389  1.00  0.00    -0.354 N 
ATOM     57  N   UNL A   1      45.897  26.319  26.960  1.00  0.00    -0.248 NA
ATOM     58  C   UNL A   1      46.323  24.159  26.173  1.00  0.00     0.031 C 
ATOM     59  C   UNL A   1      48.812  29.662  26.805  1.00  0.00     0.029 A 
ATOM     60  C   UNL A   1      47.920  28.602  26.839  1.00  0.00     0.049 A 
ATOM     61  H   UNL A   1      45.927  28.562  27.529  1.00  0.00     0.167 HD
ATOM     62  C   UNL A   1      47.198  26.259  26.473  1.00  0.00     0.074 A 
ATOM     63  C   UNL A   1      47.417  24.897  26.032  1.00  0.00     0.031 C 
ATOM     64  C   UNL A   1      48.127  27.244  26.400  1.00  0.00     0.031 A 
BRANCH  51  65
ATOM     65  C   UNL A   1      46.166  32.720  28.509  1.00  0.00    -0.014 A 
ATOM     66  C   UNL A   1      46.677  33.170  29.740  1.00  0.00     0.010 A 
ATOM     67  C   UNL A   1      45.973  33.649  27.471  1.00  0.00     0.010 A 
ATOM     68  C   UNL A   1      46.944  34.525  29.945  1.00  0.00     0.020 A 
ATOM     69  C   UNL A   1      46.269  35.003  27.661  1.00  0.00     0.020 A 
ATOM     70  C   UNL A   1      46.736  35.434  28.904  1.00  0.00     0.054 A 
BRANCH  70  71
ATOM     71  S   UNL A   1      47.108  37.186  29.194  1.00  0.00     0.124 S 
ATOM     72  O   UNL A   1      47.515  37.179  30.597  1.00  0.00    -0.237 OA
ATOM     73  O   UNL A   1      48.175  37.449  28.232  1.00  0.00    -0.237 OA
ATOM     74  O   UNL A   1      45.842  37.861  28.917  1.00  0.00    -0.744 OA
ENDBRANCH  70  71
ENDBRANCH  51  65
BRANCH  52  75
ATOM     75  C   UNL A   1      43.659  23.181  26.916  1.00  0.00    -0.014 A 
ATOM     76  C   UNL A   1      43.118  22.375  27.932  1.00  0.00     0.010 A 
ATOM     77  C   UNL A   1      43.821  22.637  25.628  1.00  0.00     0.010 A 
ATOM     78  C   UNL A   1      42.760  21.048  27.671  1.00  0.00     0.020 A 
ATOM     79  C   UNL A   1      43.436  21.322  25.355  1.00  0.00     0.020 A 
ATOM     80  C   UNL A   1      42.917  20.532  26.382  1.00  0.00     0.054 A 
BRANCH  80  81
ATOM     81  S   UNL A   1      42.393  18.826  26.053  1.00  0.00     0.124 S 
ATOM     82  O   UNL A   1      43.277  18.442  24.958  1.00  0.00    -0.237 OA
ATOM     83  O   UNL A   1      42.644  18.168  27.332  1.00  0.00    -0.237 OA
ATOM     84  O   UNL A   1      40.982  18.965  25.699  1.00  0.00    -0.744 OA
ENDBRANCH  80  81
ENDBRANCH  52  75
BRANCH  64  85
ATOM     85  C   UNL A   1      49.485  26.882  25.854  1.00  0.00    -0.014 A 
ATOM     86  C   UNL A   1      49.830  27.143  24.516  1.00  0.00     0.010 A 
ATOM     87  C   UNL A   1      50.448  26.320  26.712  1.00  0.00     0.010 A 
ATOM     88  C   UNL A   1      51.104  26.820  24.039  1.00  0.00     0.020 A 
ATOM     89  C   UNL A   1      51.732  26.024  26.247  1.00  0.00     0.020 A 
ATOM     90  C   UNL A   1      52.048  26.263  24.909  1.00  0.00     0.054 A 
BRANCH  90  91
ATOM     91  S   UNL A   1      53.707  25.895  24.276  1.00  0.00     0.124 S 
ATOM     92  O   UNL A   1      54.512  26.938  24.908  1.00  0.00    -0.237 OA
ATOM     93  O   UNL A   1      53.942  24.539  24.764  1.00  0.00    -0.237 OA
ATOM     94  O   UNL A   1      53.561  26.014  22.827  1.00  0.00    -0.744 OA
ENDBRANCH  90  91
ENDBRANCH  64  85
ENDBRANCH  38  39
ENDBRANCH  30  33
ENDBRANCH  28  29
ENDBRANCH  27  28
ENDBRANCH   1  27
TORSDOF 17
ENDMDL
