MODEL 1
REMARK VINA RESULT:     -11.6      0.000      0.000
REMARK SMILES CCc1c(C(=O)NCC(=O)NCCCCNC(=O)c2ccc(-c3c4nc(c(-c5ccc(S(=O)(=O)[O-])cc5)c5ccc([nH]5)c(-c5ccc(S(=O)(=O)[O-])cc5)c5nc(c(-c6ccc(S(=O)(=O)[O-])cc6)c6ccc3[nH]6)C=C5)C=C4)cc2)nnn1-c1ccc(Cl)cc1Cl
REMARK SMILES IDX 13 1 12 2 11 3 9 4 10 5 8 7 7 8 5 9 6 10 4 12 3 13 81 14
REMARK SMILES IDX 79 15 80 16 2 17 1 18 82 19 83 20 88 21 84 22 87 23 89 24
REMARK SMILES IDX 85 25 86 26 14 27 15 28 16 29 17 30 18 32 19 33 20 34 78 35
REMARK SMILES IDX 21 36 77 37 22 38 23 39 24 40 71 41 25 42 76 43 70 44 72 45
REMARK SMILES IDX 26 46 75 47 69 48 68 49 27 51 57 52 38 53 56 54 39 55 42 56
REMARK SMILES IDX 55 57 73 58 40 59 41 60 54 62 74 63 43 64 28 65 29 66 37 67
REMARK SMILES IDX 30 68 36 69 31 70 32 71 33 72 34 73 35 74 58 75 59 76 67 77
REMARK SMILES IDX 60 78 66 79 61 80 62 81 63 82 64 83 65 84 44 85 45 86 53 87
REMARK SMILES IDX 46 88 52 89 47 90 48 91 49 92 50 93 51 94
REMARK H PARENT 11 6 7 11 16 31 72 50 42 61
REMARK Flexibility Score: inf
ROOT
ATOM      1  C   UNL A   1      40.937  20.758  26.516  1.00  0.00     0.023 C 
ENDROOT
BRANCH   1   2
ATOM      2  C   UNL A   1      39.486  20.898  26.057  1.00  0.00     0.116 C 
BRANCH   2   3
ATOM      3  N   UNL A   1      39.063  22.275  25.910  1.00  0.00    -0.355 N 
ATOM      4  C   UNL A   1      37.841  22.841  25.735  1.00  0.00     0.239 C 
ATOM      5  O   UNL A   1      37.807  24.078  25.730  1.00  0.00    -0.273 OA
ATOM      6  H   UNL A   1      39.802  22.924  25.946  1.00  0.00     0.163 HD
BRANCH   4   7
ATOM      7  C   UNL A   1      36.513  22.062  25.675  1.00  0.00     0.216 C 
BRANCH   7   8
ATOM      8  N   UNL A   1      35.526  22.173  26.723  1.00  0.00    -0.342 N 
ATOM      9  C   UNL A   1      34.345  22.833  26.920  1.00  0.00     0.274 C 
ATOM     10  O   UNL A   1      33.763  22.464  27.948  1.00  0.00    -0.267 OA
ATOM     11  H   UNL A   1      35.769  21.628  27.505  1.00  0.00     0.164 HD
BRANCH   9  12
ATOM     12  C   UNL A   1      33.788  23.939  26.121  1.00  0.00     0.174 A 
ATOM     13  C   UNL A   1      32.563  24.269  25.518  1.00  0.00     0.077 A 
ATOM     14  N   UNL A   1      32.822  25.512  24.932  1.00  0.00    -0.215 N 
ATOM     15  N   UNL A   1      34.710  24.903  25.753  1.00  0.00    -0.124 NA
ATOM     16  N   UNL A   1      34.140  25.770  24.946  1.00  0.00    -0.061 NA
BRANCH  13  17
ATOM     17  C   UNL A   1      31.273  23.511  25.409  1.00  0.00     0.055 C 
ATOM     18  C   UNL A   1      30.400  23.265  26.626  1.00  0.00     0.011 C 
ENDBRANCH  13  17
BRANCH  14  19
ATOM     19  C   UNL A   1      31.972  26.402  24.252  1.00  0.00     0.085 A 
ATOM     20  C   UNL A   1      31.343  27.408  25.003  1.00  0.00     0.031 A 
ATOM     21  C   UNL A   1      31.771  26.314  22.871  1.00  0.00     0.068 A 
ATOM     22  C   UNL A   1      30.605  28.394  24.347  1.00  0.00     0.023 A 
ATOM     23  C   UNL A   1      31.029  27.303  22.223  1.00  0.00     0.043 A 
ATOM     24  Cl  UNL A   1      32.354  24.988  21.926  1.00  0.00    -0.082 Cl
ATOM     25  C   UNL A   1      30.470  28.348  22.960  1.00  0.00     0.042 A 
ATOM     26  Cl  UNL A   1      29.594  29.585  22.150  1.00  0.00    -0.084 Cl
ENDBRANCH  14  19
ENDBRANCH   9  12
ENDBRANCH   7   8
ENDBRANCH   4   7
ENDBRANCH   2   3
ENDBRANCH   1   2
BRANCH   1  27
ATOM     27  C   UNL A   1      41.637  19.453  26.107  1.00  0.00     0.023 C 
BRANCH  27  28
ATOM     28  C   UNL A   1      43.092  19.340  26.546  1.00  0.00     0.116 C 
BRANCH  28  29
ATOM     29  N   UNL A   1      44.042  19.269  25.430  1.00  0.00    -0.352 N 
ATOM     30  C   UNL A   1      44.446  20.301  24.587  1.00  0.00     0.251 C 
ATOM     31  H   UNL A   1      44.442  18.386  25.256  1.00  0.00     0.163 HD
ATOM     32  O   UNL A   1      44.903  20.077  23.481  1.00  0.00    -0.269 OA
BRANCH  30  33
ATOM     33  C   UNL A   1      44.328  21.681  25.092  1.00  0.00     0.039 A 
ATOM     34  C   UNL A   1      43.381  22.597  24.622  1.00  0.00     0.014 A 
ATOM     35  C   UNL A   1      45.187  22.016  26.128  1.00  0.00     0.014 A 
ATOM     36  C   UNL A   1      43.268  23.830  25.268  1.00  0.00     0.010 A 
ATOM     37  C   UNL A   1      44.904  23.098  26.904  1.00  0.00     0.010 A 
ATOM     38  C   UNL A   1      44.033  24.064  26.418  1.00  0.00    -0.014 A 
BRANCH  38  39
ATOM     39  C   UNL A   1      43.952  25.290  27.199  1.00  0.00     0.031 A 
ATOM     40  C   UNL A   1      44.947  26.335  26.847  1.00  0.00     0.074 A 
ATOM     41  C   UNL A   1      42.858  25.560  27.950  1.00  0.00     0.049 A 
ATOM     42  N   UNL A   1      45.933  26.759  27.564  1.00  0.00    -0.248 NA
ATOM     43  C   UNL A   1      44.929  26.882  25.480  1.00  0.00     0.031 C 
ATOM     44  C   UNL A   1      41.628  24.762  28.096  1.00  0.00     0.029 A 
ATOM     45  N   UNL A   1      42.543  26.694  28.623  1.00  0.00    -0.354 N 
ATOM     46  C   UNL A   1      46.518  27.793  26.838  1.00  0.00     0.074 A 
ATOM     47  C   UNL A   1      46.003  27.675  25.497  1.00  0.00     0.031 C 
ATOM     48  C   UNL A   1      40.632  25.542  28.572  1.00  0.00     0.029 A 
ATOM     49  C   UNL A   1      41.197  26.823  28.946  1.00  0.00     0.049 A 
ATOM     50  H   UNL A   1      43.215  27.373  28.865  1.00  0.00     0.167 HD
ATOM     51  C   UNL A   1      47.167  28.821  27.457  1.00  0.00     0.031 A 
ATOM     52  C   UNL A   1      40.585  27.923  29.452  1.00  0.00     0.031 A 
ATOM     53  C   UNL A   1      47.371  28.544  28.858  1.00  0.00     0.049 A 
ATOM     54  C   UNL A   1      41.653  28.766  30.046  1.00  0.00     0.074 A 
ATOM     55  C   UNL A   1      48.025  27.563  29.576  1.00  0.00     0.029 A 
ATOM     56  N   UNL A   1      46.488  29.132  29.738  1.00  0.00    -0.354 N 
ATOM     57  N   UNL A   1      42.378  28.385  31.062  1.00  0.00    -0.248 NA
ATOM     58  C   UNL A   1      42.244  29.803  29.215  1.00  0.00     0.031 C 
ATOM     59  C   UNL A   1      47.164  27.286  30.680  1.00  0.00     0.029 A 
ATOM     60  C   UNL A   1      46.080  28.166  30.621  1.00  0.00     0.049 A 
ATOM     61  H   UNL A   1      46.202  30.075  29.733  1.00  0.00     0.167 HD
ATOM     62  C   UNL A   1      43.669  28.795  30.753  1.00  0.00     0.074 A 
ATOM     63  C   UNL A   1      43.506  29.749  29.654  1.00  0.00     0.031 C 
ATOM     64  C   UNL A   1      44.760  28.114  31.216  1.00  0.00     0.031 A 
BRANCH  51  65
ATOM     65  C   UNL A   1      47.235  30.234  26.924  1.00  0.00    -0.014 A 
ATOM     66  C   UNL A   1      48.458  30.933  27.035  1.00  0.00     0.010 A 
ATOM     67  C   UNL A   1      46.097  30.994  26.591  1.00  0.00     0.010 A 
ATOM     68  C   UNL A   1      48.513  32.327  26.927  1.00  0.00     0.020 A 
ATOM     69  C   UNL A   1      46.150  32.382  26.437  1.00  0.00     0.020 A 
ATOM     70  C   UNL A   1      47.350  33.044  26.651  1.00  0.00     0.054 A 
BRANCH  70  71
ATOM     71  S   UNL A   1      47.402  34.852  26.660  1.00  0.00     0.124 S 
ATOM     72  O   UNL A   1      46.181  35.181  27.389  1.00  0.00    -0.237 OA
ATOM     73  O   UNL A   1      48.654  35.121  27.362  1.00  0.00    -0.237 OA
ATOM     74  O   UNL A   1      47.400  35.200  25.241  1.00  0.00    -0.744 OA
ENDBRANCH  70  71
ENDBRANCH  51  65
BRANCH  52  75
ATOM     75  C   UNL A   1      39.219  28.425  29.150  1.00  0.00    -0.014 A 
ATOM     76  C   UNL A   1      38.249  28.568  30.159  1.00  0.00     0.010 A 
ATOM     77  C   UNL A   1      38.958  29.032  27.903  1.00  0.00     0.010 A 
ATOM     78  C   UNL A   1      37.089  29.337  29.947  1.00  0.00     0.020 A 
ATOM     79  C   UNL A   1      37.805  29.796  27.683  1.00  0.00     0.020 A 
ATOM     80  C   UNL A   1      36.885  29.964  28.715  1.00  0.00     0.054 A 
BRANCH  80  81
ATOM     81  S   UNL A   1      35.476  31.096  28.501  1.00  0.00     0.124 S 
ATOM     82  O   UNL A   1      35.197  31.507  29.873  1.00  0.00    -0.237 OA
ATOM     83  O   UNL A   1      36.028  32.129  27.629  1.00  0.00    -0.237 OA
ATOM     84  O   UNL A   1      34.451  30.254  27.887  1.00  0.00    -0.744 OA
ENDBRANCH  80  81
ENDBRANCH  52  75
BRANCH  64  85
ATOM     85  C   UNL A   1      44.553  27.055  32.278  1.00  0.00    -0.014 A 
ATOM     86  C   UNL A   1      44.362  27.338  33.646  1.00  0.00     0.010 A 
ATOM     87  C   UNL A   1      44.380  25.731  31.842  1.00  0.00     0.010 A 
ATOM     88  C   UNL A   1      44.034  26.318  34.553  1.00  0.00     0.020 A 
ATOM     89  C   UNL A   1      44.037  24.713  32.735  1.00  0.00     0.020 A 
ATOM     90  C   UNL A   1      43.876  25.009  34.089  1.00  0.00     0.054 A 
BRANCH  90  91
ATOM     91  S   UNL A   1      43.415  23.695  35.255  1.00  0.00     0.124 S 
ATOM     92  O   UNL A   1      41.956  23.714  35.193  1.00  0.00    -0.237 OA
ATOM     93  O   UNL A   1      44.055  22.513  34.682  1.00  0.00    -0.237 OA
ATOM     94  O   UNL A   1      43.984  24.143  36.526  1.00  0.00    -0.744 OA
ENDBRANCH  90  91
ENDBRANCH  64  85
ENDBRANCH  38  39
ENDBRANCH  30  33
ENDBRANCH  28  29
ENDBRANCH  27  28
ENDBRANCH   1  27
TORSDOF 18
ENDMDL
MODEL 2
REMARK VINA RESULT:     -11.3      3.340      9.540
REMARK SMILES CCc1c(C(=O)NCC(=O)NCCCCNC(=O)c2ccc(-c3c4nc(c(-c5ccc(S(=O)(=O)[O-])cc5)c5ccc([nH]5)c(-c5ccc(S(=O)(=O)[O-])cc5)c5nc(c(-c6ccc(S(=O)(=O)[O-])cc6)c6ccc3[nH]6)C=C5)C=C4)cc2)nnn1-c1ccc(Cl)cc1Cl
REMARK SMILES IDX 13 1 12 2 11 3 9 4 10 5 8 7 7 8 5 9 6 10 4 12 3 13 81 14
REMARK SMILES IDX 79 15 80 16 2 17 1 18 82 19 83 20 88 21 84 22 87 23 89 24
REMARK SMILES IDX 85 25 86 26 14 27 15 28 16 29 17 30 18 32 19 33 20 34 78 35
REMARK SMILES IDX 21 36 77 37 22 38 23 39 24 40 71 41 25 42 76 43 70 44 72 45
REMARK SMILES IDX 26 46 75 47 69 48 68 49 27 51 57 52 38 53 56 54 39 55 42 56
REMARK SMILES IDX 55 57 73 58 40 59 41 60 54 62 74 63 43 64 28 65 29 66 37 67
REMARK SMILES IDX 30 68 36 69 31 70 32 71 33 72 34 73 35 74 58 75 59 76 67 77
REMARK SMILES IDX 60 78 66 79 61 80 62 81 63 82 64 83 65 84 44 85 45 86 53 87
REMARK SMILES IDX 46 88 52 89 47 90 48 91 49 92 50 93 51 94
REMARK H PARENT 11 6 7 11 16 31 72 50 42 61
REMARK Flexibility Score: inf
ROOT
ATOM      1  C   UNL A   1      35.634  30.938  27.665  1.00  0.00     0.023 C 
ENDROOT
BRANCH   1   2
ATOM      2  C   UNL A   1      35.191  29.477  27.594  1.00  0.00     0.116 C 
BRANCH   2   3
ATOM      3  N   UNL A   1      33.765  29.304  27.770  1.00  0.00    -0.355 N 
ATOM      4  C   UNL A   1      32.721  29.383  26.904  1.00  0.00     0.239 C 
ATOM      5  O   UNL A   1      31.608  29.093  27.360  1.00  0.00    -0.273 OA
ATOM      6  H   UNL A   1      33.501  29.086  28.693  1.00  0.00     0.163 HD
BRANCH   4   7
ATOM      7  C   UNL A   1      32.851  29.679  25.397  1.00  0.00     0.216 C 
BRANCH   7   8
ATOM      8  N   UNL A   1      31.690  29.776  24.545  1.00  0.00    -0.342 N 
ATOM      9  C   UNL A   1      30.743  28.929  24.042  1.00  0.00     0.274 C 
ATOM     10  O   UNL A   1      29.821  29.531  23.479  1.00  0.00    -0.267 OA
ATOM     11  H   UNL A   1      31.540  30.702  24.246  1.00  0.00     0.164 HD
BRANCH   9  12
ATOM     12  C   UNL A   1      30.772  27.455  24.027  1.00  0.00     0.174 A 
ATOM     13  C   UNL A   1      31.732  26.435  24.130  1.00  0.00     0.077 A 
ATOM     14  N   UNL A   1      30.968  25.268  24.029  1.00  0.00    -0.215 N 
ATOM     15  N   UNL A   1      29.555  26.860  23.740  1.00  0.00    -0.124 NA
ATOM     16  N   UNL A   1      29.719  25.561  23.629  1.00  0.00    -0.061 NA
BRANCH  13  17
ATOM     17  C   UNL A   1      33.226  26.486  24.244  1.00  0.00     0.055 C 
ATOM     18  C   UNL A   1      33.934  26.074  25.522  1.00  0.00     0.011 C 
ENDBRANCH  13  17
BRANCH  14  19
ATOM     19  C   UNL A   1      31.336  23.916  24.141  1.00  0.00     0.085 A 
ATOM     20  C   UNL A   1      31.841  23.278  22.996  1.00  0.00     0.031 A 
ATOM     21  C   UNL A   1      31.229  23.225  25.353  1.00  0.00     0.068 A 
ATOM     22  C   UNL A   1      32.346  21.982  23.100  1.00  0.00     0.023 A 
ATOM     23  C   UNL A   1      31.736  21.927  25.446  1.00  0.00     0.043 A 
ATOM     24  Cl  UNL A   1      30.437  23.888  26.739  1.00  0.00    -0.082 Cl
ATOM     25  C   UNL A   1      32.310  21.322  24.328  1.00  0.00     0.042 A 
ATOM     26  Cl  UNL A   1      32.969  19.740  24.462  1.00  0.00    -0.084 Cl
ENDBRANCH  14  19
ENDBRANCH   9  12
ENDBRANCH   7   8
ENDBRANCH   4   7
ENDBRANCH   2   3
ENDBRANCH   1   2
BRANCH   1  27
ATOM     27  C   UNL A   1      34.528  31.949  28.004  1.00  0.00     0.023 C 
BRANCH  27  28
ATOM     28  C   UNL A   1      35.013  33.373  28.250  1.00  0.00     0.116 C 
BRANCH  28  29
ATOM     29  N   UNL A   1      34.562  33.937  29.528  1.00  0.00    -0.352 N 
ATOM     30  C   UNL A   1      34.807  33.450  30.809  1.00  0.00     0.251 C 
ATOM     31  H   UNL A   1      34.022  34.759  29.473  1.00  0.00     0.163 HD
ATOM     32  O   UNL A   1      34.086  33.735  31.747  1.00  0.00    -0.269 OA
BRANCH  30  33
ATOM     33  C   UNL A   1      35.994  32.594  30.999  1.00  0.00     0.039 A 
ATOM     34  C   UNL A   1      35.923  31.219  31.242  1.00  0.00     0.014 A 
ATOM     35  C   UNL A   1      37.219  33.229  30.861  1.00  0.00     0.014 A 
ATOM     36  C   UNL A   1      37.110  30.484  31.267  1.00  0.00     0.010 A 
ATOM     37  C   UNL A   1      38.334  32.482  30.635  1.00  0.00     0.010 A 
ATOM     38  C   UNL A   1      38.313  31.130  30.952  1.00  0.00    -0.014 A 
BRANCH  38  39
ATOM     39  C   UNL A   1      39.597  30.449  30.894  1.00  0.00     0.031 A 
ATOM     40  C   UNL A   1      40.235  30.182  32.208  1.00  0.00     0.074 A 
ATOM     41  C   UNL A   1      40.004  29.834  29.758  1.00  0.00     0.049 A 
ATOM     42  N   UNL A   1      41.314  30.709  32.683  1.00  0.00    -0.248 NA
ATOM     43  C   UNL A   1      39.518  29.329  33.171  1.00  0.00     0.031 C 
ATOM     44  C   UNL A   1      39.287  29.712  28.477  1.00  0.00     0.029 A 
ATOM     45  N   UNL A   1      41.085  29.042  29.556  1.00  0.00    -0.354 N 
ATOM     46  C   UNL A   1      41.543  30.078  33.904  1.00  0.00     0.074 A 
ATOM     47  C   UNL A   1      40.310  29.412  34.242  1.00  0.00     0.031 C 
ATOM     48  C   UNL A   1      39.812  28.698  27.755  1.00  0.00     0.029 A 
ATOM     49  C   UNL A   1      41.011  28.235  28.425  1.00  0.00     0.049 A 
ATOM     50  H   UNL A   1      41.862  29.038  30.161  1.00  0.00     0.167 HD
ATOM     51  C   UNL A   1      42.803  29.931  34.405  1.00  0.00     0.031 A 
ATOM     52  C   UNL A   1      41.860  27.233  28.085  1.00  0.00     0.031 A 
ATOM     53  C   UNL A   1      43.758  30.712  33.660  1.00  0.00     0.049 A 
ATOM     54  C   UNL A   1      43.115  27.465  28.843  1.00  0.00     0.074 A 
ATOM     55  C   UNL A   1      43.917  32.054  33.378  1.00  0.00     0.029 A 
ATOM     56  N   UNL A   1      44.510  30.038  32.722  1.00  0.00    -0.354 N 
ATOM     57  N   UNL A   1      43.870  28.514  28.664  1.00  0.00    -0.248 NA
ATOM     58  C   UNL A   1      43.268  26.803  30.129  1.00  0.00     0.031 C 
ATOM     59  C   UNL A   1      44.337  32.093  32.015  1.00  0.00     0.029 A 
ATOM     60  C   UNL A   1      44.492  30.778  31.568  1.00  0.00     0.049 A 
ATOM     61  H   UNL A   1      44.975  29.180  32.857  1.00  0.00     0.167 HD
ATOM     62  C   UNL A   1      44.255  28.900  29.941  1.00  0.00     0.074 A 
ATOM     63  C   UNL A   1      43.937  27.753  30.792  1.00  0.00     0.031 C 
ATOM     64  C   UNL A   1      44.524  30.208  30.236  1.00  0.00     0.031 A 
BRANCH  51  65
ATOM     65  C   UNL A   1      43.249  28.775  35.273  1.00  0.00    -0.014 A 
ATOM     66  C   UNL A   1      43.782  29.063  36.548  1.00  0.00     0.010 A 
ATOM     67  C   UNL A   1      43.435  27.466  34.786  1.00  0.00     0.010 A 
ATOM     68  C   UNL A   1      44.553  28.124  37.245  1.00  0.00     0.020 A 
ATOM     69  C   UNL A   1      44.164  26.508  35.494  1.00  0.00     0.020 A 
ATOM     70  C   UNL A   1      44.756  26.858  36.699  1.00  0.00     0.054 A 
BRANCH  70  71
ATOM     71  S   UNL A   1      45.873  25.704  37.533  1.00  0.00     0.124 S 
ATOM     72  O   UNL A   1      44.931  24.818  38.211  1.00  0.00    -0.237 OA
ATOM     73  O   UNL A   1      46.604  25.118  36.413  1.00  0.00    -0.237 OA
ATOM     74  O   UNL A   1      46.664  26.568  38.406  1.00  0.00    -0.744 OA
ENDBRANCH  70  71
ENDBRANCH  51  65
BRANCH  52  75
ATOM     75  C   UNL A   1      41.527  25.941  27.431  1.00  0.00    -0.014 A 
ATOM     76  C   UNL A   1      42.531  25.079  26.952  1.00  0.00     0.010 A 
ATOM     77  C   UNL A   1      40.217  25.424  27.530  1.00  0.00     0.010 A 
ATOM     78  C   UNL A   1      42.247  23.736  26.639  1.00  0.00     0.020 A 
ATOM     79  C   UNL A   1      39.926  24.090  27.218  1.00  0.00     0.020 A 
ATOM     80  C   UNL A   1      40.948  23.245  26.795  1.00  0.00     0.054 A 
BRANCH  80  81
ATOM     81  S   UNL A   1      40.620  21.471  26.558  1.00  0.00     0.124 S 
ATOM     82  O   UNL A   1      40.702  20.954  27.920  1.00  0.00    -0.237 OA
ATOM     83  O   UNL A   1      39.289  21.471  25.958  1.00  0.00    -0.237 OA
ATOM     84  O   UNL A   1      41.698  21.040  25.668  1.00  0.00    -0.744 OA
ENDBRANCH  80  81
ENDBRANCH  52  75
BRANCH  64  85
ATOM     85  C   UNL A   1      44.646  31.195  29.095  1.00  0.00    -0.014 A 
ATOM     86  C   UNL A   1      45.811  31.366  28.321  1.00  0.00     0.010 A 
ATOM     87  C   UNL A   1      43.474  31.856  28.689  1.00  0.00     0.010 A 
ATOM     88  C   UNL A   1      45.809  32.196  27.189  1.00  0.00     0.020 A 
ATOM     89  C   UNL A   1      43.459  32.671  27.554  1.00  0.00     0.020 A 
ATOM     90  C   UNL A   1      44.629  32.846  26.814  1.00  0.00     0.054 A 
BRANCH  90  91
ATOM     91  S   UNL A   1      44.615  33.890  25.329  1.00  0.00     0.124 S 
ATOM     92  O   UNL A   1      44.176  32.960  24.292  1.00  0.00    -0.237 OA
ATOM     93  O   UNL A   1      43.661  34.939  25.679  1.00  0.00    -0.237 OA
ATOM     94  O   UNL A   1      46.001  34.340  25.207  1.00  0.00    -0.744 OA
ENDBRANCH  90  91
ENDBRANCH  64  85
ENDBRANCH  38  39
ENDBRANCH  30  33
ENDBRANCH  28  29
ENDBRANCH  27  28
ENDBRANCH   1  27
TORSDOF 18
ENDMDL
MODEL 3
REMARK VINA RESULT:     -11.2      4.402      9.746
REMARK SMILES CCc1c(C(=O)NCC(=O)NCCCCNC(=O)c2ccc(-c3c4nc(c(-c5ccc(S(=O)(=O)[O-])cc5)c5ccc([nH]5)c(-c5ccc(S(=O)(=O)[O-])cc5)c5nc(c(-c6ccc(S(=O)(=O)[O-])cc6)c6ccc3[nH]6)C=C5)C=C4)cc2)nnn1-c1ccc(Cl)cc1Cl
REMARK SMILES IDX 13 1 12 2 11 3 9 4 10 5 8 7 7 8 5 9 6 10 4 12 3 13 81 14
REMARK SMILES IDX 79 15 80 16 2 17 1 18 82 19 83 20 88 21 84 22 87 23 89 24
REMARK SMILES IDX 85 25 86 26 14 27 15 28 16 29 17 30 18 32 19 33 20 34 78 35
REMARK SMILES IDX 21 36 77 37 22 38 23 39 24 40 71 41 25 42 76 43 70 44 72 45
REMARK SMILES IDX 26 46 75 47 69 48 68 49 27 51 57 52 38 53 56 54 39 55 42 56
REMARK SMILES IDX 55 57 73 58 40 59 41 60 54 62 74 63 43 64 28 65 29 66 37 67
REMARK SMILES IDX 30 68 36 69 31 70 32 71 33 72 34 73 35 74 58 75 59 76 67 77
REMARK SMILES IDX 60 78 66 79 61 80 62 81 63 82 64 83 65 84 44 85 45 86 53 87
REMARK SMILES IDX 46 88 52 89 47 90 48 91 49 92 50 93 51 94
REMARK H PARENT 11 6 7 11 16 31 72 50 42 61
REMARK Flexibility Score: inf
ROOT
ATOM      1  C   UNL A   1      34.086  30.728  27.649  1.00  0.00     0.023 C 
ENDROOT
BRANCH   1   2
ATOM      2  C   UNL A   1      34.174  29.436  26.837  1.00  0.00     0.116 C 
BRANCH   2   3
ATOM      3  N   UNL A   1      32.946  29.116  26.140  1.00  0.00    -0.355 N 
ATOM      4  C   UNL A   1      32.655  28.206  25.174  1.00  0.00     0.239 C 
ATOM      5  O   UNL A   1      31.466  28.122  24.841  1.00  0.00    -0.273 OA
ATOM      6  H   UNL A   1      32.175  29.660  26.420  1.00  0.00     0.163 HD
BRANCH   4   7
ATOM      7  C   UNL A   1      33.665  27.207  24.576  1.00  0.00     0.216 C 
BRANCH   7   8
ATOM      8  N   UNL A   1      33.635  26.852  23.177  1.00  0.00    -0.342 N 
ATOM      9  C   UNL A   1      33.459  25.717  22.436  1.00  0.00     0.274 C 
ATOM     10  O   UNL A   1      33.345  25.955  21.227  1.00  0.00    -0.267 OA
ATOM     11  H   UNL A   1      33.780  27.638  22.603  1.00  0.00     0.164 HD
BRANCH   9  12
ATOM     12  C   UNL A   1      33.490  24.321  22.907  1.00  0.00     0.174 A 
ATOM     13  C   UNL A   1      32.614  23.416  23.528  1.00  0.00     0.077 A 
ATOM     14  N   UNL A   1      33.387  22.257  23.649  1.00  0.00    -0.215 N 
ATOM     15  N   UNL A   1      34.732  23.714  22.825  1.00  0.00    -0.124 NA
ATOM     16  N   UNL A   1      34.676  22.525  23.382  1.00  0.00    -0.061 NA
BRANCH  13  17
ATOM     17  C   UNL A   1      31.214  23.581  24.039  1.00  0.00     0.055 C 
ATOM     18  C   UNL A   1      30.926  24.361  25.309  1.00  0.00     0.011 C 
ENDBRANCH  13  17
BRANCH  14  19
ATOM     19  C   UNL A   1      33.052  20.974  24.115  1.00  0.00     0.085 A 
ATOM     20  C   UNL A   1      32.592  20.036  23.176  1.00  0.00     0.031 A 
ATOM     21  C   UNL A   1      33.190  20.623  25.462  1.00  0.00     0.068 A 
ATOM     22  C   UNL A   1      32.383  18.714  23.572  1.00  0.00     0.023 A 
ATOM     23  C   UNL A   1      32.976  19.299  25.850  1.00  0.00     0.043 A 
ATOM     24  Cl  UNL A   1      33.559  21.779  26.694  1.00  0.00    -0.082 Cl
ATOM     25  C   UNL A   1      32.596  18.349  24.901  1.00  0.00     0.042 A 
ATOM     26  Cl  UNL A   1      32.376  16.713  25.378  1.00  0.00    -0.084 Cl
ENDBRANCH  14  19
ENDBRANCH   9  12
ENDBRANCH   7   8
ENDBRANCH   4   7
ENDBRANCH   2   3
ENDBRANCH   1   2
BRANCH   1  27
ATOM     27  C   UNL A   1      33.432  31.919  26.930  1.00  0.00     0.023 C 
BRANCH  27  28
ATOM     28  C   UNL A   1      32.242  32.533  27.657  1.00  0.00     0.116 C 
BRANCH  28  29
ATOM     29  N   UNL A   1      32.267  34.000  27.698  1.00  0.00    -0.352 N 
ATOM     30  C   UNL A   1      33.072  34.816  28.489  1.00  0.00     0.251 C 
ATOM     31  H   UNL A   1      31.641  34.462  27.095  1.00  0.00     0.163 HD
ATOM     32  O   UNL A   1      32.756  35.962  28.747  1.00  0.00    -0.269 OA
BRANCH  30  33
ATOM     33  C   UNL A   1      34.342  34.251  28.982  1.00  0.00     0.039 A 
ATOM     34  C   UNL A   1      34.466  33.579  30.203  1.00  0.00     0.014 A 
ATOM     35  C   UNL A   1      35.425  34.371  28.124  1.00  0.00     0.014 A 
ATOM     36  C   UNL A   1      35.683  32.965  30.505  1.00  0.00     0.010 A 
ATOM     37  C   UNL A   1      36.510  33.569  28.305  1.00  0.00     0.010 A 
ATOM     38  C   UNL A   1      36.697  32.961  29.539  1.00  0.00    -0.014 A 
BRANCH  38  39
ATOM     39  C   UNL A   1      37.982  32.303  29.728  1.00  0.00     0.031 A 
ATOM     40  C   UNL A   1      38.042  30.887  29.284  1.00  0.00     0.074 A 
ATOM     41  C   UNL A   1      39.098  33.025  29.986  1.00  0.00     0.049 A 
ATOM     42  N   UNL A   1      38.172  29.834  30.020  1.00  0.00    -0.248 NA
ATOM     43  C   UNL A   1      37.791  30.590  27.863  1.00  0.00     0.031 C 
ATOM     44  C   UNL A   1      39.237  34.488  30.088  1.00  0.00     0.029 A 
ATOM     45  N   UNL A   1      40.386  32.611  30.051  1.00  0.00    -0.354 N 
ATOM     46  C   UNL A   1      38.260  28.759  29.139  1.00  0.00     0.074 A 
ATOM     47  C   UNL A   1      37.807  29.255  27.864  1.00  0.00     0.031 C 
ATOM     48  C   UNL A   1      40.534  34.835  29.932  1.00  0.00     0.029 A 
ATOM     49  C   UNL A   1      41.330  33.623  29.918  1.00  0.00     0.049 A 
ATOM     50  H   UNL A   1      40.636  31.667  30.185  1.00  0.00     0.167 HD
ATOM     51  C   UNL A   1      38.948  27.626  29.462  1.00  0.00     0.031 A 
ATOM     52  C   UNL A   1      42.670  33.471  29.770  1.00  0.00     0.031 A 
ATOM     53  C   UNL A   1      39.310  27.613  30.858  1.00  0.00     0.049 A 
ATOM     54  C   UNL A   1      42.997  32.107  30.256  1.00  0.00     0.074 A 
ATOM     55  C   UNL A   1      38.614  27.653  32.050  1.00  0.00     0.029 A 
ATOM     56  N   UNL A   1      40.604  27.978  31.163  1.00  0.00    -0.354 N 
ATOM     57  N   UNL A   1      42.832  31.736  31.497  1.00  0.00    -0.248 NA
ATOM     58  C   UNL A   1      43.034  31.026  29.284  1.00  0.00     0.031 C 
ATOM     59  C   UNL A   1      39.387  28.505  32.894  1.00  0.00     0.029 A 
ATOM     60  C   UNL A   1      40.548  28.868  32.205  1.00  0.00     0.049 A 
ATOM     61  H   UNL A   1      41.420  27.657  30.715  1.00  0.00     0.167 HD
ATOM     62  C   UNL A   1      42.308  30.452  31.418  1.00  0.00     0.074 A 
ATOM     63  C   UNL A   1      42.549  30.033  30.037  1.00  0.00     0.031 C 
ATOM     64  C   UNL A   1      41.478  29.964  32.388  1.00  0.00     0.031 A 
BRANCH  51  65
ATOM     65  C   UNL A   1      39.664  26.746  28.463  1.00  0.00    -0.014 A 
ATOM     66  C   UNL A   1      39.495  25.348  28.561  1.00  0.00     0.010 A 
ATOM     67  C   UNL A   1      40.707  27.204  27.632  1.00  0.00     0.010 A 
ATOM     68  C   UNL A   1      40.389  24.460  27.949  1.00  0.00     0.020 A 
ATOM     69  C   UNL A   1      41.576  26.326  26.981  1.00  0.00     0.020 A 
ATOM     70  C   UNL A   1      41.439  24.960  27.181  1.00  0.00     0.054 A 
BRANCH  70  71
ATOM     71  S   UNL A   1      42.672  23.815  26.517  1.00  0.00     0.124 S 
ATOM     72  O   UNL A   1      43.825  24.094  27.370  1.00  0.00    -0.237 OA
ATOM     73  O   UNL A   1      42.031  22.519  26.719  1.00  0.00    -0.237 OA
ATOM     74  O   UNL A   1      42.807  24.230  25.123  1.00  0.00    -0.744 OA
ENDBRANCH  70  71
ENDBRANCH  51  65
BRANCH  52  75
ATOM     75  C   UNL A   1      43.592  34.285  28.936  1.00  0.00    -0.014 A 
ATOM     76  C   UNL A   1      44.725  34.911  29.490  1.00  0.00     0.010 A 
ATOM     77  C   UNL A   1      43.508  34.215  27.529  1.00  0.00     0.010 A 
ATOM     78  C   UNL A   1      45.760  35.396  28.668  1.00  0.00     0.020 A 
ATOM     79  C   UNL A   1      44.533  34.698  26.705  1.00  0.00     0.020 A 
ATOM     80  C   UNL A   1      45.666  35.266  27.280  1.00  0.00     0.054 A 
BRANCH  80  81
ATOM     81  S   UNL A   1      47.079  35.734  26.232  1.00  0.00     0.124 S 
ATOM     82  O   UNL A   1      46.732  37.094  25.832  1.00  0.00    -0.237 OA
ATOM     83  O   UNL A   1      48.209  35.611  27.149  1.00  0.00    -0.237 OA
ATOM     84  O   UNL A   1      47.048  34.745  25.155  1.00  0.00    -0.744 OA
ENDBRANCH  80  81
ENDBRANCH  52  75
BRANCH  64  85
ATOM     85  C   UNL A   1      41.336  30.745  33.678  1.00  0.00    -0.014 A 
ATOM     86  C   UNL A   1      40.404  31.783  33.872  1.00  0.00     0.010 A 
ATOM     87  C   UNL A   1      42.069  30.291  34.788  1.00  0.00     0.010 A 
ATOM     88  C   UNL A   1      40.229  32.367  35.137  1.00  0.00     0.020 A 
ATOM     89  C   UNL A   1      41.889  30.856  36.053  1.00  0.00     0.020 A 
ATOM     90  C   UNL A   1      40.977  31.898  36.220  1.00  0.00     0.054 A 
BRANCH  90  91
ATOM     91  S   UNL A   1      40.727  32.628  37.864  1.00  0.00     0.124 S 
ATOM     92  O   UNL A   1      41.054  34.034  37.639  1.00  0.00    -0.237 OA
ATOM     93  O   UNL A   1      39.320  32.344  38.135  1.00  0.00    -0.237 OA
ATOM     94  O   UNL A   1      41.671  31.903  38.714  1.00  0.00    -0.744 OA
ENDBRANCH  90  91
ENDBRANCH  64  85
ENDBRANCH  38  39
ENDBRANCH  30  33
ENDBRANCH  28  29
ENDBRANCH  27  28
ENDBRANCH   1  27
TORSDOF 18
ENDMDL
