MODEL 1
REMARK VINA RESULT:     -14.0      0.000      0.000
REMARK SMILES O=C(NCCCCNC(=O)c1ccc(N2C(=O)[C@@H]3N=NC(c4ccccc4)=C3[C@H]2c2cccc(Br)c2)cc1)c1ccc(-c2c3nc(c(-c4ccc(S(=O)(=O)[O-])cc4)c4ccc([nH]4)c(-c4ccc(S(=O)(=O)[O-])cc4)c4nc(c(-c5ccc(S(=O)(=O)[O-])cc5)c5ccc2[nH]5)C=C4)C=C3)cc1
REMARK SMILES IDX 5 1 4 2 3 3 1 4 2 5 39 7 40 8 98 9 41 10 97 11 42 12 43 13
REMARK SMILES IDX 44 14 91 15 45 16 96 17 90 18 92 19 46 20 95 21 89 22 88 23
REMARK SMILES IDX 47 25 77 26 58 27 76 28 59 29 62 30 75 31 93 32 60 33 61 34
REMARK SMILES IDX 74 36 94 37 63 38 48 39 49 40 57 41 50 42 56 43 51 44 52 45
REMARK SMILES IDX 53 46 54 47 55 48 78 49 79 50 87 51 80 52 86 53 81 54 82 55
REMARK SMILES IDX 83 56 84 57 85 58 64 59 65 60 73 61 66 62 72 63 67 64 68 65
REMARK SMILES IDX 69 66 70 67 71 68 6 69 7 70 8 71 9 72 10 74 11 75 12 76
REMARK SMILES IDX 38 77 13 78 37 79 14 80 15 81 16 82 29 83 18 84 17 85 28 86
REMARK SMILES IDX 19 87 21 88 20 89 30 90 31 91 36 92 32 93 34 94 33 95 35 96
REMARK SMILES IDX 22 97 23 98 27 99 24 100 26 101 25 102
REMARK H PARENT 3 6 92 24 62 35 8 73
REMARK Flexibility Score: inf
ROOT
ATOM      1  C   UNL A   1      32.701  29.854  25.405  1.00  0.00     0.023 C 
ENDROOT
BRANCH   1   2
ATOM      2  C   UNL A   1      32.884  29.859  26.922  1.00  0.00     0.116 C 
BRANCH   2   3
ATOM      3  N   UNL A   1      33.327  31.119  27.483  1.00  0.00    -0.352 N 
ATOM      4  O   UNL A   1      34.509  32.890  28.023  1.00  0.00    -0.269 OA
ATOM      5  C   UNL A   1      34.534  31.671  27.819  1.00  0.00     0.251 C 
ATOM      6  H   UNL A   1      32.574  31.727  27.668  1.00  0.00     0.163 HD
BRANCH   5   7
ATOM      7  C   UNL A   1      35.820  30.941  28.026  1.00  0.00     0.039 A 
ATOM      8  C   UNL A   1      36.050  29.584  27.810  1.00  0.00     0.014 A 
ATOM      9  C   UNL A   1      36.887  31.723  28.521  1.00  0.00     0.014 A 
ATOM     10  C   UNL A   1      37.291  29.020  28.145  1.00  0.00     0.010 A 
ATOM     11  C   UNL A   1      38.118  31.165  28.865  1.00  0.00     0.010 A 
ATOM     12  C   UNL A   1      38.316  29.800  28.703  1.00  0.00    -0.014 A 
BRANCH  12  13
ATOM     13  C   UNL A   1      39.647  29.207  28.893  1.00  0.00     0.031 A 
ATOM     14  C   UNL A   1      40.001  29.012  30.327  1.00  0.00     0.074 A 
ATOM     15  C   UNL A   1      40.468  28.729  27.929  1.00  0.00     0.049 A 
ATOM     16  N   UNL A   1      40.854  29.689  31.021  1.00  0.00    -0.248 NA
ATOM     17  C   UNL A   1      39.211  28.056  31.119  1.00  0.00     0.031 C 
ATOM     18  C   UNL A   1      40.189  28.562  26.501  1.00  0.00     0.029 A 
ATOM     19  N   UNL A   1      41.730  28.209  28.048  1.00  0.00    -0.354 N 
ATOM     20  C   UNL A   1      40.881  29.096  32.281  1.00  0.00     0.074 A 
ATOM     21  C   UNL A   1      39.735  28.224  32.335  1.00  0.00     0.031 C 
ATOM     22  C   UNL A   1      41.154  27.793  25.937  1.00  0.00     0.029 A 
ATOM     23  C   UNL A   1      42.194  27.530  26.919  1.00  0.00     0.049 A 
ATOM     24  H   UNL A   1      42.268  28.306  28.865  1.00  0.00     0.167 HD
ATOM     25  C   UNL A   1      41.979  29.185  33.084  1.00  0.00     0.031 A 
ATOM     26  C   UNL A   1      43.333  26.790  26.805  1.00  0.00     0.031 A 
ATOM     27  C   UNL A   1      42.889  30.202  32.623  1.00  0.00     0.049 A 
ATOM     28  C   UNL A   1      44.254  27.230  27.878  1.00  0.00     0.074 A 
ATOM     29  C   UNL A   1      42.806  31.560  32.390  1.00  0.00     0.029 A 
ATOM     30  N   UNL A   1      44.010  29.770  31.954  1.00  0.00    -0.354 N 
ATOM     31  N   UNL A   1      44.813  28.405  27.903  1.00  0.00    -0.248 NA
ATOM     32  C   UNL A   1      44.216  26.524  29.145  1.00  0.00     0.031 C 
ATOM     33  C   UNL A   1      43.582  31.777  31.214  1.00  0.00     0.029 A 
ATOM     34  C   UNL A   1      44.161  30.560  30.848  1.00  0.00     0.049 A 
ATOM     35  H   UNL A   1      44.597  29.028  32.223  1.00  0.00     0.167 HD
ATOM     36  C   UNL A   1      44.778  28.776  29.238  1.00  0.00     0.074 A 
ATOM     37  C   UNL A   1      44.484  27.543  29.966  1.00  0.00     0.031 C 
ATOM     38  C   UNL A   1      44.719  30.091  29.599  1.00  0.00     0.031 A 
BRANCH  25  39
ATOM     39  C   UNL A   1      42.439  28.079  34.008  1.00  0.00    -0.014 A 
ATOM     40  C   UNL A   1      42.556  28.361  35.386  1.00  0.00     0.010 A 
ATOM     41  C   UNL A   1      43.043  26.890  33.550  1.00  0.00     0.010 A 
ATOM     42  C   UNL A   1      43.318  27.551  36.237  1.00  0.00     0.020 A 
ATOM     43  C   UNL A   1      43.766  26.051  34.399  1.00  0.00     0.020 A 
ATOM     44  C   UNL A   1      43.931  26.406  35.731  1.00  0.00     0.054 A 
BRANCH  44  45
ATOM     45  S   UNL A   1      44.990  25.418  36.815  1.00  0.00     0.124 S 
ATOM     46  O   UNL A   1      45.465  24.381  35.905  1.00  0.00    -0.237 OA
ATOM     47  O   UNL A   1      45.988  26.395  37.241  1.00  0.00    -0.237 OA
ATOM     48  O   UNL A   1      44.078  24.967  37.863  1.00  0.00    -0.744 OA
ENDBRANCH  44  45
ENDBRANCH  25  39
BRANCH  26  49
ATOM     49  C   UNL A   1      43.598  25.544  26.031  1.00  0.00    -0.014 A 
ATOM     50  C   UNL A   1      44.903  25.205  25.609  1.00  0.00     0.010 A 
ATOM     51  C   UNL A   1      42.623  24.529  25.990  1.00  0.00     0.010 A 
ATOM     52  C   UNL A   1      45.234  23.886  25.238  1.00  0.00     0.020 A 
ATOM     53  C   UNL A   1      42.944  23.214  25.616  1.00  0.00     0.020 A 
ATOM     54  C   UNL A   1      44.254  22.892  25.268  1.00  0.00     0.054 A 
BRANCH  54  55
ATOM     55  S   UNL A   1      44.723  21.154  24.985  1.00  0.00     0.124 S 
ATOM     56  O   UNL A   1      44.628  21.037  23.533  1.00  0.00    -0.237 OA
ATOM     57  O   UNL A   1      46.073  21.092  25.537  1.00  0.00    -0.237 OA
ATOM     58  O   UNL A   1      43.717  20.402  25.734  1.00  0.00    -0.744 OA
ENDBRANCH  54  55
ENDBRANCH  26  49
BRANCH  38  59
ATOM     59  C   UNL A   1      45.064  31.147  28.578  1.00  0.00    -0.014 A 
ATOM     60  C   UNL A   1      44.221  31.561  27.529  1.00  0.00     0.010 A 
ATOM     61  C   UNL A   1      46.274  31.835  28.776  1.00  0.00     0.010 A 
ATOM     62  C   UNL A   1      44.601  32.612  26.680  1.00  0.00     0.020 A 
ATOM     63  C   UNL A   1      46.649  32.895  27.951  1.00  0.00     0.020 A 
ATOM     64  C   UNL A   1      45.817  33.269  26.895  1.00  0.00     0.054 A 
BRANCH  64  65
ATOM     65  S   UNL A   1      46.307  34.635  25.808  1.00  0.00     0.124 S 
ATOM     66  O   UNL A   1      45.369  34.508  24.697  1.00  0.00    -0.237 OA
ATOM     67  O   UNL A   1      46.125  35.809  26.658  1.00  0.00    -0.237 OA
ATOM     68  O   UNL A   1      47.700  34.334  25.476  1.00  0.00    -0.744 OA
ENDBRANCH  64  65
ENDBRANCH  38  59
ENDBRANCH  12  13
ENDBRANCH   5   7
ENDBRANCH   2   3
ENDBRANCH   1   2
BRANCH   1  69
ATOM     69  C   UNL A   1      33.642  28.943  24.601  1.00  0.00     0.023 C 
BRANCH  69  70
ATOM     70  C   UNL A   1      33.492  28.937  23.075  1.00  0.00     0.116 C 
BRANCH  70  71
ATOM     71  N   UNL A   1      32.111  28.975  22.625  1.00  0.00    -0.352 N 
ATOM     72  C   UNL A   1      31.183  27.965  22.530  1.00  0.00     0.251 C 
ATOM     73  H   UNL A   1      31.789  29.862  22.346  1.00  0.00     0.163 HD
ATOM     74  O   UNL A   1      30.079  28.200  22.039  1.00  0.00    -0.269 OA
BRANCH  72  75
ATOM     75  C   UNL A   1      31.482  26.577  22.969  1.00  0.00     0.039 A 
ATOM     76  C   UNL A   1      31.358  26.292  24.329  1.00  0.00     0.016 A 
ATOM     77  C   UNL A   1      31.946  25.576  22.103  1.00  0.00     0.016 A 
ATOM     78  C   UNL A   1      31.616  25.000  24.800  1.00  0.00     0.027 A 
ATOM     79  C   UNL A   1      32.220  24.273  22.582  1.00  0.00     0.027 A 
ATOM     80  C   UNL A   1      32.031  23.968  23.932  1.00  0.00     0.045 A 
BRANCH  80  81
ATOM     81  N   UNL A   1      32.130  22.617  24.428  1.00  0.00    -0.299 N 
ATOM     82  C   UNL A   1      31.666  22.458  25.781  1.00  0.00     0.259 C 
ATOM     83  C   UNL A   1      33.386  21.843  24.227  1.00  0.00     0.152 C 
ATOM     84  C   UNL A   1      32.665  21.632  26.526  1.00  0.00     0.248 C 
ATOM     85  O   UNL A   1      30.658  22.963  26.269  1.00  0.00    -0.271 OA
ATOM     86  C   UNL A   1      33.824  21.861  25.635  1.00  0.00     0.021 C 
ATOM     87  N   UNL A   1      33.162  22.168  27.801  1.00  0.00    -0.170 NA
ATOM     88  C   UNL A   1      34.845  22.195  26.414  1.00  0.00     0.097 C 
ATOM     89  N   UNL A   1      34.418  22.330  27.721  1.00  0.00    -0.154 NA
BRANCH  83  90
ATOM     90  C   UNL A   1      33.244  20.367  23.765  1.00  0.00    -0.020 A 
ATOM     91  C   UNL A   1      32.302  20.006  22.758  1.00  0.00     0.006 A 
ATOM     92  C   UNL A   1      33.930  19.312  24.381  1.00  0.00     0.022 A 
ATOM     93  C   UNL A   1      32.065  18.688  22.370  1.00  0.00     0.002 A 
ATOM     94  C   UNL A   1      33.664  17.978  24.007  1.00  0.00     0.018 A 
ATOM     95  C   UNL A   1      32.740  17.665  23.008  1.00  0.00     0.016 A 
ATOM     96  Br  UNL A   1      34.533  16.550  24.899  1.00  0.00    -0.051 Br
ENDBRANCH  83  90
BRANCH  88  97
ATOM     97  C   UNL A   1      36.217  22.552  26.069  1.00  0.00     0.002 A 
ATOM     98  C   UNL A   1      37.126  21.570  25.649  1.00  0.00     0.010 A 
ATOM     99  C   UNL A   1      36.688  23.829  26.395  1.00  0.00     0.010 A 
ATOM    100  C   UNL A   1      38.499  21.837  25.661  1.00  0.00     0.001 A 
ATOM    101  C   UNL A   1      38.058  24.092  26.403  1.00  0.00     0.001 A 
ATOM    102  C   UNL A   1      38.963  23.087  26.068  1.00  0.00     0.000 A 
ENDBRANCH  88  97
ENDBRANCH  80  81
ENDBRANCH  72  75
ENDBRANCH  70  71
ENDBRANCH  69  70
ENDBRANCH   1  69
TORSDOF 17
ENDMDL
MODEL 2
REMARK VINA RESULT:     -13.9      3.123      9.626
REMARK SMILES O=C(NCCCCNC(=O)c1ccc(N2C(=O)[C@@H]3N=NC(c4ccccc4)=C3[C@H]2c2cccc(Br)c2)cc1)c1ccc(-c2c3nc(c(-c4ccc(S(=O)(=O)[O-])cc4)c4ccc([nH]4)c(-c4ccc(S(=O)(=O)[O-])cc4)c4nc(c(-c5ccc(S(=O)(=O)[O-])cc5)c5ccc2[nH]5)C=C4)C=C3)cc1
REMARK SMILES IDX 5 1 4 2 3 3 1 4 2 5 39 7 40 8 98 9 41 10 97 11 42 12 43 13
REMARK SMILES IDX 44 14 91 15 45 16 96 17 90 18 92 19 46 20 95 21 89 22 88 23
REMARK SMILES IDX 47 25 77 26 58 27 76 28 59 29 62 30 75 31 93 32 60 33 61 34
REMARK SMILES IDX 74 36 94 37 63 38 48 39 49 40 57 41 50 42 56 43 51 44 52 45
REMARK SMILES IDX 53 46 54 47 55 48 78 49 79 50 87 51 80 52 86 53 81 54 82 55
REMARK SMILES IDX 83 56 84 57 85 58 64 59 65 60 73 61 66 62 72 63 67 64 68 65
REMARK SMILES IDX 69 66 70 67 71 68 6 69 7 70 8 71 9 72 10 74 11 75 12 76
REMARK SMILES IDX 38 77 13 78 37 79 14 80 15 81 16 82 29 83 18 84 17 85 28 86
REMARK SMILES IDX 19 87 21 88 20 89 30 90 31 91 36 92 32 93 34 94 33 95 35 96
REMARK SMILES IDX 22 97 23 98 27 99 24 100 26 101 25 102
REMARK H PARENT 3 6 92 24 62 35 8 73
REMARK Flexibility Score: inf
ROOT
ATOM      1  C   UNL A   1      37.737  21.461  24.991  1.00  0.00     0.023 C 
ENDROOT
BRANCH   1   2
ATOM      2  C   UNL A   1      38.783  21.499  26.103  1.00  0.00     0.116 C 
BRANCH   2   3
ATOM      3  N   UNL A   1      40.147  21.697  25.657  1.00  0.00    -0.352 N 
ATOM      4  O   UNL A   1      42.277  22.226  25.548  1.00  0.00    -0.269 OA
ATOM      5  C   UNL A   1      41.163  22.561  25.967  1.00  0.00     0.251 C 
ATOM      6  H   UNL A   1      40.407  21.050  24.961  1.00  0.00     0.163 HD
BRANCH   5   7
ATOM      7  C   UNL A   1      41.035  23.867  26.679  1.00  0.00     0.039 A 
ATOM      8  C   UNL A   1      39.855  24.564  26.932  1.00  0.00     0.014 A 
ATOM      9  C   UNL A   1      42.251  24.449  27.100  1.00  0.00     0.014 A 
ATOM     10  C   UNL A   1      39.903  25.834  27.528  1.00  0.00     0.010 A 
ATOM     11  C   UNL A   1      42.304  25.715  27.683  1.00  0.00     0.010 A 
ATOM     12  C   UNL A   1      41.128  26.427  27.875  1.00  0.00    -0.014 A 
BRANCH  12  13
ATOM     13  C   UNL A   1      41.127  27.683  28.637  1.00  0.00     0.031 A 
ATOM     14  C   UNL A   1      42.212  28.618  28.225  1.00  0.00     0.074 A 
ATOM     15  C   UNL A   1      40.196  28.090  29.531  1.00  0.00     0.049 A 
ATOM     16  N   UNL A   1      43.285  28.910  28.882  1.00  0.00    -0.248 NA
ATOM     17  C   UNL A   1      42.174  29.176  26.864  1.00  0.00     0.031 C 
ATOM     18  C   UNL A   1      38.917  27.458  29.859  1.00  0.00     0.029 A 
ATOM     19  N   UNL A   1      40.171  29.226  30.297  1.00  0.00    -0.354 N 
ATOM     20  C   UNL A   1      43.951  29.868  28.123  1.00  0.00     0.074 A 
ATOM     21  C   UNL A   1      43.321  29.859  26.827  1.00  0.00     0.031 C 
ATOM     22  C   UNL A   1      38.157  28.319  30.581  1.00  0.00     0.029 A 
ATOM     23  C   UNL A   1      38.940  29.504  30.894  1.00  0.00     0.049 A 
ATOM     24  H   UNL A   1      40.960  29.802  30.417  1.00  0.00     0.167 HD
ATOM     25  C   UNL A   1      44.804  30.762  28.699  1.00  0.00     0.031 A 
ATOM     26  C   UNL A   1      38.582  30.630  31.574  1.00  0.00     0.031 A 
ATOM     27  C   UNL A   1      45.159  30.366  30.038  1.00  0.00     0.049 A 
ATOM     28  C   UNL A   1      39.830  31.285  32.029  1.00  0.00     0.074 A 
ATOM     29  C   UNL A   1      45.752  29.257  30.607  1.00  0.00     0.029 A 
ATOM     30  N   UNL A   1      44.534  31.032  31.065  1.00  0.00    -0.354 N 
ATOM     31  N   UNL A   1      40.616  30.779  32.934  1.00  0.00    -0.248 NA
ATOM     32  C   UNL A   1      40.427  32.291  31.169  1.00  0.00     0.031 C 
ATOM     33  C   UNL A   1      45.050  29.056  31.831  1.00  0.00     0.029 A 
ATOM     34  C   UNL A   1      44.132  30.097  31.979  1.00  0.00     0.049 A 
ATOM     35  H   UNL A   1      44.402  32.005  31.131  1.00  0.00     0.167 HD
ATOM     36  C   UNL A   1      41.894  31.049  32.474  1.00  0.00     0.074 A 
ATOM     37  C   UNL A   1      41.715  32.060  31.433  1.00  0.00     0.031 C 
ATOM     38  C   UNL A   1      42.940  30.230  32.787  1.00  0.00     0.031 A 
BRANCH  25  39
ATOM     39  C   UNL A   1      44.965  32.193  28.234  1.00  0.00    -0.014 A 
ATOM     40  C   UNL A   1      46.265  32.743  28.194  1.00  0.00     0.010 A 
ATOM     41  C   UNL A   1      43.889  33.098  28.131  1.00  0.00     0.010 A 
ATOM     42  C   UNL A   1      46.472  34.127  28.154  1.00  0.00     0.020 A 
ATOM     43  C   UNL A   1      44.086  34.477  28.043  1.00  0.00     0.020 A 
ATOM     44  C   UNL A   1      45.377  34.987  28.093  1.00  0.00     0.054 A 
BRANCH  44  45
ATOM     45  S   UNL A   1      45.652  36.774  28.136  1.00  0.00     0.124 S 
ATOM     46  O   UNL A   1      47.022  36.854  28.628  1.00  0.00    -0.237 OA
ATOM     47  O   UNL A   1      45.455  37.147  26.738  1.00  0.00    -0.237 OA
ATOM     48  O   UNL A   1      44.623  37.255  29.055  1.00  0.00    -0.744 OA
ENDBRANCH  44  45
ENDBRANCH  25  39
BRANCH  26  49
ATOM     49  C   UNL A   1      37.276  31.345  31.633  1.00  0.00    -0.014 A 
ATOM     50  C   UNL A   1      36.631  31.597  32.865  1.00  0.00     0.010 A 
ATOM     51  C   UNL A   1      36.824  32.064  30.509  1.00  0.00     0.010 A 
ATOM     52  C   UNL A   1      35.632  32.584  32.981  1.00  0.00     0.020 A 
ATOM     53  C   UNL A   1      35.826  33.045  30.616  1.00  0.00     0.020 A 
ATOM     54  C   UNL A   1      35.253  33.321  31.856  1.00  0.00     0.054 A 
BRANCH  54  55
ATOM     55  S   UNL A   1      34.112  34.729  32.043  1.00  0.00     0.124 S 
ATOM     56  O   UNL A   1      33.023  34.149  32.823  1.00  0.00    -0.237 OA
ATOM     57  O   UNL A   1      34.932  35.716  32.740  1.00  0.00    -0.237 OA
ATOM     58  O   UNL A   1      33.770  35.078  30.665  1.00  0.00    -0.744 OA
ENDBRANCH  54  55
ENDBRANCH  26  49
BRANCH  38  59
ATOM     59  C   UNL A   1      42.789  29.253  33.927  1.00  0.00    -0.014 A 
ATOM     60  C   UNL A   1      43.110  29.525  35.271  1.00  0.00     0.010 A 
ATOM     61  C   UNL A   1      42.172  28.027  33.621  1.00  0.00     0.010 A 
ATOM     62  C   UNL A   1      42.854  28.574  36.272  1.00  0.00     0.020 A 
ATOM     63  C   UNL A   1      41.893  27.088  34.613  1.00  0.00     0.020 A 
ATOM     64  C   UNL A   1      42.250  27.359  35.933  1.00  0.00     0.054 A 
BRANCH  64  65
ATOM     65  S   UNL A   1      41.906  26.134  37.226  1.00  0.00     0.124 S 
ATOM     66  O   UNL A   1      40.567  26.509  37.670  1.00  0.00    -0.237 OA
ATOM     67  O   UNL A   1      42.001  24.867  36.505  1.00  0.00    -0.237 OA
ATOM     68  O   UNL A   1      42.967  26.357  38.209  1.00  0.00    -0.744 OA
ENDBRANCH  64  65
ENDBRANCH  38  59
ENDBRANCH  12  13
ENDBRANCH   5   7
ENDBRANCH   2   3
ENDBRANCH   1   2
BRANCH   1  69
ATOM     69  C   UNL A   1      36.836  20.216  24.936  1.00  0.00     0.023 C 
BRANCH  69  70
ATOM     70  C   UNL A   1      35.321  20.438  24.865  1.00  0.00     0.116 C 
BRANCH  70  71
ATOM     71  N   UNL A   1      34.687  20.551  26.168  1.00  0.00    -0.352 N 
ATOM     72  C   UNL A   1      33.861  21.529  26.669  1.00  0.00     0.251 C 
ATOM     73  H   UNL A   1      34.878  19.811  26.790  1.00  0.00     0.163 HD
ATOM     74  O   UNL A   1      33.496  21.472  27.843  1.00  0.00    -0.269 OA
BRANCH  72  75
ATOM     75  C   UNL A   1      33.420  22.685  25.845  1.00  0.00     0.039 A 
ATOM     76  C   UNL A   1      32.219  22.555  25.147  1.00  0.00     0.016 A 
ATOM     77  C   UNL A   1      34.181  23.852  25.682  1.00  0.00     0.016 A 
ATOM     78  C   UNL A   1      31.747  23.613  24.363  1.00  0.00     0.027 A 
ATOM     79  C   UNL A   1      33.709  24.917  24.878  1.00  0.00     0.027 A 
ATOM     80  C   UNL A   1      32.474  24.815  24.233  1.00  0.00     0.045 A 
BRANCH  80  81
ATOM     81  N   UNL A   1      31.879  25.937  23.549  1.00  0.00    -0.299 N 
ATOM     82  C   UNL A   1      32.630  26.389  22.408  1.00  0.00     0.259 C 
ATOM     83  C   UNL A   1      31.385  27.106  24.328  1.00  0.00     0.152 C 
ATOM     84  C   UNL A   1      32.715  27.881  22.463  1.00  0.00     0.248 C 
ATOM     85  O   UNL A   1      33.169  25.678  21.564  1.00  0.00    -0.271 OA
ATOM     86  C   UNL A   1      32.440  28.048  23.907  1.00  0.00     0.021 C 
ATOM     87  N   UNL A   1      34.052  28.481  22.346  1.00  0.00    -0.170 NA
ATOM     88  C   UNL A   1      33.372  28.865  24.382  1.00  0.00     0.097 C 
ATOM     89  N   UNL A   1      34.304  29.139  23.401  1.00  0.00    -0.154 NA
BRANCH  83  90
ATOM     90  C   UNL A   1      30.003  27.691  23.933  1.00  0.00    -0.020 A 
ATOM     91  C   UNL A   1      28.841  26.866  23.911  1.00  0.00     0.006 A 
ATOM     92  C   UNL A   1      29.841  29.004  23.469  1.00  0.00     0.022 A 
ATOM     93  C   UNL A   1      27.595  27.312  23.475  1.00  0.00     0.002 A 
ATOM     94  C   UNL A   1      28.585  29.442  23.000  1.00  0.00     0.018 A 
ATOM     95  C   UNL A   1      27.467  28.605  23.004  1.00  0.00     0.016 A 
ATOM     96  Br  UNL A   1      28.389  31.190  22.298  1.00  0.00    -0.051 Br
ENDBRANCH  83  90
BRANCH  88  97
ATOM     97  C   UNL A   1      33.595  29.351  25.740  1.00  0.00     0.002 A 
ATOM     98  C   UNL A   1      32.870  30.444  26.235  1.00  0.00     0.010 A 
ATOM     99  C   UNL A   1      34.705  28.883  26.453  1.00  0.00     0.010 A 
ATOM    100  C   UNL A   1      33.318  31.123  27.373  1.00  0.00     0.001 A 
ATOM    101  C   UNL A   1      35.148  29.561  27.589  1.00  0.00     0.001 A 
ATOM    102  C   UNL A   1      34.473  30.699  28.029  1.00  0.00     0.000 A 
ENDBRANCH  88  97
ENDBRANCH  80  81
ENDBRANCH  72  75
ENDBRANCH  70  71
ENDBRANCH  69  70
ENDBRANCH   1  69
TORSDOF 17
ENDMDL
MODEL 3
REMARK VINA RESULT:     -12.7      7.135     12.467
REMARK SMILES O=C(NCCCCNC(=O)c1ccc(N2C(=O)[C@@H]3N=NC(c4ccccc4)=C3[C@H]2c2cccc(Br)c2)cc1)c1ccc(-c2c3nc(c(-c4ccc(S(=O)(=O)[O-])cc4)c4ccc([nH]4)c(-c4ccc(S(=O)(=O)[O-])cc4)c4nc(c(-c5ccc(S(=O)(=O)[O-])cc5)c5ccc2[nH]5)C=C4)C=C3)cc1
REMARK SMILES IDX 5 1 4 2 3 3 1 4 2 5 39 7 40 8 98 9 41 10 97 11 42 12 43 13
REMARK SMILES IDX 44 14 91 15 45 16 96 17 90 18 92 19 46 20 95 21 89 22 88 23
REMARK SMILES IDX 47 25 77 26 58 27 76 28 59 29 62 30 75 31 93 32 60 33 61 34
REMARK SMILES IDX 74 36 94 37 63 38 48 39 49 40 57 41 50 42 56 43 51 44 52 45
REMARK SMILES IDX 53 46 54 47 55 48 78 49 79 50 87 51 80 52 86 53 81 54 82 55
REMARK SMILES IDX 83 56 84 57 85 58 64 59 65 60 73 61 66 62 72 63 67 64 68 65
REMARK SMILES IDX 69 66 70 67 71 68 6 69 7 70 8 71 9 72 10 74 11 75 12 76
REMARK SMILES IDX 38 77 13 78 37 79 14 80 15 81 16 82 29 83 18 84 17 85 28 86
REMARK SMILES IDX 19 87 21 88 20 89 30 90 31 91 36 92 32 93 34 94 33 95 35 96
REMARK SMILES IDX 22 97 23 98 27 99 24 100 26 101 25 102
REMARK H PARENT 3 6 92 24 62 35 8 73
REMARK Flexibility Score: inf
ROOT
ATOM      1  C   UNL A   1      36.769  34.011  31.765  1.00  0.00     0.023 C 
ENDROOT
BRANCH   1   2
ATOM      2  C   UNL A   1      37.993  34.485  30.983  1.00  0.00     0.116 C 
BRANCH   2   3
ATOM      3  N   UNL A   1      38.953  33.449  30.658  1.00  0.00    -0.352 N 
ATOM      4  O   UNL A   1      40.807  32.322  30.314  1.00  0.00    -0.269 OA
ATOM      5  C   UNL A   1      40.246  33.419  30.210  1.00  0.00     0.251 C 
ATOM      6  H   UNL A   1      38.584  32.546  30.793  1.00  0.00     0.163 HD
BRANCH   5   7
ATOM      7  C   UNL A   1      40.990  34.539  29.560  1.00  0.00     0.039 A 
ATOM      8  C   UNL A   1      40.655  35.178  28.368  1.00  0.00     0.014 A 
ATOM      9  C   UNL A   1      42.165  34.952  30.226  1.00  0.00     0.014 A 
ATOM     10  C   UNL A   1      41.510  36.153  27.830  1.00  0.00     0.010 A 
ATOM     11  C   UNL A   1      43.023  35.912  29.689  1.00  0.00     0.010 A 
ATOM     12  C   UNL A   1      42.711  36.499  28.470  1.00  0.00    -0.014 A 
BRANCH  12  13
ATOM     13  C   UNL A   1      43.496  37.630  27.958  1.00  0.00     0.031 A 
ATOM     14  C   UNL A   1      44.950  37.326  27.840  1.00  0.00     0.074 A 
ATOM     15  C   UNL A   1      43.017  38.805  27.488  1.00  0.00     0.049 A 
ATOM     16  N   UNL A   1      45.905  37.768  28.590  1.00  0.00    -0.248 NA
ATOM     17  C   UNL A   1      45.374  36.300  26.875  1.00  0.00     0.031 C 
ATOM     18  C   UNL A   1      41.623  39.186  27.249  1.00  0.00     0.029 A 
ATOM     19  N   UNL A   1      43.705  39.903  27.042  1.00  0.00    -0.354 N 
ATOM     20  C   UNL A   1      47.083  37.258  28.050  1.00  0.00     0.074 A 
ATOM     21  C   UNL A   1      46.685  36.232  27.120  1.00  0.00     0.031 C 
ATOM     22  C   UNL A   1      41.583  40.323  26.511  1.00  0.00     0.029 A 
ATOM     23  C   UNL A   1      42.934  40.836  26.345  1.00  0.00     0.049 A 
ATOM     24  H   UNL A   1      44.668  40.026  27.201  1.00  0.00     0.167 HD
ATOM     25  C   UNL A   1      48.277  37.890  28.231  1.00  0.00     0.031 A 
ATOM     26  C   UNL A   1      43.372  41.932  25.664  1.00  0.00     0.031 A 
ATOM     27  C   UNL A   1      48.200  38.878  29.277  1.00  0.00     0.049 A 
ATOM     28  C   UNL A   1      44.710  42.276  26.196  1.00  0.00     0.074 A 
ATOM     29  C   UNL A   1      47.873  38.863  30.618  1.00  0.00     0.029 A 
ATOM     30  N   UNL A   1      48.113  40.191  28.880  1.00  0.00    -0.354 N 
ATOM     31  N   UNL A   1      44.907  42.731  27.400  1.00  0.00    -0.248 NA
ATOM     32  C   UNL A   1      45.874  41.709  25.540  1.00  0.00     0.031 C 
ATOM     33  C   UNL A   1      47.142  40.068  30.830  1.00  0.00     0.029 A 
ATOM     34  C   UNL A   1      47.138  40.787  29.632  1.00  0.00     0.049 A 
ATOM     35  H   UNL A   1      48.655  40.625  28.182  1.00  0.00     0.167 HD
ATOM     36  C   UNL A   1      46.068  42.103  27.821  1.00  0.00     0.074 A 
ATOM     37  C   UNL A   1      46.667  41.559  26.604  1.00  0.00     0.031 C 
ATOM     38  C   UNL A   1      46.288  41.849  29.145  1.00  0.00     0.031 A 
BRANCH  25  39
ATOM     39  C   UNL A   1      49.374  37.934  27.189  1.00  0.00    -0.014 A 
ATOM     40  C   UNL A   1      49.220  37.158  26.019  1.00  0.00     0.010 A 
ATOM     41  C   UNL A   1      50.660  38.452  27.442  1.00  0.00     0.010 A 
ATOM     42  C   UNL A   1      50.313  36.837  25.205  1.00  0.00     0.020 A 
ATOM     43  C   UNL A   1      51.748  38.176  26.611  1.00  0.00     0.020 A 
ATOM     44  C   UNL A   1      51.575  37.339  25.517  1.00  0.00     0.054 A 
BRANCH  44  45
ATOM     45  S   UNL A   1      52.996  36.843  24.514  1.00  0.00     0.124 S 
ATOM     46  O   UNL A   1      53.718  35.967  25.429  1.00  0.00    -0.237 OA
ATOM     47  O   UNL A   1      52.355  36.186  23.378  1.00  0.00    -0.237 OA
ATOM     48  O   UNL A   1      53.654  38.110  24.205  1.00  0.00    -0.744 OA
ENDBRANCH  44  45
ENDBRANCH  25  39
BRANCH  26  49
ATOM     49  C   UNL A   1      42.867  42.549  24.404  1.00  0.00    -0.014 A 
ATOM     50  C   UNL A   1      43.467  43.707  23.861  1.00  0.00     0.010 A 
ATOM     51  C   UNL A   1      42.007  41.814  23.566  1.00  0.00     0.010 A 
ATOM     52  C   UNL A   1      43.276  44.068  22.513  1.00  0.00     0.020 A 
ATOM     53  C   UNL A   1      41.807  42.170  22.222  1.00  0.00     0.020 A 
ATOM     54  C   UNL A   1      42.464  43.280  21.693  1.00  0.00     0.054 A 
BRANCH  54  55
ATOM     55  S   UNL A   1      42.376  43.628  19.907  1.00  0.00     0.124 S 
ATOM     56  O   UNL A   1      41.035  44.185  19.762  1.00  0.00    -0.237 OA
ATOM     57  O   UNL A   1      43.476  44.567  19.709  1.00  0.00    -0.237 OA
ATOM     58  O   UNL A   1      42.571  42.315  19.293  1.00  0.00    -0.744 OA
ENDBRANCH  54  55
ENDBRANCH  26  49
BRANCH  38  59
ATOM     59  C   UNL A   1      45.459  42.574  30.176  1.00  0.00    -0.014 A 
ATOM     60  C   UNL A   1      44.056  42.501  30.279  1.00  0.00     0.010 A 
ATOM     61  C   UNL A   1      46.167  43.275  31.167  1.00  0.00     0.010 A 
ATOM     62  C   UNL A   1      43.383  43.148  31.328  1.00  0.00     0.020 A 
ATOM     63  C   UNL A   1      45.508  43.900  32.225  1.00  0.00     0.020 A 
ATOM     64  C   UNL A   1      44.115  43.848  32.292  1.00  0.00     0.054 A 
BRANCH  64  65
ATOM     65  S   UNL A   1      43.251  44.675  33.655  1.00  0.00     0.124 S 
ATOM     66  O   UNL A   1      43.346  43.694  34.732  1.00  0.00    -0.237 OA
ATOM     67  O   UNL A   1      44.030  45.895  33.841  1.00  0.00    -0.237 OA
ATOM     68  O   UNL A   1      41.900  44.888  33.132  1.00  0.00    -0.744 OA
ENDBRANCH  64  65
ENDBRANCH  38  59
ENDBRANCH  12  13
ENDBRANCH   5   7
ENDBRANCH   2   3
ENDBRANCH   1   2
BRANCH   1  69
ATOM     69  C   UNL A   1      36.293  32.574  31.494  1.00  0.00     0.023 C 
BRANCH  69  70
ATOM     70  C   UNL A   1      34.982  32.394  30.719  1.00  0.00     0.116 C 
BRANCH  70  71
ATOM     71  N   UNL A   1      34.789  33.376  29.666  1.00  0.00    -0.352 N 
ATOM     72  C   UNL A   1      34.442  33.202  28.346  1.00  0.00     0.251 C 
ATOM     73  H   UNL A   1      34.928  34.312  29.938  1.00  0.00     0.163 HD
ATOM     74  O   UNL A   1      34.412  34.176  27.594  1.00  0.00    -0.269 OA
BRANCH  72  75
ATOM     75  C   UNL A   1      34.134  31.861  27.784  1.00  0.00     0.039 A 
ATOM     76  C   UNL A   1      32.862  31.667  27.244  1.00  0.00     0.016 A 
ATOM     77  C   UNL A   1      35.024  30.779  27.837  1.00  0.00     0.016 A 
ATOM     78  C   UNL A   1      32.519  30.429  26.690  1.00  0.00     0.027 A 
ATOM     79  C   UNL A   1      34.671  29.523  27.288  1.00  0.00     0.027 A 
ATOM     80  C   UNL A   1      33.423  29.347  26.686  1.00  0.00     0.045 A 
BRANCH  80  81
ATOM     81  N   UNL A   1      33.090  28.143  25.965  1.00  0.00    -0.299 N 
ATOM     82  C   UNL A   1      33.797  27.995  24.720  1.00  0.00     0.259 C 
ATOM     83  C   UNL A   1      31.664  27.752  25.789  1.00  0.00     0.152 C 
ATOM     84  C   UNL A   1      32.817  27.578  23.671  1.00  0.00     0.248 C 
ATOM     85  O   UNL A   1      34.987  28.231  24.526  1.00  0.00    -0.271 OA
ATOM     86  C   UNL A   1      31.585  28.043  24.345  1.00  0.00     0.021 C 
ATOM     87  N   UNL A   1      32.789  28.364  22.429  1.00  0.00    -0.170 NA
ATOM     88  C   UNL A   1      30.898  28.740  23.449  1.00  0.00     0.097 C 
ATOM     89  N   UNL A   1      31.636  28.877  22.290  1.00  0.00    -0.154 NA
BRANCH  83  90
ATOM     90  C   UNL A   1      31.302  26.261  26.021  1.00  0.00    -0.020 A 
ATOM     91  C   UNL A   1      29.947  25.824  25.976  1.00  0.00     0.006 A 
ATOM     92  C   UNL A   1      32.252  25.301  26.399  1.00  0.00     0.022 A 
ATOM     93  C   UNL A   1      29.554  24.519  26.268  1.00  0.00     0.002 A 
ATOM     94  C   UNL A   1      31.847  23.990  26.723  1.00  0.00     0.018 A 
ATOM     95  C   UNL A   1      30.508  23.597  26.658  1.00  0.00     0.016 A 
ATOM     96  Br  UNL A   1      33.121  22.719  27.312  1.00  0.00    -0.051 Br
ENDBRANCH  83  90
BRANCH  88  97
ATOM     97  C   UNL A   1      29.626  29.445  23.576  1.00  0.00     0.002 A 
ATOM     98  C   UNL A   1      28.438  28.861  23.114  1.00  0.00     0.010 A 
ATOM     99  C   UNL A   1      29.634  30.798  23.931  1.00  0.00     0.010 A 
ATOM    100  C   UNL A   1      27.303  29.653  22.910  1.00  0.00     0.001 A 
ATOM    101  C   UNL A   1      28.500  31.584  23.729  1.00  0.00     0.001 A 
ATOM    102  C   UNL A   1      27.346  31.019  23.189  1.00  0.00     0.000 A 
ENDBRANCH  88  97
ENDBRANCH  80  81
ENDBRANCH  72  75
ENDBRANCH  70  71
ENDBRANCH  69  70
ENDBRANCH   1  69
TORSDOF 17
ENDMDL
