MODEL 1
REMARK VINA RESULT:     -11.0      0.000      0.000
REMARK SMILES COc1ccc(-c2ccc(/C=C3\SC(=S)N([C@H](Cc4ccccc4)C(=O)NCCCCNC(=O)c4ccc(-c5c6nc(c(-c7ccc(S(=O)(=O)[O-])cc7)c7ccc([nH]7)c(-c7ccc(S(=O)(=O)[O-])cc7)c7nc(c(-c8ccc(S(=O)(=O)[O-])cc8)c8ccc5[nH]8)C=C7)C=C6)cc4)C3=O)o2)cc1
REMARK SMILES IDX 29 1 28 2 27 3 25 4 26 5 17 7 16 8 11 9 12 10 13 11 95 12
REMARK SMILES IDX 14 13 96 14 15 15 10 16 7 17 8 18 97 19 9 20 6 21 3 22 4 23
REMARK SMILES IDX 99 24 5 25 98 26 2 27 1 28 18 29 19 30 20 31 24 32 21 33
REMARK SMILES IDX 23 34 22 35 30 36 31 37 32 38 33 39 34 41 35 42 36 43 94 44
REMARK SMILES IDX 37 45 93 46 38 47 39 48 40 49 87 50 41 51 92 52 86 53 88 54
REMARK SMILES IDX 42 55 91 56 85 57 84 58 43 60 73 61 54 62 72 63 55 64 58 65
REMARK SMILES IDX 71 66 89 67 56 68 57 69 70 71 90 72 59 73 44 74 45 75 53 76
REMARK SMILES IDX 46 77 52 78 47 79 48 80 49 81 50 82 51 83 74 84 75 85 83 86
REMARK SMILES IDX 76 87 82 88 77 89 78 90 79 91 80 92 81 93 60 94 61 95 69 96
REMARK SMILES IDX 62 97 68 98 63 99 64 100 65 101 66 102 67 103
REMARK H PARENT 27 6 32 40 88 59 58 70
REMARK Flexibility Score: inf
ROOT
ATOM      1  C   UNL A   1      32.091  29.467  27.321  1.00  0.00     0.023 C 
ENDROOT
BRANCH   1   2
ATOM      2  C   UNL A   1      32.284  27.956  27.197  1.00  0.00     0.116 C 
BRANCH   2   3
ATOM      3  N   UNL A   1      31.018  27.253  27.199  1.00  0.00    -0.354 N 
ATOM      4  C   UNL A   1      30.578  26.213  26.432  1.00  0.00     0.243 C 
ATOM      5  O   UNL A   1      29.391  25.891  26.547  1.00  0.00    -0.273 OA
ATOM      6  H   UNL A   1      30.369  27.578  27.864  1.00  0.00     0.163 HD
BRANCH   4   7
ATOM      7  C   UNL A   1      31.445  25.570  25.322  1.00  0.00     0.185 C 
BRANCH   7   8
ATOM      8  N   UNL A   1      32.580  24.707  25.747  1.00  0.00    -0.280 N 
ATOM      9  C   UNL A   1      35.986  23.897  24.956  1.00  0.00     0.068 C 
ATOM     10  C   UNL A   1      34.762  23.842  25.489  1.00  0.00     0.084 C 
ATOM     11  S   UNL A   1      34.128  22.875  26.740  1.00  0.00    -0.054 SA
ATOM     12  C   UNL A   1      33.657  24.620  24.885  1.00  0.00     0.267 C 
ATOM     13  C   UNL A   1      32.504  23.558  26.517  1.00  0.00     0.149 C 
ATOM     14  O   UNL A   1      33.648  24.906  23.694  1.00  0.00    -0.268 OA
ATOM     15  S   UNL A   1      31.181  22.782  27.171  1.00  0.00    -0.052 S 
BRANCH   9  16
ATOM     16  C   UNL A   1      37.028  22.990  25.270  1.00  0.00     0.128 A 
ATOM     17  C   UNL A   1      38.934  22.172  26.056  1.00  0.00     0.134 A 
ATOM     18  C   UNL A   1      38.436  21.223  25.192  1.00  0.00     0.051 A 
ATOM     19  O   UNL A   1      38.078  23.234  26.130  1.00  0.00    -0.457 OA
ATOM     20  C   UNL A   1      37.224  21.739  24.697  1.00  0.00     0.051 A 
BRANCH  17  21
ATOM     21  C   UNL A   1      40.174  22.241  26.812  1.00  0.00     0.017 A 
ATOM     22  C   UNL A   1      42.638  22.558  28.150  1.00  0.00     0.118 A 
ATOM     23  C   UNL A   1      42.415  21.462  27.310  1.00  0.00     0.047 A 
ATOM     24  C   UNL A   1      41.616  23.485  28.339  1.00  0.00     0.047 A 
ATOM     25  C   UNL A   1      41.189  21.297  26.650  1.00  0.00     0.016 A 
ATOM     26  C   UNL A   1      40.398  23.330  27.669  1.00  0.00     0.016 A 
BRANCH  22  27
ATOM     27  O   UNL A   1      43.882  22.614  28.714  1.00  0.00    -0.497 OA
ATOM     28  C   UNL A   1      43.965  23.119  30.041  1.00  0.00     0.278 C 
ENDBRANCH  22  27
ENDBRANCH  17  21
ENDBRANCH   9  16
ENDBRANCH   7   8
BRANCH   7  29
ATOM     29  C   UNL A   1      31.774  26.792  24.373  1.00  0.00     0.071 C 
BRANCH  29  30
ATOM     30  C   UNL A   1      30.714  27.752  23.884  1.00  0.00    -0.045 A 
ATOM     31  C   UNL A   1      30.872  29.140  23.994  1.00  0.00     0.004 A 
ATOM     32  C   UNL A   1      29.532  27.260  23.309  1.00  0.00     0.004 A 
ATOM     33  C   UNL A   1      29.899  30.012  23.497  1.00  0.00     0.000 A 
ATOM     34  C   UNL A   1      28.561  28.131  22.813  1.00  0.00     0.000 A 
ATOM     35  C   UNL A   1      28.748  29.508  22.900  1.00  0.00     0.000 A 
ENDBRANCH  29  30
ENDBRANCH   7  29
ENDBRANCH   4   7
ENDBRANCH   2   3
ENDBRANCH   1   2
BRANCH   1  36
ATOM     36  C   UNL A   1      33.144  30.311  26.599  1.00  0.00     0.023 C 
BRANCH  36  37
ATOM     37  C   UNL A   1      33.987  31.208  27.501  1.00  0.00     0.116 C 
BRANCH  37  38
ATOM     38  N   UNL A   1      33.373  32.502  27.763  1.00  0.00    -0.352 N 
ATOM     39  C   UNL A   1      33.742  33.458  28.680  1.00  0.00     0.251 C 
ATOM     40  H   UNL A   1      32.589  32.721  27.211  1.00  0.00     0.163 HD
ATOM     41  O   UNL A   1      33.048  34.457  28.839  1.00  0.00    -0.269 OA
BRANCH  39  42
ATOM     42  C   UNL A   1      34.952  33.249  29.501  1.00  0.00     0.039 A 
ATOM     43  C   UNL A   1      34.891  32.344  30.565  1.00  0.00     0.014 A 
ATOM     44  C   UNL A   1      36.145  33.913  29.201  1.00  0.00     0.014 A 
ATOM     45  C   UNL A   1      36.051  32.043  31.281  1.00  0.00     0.010 A 
ATOM     46  C   UNL A   1      37.309  33.576  29.885  1.00  0.00     0.010 A 
ATOM     47  C   UNL A   1      37.275  32.628  30.919  1.00  0.00    -0.014 A 
BRANCH  47  48
ATOM     48  C   UNL A   1      38.539  32.235  31.586  1.00  0.00     0.031 A 
ATOM     49  C   UNL A   1      38.902  32.814  32.922  1.00  0.00     0.074 A 
ATOM     50  C   UNL A   1      39.398  31.421  30.942  1.00  0.00     0.049 A 
ATOM     51  N   UNL A   1      40.004  32.664  33.609  1.00  0.00    -0.248 NA
ATOM     52  C   UNL A   1      37.907  33.691  33.556  1.00  0.00     0.031 C 
ATOM     53  C   UNL A   1      39.177  30.827  29.621  1.00  0.00     0.029 A 
ATOM     54  N   UNL A   1      40.637  30.963  31.309  1.00  0.00    -0.354 N 
ATOM     55  C   UNL A   1      39.849  33.447  34.745  1.00  0.00     0.074 A 
ATOM     56  C   UNL A   1      38.554  34.087  34.644  1.00  0.00     0.031 C 
ATOM     57  C   UNL A   1      40.241  30.072  29.296  1.00  0.00     0.029 A 
ATOM     58  C   UNL A   1      41.226  30.153  30.368  1.00  0.00     0.049 A 
ATOM     59  H   UNL A   1      41.065  31.193  32.166  1.00  0.00     0.167 HD
ATOM     60  C   UNL A   1      40.702  33.612  35.784  1.00  0.00     0.031 A 
ATOM     61  C   UNL A   1      42.429  29.549  30.365  1.00  0.00     0.031 A 
ATOM     62  C   UNL A   1      41.979  32.963  35.897  1.00  0.00     0.049 A 
ATOM     63  C   UNL A   1      43.348  29.728  31.538  1.00  0.00     0.074 A 
ATOM     64  C   UNL A   1      42.891  33.028  36.936  1.00  0.00     0.029 A 
ATOM     65  N   UNL A   1      42.525  32.126  34.936  1.00  0.00    -0.354 N 
ATOM     66  N   UNL A   1      43.165  30.440  32.624  1.00  0.00    -0.248 NA
ATOM     67  C   UNL A   1      44.634  29.019  31.487  1.00  0.00     0.031 C 
ATOM     68  C   UNL A   1      44.001  32.245  36.594  1.00  0.00     0.029 A 
ATOM     69  C   UNL A   1      43.765  31.674  35.352  1.00  0.00     0.049 A 
ATOM     70  H   UNL A   1      42.095  31.888  34.083  1.00  0.00     0.167 HD
ATOM     71  C   UNL A   1      44.307  30.256  33.391  1.00  0.00     0.074 A 
ATOM     72  C   UNL A   1      45.171  29.358  32.652  1.00  0.00     0.031 C 
ATOM     73  C   UNL A   1      44.612  30.785  34.601  1.00  0.00     0.031 A 
BRANCH  60  74
ATOM     74  C   UNL A   1      40.270  34.546  36.878  1.00  0.00    -0.014 A 
ATOM     75  C   UNL A   1      40.635  35.904  36.851  1.00  0.00     0.010 A 
ATOM     76  C   UNL A   1      39.487  34.065  37.942  1.00  0.00     0.010 A 
ATOM     77  C   UNL A   1      40.264  36.755  37.895  1.00  0.00     0.020 A 
ATOM     78  C   UNL A   1      39.099  34.918  38.978  1.00  0.00     0.020 A 
ATOM     79  C   UNL A   1      39.508  36.253  38.959  1.00  0.00     0.054 A 
BRANCH  79  80
ATOM     80  S   UNL A   1      39.038  37.371  40.308  1.00  0.00     0.124 S 
ATOM     81  O   UNL A   1      38.181  38.331  39.616  1.00  0.00    -0.237 OA
ATOM     82  O   UNL A   1      38.356  36.484  41.247  1.00  0.00    -0.237 OA
ATOM     83  O   UNL A   1      40.316  37.900  40.777  1.00  0.00    -0.744 OA
ENDBRANCH  79  80
ENDBRANCH  60  74
BRANCH  61  84
ATOM     84  C   UNL A   1      42.823  28.702  29.210  1.00  0.00    -0.014 A 
ATOM     85  C   UNL A   1      42.443  27.350  29.166  1.00  0.00     0.010 A 
ATOM     86  C   UNL A   1      43.545  29.252  28.137  1.00  0.00     0.010 A 
ATOM     87  C   UNL A   1      42.785  26.557  28.069  1.00  0.00     0.020 A 
ATOM     88  C   UNL A   1      43.874  28.465  27.030  1.00  0.00     0.020 A 
ATOM     89  C   UNL A   1      43.499  27.120  27.006  1.00  0.00     0.054 A 
BRANCH  89  90
ATOM     90  S   UNL A   1      43.872  26.099  25.553  1.00  0.00     0.124 S 
ATOM     91  O   UNL A   1      44.910  26.882  24.891  1.00  0.00    -0.237 OA
ATOM     92  O   UNL A   1      44.312  24.838  26.148  1.00  0.00    -0.237 OA
ATOM     93  O   UNL A   1      42.591  26.032  24.852  1.00  0.00    -0.744 OA
ENDBRANCH  89  90
ENDBRANCH  61  84
BRANCH  73  94
ATOM     94  C   UNL A   1      45.929  30.392  35.205  1.00  0.00    -0.014 A 
ATOM     95  C   UNL A   1      47.082  31.163  34.980  1.00  0.00     0.010 A 
ATOM     96  C   UNL A   1      46.002  29.266  36.045  1.00  0.00     0.010 A 
ATOM     97  C   UNL A   1      48.296  30.803  35.569  1.00  0.00     0.020 A 
ATOM     98  C   UNL A   1      47.212  28.912  36.647  1.00  0.00     0.020 A 
ATOM     99  C   UNL A   1      48.354  29.675  36.396  1.00  0.00     0.054 A 
BRANCH  99 100
ATOM    100  S   UNL A   1      49.927  29.247  37.194  1.00  0.00     0.124 S 
ATOM    101  O   UNL A   1      50.487  28.278  36.256  1.00  0.00    -0.237 OA
ATOM    102  O   UNL A   1      50.621  30.531  37.259  1.00  0.00    -0.237 OA
ATOM    103  O   UNL A   1      49.517  28.703  38.486  1.00  0.00    -0.744 OA
ENDBRANCH  99 100
ENDBRANCH  73  94
ENDBRANCH  47  48
ENDBRANCH  39  42
ENDBRANCH  37  38
ENDBRANCH  36  37
ENDBRANCH   1  36
TORSDOF 20
ENDMDL
MODEL 2
REMARK VINA RESULT:     -10.5      2.203      3.220
REMARK SMILES COc1ccc(-c2ccc(/C=C3\SC(=S)N([C@H](Cc4ccccc4)C(=O)NCCCCNC(=O)c4ccc(-c5c6nc(c(-c7ccc(S(=O)(=O)[O-])cc7)c7ccc([nH]7)c(-c7ccc(S(=O)(=O)[O-])cc7)c7nc(c(-c8ccc(S(=O)(=O)[O-])cc8)c8ccc5[nH]8)C=C7)C=C6)cc4)C3=O)o2)cc1
REMARK SMILES IDX 29 1 28 2 27 3 25 4 26 5 17 7 16 8 11 9 12 10 13 11 95 12
REMARK SMILES IDX 14 13 96 14 15 15 10 16 7 17 8 18 97 19 9 20 6 21 3 22 4 23
REMARK SMILES IDX 99 24 5 25 98 26 2 27 1 28 18 29 19 30 20 31 24 32 21 33
REMARK SMILES IDX 23 34 22 35 30 36 31 37 32 38 33 39 34 41 35 42 36 43 94 44
REMARK SMILES IDX 37 45 93 46 38 47 39 48 40 49 87 50 41 51 92 52 86 53 88 54
REMARK SMILES IDX 42 55 91 56 85 57 84 58 43 60 73 61 54 62 72 63 55 64 58 65
REMARK SMILES IDX 71 66 89 67 56 68 57 69 70 71 90 72 59 73 44 74 45 75 53 76
REMARK SMILES IDX 46 77 52 78 47 79 48 80 49 81 50 82 51 83 74 84 75 85 83 86
REMARK SMILES IDX 76 87 82 88 77 89 78 90 79 91 80 92 81 93 60 94 61 95 69 96
REMARK SMILES IDX 62 97 68 98 63 99 64 100 65 101 66 102 67 103
REMARK H PARENT 27 6 32 40 88 59 58 70
REMARK Flexibility Score: inf
ROOT
ATOM      1  C   UNL A   1      32.021  27.441  26.960  1.00  0.00     0.023 C 
ENDROOT
BRANCH   1   2
ATOM      2  C   UNL A   1      31.230  26.447  26.110  1.00  0.00     0.116 C 
BRANCH   2   3
ATOM      3  N   UNL A   1      30.990  25.208  26.821  1.00  0.00    -0.354 N 
ATOM      4  C   UNL A   1      31.450  23.944  26.585  1.00  0.00     0.243 C 
ATOM      5  O   UNL A   1      30.974  23.034  27.270  1.00  0.00    -0.273 OA
ATOM      6  H   UNL A   1      30.399  25.291  27.603  1.00  0.00     0.163 HD
BRANCH   4   7
ATOM      7  C   UNL A   1      32.381  23.604  25.395  1.00  0.00     0.185 C 
BRANCH   7   8
ATOM      8  N   UNL A   1      33.768  23.167  25.709  1.00  0.00    -0.280 N 
ATOM      9  C   UNL A   1      37.022  24.425  26.554  1.00  0.00     0.068 C 
ATOM     10  C   UNL A   1      36.042  23.598  26.180  1.00  0.00     0.084 C 
ATOM     11  S   UNL A   1      36.023  21.907  25.970  1.00  0.00    -0.054 SA
ATOM     12  C   UNL A   1      34.744  24.146  25.727  1.00  0.00     0.267 C 
ATOM     13  C   UNL A   1      34.340  21.944  25.404  1.00  0.00     0.149 C 
ATOM     14  O   UNL A   1      34.660  25.253  25.209  1.00  0.00    -0.268 OA
ATOM     15  S   UNL A   1      33.707  20.626  24.601  1.00  0.00    -0.052 S 
BRANCH   9  16
ATOM     16  C   UNL A   1      38.371  24.028  26.726  1.00  0.00     0.128 A 
ATOM     17  C   UNL A   1      40.223  22.808  26.680  1.00  0.00     0.134 A 
ATOM     18  C   UNL A   1      40.476  23.858  27.535  1.00  0.00     0.051 A 
ATOM     19  O   UNL A   1      38.962  22.915  26.166  1.00  0.00    -0.457 OA
ATOM     20  C   UNL A   1      39.302  24.635  27.560  1.00  0.00     0.051 A 
BRANCH  17  21
ATOM     21  C   UNL A   1      41.017  21.649  26.306  1.00  0.00     0.017 A 
ATOM     22  C   UNL A   1      42.543  19.330  25.798  1.00  0.00     0.118 A 
ATOM     23  C   UNL A   1      43.133  20.598  25.760  1.00  0.00     0.047 A 
ATOM     24  C   UNL A   1      41.180  19.225  26.068  1.00  0.00     0.047 A 
ATOM     25  C   UNL A   1      42.376  21.753  26.003  1.00  0.00     0.016 A 
ATOM     26  C   UNL A   1      40.427  20.376  26.326  1.00  0.00     0.016 A 
BRANCH  22  27
ATOM     27  O   UNL A   1      43.394  18.286  25.566  1.00  0.00    -0.497 OA
ATOM     28  C   UNL A   1      44.760  18.608  25.336  1.00  0.00     0.278 C 
ENDBRANCH  22  27
ENDBRANCH  17  21
ENDBRANCH   9  16
ENDBRANCH   7   8
BRANCH   7  29
ATOM     29  C   UNL A   1      32.208  24.852  24.439  1.00  0.00     0.071 C 
BRANCH  29  30
ATOM     30  C   UNL A   1      32.388  24.762  22.941  1.00  0.00    -0.045 A 
ATOM     31  C   UNL A   1      32.004  25.807  22.090  1.00  0.00     0.004 A 
ATOM     32  C   UNL A   1      32.945  23.608  22.369  1.00  0.00     0.004 A 
ATOM     33  C   UNL A   1      32.217  25.721  20.712  1.00  0.00     0.000 A 
ATOM     34  C   UNL A   1      33.158  23.523  20.992  1.00  0.00     0.000 A 
ATOM     35  C   UNL A   1      32.801  24.583  20.164  1.00  0.00     0.000 A 
ENDBRANCH  29  30
ENDBRANCH   7  29
ENDBRANCH   4   7
ENDBRANCH   2   3
ENDBRANCH   1   2
BRANCH   1  36
ATOM     36  C   UNL A   1      33.088  28.230  26.198  1.00  0.00     0.023 C 
BRANCH  36  37
ATOM     37  C   UNL A   1      34.174  28.859  27.067  1.00  0.00     0.116 C 
BRANCH  37  38
ATOM     38  N   UNL A   1      33.869  30.224  27.472  1.00  0.00    -0.352 N 
ATOM     39  C   UNL A   1      34.613  31.073  28.257  1.00  0.00     0.251 C 
ATOM     40  H   UNL A   1      33.016  30.586  27.141  1.00  0.00     0.163 HD
ATOM     41  O   UNL A   1      34.157  32.164  28.584  1.00  0.00    -0.269 OA
BRANCH  39  42
ATOM     42  C   UNL A   1      35.941  30.643  28.738  1.00  0.00     0.039 A 
ATOM     43  C   UNL A   1      37.072  31.324  28.280  1.00  0.00     0.014 A 
ATOM     44  C   UNL A   1      36.066  29.600  29.661  1.00  0.00     0.014 A 
ATOM     45  C   UNL A   1      38.326  31.012  28.809  1.00  0.00     0.010 A 
ATOM     46  C   UNL A   1      37.309  29.324  30.221  1.00  0.00     0.010 A 
ATOM     47  C   UNL A   1      38.445  30.037  29.812  1.00  0.00    -0.014 A 
BRANCH  47  48
ATOM     48  C   UNL A   1      39.745  29.773  30.473  1.00  0.00     0.031 A 
ATOM     49  C   UNL A   1      40.095  30.462  31.759  1.00  0.00     0.074 A 
ATOM     50  C   UNL A   1      40.644  28.973  29.865  1.00  0.00     0.049 A 
ATOM     51  N   UNL A   1      41.218  30.431  32.429  1.00  0.00    -0.248 NA
ATOM     52  C   UNL A   1      39.056  31.314  32.358  1.00  0.00     0.031 C 
ATOM     53  C   UNL A   1      40.438  28.278  28.592  1.00  0.00     0.029 A 
ATOM     54  N   UNL A   1      41.917  28.623  30.232  1.00  0.00    -0.354 N 
ATOM     55  C   UNL A   1      41.033  31.278  33.514  1.00  0.00     0.074 A 
ATOM     56  C   UNL A   1      39.696  31.824  33.401  1.00  0.00     0.031 C 
ATOM     57  C   UNL A   1      41.542  27.574  28.293  1.00  0.00     0.029 A 
ATOM     58  C   UNL A   1      42.540  27.791  29.334  1.00  0.00     0.049 A 
ATOM     59  H   UNL A   1      42.346  28.938  31.062  1.00  0.00     0.167 HD
ATOM     60  C   UNL A   1      41.893  31.568  34.519  1.00  0.00     0.031 A 
ATOM     61  C   UNL A   1      43.780  27.267  29.342  1.00  0.00     0.031 A 
ATOM     62  C   UNL A   1      43.212  31.012  34.644  1.00  0.00     0.049 A 
ATOM     63  C   UNL A   1      44.708  27.584  30.478  1.00  0.00     0.074 A 
ATOM     64  C   UNL A   1      44.138  31.206  35.654  1.00  0.00     0.029 A 
ATOM     65  N   UNL A   1      43.794  30.149  33.728  1.00  0.00    -0.354 N 
ATOM     66  N   UNL A   1      44.499  28.354  31.518  1.00  0.00    -0.248 NA
ATOM     67  C   UNL A   1      46.037  26.958  30.444  1.00  0.00     0.031 C 
ATOM     68  C   UNL A   1      45.290  30.475  35.339  1.00  0.00     0.029 A 
ATOM     69  C   UNL A   1      45.069  29.807  34.144  1.00  0.00     0.049 A 
ATOM     70  H   UNL A   1      43.363  29.826  32.903  1.00  0.00     0.167 HD
ATOM     71  C   UNL A   1      45.666  28.298  32.269  1.00  0.00     0.074 A 
ATOM     72  C   UNL A   1      46.573  27.409  31.571  1.00  0.00     0.031 C 
ATOM     73  C   UNL A   1      45.957  28.925  33.434  1.00  0.00     0.031 A 
BRANCH  60  74
ATOM     74  C   UNL A   1      41.421  32.544  35.559  1.00  0.00    -0.014 A 
ATOM     75  C   UNL A   1      40.739  32.100  36.705  1.00  0.00     0.010 A 
ATOM     76  C   UNL A   1      41.667  33.917  35.392  1.00  0.00     0.010 A 
ATOM     77  C   UNL A   1      40.268  33.020  37.646  1.00  0.00     0.020 A 
ATOM     78  C   UNL A   1      41.213  34.839  36.340  1.00  0.00     0.020 A 
ATOM     79  C   UNL A   1      40.498  34.385  37.450  1.00  0.00     0.054 A 
BRANCH  79  80
ATOM     80  S   UNL A   1      39.876  35.566  38.680  1.00  0.00     0.124 S 
ATOM     81  O   UNL A   1      38.740  34.840  39.243  1.00  0.00    -0.237 OA
ATOM     82  O   UNL A   1      41.017  35.739  39.574  1.00  0.00    -0.237 OA
ATOM     83  O   UNL A   1      39.532  36.741  37.883  1.00  0.00    -0.744 OA
ENDBRANCH  79  80
ENDBRANCH  60  74
BRANCH  61  84
ATOM     84  C   UNL A   1      44.207  26.371  28.237  1.00  0.00    -0.014 A 
ATOM     85  C   UNL A   1      44.660  26.916  27.024  1.00  0.00     0.010 A 
ATOM     86  C   UNL A   1      44.195  24.976  28.405  1.00  0.00     0.010 A 
ATOM     87  C   UNL A   1      45.091  26.079  25.992  1.00  0.00     0.020 A 
ATOM     88  C   UNL A   1      44.641  24.137  27.381  1.00  0.00     0.020 A 
ATOM     89  C   UNL A   1      45.079  24.694  26.177  1.00  0.00     0.054 A 
BRANCH  89  90
ATOM     90  S   UNL A   1      45.711  23.620  24.857  1.00  0.00     0.124 S 
ATOM     91  O   UNL A   1      44.533  23.454  24.012  1.00  0.00    -0.237 OA
ATOM     92  O   UNL A   1      46.794  24.417  24.284  1.00  0.00    -0.237 OA
ATOM     93  O   UNL A   1      46.145  22.424  25.575  1.00  0.00    -0.744 OA
ENDBRANCH  89  90
ENDBRANCH  61  84
BRANCH  73  94
ATOM     94  C   UNL A   1      47.309  28.660  34.032  1.00  0.00    -0.014 A 
ATOM     95  C   UNL A   1      48.405  29.486  33.726  1.00  0.00     0.010 A 
ATOM     96  C   UNL A   1      47.472  27.603  34.944  1.00  0.00     0.010 A 
ATOM     97  C   UNL A   1      49.652  29.245  34.309  1.00  0.00     0.020 A 
ATOM     98  C   UNL A   1      48.714  27.369  35.540  1.00  0.00     0.020 A 
ATOM     99  C   UNL A   1      49.799  28.185  35.209  1.00  0.00     0.054 A 
BRANCH  99 100
ATOM    100  S   UNL A   1      51.412  27.914  35.996  1.00  0.00     0.124 S 
ATOM    101  O   UNL A   1      52.003  26.896  35.132  1.00  0.00    -0.237 OA
ATOM    102  O   UNL A   1      52.035  29.234  35.927  1.00  0.00    -0.237 OA
ATOM    103  O   UNL A   1      51.064  27.468  37.343  1.00  0.00    -0.744 OA
ENDBRANCH  99 100
ENDBRANCH  73  94
ENDBRANCH  47  48
ENDBRANCH  39  42
ENDBRANCH  37  38
ENDBRANCH  36  37
ENDBRANCH   1  36
TORSDOF 20
ENDMDL
MODEL 3
REMARK VINA RESULT:     -10.4      5.198     10.349
REMARK SMILES COc1ccc(-c2ccc(/C=C3\SC(=S)N([C@H](Cc4ccccc4)C(=O)NCCCCNC(=O)c4ccc(-c5c6nc(c(-c7ccc(S(=O)(=O)[O-])cc7)c7ccc([nH]7)c(-c7ccc(S(=O)(=O)[O-])cc7)c7nc(c(-c8ccc(S(=O)(=O)[O-])cc8)c8ccc5[nH]8)C=C7)C=C6)cc4)C3=O)o2)cc1
REMARK SMILES IDX 29 1 28 2 27 3 25 4 26 5 17 7 16 8 11 9 12 10 13 11 95 12
REMARK SMILES IDX 14 13 96 14 15 15 10 16 7 17 8 18 97 19 9 20 6 21 3 22 4 23
REMARK SMILES IDX 99 24 5 25 98 26 2 27 1 28 18 29 19 30 20 31 24 32 21 33
REMARK SMILES IDX 23 34 22 35 30 36 31 37 32 38 33 39 34 41 35 42 36 43 94 44
REMARK SMILES IDX 37 45 93 46 38 47 39 48 40 49 87 50 41 51 92 52 86 53 88 54
REMARK SMILES IDX 42 55 91 56 85 57 84 58 43 60 73 61 54 62 72 63 55 64 58 65
REMARK SMILES IDX 71 66 89 67 56 68 57 69 70 71 90 72 59 73 44 74 45 75 53 76
REMARK SMILES IDX 46 77 52 78 47 79 48 80 49 81 50 82 51 83 74 84 75 85 83 86
REMARK SMILES IDX 76 87 82 88 77 89 78 90 79 91 80 92 81 93 60 94 61 95 69 96
REMARK SMILES IDX 62 97 68 98 63 99 64 100 65 101 66 102 67 103
REMARK H PARENT 27 6 32 40 88 59 58 70
REMARK Flexibility Score: inf
ROOT
ATOM      1  C   UNL A   1      38.275  23.549  26.678  1.00  0.00     0.023 C 
ENDROOT
BRANCH   1   2
ATOM      2  C   UNL A   1      37.076  22.970  25.928  1.00  0.00     0.116 C 
BRANCH   2   3
ATOM      3  N   UNL A   1      37.186  23.182  24.499  1.00  0.00    -0.354 N 
ATOM      4  C   UNL A   1      36.330  22.861  23.485  1.00  0.00     0.243 C 
ATOM      5  O   UNL A   1      36.735  23.032  22.331  1.00  0.00    -0.273 OA
ATOM      6  H   UNL A   1      38.012  23.633  24.213  1.00  0.00     0.163 HD
BRANCH   4   7
ATOM      7  C   UNL A   1      34.983  22.136  23.728  1.00  0.00     0.185 C 
BRANCH   7   8
ATOM      8  N   UNL A   1      33.797  22.975  24.049  1.00  0.00    -0.280 N 
ATOM      9  C   UNL A   1      31.460  25.271  22.585  1.00  0.00     0.068 C 
ATOM     10  C   UNL A   1      32.150  24.572  23.490  1.00  0.00     0.084 C 
ATOM     11  S   UNL A   1      31.930  24.388  25.170  1.00  0.00    -0.054 SA
ATOM     12  C   UNL A   1      33.413  23.906  23.102  1.00  0.00     0.267 C 
ATOM     13  C   UNL A   1      33.396  23.395  25.306  1.00  0.00     0.149 C 
ATOM     14  O   UNL A   1      34.112  24.334  22.192  1.00  0.00    -0.268 OA
ATOM     15  S   UNL A   1      34.086  23.137  26.802  1.00  0.00    -0.052 S 
BRANCH   9  16
ATOM     16  C   UNL A   1      30.412  26.169  22.909  1.00  0.00     0.128 A 
ATOM     17  C   UNL A   1      29.214  28.030  23.064  1.00  0.00     0.134 A 
ATOM     18  C   UNL A   1      28.659  27.139  23.956  1.00  0.00     0.051 A 
ATOM     19  O   UNL A   1      30.260  27.445  22.409  1.00  0.00    -0.457 OA
ATOM     20  C   UNL A   1      29.415  25.957  23.853  1.00  0.00     0.051 A 
BRANCH  17  21
ATOM     21  C   UNL A   1      28.917  29.422  22.772  1.00  0.00     0.017 A 
ATOM     22  C   UNL A   1      28.131  32.057  22.136  1.00  0.00     0.118 A 
ATOM     23  C   UNL A   1      29.100  31.395  21.374  1.00  0.00     0.047 A 
ATOM     24  C   UNL A   1      27.571  31.406  23.233  1.00  0.00     0.047 A 
ATOM     25  C   UNL A   1      29.499  30.090  21.693  1.00  0.00     0.016 A 
ATOM     26  C   UNL A   1      27.957  30.097  23.542  1.00  0.00     0.016 A 
BRANCH  22  27
ATOM     27  O   UNL A   1      27.815  33.316  21.707  1.00  0.00    -0.497 OA
ATOM     28  C   UNL A   1      27.471  33.461  20.335  1.00  0.00     0.278 C 
ENDBRANCH  22  27
ENDBRANCH  17  21
ENDBRANCH   9  16
ENDBRANCH   7   8
BRANCH   7  29
ATOM     29  C   UNL A   1      35.371  20.998  24.755  1.00  0.00     0.071 C 
BRANCH  29  30
ATOM     30  C   UNL A   1      34.729  19.628  24.734  1.00  0.00    -0.045 A 
ATOM     31  C   UNL A   1      35.497  18.457  24.707  1.00  0.00     0.004 A 
ATOM     32  C   UNL A   1      33.331  19.509  24.735  1.00  0.00     0.004 A 
ATOM     33  C   UNL A   1      34.886  17.201  24.731  1.00  0.00     0.000 A 
ATOM     34  C   UNL A   1      32.721  18.254  24.760  1.00  0.00     0.000 A 
ATOM     35  C   UNL A   1      33.499  17.099  24.765  1.00  0.00     0.000 A 
ENDBRANCH  29  30
ENDBRANCH   7  29
ENDBRANCH   4   7
ENDBRANCH   2   3
ENDBRANCH   1   2
BRANCH   1  36
ATOM     36  C   UNL A   1      39.623  22.924  26.313  1.00  0.00     0.023 C 
BRANCH  36  37
ATOM     37  C   UNL A   1      40.041  21.733  27.172  1.00  0.00     0.116 C 
BRANCH  37  38
ATOM     38  N   UNL A   1      40.810  20.737  26.440  1.00  0.00    -0.352 N 
ATOM     39  C   UNL A   1      42.103  20.818  25.981  1.00  0.00     0.251 C 
ATOM     40  H   UNL A   1      40.341  19.893  26.249  1.00  0.00     0.163 HD
ATOM     41  O   UNL A   1      42.567  19.917  25.290  1.00  0.00    -0.269 OA
BRANCH  39  42
ATOM     42  C   UNL A   1      42.909  22.018  26.287  1.00  0.00     0.039 A 
ATOM     43  C   UNL A   1      43.006  23.023  25.321  1.00  0.00     0.014 A 
ATOM     44  C   UNL A   1      43.533  22.164  27.529  1.00  0.00     0.014 A 
ATOM     45  C   UNL A   1      43.664  24.215  25.630  1.00  0.00     0.010 A 
ATOM     46  C   UNL A   1      44.147  23.371  27.852  1.00  0.00     0.010 A 
ATOM     47  C   UNL A   1      44.204  24.410  26.912  1.00  0.00    -0.014 A 
BRANCH  47  48
ATOM     48  C   UNL A   1      44.801  25.710  27.302  1.00  0.00     0.031 A 
ATOM     49  C   UNL A   1      43.992  26.716  28.067  1.00  0.00     0.074 A 
ATOM     50  C   UNL A   1      46.047  26.013  26.889  1.00  0.00     0.049 A 
ATOM     51  N   UNL A   1      44.311  27.936  28.410  1.00  0.00    -0.248 NA
ATOM     52  C   UNL A   1      42.643  26.303  28.483  1.00  0.00     0.031 C 
ATOM     53  C   UNL A   1      46.919  25.136  26.104  1.00  0.00     0.029 A 
ATOM     54  N   UNL A   1      46.791  27.151  27.063  1.00  0.00    -0.354 N 
ATOM     55  C   UNL A   1      43.195  28.450  29.058  1.00  0.00     0.074 A 
ATOM     56  C   UNL A   1      42.183  27.414  29.042  1.00  0.00     0.031 C 
ATOM     57  C   UNL A   1      48.084  25.765  25.876  1.00  0.00     0.029 A 
ATOM     58  C   UNL A   1      48.030  27.095  26.471  1.00  0.00     0.049 A 
ATOM     59  H   UNL A   1      46.468  27.936  27.563  1.00  0.00     0.167 HD
ATOM     60  C   UNL A   1      43.029  29.669  29.623  1.00  0.00     0.031 A 
ATOM     61  C   UNL A   1      49.011  28.015  26.408  1.00  0.00     0.031 A 
ATOM     62  C   UNL A   1      44.038  30.691  29.658  1.00  0.00     0.049 A 
ATOM     63  C   UNL A   1      48.813  29.351  27.062  1.00  0.00     0.074 A 
ATOM     64  C   UNL A   1      43.981  31.940  30.252  1.00  0.00     0.029 A 
ATOM     65  N   UNL A   1      45.291  30.583  29.074  1.00  0.00    -0.354 N 
ATOM     66  N   UNL A   1      47.765  29.802  27.707  1.00  0.00    -0.248 NA
ATOM     67  C   UNL A   1      49.932  30.300  26.983  1.00  0.00     0.031 C 
ATOM     68  C   UNL A   1      45.194  32.596  30.010  1.00  0.00     0.029 A 
ATOM     69  C   UNL A   1      46.014  31.744  29.286  1.00  0.00     0.049 A 
ATOM     70  H   UNL A   1      45.618  29.796  28.581  1.00  0.00     0.167 HD
ATOM     71  C   UNL A   1      48.101  31.084  28.122  1.00  0.00     0.074 A 
ATOM     72  C   UNL A   1      49.454  31.333  27.664  1.00  0.00     0.031 C 
ATOM     73  C   UNL A   1      47.356  31.974  28.819  1.00  0.00     0.031 A 
BRANCH  60  74
ATOM     74  C   UNL A   1      41.692  29.956  30.244  1.00  0.00    -0.014 A 
ATOM     75  C   UNL A   1      41.505  29.847  31.634  1.00  0.00     0.010 A 
ATOM     76  C   UNL A   1      40.612  30.343  29.432  1.00  0.00     0.010 A 
ATOM     77  C   UNL A   1      40.247  30.075  32.196  1.00  0.00     0.020 A 
ATOM     78  C   UNL A   1      39.356  30.590  29.994  1.00  0.00     0.020 A 
ATOM     79  C   UNL A   1      39.177  30.433  31.370  1.00  0.00     0.054 A 
BRANCH  79  80
ATOM     80  S   UNL A   1      37.548  30.723  32.117  1.00  0.00     0.124 S 
ATOM     81  O   UNL A   1      37.191  32.025  31.559  1.00  0.00    -0.237 OA
ATOM     82  O   UNL A   1      36.760  29.594  31.630  1.00  0.00    -0.237 OA
ATOM     83  O   UNL A   1      37.823  30.711  33.552  1.00  0.00    -0.744 OA
ENDBRANCH  79  80
ENDBRANCH  60  74
BRANCH  61  84
ATOM     84  C   UNL A   1      50.279  27.689  25.707  1.00  0.00    -0.014 A 
ATOM     85  C   UNL A   1      50.419  27.970  24.337  1.00  0.00     0.010 A 
ATOM     86  C   UNL A   1      51.361  27.133  26.411  1.00  0.00     0.010 A 
ATOM     87  C   UNL A   1      51.619  27.694  23.679  1.00  0.00     0.020 A 
ATOM     88  C   UNL A   1      52.568  26.870  25.760  1.00  0.00     0.020 A 
ATOM     89  C   UNL A   1      52.688  27.146  24.395  1.00  0.00     0.054 A 
BRANCH  89  90
ATOM     90  S   UNL A   1      54.267  26.861  23.546  1.00  0.00     0.124 S 
ATOM     91  O   UNL A   1      54.917  25.901  24.432  1.00  0.00    -0.237 OA
ATOM     92  O   UNL A   1      53.845  26.341  22.247  1.00  0.00    -0.237 OA
ATOM     93  O   UNL A   1      54.871  28.191  23.506  1.00  0.00    -0.744 OA
ENDBRANCH  89  90
ENDBRANCH  61  84
BRANCH  73  94
ATOM     94  C   UNL A   1      47.994  33.295  29.142  1.00  0.00    -0.014 A 
ATOM     95  C   UNL A   1      47.853  34.392  28.275  1.00  0.00     0.010 A 
ATOM     96  C   UNL A   1      48.701  33.451  30.348  1.00  0.00     0.010 A 
ATOM     97  C   UNL A   1      48.429  35.623  28.599  1.00  0.00     0.020 A 
ATOM     98  C   UNL A   1      49.266  34.684  30.681  1.00  0.00     0.020 A 
ATOM     99  C   UNL A   1      49.136  35.760  29.798  1.00  0.00     0.054 A 
BRANCH  99 100
ATOM    100  S   UNL A   1      49.837  37.377  30.229  1.00  0.00     0.124 S 
ATOM    101  O   UNL A   1      48.636  38.189  30.409  1.00  0.00    -0.237 OA
ATOM    102  O   UNL A   1      50.591  37.093  31.448  1.00  0.00    -0.237 OA
ATOM    103  O   UNL A   1      50.653  37.716  29.065  1.00  0.00    -0.744 OA
ENDBRANCH  99 100
ENDBRANCH  73  94
ENDBRANCH  47  48
ENDBRANCH  39  42
ENDBRANCH  37  38
ENDBRANCH  36  37
ENDBRANCH   1  36
TORSDOF 20
ENDMDL
