MODEL 1
REMARK VINA RESULT:      -8.6      0.000      0.000
REMARK SMILES N#CCC[NH+]1CCN(c2cc(C(=O)NCCCCNC(=O)c3ccc(-c4c5nc(c(-c6ccc(S(=O)(=O)[O-])cc6)c6ccc([nH]6)c(-c6ccc(S(=O)(=O)[O-])cc6)c6nc(c(-c7ccc(S(=O)(=O)[O-])cc7)c7ccc4[nH]7)C=C6)C=C5)cc3)c3cc(NS(=O)(=O)c4ccccc4Cl)ccc3n2)CC1
REMARK SMILES IDX 16 1 15 2 14 3 12 4 13 5 11 7 9 8 10 9 99 10 98 11 82 12
REMARK SMILES IDX 97 13 83 14 96 15 84 16 8 17 5 18 6 19 101 20 7 22 100 23
REMARK SMILES IDX 4 24 3 25 2 26 1 27 85 28 86 30 87 31 88 32 89 33 90 34
REMARK SMILES IDX 94 35 91 36 93 37 95 38 92 39 17 40 18 41 19 42 20 43 21 45
REMARK SMILES IDX 22 46 23 47 81 48 24 49 80 50 25 51 26 52 27 53 74 54 28 55
REMARK SMILES IDX 79 56 73 57 75 58 29 59 78 60 72 61 71 62 30 64 60 65 41 66
REMARK SMILES IDX 59 67 42 68 45 69 58 70 76 71 43 72 44 73 57 75 77 76 46 77
REMARK SMILES IDX 31 78 32 79 40 80 33 81 39 82 34 83 35 84 36 85 37 86 38 87
REMARK SMILES IDX 61 88 62 89 70 90 63 91 69 92 64 93 65 94 66 95 67 96 68 97
REMARK SMILES IDX 47 98 48 99 56 100 49 101 55 102 50 103 51 104 52 105 53 106
REMARK SMILES IDX 54 107
REMARK H PARENT 14 6 5 21 85 29 19 44 75 63 45 74
REMARK Flexibility Score: inf
ROOT
ATOM      1  C   UNL A   1      44.232  27.111  25.430  1.00  0.00     0.023 C 
ENDROOT
BRANCH   1   2
ATOM      2  C   UNL A   1      43.861  28.162  26.519  1.00  0.00     0.116 C 
BRANCH   2   3
ATOM      3  N   UNL A   1      44.027  29.584  26.127  1.00  0.00    -0.352 N 
ATOM      4  C   UNL A   1      44.972  30.452  26.672  1.00  0.00     0.252 C 
ATOM      5  O   UNL A   1      45.992  30.692  26.025  1.00  0.00    -0.269 OA
ATOM      6  H   UNL A   1      43.428  29.940  25.431  1.00  0.00     0.163 HD
BRANCH   4   7
ATOM      7  C   UNL A   1      44.672  31.307  27.877  1.00  0.00     0.052 A 
ATOM      8  C   UNL A   1      43.964  33.500  28.651  1.00  0.00     0.130 A 
ATOM      9  C   UNL A   1      44.463  32.664  27.645  1.00  0.00     0.061 A 
ATOM     10  N   UNL A   1      43.866  33.086  29.925  1.00  0.00    -0.231 NA
ATOM     11  C   UNL A   1      44.223  31.822  30.201  1.00  0.00     0.074 A 
ATOM     12  C   UNL A   1      44.593  30.899  29.200  1.00  0.00     0.015 A 
ATOM     13  C   UNL A   1      44.229  31.365  31.511  1.00  0.00     0.031 A 
ATOM     14  C   UNL A   1      44.953  29.619  29.578  1.00  0.00     0.038 A 
ATOM     15  C   UNL A   1      44.902  30.178  31.832  1.00  0.00     0.029 A 
ATOM     16  C   UNL A   1      45.505  29.430  30.820  1.00  0.00     0.050 A 
BRANCH   8  17
ATOM     17  N   UNL A   1      43.347  34.680  28.280  1.00  0.00    -0.345 N 
ATOM     18  N   UNL A   1      41.903  36.837  26.976  1.00  0.00    -0.331 N 
ATOM     19  C   UNL A   1      42.747  35.912  26.210  1.00  0.00     0.284 C 
ATOM     20  C   UNL A   1      41.227  36.018  28.013  1.00  0.00     0.284 C 
ATOM     21  H   UNL A   1      41.256  37.267  26.316  1.00  0.00     0.348 HD
ATOM     22  C   UNL A   1      43.844  35.241  27.027  1.00  0.00     0.179 C 
ATOM     23  C   UNL A   1      42.175  35.232  28.963  1.00  0.00     0.179 C 
BRANCH  18  24
ATOM     24  C   UNL A   1      42.541  38.043  27.545  1.00  0.00     0.277 C 
BRANCH  24  25
ATOM     25  C   UNL A   1      43.731  38.763  26.875  1.00  0.00     0.181 C 
BRANCH  25  26
ATOM     26  C   UNL A   1      43.346  40.161  26.417  1.00  0.00     0.068 C 
ATOM     27  N   UNL A   1      43.027  41.320  26.038  1.00  0.00    -0.198 NA
ENDBRANCH  25  26
ENDBRANCH  24  25
ENDBRANCH  18  24
ENDBRANCH   8  17
BRANCH  16  28
ATOM     28  N   UNL A   1      46.972  29.429  30.855  1.00  0.00    -0.280 N 
ATOM     29  H   UNL A   1      47.459  30.284  30.845  1.00  0.00     0.180 HD
BRANCH  28  30
ATOM     30  S   UNL A   1      47.856  27.947  30.908  1.00  0.00     0.263 S 
ATOM     31  O   UNL A   1      49.052  28.236  30.162  1.00  0.00    -0.201 OA
ATOM     32  O   UNL A   1      47.920  27.600  32.311  1.00  0.00    -0.201 OA
BRANCH  30  33
ATOM     33  C   UNL A   1      46.967  26.697  29.948  1.00  0.00     0.106 A 
ATOM     34  C   UNL A   1      46.095  25.906  30.707  1.00  0.00     0.024 A 
ATOM     35  C   UNL A   1      46.924  26.500  28.549  1.00  0.00     0.061 A 
ATOM     36  C   UNL A   1      45.302  24.913  30.112  1.00  0.00     0.002 A 
ATOM     37  C   UNL A   1      46.246  25.403  27.987  1.00  0.00     0.022 A 
ATOM     38  Cl  UNL A   1      47.366  27.548  27.269  1.00  0.00    -0.083 Cl
ATOM     39  C   UNL A   1      45.421  24.620  28.762  1.00  0.00     0.002 A 
ENDBRANCH  30  33
ENDBRANCH  28  30
ENDBRANCH  16  28
ENDBRANCH   4   7
ENDBRANCH   2   3
ENDBRANCH   1   2
BRANCH   1  40
ATOM     40  C   UNL A   1      43.555  25.693  25.359  1.00  0.00     0.023 C 
BRANCH  40  41
ATOM     41  C   UNL A   1      42.040  25.362  25.434  1.00  0.00     0.116 C 
BRANCH  41  42
ATOM     42  N   UNL A   1      41.562  24.146  26.063  1.00  0.00    -0.352 N 
ATOM     43  C   UNL A   1      40.854  24.101  27.260  1.00  0.00     0.251 C 
ATOM     44  H   UNL A   1      41.752  23.292  25.611  1.00  0.00     0.163 HD
ATOM     45  O   UNL A   1      40.262  23.083  27.606  1.00  0.00    -0.269 OA
BRANCH  43  46
ATOM     46  C   UNL A   1      40.844  25.282  28.169  1.00  0.00     0.039 A 
ATOM     47  C   UNL A   1      39.608  25.778  28.592  1.00  0.00     0.014 A 
ATOM     48  C   UNL A   1      42.021  25.921  28.579  1.00  0.00     0.014 A 
ATOM     49  C   UNL A   1      39.551  26.859  29.482  1.00  0.00     0.010 A 
ATOM     50  C   UNL A   1      41.962  26.988  29.496  1.00  0.00     0.010 A 
ATOM     51  C   UNL A   1      40.726  27.453  29.977  1.00  0.00    -0.014 A 
BRANCH  51  52
ATOM     52  C   UNL A   1      40.634  28.493  31.046  1.00  0.00     0.031 A 
ATOM     53  C   UNL A   1      39.623  29.607  30.978  1.00  0.00     0.074 A 
ATOM     54  C   UNL A   1      41.470  28.416  32.104  1.00  0.00     0.049 A 
ATOM     55  N   UNL A   1      39.371  30.547  31.856  1.00  0.00    -0.248 NA
ATOM     56  C   UNL A   1      38.796  29.681  29.766  1.00  0.00     0.031 C 
ATOM     57  C   UNL A   1      42.508  27.396  32.280  1.00  0.00     0.029 A 
ATOM     58  N   UNL A   1      41.577  29.189  33.236  1.00  0.00    -0.354 N 
ATOM     59  C   UNL A   1      38.355  31.323  31.306  1.00  0.00     0.074 A 
ATOM     60  C   UNL A   1      38.068  30.766  30.000  1.00  0.00     0.031 C 
ATOM     61  C   UNL A   1      43.120  27.586  33.459  1.00  0.00     0.029 A 
ATOM     62  C   UNL A   1      42.548  28.758  34.112  1.00  0.00     0.049 A 
ATOM     63  H   UNL A   1      41.011  29.978  33.404  1.00  0.00     0.167 HD
ATOM     64  C   UNL A   1      37.712  32.391  31.844  1.00  0.00     0.031 A 
ATOM     65  C   UNL A   1      42.938  29.247  35.308  1.00  0.00     0.031 A 
ATOM     66  C   UNL A   1      38.013  32.949  33.139  1.00  0.00     0.049 A 
ATOM     67  C   UNL A   1      42.231  30.452  35.869  1.00  0.00     0.074 A 
ATOM     68  C   UNL A   1      37.398  34.006  33.787  1.00  0.00     0.029 A 
ATOM     69  N   UNL A   1      39.023  32.501  33.980  1.00  0.00    -0.354 N 
ATOM     70  N   UNL A   1      41.227  31.126  35.360  1.00  0.00    -0.248 NA
ATOM     71  C   UNL A   1      42.703  30.958  37.165  1.00  0.00     0.031 C 
ATOM     72  C   UNL A   1      38.072  34.234  34.992  1.00  0.00     0.029 A 
ATOM     73  C   UNL A   1      39.069  33.281  35.124  1.00  0.00     0.049 A 
ATOM     74  H   UNL A   1      39.619  31.741  33.791  1.00  0.00     0.167 HD
ATOM     75  C   UNL A   1      40.937  32.127  36.280  1.00  0.00     0.074 A 
ATOM     76  C   UNL A   1      41.856  31.955  37.388  1.00  0.00     0.031 C 
ATOM     77  C   UNL A   1      39.998  33.102  36.213  1.00  0.00     0.031 A 
BRANCH  64  78
ATOM     78  C   UNL A   1      36.628  33.043  31.020  1.00  0.00    -0.014 A 
ATOM     79  C   UNL A   1      36.939  33.792  29.870  1.00  0.00     0.010 A 
ATOM     80  C   UNL A   1      35.277  32.874  31.375  1.00  0.00     0.010 A 
ATOM     81  C   UNL A   1      35.926  34.402  29.123  1.00  0.00     0.020 A 
ATOM     82  C   UNL A   1      34.257  33.460  30.615  1.00  0.00     0.020 A 
ATOM     83  C   UNL A   1      34.591  34.238  29.505  1.00  0.00     0.054 A 
BRANCH  83  84
ATOM     84  S   UNL A   1      33.297  35.039  28.515  1.00  0.00     0.124 S 
ATOM     85  O   UNL A   1      34.085  35.852  27.592  1.00  0.00    -0.237 OA
ATOM     86  O   UNL A   1      32.603  33.903  27.915  1.00  0.00    -0.237 OA
ATOM     87  O   UNL A   1      32.522  35.790  29.499  1.00  0.00    -0.744 OA
ENDBRANCH  83  84
ENDBRANCH  64  78
BRANCH  65  88
ATOM     88  C   UNL A   1      44.055  28.597  36.054  1.00  0.00    -0.014 A 
ATOM     89  C   UNL A   1      45.386  29.004  35.861  1.00  0.00     0.010 A 
ATOM     90  C   UNL A   1      43.786  27.567  36.976  1.00  0.00     0.010 A 
ATOM     91  C   UNL A   1      46.428  28.388  36.565  1.00  0.00     0.020 A 
ATOM     92  C   UNL A   1      44.820  26.968  37.702  1.00  0.00     0.020 A 
ATOM     93  C   UNL A   1      46.136  27.375  37.484  1.00  0.00     0.054 A 
BRANCH  93  94
ATOM     94  S   UNL A   1      47.496  26.628  38.426  1.00  0.00     0.124 S 
ATOM     95  O   UNL A   1      47.559  27.487  39.604  1.00  0.00    -0.237 OA
ATOM     96  O   UNL A   1      47.010  25.269  38.658  1.00  0.00    -0.237 OA
ATOM     97  O   UNL A   1      48.636  26.725  37.517  1.00  0.00    -0.744 OA
ENDBRANCH  93  94
ENDBRANCH  65  88
BRANCH  77  98
ATOM     98  C   UNL A   1      39.910  34.058  37.373  1.00  0.00    -0.014 A 
ATOM     99  C   UNL A   1      40.627  35.267  37.371  1.00  0.00     0.010 A 
ATOM    100  C   UNL A   1      39.050  33.773  38.449  1.00  0.00     0.010 A 
ATOM    101  C   UNL A   1      40.504  36.164  38.436  1.00  0.00     0.020 A 
ATOM    102  C   UNL A   1      38.903  34.680  39.503  1.00  0.00     0.020 A 
ATOM    103  C   UNL A   1      39.641  35.865  39.494  1.00  0.00     0.054 A 
BRANCH 103 104
ATOM    104  S   UNL A   1      39.456  37.072  40.835  1.00  0.00     0.124 S 
ATOM    105  O   UNL A   1      38.923  36.248  41.916  1.00  0.00    -0.237 OA
ATOM    106  O   UNL A   1      40.823  37.551  41.026  1.00  0.00    -0.237 OA
ATOM    107  O   UNL A   1      38.528  38.060  40.288  1.00  0.00    -0.744 OA
ENDBRANCH 103 104
ENDBRANCH  77  98
ENDBRANCH  51  52
ENDBRANCH  43  46
ENDBRANCH  41  42
ENDBRANCH  40  41
ENDBRANCH   1  40
TORSDOF 21
ENDMDL
MODEL 2
REMARK VINA RESULT:      -8.5      7.019     11.778
REMARK SMILES N#CCC[NH+]1CCN(c2cc(C(=O)NCCCCNC(=O)c3ccc(-c4c5nc(c(-c6ccc(S(=O)(=O)[O-])cc6)c6ccc([nH]6)c(-c6ccc(S(=O)(=O)[O-])cc6)c6nc(c(-c7ccc(S(=O)(=O)[O-])cc7)c7ccc4[nH]7)C=C6)C=C5)cc3)c3cc(NS(=O)(=O)c4ccccc4Cl)ccc3n2)CC1
REMARK SMILES IDX 16 1 15 2 14 3 12 4 13 5 11 7 9 8 10 9 99 10 98 11 82 12
REMARK SMILES IDX 97 13 83 14 96 15 84 16 8 17 5 18 6 19 101 20 7 22 100 23
REMARK SMILES IDX 4 24 3 25 2 26 1 27 85 28 86 30 87 31 88 32 89 33 90 34
REMARK SMILES IDX 94 35 91 36 93 37 95 38 92 39 17 40 18 41 19 42 20 43 21 45
REMARK SMILES IDX 22 46 23 47 81 48 24 49 80 50 25 51 26 52 27 53 74 54 28 55
REMARK SMILES IDX 79 56 73 57 75 58 29 59 78 60 72 61 71 62 30 64 60 65 41 66
REMARK SMILES IDX 59 67 42 68 45 69 58 70 76 71 43 72 44 73 57 75 77 76 46 77
REMARK SMILES IDX 31 78 32 79 40 80 33 81 39 82 34 83 35 84 36 85 37 86 38 87
REMARK SMILES IDX 61 88 62 89 70 90 63 91 69 92 64 93 65 94 66 95 67 96 68 97
REMARK SMILES IDX 47 98 48 99 56 100 49 101 55 102 50 103 51 104 52 105 53 106
REMARK SMILES IDX 54 107
REMARK H PARENT 14 6 5 21 85 29 19 44 75 63 45 74
REMARK Flexibility Score: inf
ROOT
ATOM      1  C   UNL A   1      47.153  38.952  26.148  1.00  0.00     0.023 C 
ENDROOT
BRANCH   1   2
ATOM      2  C   UNL A   1      47.807  40.214  26.787  1.00  0.00     0.116 C 
BRANCH   2   3
ATOM      3  N   UNL A   1      47.372  41.519  26.229  1.00  0.00    -0.352 N 
ATOM      4  C   UNL A   1      46.267  42.243  26.674  1.00  0.00     0.252 C 
ATOM      5  O   UNL A   1      46.459  43.209  27.414  1.00  0.00    -0.269 OA
ATOM      6  H   UNL A   1      47.901  41.900  25.492  1.00  0.00     0.163 HD
BRANCH   4   7
ATOM      7  C   UNL A   1      44.896  42.062  26.076  1.00  0.00     0.052 A 
ATOM      8  C   UNL A   1      43.477  42.496  24.151  1.00  0.00     0.130 A 
ATOM      9  C   UNL A   1      44.628  42.762  24.903  1.00  0.00     0.061 A 
ATOM     10  N   UNL A   1      42.490  41.719  24.626  1.00  0.00    -0.231 NA
ATOM     11  C   UNL A   1      42.659  41.164  25.836  1.00  0.00     0.074 A 
ATOM     12  C   UNL A   1      43.859  41.283  26.568  1.00  0.00     0.015 A 
ATOM     13  C   UNL A   1      41.638  40.425  26.418  1.00  0.00     0.031 A 
ATOM     14  C   UNL A   1      43.941  40.684  27.811  1.00  0.00     0.038 A 
ATOM     15  C   UNL A   1      41.685  40.130  27.788  1.00  0.00     0.029 A 
ATOM     16  C   UNL A   1      42.790  40.525  28.542  1.00  0.00     0.050 A 
BRANCH   8  17
ATOM     17  N   UNL A   1      43.470  42.847  22.814  1.00  0.00    -0.345 N 
ATOM     18  N   UNL A   1      43.850  43.095  19.945  1.00  0.00    -0.331 N 
ATOM     19  C   UNL A   1      44.955  42.706  20.830  1.00  0.00     0.284 C 
ATOM     20  C   UNL A   1      42.640  42.418  20.472  1.00  0.00     0.284 C 
ATOM     21  H   UNL A   1      44.103  42.795  19.003  1.00  0.00     0.348 HD
ATOM     22  C   UNL A   1      44.790  43.160  22.275  1.00  0.00     0.179 C 
ATOM     23  C   UNL A   1      42.289  42.739  21.953  1.00  0.00     0.179 C 
BRANCH  18  24
ATOM     24  C   UNL A   1      43.627  44.538  19.712  1.00  0.00     0.277 C 
BRANCH  24  25
ATOM     25  C   UNL A   1      42.794  45.082  18.532  1.00  0.00     0.181 C 
BRANCH  25  26
ATOM     26  C   UNL A   1      43.165  44.396  17.228  1.00  0.00     0.068 C 
ATOM     27  N   UNL A   1      43.473  43.826  16.146  1.00  0.00    -0.198 NA
ENDBRANCH  25  26
ENDBRANCH  24  25
ENDBRANCH  18  24
ENDBRANCH   8  17
BRANCH  16  28
ATOM     28  N   UNL A   1      42.517  41.592  29.511  1.00  0.00    -0.280 N 
ATOM     29  H   UNL A   1      42.360  42.509  29.192  1.00  0.00     0.180 HD
BRANCH  28  30
ATOM     30  S   UNL A   1      42.468  41.261  31.204  1.00  0.00     0.263 S 
ATOM     31  O   UNL A   1      41.073  41.382  31.537  1.00  0.00    -0.201 OA
ATOM     32  O   UNL A   1      43.164  40.001  31.360  1.00  0.00    -0.201 OA
BRANCH  30  33
ATOM     33  C   UNL A   1      43.303  42.601  32.090  1.00  0.00     0.106 A 
ATOM     34  C   UNL A   1      43.580  42.313  33.432  1.00  0.00     0.024 A 
ATOM     35  C   UNL A   1      43.827  43.816  31.594  1.00  0.00     0.061 A 
ATOM     36  C   UNL A   1      44.256  43.230  34.252  1.00  0.00     0.002 A 
ATOM     37  C   UNL A   1      44.360  44.788  32.460  1.00  0.00     0.022 A 
ATOM     38  Cl  UNL A   1      44.195  44.292  29.992  1.00  0.00    -0.083 Cl
ATOM     39  C   UNL A   1      44.592  44.491  33.784  1.00  0.00     0.002 A 
ENDBRANCH  30  33
ENDBRANCH  28  30
ENDBRANCH  16  28
ENDBRANCH   4   7
ENDBRANCH   2   3
ENDBRANCH   1   2
BRANCH   1  40
ATOM     40  C   UNL A   1      47.996  37.836  25.429  1.00  0.00     0.023 C 
BRANCH  40  41
ATOM     41  C   UNL A   1      48.052  36.322  25.772  1.00  0.00     0.116 C 
BRANCH  41  42
ATOM     42  N   UNL A   1      46.942  35.438  25.473  1.00  0.00    -0.352 N 
ATOM     43  C   UNL A   1      45.783  35.337  26.237  1.00  0.00     0.251 C 
ATOM     44  H   UNL A   1      47.014  34.868  24.673  1.00  0.00     0.163 HD
ATOM     45  O   UNL A   1      44.786  34.770  25.801  1.00  0.00    -0.269 OA
BRANCH  43  46
ATOM     46  C   UNL A   1      45.753  35.879  27.625  1.00  0.00     0.039 A 
ATOM     47  C   UNL A   1      44.858  36.914  27.909  1.00  0.00     0.014 A 
ATOM     48  C   UNL A   1      46.607  35.411  28.631  1.00  0.00     0.014 A 
ATOM     49  C   UNL A   1      44.763  37.425  29.210  1.00  0.00     0.010 A 
ATOM     50  C   UNL A   1      46.489  35.905  29.945  1.00  0.00     0.010 A 
ATOM     51  C   UNL A   1      45.547  36.901  30.253  1.00  0.00    -0.014 A 
BRANCH  51  52
ATOM     52  C   UNL A   1      45.307  37.353  31.657  1.00  0.00     0.031 A 
ATOM     53  C   UNL A   1      44.292  36.678  32.541  1.00  0.00     0.074 A 
ATOM     54  C   UNL A   1      46.033  38.382  32.145  1.00  0.00     0.049 A 
ATOM     55  N   UNL A   1      44.013  36.906  33.802  1.00  0.00    -0.248 NA
ATOM     56  C   UNL A   1      43.481  35.615  31.931  1.00  0.00     0.031 C 
ATOM     57  C   UNL A   1      47.035  39.135  31.384  1.00  0.00     0.029 A 
ATOM     58  N   UNL A   1      46.060  38.968  33.388  1.00  0.00    -0.354 N 
ATOM     59  C   UNL A   1      42.997  36.016  34.137  1.00  0.00     0.074 A 
ATOM     60  C   UNL A   1      42.682  35.273  32.934  1.00  0.00     0.031 C 
ATOM     61  C   UNL A   1      47.598  40.055  32.182  1.00  0.00     0.029 A 
ATOM     62  C   UNL A   1      46.979  39.987  33.502  1.00  0.00     0.049 A 
ATOM     63  H   UNL A   1      45.476  38.685  34.128  1.00  0.00     0.167 HD
ATOM     64  C   UNL A   1      42.392  35.826  35.337  1.00  0.00     0.031 A 
ATOM     65  C   UNL A   1      47.293  40.781  34.547  1.00  0.00     0.031 A 
ATOM     66  C   UNL A   1      42.700  36.579  36.528  1.00  0.00     0.049 A 
ATOM     67  C   UNL A   1      46.586  40.571  35.859  1.00  0.00     0.074 A 
ATOM     68  C   UNL A   1      42.170  36.440  37.798  1.00  0.00     0.029 A 
ATOM     69  N   UNL A   1      43.616  37.621  36.591  1.00  0.00    -0.354 N 
ATOM     70  N   UNL A   1      45.677  39.677  36.170  1.00  0.00    -0.248 NA
ATOM     71  C   UNL A   1      46.949  41.471  36.963  1.00  0.00     0.031 C 
ATOM     72  C   UNL A   1      42.721  37.434  38.615  1.00  0.00     0.029 A 
ATOM     73  C   UNL A   1      43.640  38.154  37.869  1.00  0.00     0.049 A 
ATOM     74  H   UNL A   1      44.167  37.935  35.838  1.00  0.00     0.167 HD
ATOM     75  C   UNL A   1      45.370  39.897  37.508  1.00  0.00     0.074 A 
ATOM     76  C   UNL A   1      46.207  40.992  37.954  1.00  0.00     0.031 C 
ATOM     77  C   UNL A   1      44.474  39.253  38.294  1.00  0.00     0.031 A 
BRANCH  64  78
ATOM     78  C   UNL A   1      41.315  34.771  35.419  1.00  0.00    -0.014 A 
ATOM     79  C   UNL A   1      41.628  33.432  35.717  1.00  0.00     0.010 A 
ATOM     80  C   UNL A   1      39.966  35.127  35.234  1.00  0.00     0.010 A 
ATOM     81  C   UNL A   1      40.622  32.463  35.777  1.00  0.00     0.020 A 
ATOM     82  C   UNL A   1      38.952  34.166  35.320  1.00  0.00     0.020 A 
ATOM     83  C   UNL A   1      39.290  32.835  35.571  1.00  0.00     0.054 A 
BRANCH  83  84
ATOM     84  S   UNL A   1      38.005  31.556  35.657  1.00  0.00     0.124 S 
ATOM     85  O   UNL A   1      37.457  31.769  36.994  1.00  0.00    -0.237 OA
ATOM     86  O   UNL A   1      37.120  31.914  34.552  1.00  0.00    -0.237 OA
ATOM     87  O   UNL A   1      38.745  30.308  35.480  1.00  0.00    -0.744 OA
ENDBRANCH  83  84
ENDBRANCH  64  78
BRANCH  65  88
ATOM     88  C   UNL A   1      48.326  41.846  34.394  1.00  0.00    -0.014 A 
ATOM     89  C   UNL A   1      47.958  43.175  34.118  1.00  0.00     0.010 A 
ATOM     90  C   UNL A   1      49.692  41.535  34.536  1.00  0.00     0.010 A 
ATOM     91  C   UNL A   1      48.935  44.168  33.975  1.00  0.00     0.020 A 
ATOM     92  C   UNL A   1      50.669  42.529  34.423  1.00  0.00     0.020 A 
ATOM     93  C   UNL A   1      50.284  43.838  34.132  1.00  0.00     0.054 A 
BRANCH  93  94
ATOM     94  S   UNL A   1      51.530  45.152  33.998  1.00  0.00     0.124 S 
ATOM     95  O   UNL A   1      50.805  46.312  34.506  1.00  0.00    -0.237 OA
ATOM     96  O   UNL A   1      52.607  44.654  34.850  1.00  0.00    -0.237 OA
ATOM     97  O   UNL A   1      51.841  45.183  32.571  1.00  0.00    -0.744 OA
ENDBRANCH  93  94
ENDBRANCH  65  88
BRANCH  77  98
ATOM     98  C   UNL A   1      44.355  39.710  39.724  1.00  0.00    -0.014 A 
ATOM     99  C   UNL A   1      43.395  40.667  40.101  1.00  0.00     0.010 A 
ATOM    100  C   UNL A   1      45.169  39.129  40.713  1.00  0.00     0.010 A 
ATOM    101  C   UNL A   1      43.268  41.052  41.438  1.00  0.00     0.020 A 
ATOM    102  C   UNL A   1      45.026  39.492  42.055  1.00  0.00     0.020 A 
ATOM    103  C   UNL A   1      44.083  40.460  42.408  1.00  0.00     0.054 A 
BRANCH 103 104
ATOM    104  S   UNL A   1      43.859  40.935  44.143  1.00  0.00     0.124 S 
ATOM    105  O   UNL A   1      42.489  41.441  44.146  1.00  0.00    -0.237 OA
ATOM    106  O   UNL A   1      44.064  39.674  44.850  1.00  0.00    -0.237 OA
ATOM    107  O   UNL A   1      44.895  41.941  44.364  1.00  0.00    -0.744 OA
ENDBRANCH 103 104
ENDBRANCH  77  98
ENDBRANCH  51  52
ENDBRANCH  43  46
ENDBRANCH  41  42
ENDBRANCH  40  41
ENDBRANCH   1  40
TORSDOF 21
ENDMDL
MODEL 3
REMARK VINA RESULT:      -8.4      6.952     12.064
REMARK SMILES N#CCC[NH+]1CCN(c2cc(C(=O)NCCCCNC(=O)c3ccc(-c4c5nc(c(-c6ccc(S(=O)(=O)[O-])cc6)c6ccc([nH]6)c(-c6ccc(S(=O)(=O)[O-])cc6)c6nc(c(-c7ccc(S(=O)(=O)[O-])cc7)c7ccc4[nH]7)C=C6)C=C5)cc3)c3cc(NS(=O)(=O)c4ccccc4Cl)ccc3n2)CC1
REMARK SMILES IDX 16 1 15 2 14 3 12 4 13 5 11 7 9 8 10 9 99 10 98 11 82 12
REMARK SMILES IDX 97 13 83 14 96 15 84 16 8 17 5 18 6 19 101 20 7 22 100 23
REMARK SMILES IDX 4 24 3 25 2 26 1 27 85 28 86 30 87 31 88 32 89 33 90 34
REMARK SMILES IDX 94 35 91 36 93 37 95 38 92 39 17 40 18 41 19 42 20 43 21 45
REMARK SMILES IDX 22 46 23 47 81 48 24 49 80 50 25 51 26 52 27 53 74 54 28 55
REMARK SMILES IDX 79 56 73 57 75 58 29 59 78 60 72 61 71 62 30 64 60 65 41 66
REMARK SMILES IDX 59 67 42 68 45 69 58 70 76 71 43 72 44 73 57 75 77 76 46 77
REMARK SMILES IDX 31 78 32 79 40 80 33 81 39 82 34 83 35 84 36 85 37 86 38 87
REMARK SMILES IDX 61 88 62 89 70 90 63 91 69 92 64 93 65 94 66 95 67 96 68 97
REMARK SMILES IDX 47 98 48 99 56 100 49 101 55 102 50 103 51 104 52 105 53 106
REMARK SMILES IDX 54 107
REMARK H PARENT 14 6 5 21 85 29 19 44 75 63 45 74
REMARK Flexibility Score: inf
ROOT
ATOM      1  C   UNL A   1      47.064  38.976  26.022  1.00  0.00     0.023 C 
ENDROOT
BRANCH   1   2
ATOM      2  C   UNL A   1      47.646  40.236  26.730  1.00  0.00     0.116 C 
BRANCH   2   3
ATOM      3  N   UNL A   1      47.210  41.544  26.181  1.00  0.00    -0.352 N 
ATOM      4  C   UNL A   1      46.090  42.253  26.614  1.00  0.00     0.252 C 
ATOM      5  O   UNL A   1      46.259  43.210  27.370  1.00  0.00    -0.269 OA
ATOM      6  H   UNL A   1      47.750  41.939  25.459  1.00  0.00     0.163 HD
BRANCH   4   7
ATOM      7  C   UNL A   1      44.733  42.067  25.987  1.00  0.00     0.052 A 
ATOM      8  C   UNL A   1      43.347  42.517  24.041  1.00  0.00     0.130 A 
ATOM      9  C   UNL A   1      44.480  42.782  24.819  1.00  0.00     0.061 A 
ATOM     10  N   UNL A   1      42.359  41.723  24.486  1.00  0.00    -0.231 NA
ATOM     11  C   UNL A   1      42.510  41.152  25.691  1.00  0.00     0.074 A 
ATOM     12  C   UNL A   1      43.694  41.273  26.448  1.00  0.00     0.015 A 
ATOM     13  C   UNL A   1      41.485  40.396  26.242  1.00  0.00     0.031 A 
ATOM     14  C   UNL A   1      43.758  40.656  27.683  1.00  0.00     0.038 A 
ATOM     15  C   UNL A   1      41.508  40.082  27.608  1.00  0.00     0.029 A 
ATOM     16  C   UNL A   1      42.594  40.476  28.389  1.00  0.00     0.050 A 
BRANCH   8  17
ATOM     17  N   UNL A   1      43.362  42.887  22.709  1.00  0.00    -0.345 N 
ATOM     18  N   UNL A   1      43.799  43.182  19.853  1.00  0.00    -0.331 N 
ATOM     19  C   UNL A   1      44.891  42.799  20.756  1.00  0.00     0.284 C 
ATOM     20  C   UNL A   1      42.589  42.478  20.345  1.00  0.00     0.284 C 
ATOM     21  H   UNL A   1      44.076  42.901  18.912  1.00  0.00     0.348 HD
ATOM     22  C   UNL A   1      44.688  43.229  22.203  1.00  0.00     0.179 C 
ATOM     23  C   UNL A   1      42.202  42.772  21.822  1.00  0.00     0.179 C 
BRANCH  18  24
ATOM     24  C   UNL A   1      43.556  44.625  19.636  1.00  0.00     0.277 C 
BRANCH  24  25
ATOM     25  C   UNL A   1      44.605  45.572  19.017  1.00  0.00     0.181 C 
BRANCH  25  26
ATOM     26  C   UNL A   1      44.033  46.337  17.835  1.00  0.00     0.068 C 
ATOM     27  N   UNL A   1      43.558  46.971  16.854  1.00  0.00    -0.198 NA
ENDBRANCH  25  26
ENDBRANCH  24  25
ENDBRANCH  18  24
ENDBRANCH   8  17
BRANCH  16  28
ATOM     28  N   UNL A   1      42.292  41.526  29.368  1.00  0.00    -0.280 N 
ATOM     29  H   UNL A   1      42.036  42.423  29.055  1.00  0.00     0.180 HD
BRANCH  28  30
ATOM     30  S   UNL A   1      42.383  41.211  31.063  1.00  0.00     0.263 S 
ATOM     31  O   UNL A   1      41.012  41.272  31.496  1.00  0.00    -0.201 OA
ATOM     32  O   UNL A   1      43.146  39.987  31.176  1.00  0.00    -0.201 OA
BRANCH  30  33
ATOM     33  C   UNL A   1      43.217  42.598  31.875  1.00  0.00     0.106 A 
ATOM     34  C   UNL A   1      43.808  43.508  30.988  1.00  0.00     0.024 A 
ATOM     35  C   UNL A   1      43.238  42.959  33.241  1.00  0.00     0.061 A 
ATOM     36  C   UNL A   1      44.464  44.658  31.451  1.00  0.00     0.002 A 
ATOM     37  C   UNL A   1      44.029  44.027  33.701  1.00  0.00     0.022 A 
ATOM     38  Cl  UNL A   1      42.224  42.472  34.531  1.00  0.00    -0.083 Cl
ATOM     39  C   UNL A   1      44.627  44.888  32.809  1.00  0.00     0.002 A 
ENDBRANCH  30  33
ENDBRANCH  28  30
ENDBRANCH  16  28
ENDBRANCH   4   7
ENDBRANCH   2   3
ENDBRANCH   1   2
BRANCH   1  40
ATOM     40  C   UNL A   1      47.976  37.820  25.470  1.00  0.00     0.023 C 
BRANCH  40  41
ATOM     41  C   UNL A   1      47.903  36.308  25.817  1.00  0.00     0.116 C 
BRANCH  41  42
ATOM     42  N   UNL A   1      46.736  35.512  25.490  1.00  0.00    -0.352 N 
ATOM     43  C   UNL A   1      45.581  35.447  26.265  1.00  0.00     0.251 C 
ATOM     44  H   UNL A   1      46.762  34.980  24.662  1.00  0.00     0.163 HD
ATOM     45  O   UNL A   1      44.545  34.968  25.815  1.00  0.00    -0.269 OA
BRANCH  43  46
ATOM     46  C   UNL A   1      45.601  35.920  27.678  1.00  0.00     0.039 A 
ATOM     47  C   UNL A   1      44.769  36.987  28.028  1.00  0.00     0.014 A 
ATOM     48  C   UNL A   1      46.442  35.355  28.645  1.00  0.00     0.014 A 
ATOM     49  C   UNL A   1      44.722  37.436  29.355  1.00  0.00     0.010 A 
ATOM     50  C   UNL A   1      46.370  35.788  29.983  1.00  0.00     0.010 A 
ATOM     51  C   UNL A   1      45.490  36.818  30.357  1.00  0.00    -0.014 A 
BRANCH  51  52
ATOM     52  C   UNL A   1      45.295  37.211  31.785  1.00  0.00     0.031 A 
ATOM     53  C   UNL A   1      46.036  38.374  32.392  1.00  0.00     0.074 A 
ATOM     54  C   UNL A   1      44.419  36.513  32.540  1.00  0.00     0.049 A 
ATOM     55  N   UNL A   1      45.929  38.884  33.594  1.00  0.00    -0.248 NA
ATOM     56  C   UNL A   1      47.030  39.044  31.542  1.00  0.00     0.031 C 
ATOM     57  C   UNL A   1      43.653  35.353  32.078  1.00  0.00     0.029 A 
ATOM     58  N   UNL A   1      44.011  36.677  33.843  1.00  0.00    -0.354 N 
ATOM     59  C   UNL A   1      46.838  39.936  33.647  1.00  0.00     0.074 A 
ATOM     60  C   UNL A   1      47.517  39.963  32.368  1.00  0.00     0.031 C 
ATOM     61  C   UNL A   1      42.847  34.932  33.065  1.00  0.00     0.029 A 
ATOM     62  C   UNL A   1      43.059  35.765  34.244  1.00  0.00     0.049 A 
ATOM     63  H   UNL A   1      44.366  37.380  34.434  1.00  0.00     0.167 HD
ATOM     64  C   UNL A   1      47.076  40.807  34.660  1.00  0.00     0.031 A 
ATOM     65  C   UNL A   1      42.425  35.613  35.425  1.00  0.00     0.031 A 
ATOM     66  C   UNL A   1      46.406  40.766  35.937  1.00  0.00     0.049 A 
ATOM     67  C   UNL A   1      42.729  36.572  36.545  1.00  0.00     0.074 A 
ATOM     68  C   UNL A   1      46.551  41.622  37.015  1.00  0.00     0.029 A 
ATOM     69  N   UNL A   1      45.472  39.810  36.312  1.00  0.00    -0.354 N 
ATOM     70  N   UNL A   1      43.543  37.601  36.547  1.00  0.00    -0.248 NA
ATOM     71  C   UNL A   1      42.028  36.355  37.817  1.00  0.00     0.031 C 
ATOM     72  C   UNL A   1      45.748  41.151  38.061  1.00  0.00     0.029 A 
ATOM     73  C   UNL A   1      45.057  40.036  37.614  1.00  0.00     0.049 A 
ATOM     74  H   UNL A   1      45.151  39.079  35.736  1.00  0.00     0.167 HD
ATOM     75  C   UNL A   1      43.440  38.163  37.815  1.00  0.00     0.074 A 
ATOM     76  C   UNL A   1      42.467  37.375  38.544  1.00  0.00     0.031 C 
ATOM     77  C   UNL A   1      44.095  39.233  38.329  1.00  0.00     0.031 A 
BRANCH  64  78
ATOM     78  C   UNL A   1      48.123  41.872  34.438  1.00  0.00    -0.014 A 
ATOM     79  C   UNL A   1      47.787  43.120  33.883  1.00  0.00     0.010 A 
ATOM     80  C   UNL A   1      49.456  41.638  34.824  1.00  0.00     0.010 A 
ATOM     81  C   UNL A   1      48.769  44.092  33.670  1.00  0.00     0.020 A 
ATOM     82  C   UNL A   1      50.438  42.618  34.639  1.00  0.00     0.020 A 
ATOM     83  C   UNL A   1      50.091  43.832  34.043  1.00  0.00     0.054 A 
BRANCH  83  84
ATOM     84  S   UNL A   1      51.344  45.114  33.757  1.00  0.00     0.124 S 
ATOM     85  O   UNL A   1      50.958  46.134  34.726  1.00  0.00    -0.237 OA
ATOM     86  O   UNL A   1      52.592  44.413  34.048  1.00  0.00    -0.237 OA
ATOM     87  O   UNL A   1      51.152  45.481  32.356  1.00  0.00    -0.744 OA
ENDBRANCH  83  84
ENDBRANCH  64  78
BRANCH  65  88
ATOM     88  C   UNL A   1      41.440  34.508  35.609  1.00  0.00    -0.014 A 
ATOM     89  C   UNL A   1      40.086  34.683  35.275  1.00  0.00     0.010 A 
ATOM     90  C   UNL A   1      41.860  33.261  36.111  1.00  0.00     0.010 A 
ATOM     91  C   UNL A   1      39.169  33.640  35.452  1.00  0.00     0.020 A 
ATOM     92  C   UNL A   1      40.953  32.207  36.262  1.00  0.00     0.020 A 
ATOM     93  C   UNL A   1      39.610  32.407  35.941  1.00  0.00     0.054 A 
BRANCH  93  94
ATOM     94  S   UNL A   1      38.415  31.051  36.110  1.00  0.00     0.124 S 
ATOM     95  O   UNL A   1      39.283  29.877  36.095  1.00  0.00    -0.237 OA
ATOM     96  O   UNL A   1      37.776  31.350  37.389  1.00  0.00    -0.237 OA
ATOM     97  O   UNL A   1      37.552  31.208  34.941  1.00  0.00    -0.744 OA
ENDBRANCH  93  94
ENDBRANCH  65  88
BRANCH  77  98
ATOM     98  C   UNL A   1      43.776  39.621  39.749  1.00  0.00    -0.014 A 
ATOM     99  C   UNL A   1      42.714  40.495  40.040  1.00  0.00     0.010 A 
ATOM    100  C   UNL A   1      44.507  39.054  40.808  1.00  0.00     0.010 A 
ATOM    101  C   UNL A   1      42.403  40.814  41.364  1.00  0.00     0.020 A 
ATOM    102  C   UNL A   1      44.182  39.349  42.135  1.00  0.00     0.020 A 
ATOM    103  C   UNL A   1      43.138  40.237  42.404  1.00  0.00     0.054 A 
BRANCH 103 104
ATOM    104  S   UNL A   1      42.678  40.623  44.115  1.00  0.00     0.124 S 
ATOM    105  O   UNL A   1      41.800  39.506  44.454  1.00  0.00    -0.237 OA
ATOM    106  O   UNL A   1      43.969  40.637  44.799  1.00  0.00    -0.237 OA
ATOM    107  O   UNL A   1      42.021  41.924  44.013  1.00  0.00    -0.744 OA
ENDBRANCH 103 104
ENDBRANCH  77  98
ENDBRANCH  51  52
ENDBRANCH  43  46
ENDBRANCH  41  42
ENDBRANCH  40  41
ENDBRANCH   1  40
TORSDOF 21
ENDMDL
