MODEL 1
REMARK VINA RESULT:     -10.1      0.000      0.000
REMARK SMILES C[C@H]1CN(CCC(=O)NCCCCNC(=O)c2ccc(-c3c4nc(c(-c5ccc(S(=O)(=O)[O-])cc5)c5ccc([nH]5)c(-c5ccc(S(=O)(=O)[O-])cc5)c5nc(c(-c6ccc(S(=O)(=O)[O-])cc6)c6ccc3[nH]6)C=C5)C=C4)cc2)S(=O)(=O)C1
REMARK SMILES IDX 12 1 11 2 10 3 9 4 7 5 8 6 6 8 5 9 4 10 1 11 2 12 3 13 80 14
REMARK SMILES IDX 77 15 78 16 79 17 13 18 14 19 15 20 16 22 17 23 18 24 76 25
REMARK SMILES IDX 19 26 75 27 20 28 21 29 22 30 69 31 23 32 74 33 68 34 70 35
REMARK SMILES IDX 24 36 73 37 67 38 66 39 25 41 55 42 36 43 54 44 37 45 40 46
REMARK SMILES IDX 53 47 71 48 38 49 39 50 52 52 72 53 41 54 26 55 27 56 35 57
REMARK SMILES IDX 28 58 34 59 29 60 30 61 31 62 32 63 33 64 56 65 57 66 65 67
REMARK SMILES IDX 58 68 64 69 59 70 60 71 61 72 62 73 63 74 42 75 43 76 51 77
REMARK SMILES IDX 44 78 50 79 45 80 46 81 47 82 48 83 49 84
REMARK H PARENT 9 7 14 21 70 40 40 51
REMARK Flexibility Score: inf
ROOT
ATOM      1  C   UNL A   1      36.220  22.193  25.867  1.00  0.00     0.023 C 
ENDROOT
BRANCH   1   2
ATOM      2  C   UNL A   1      35.164  21.444  25.058  1.00  0.00     0.023 C 
BRANCH   2   3
ATOM      3  C   UNL A   1      33.797  21.229  25.728  1.00  0.00     0.116 C 
BRANCH   3   4
ATOM      4  N   UNL A   1      32.705  21.854  25.001  1.00  0.00    -0.356 N 
ATOM      5  C   UNL A   1      32.378  23.153  24.771  1.00  0.00     0.221 C 
ATOM      6  O   UNL A   1      31.450  23.373  23.987  1.00  0.00    -0.275 OA
ATOM      7  H   UNL A   1      32.081  21.210  24.595  1.00  0.00     0.163 HD
BRANCH   5   8
ATOM      8  C   UNL A   1      33.129  24.320  25.383  1.00  0.00     0.116 C 
BRANCH   8   9
ATOM      9  C   UNL A   1      34.033  25.087  24.426  1.00  0.00     0.112 C 
BRANCH   9  10
ATOM     10  N   UNL A   1      33.395  26.224  23.749  1.00  0.00    -0.201 NA
ATOM     11  C   UNL A   1      30.153  26.534  24.446  1.00  0.00     0.010 C 
ATOM     12  C   UNL A   1      31.251  27.283  23.680  1.00  0.00     0.017 C 
ATOM     13  C   UNL A   1      32.606  27.249  24.424  1.00  0.00     0.106 C 
ATOM     14  C   UNL A   1      31.468  26.767  22.236  1.00  0.00     0.158 C 
ATOM     15  S   UNL A   1      33.192  26.306  22.090  1.00  0.00     0.214 S 
ATOM     16  O   UNL A   1      33.921  27.453  21.605  1.00  0.00    -0.212 OA
ATOM     17  O   UNL A   1      33.367  24.985  21.537  1.00  0.00    -0.212 OA
ENDBRANCH   9  10
ENDBRANCH   8   9
ENDBRANCH   5   8
ENDBRANCH   3   4
ENDBRANCH   2   3
ENDBRANCH   1   2
BRANCH   1  18
ATOM     18  C   UNL A   1      37.494  22.588  25.130  1.00  0.00     0.116 C 
BRANCH  18  19
ATOM     19  N   UNL A   1      38.740  22.034  25.655  1.00  0.00    -0.352 N 
ATOM     20  C   UNL A   1      39.668  22.601  26.509  1.00  0.00     0.251 C 
ATOM     21  H   UNL A   1      38.950  21.119  25.357  1.00  0.00     0.163 HD
ATOM     22  O   UNL A   1      40.629  21.950  26.904  1.00  0.00    -0.269 OA
BRANCH  20  23
ATOM     23  C   UNL A   1      39.536  24.030  26.863  1.00  0.00     0.039 A 
ATOM     24  C   UNL A   1      39.012  24.361  28.114  1.00  0.00     0.014 A 
ATOM     25  C   UNL A   1      40.106  25.010  26.053  1.00  0.00     0.014 A 
ATOM     26  C   UNL A   1      39.219  25.644  28.624  1.00  0.00     0.010 A 
ATOM     27  C   UNL A   1      40.430  26.238  26.617  1.00  0.00     0.010 A 
ATOM     28  C   UNL A   1      40.015  26.561  27.919  1.00  0.00    -0.014 A 
BRANCH  28  29
ATOM     29  C   UNL A   1      40.466  27.837  28.538  1.00  0.00     0.031 A 
ATOM     30  C   UNL A   1      41.865  27.955  29.079  1.00  0.00     0.074 A 
ATOM     31  C   UNL A   1      39.589  28.855  28.695  1.00  0.00     0.049 A 
ATOM     32  N   UNL A   1      42.418  28.951  29.721  1.00  0.00    -0.248 NA
ATOM     33  C   UNL A   1      42.751  26.789  28.909  1.00  0.00     0.031 C 
ATOM     34  C   UNL A   1      38.184  28.846  28.269  1.00  0.00     0.029 A 
ATOM     35  N   UNL A   1      39.746  30.099  29.259  1.00  0.00    -0.354 N 
ATOM     36  C   UNL A   1      43.696  28.521  30.056  1.00  0.00     0.074 A 
ATOM     37  C   UNL A   1      43.823  27.158  29.595  1.00  0.00     0.031 C 
ATOM     38  C   UNL A   1      37.628  30.037  28.545  1.00  0.00     0.029 A 
ATOM     39  C   UNL A   1      38.611  30.879  29.217  1.00  0.00     0.049 A 
ATOM     40  H   UNL A   1      40.593  30.404  29.657  1.00  0.00     0.167 HD
ATOM     41  C   UNL A   1      44.685  29.208  30.672  1.00  0.00     0.031 A 
ATOM     42  C   UNL A   1      38.383  32.127  29.677  1.00  0.00     0.031 A 
ATOM     43  C   UNL A   1      44.567  30.577  31.092  1.00  0.00     0.049 A 
ATOM     44  C   UNL A   1      39.504  32.862  30.365  1.00  0.00     0.074 A 
ATOM     45  C   UNL A   1      45.545  31.391  31.637  1.00  0.00     0.029 A 
ATOM     46  N   UNL A   1      43.408  31.331  31.021  1.00  0.00    -0.354 N 
ATOM     47  N   UNL A   1      40.741  32.474  30.568  1.00  0.00    -0.248 NA
ATOM     48  C   UNL A   1      39.201  34.204  30.885  1.00  0.00     0.031 C 
ATOM     49  C   UNL A   1      44.956  32.614  31.965  1.00  0.00     0.029 A 
ATOM     50  C   UNL A   1      43.632  32.587  31.558  1.00  0.00     0.049 A 
ATOM     51  H   UNL A   1      42.553  31.021  30.645  1.00  0.00     0.167 HD
ATOM     52  C   UNL A   1      41.367  33.534  31.216  1.00  0.00     0.074 A 
ATOM     53  C   UNL A   1      40.383  34.587  31.346  1.00  0.00     0.031 C 
ATOM     54  C   UNL A   1      42.641  33.626  31.668  1.00  0.00     0.031 A 
BRANCH  41  55
ATOM     55  C   UNL A   1      45.985  28.497  30.937  1.00  0.00    -0.014 A 
ATOM     56  C   UNL A   1      47.045  28.546  30.015  1.00  0.00     0.010 A 
ATOM     57  C   UNL A   1      46.176  27.842  32.167  1.00  0.00     0.010 A 
ATOM     58  C   UNL A   1      48.269  27.940  30.312  1.00  0.00     0.020 A 
ATOM     59  C   UNL A   1      47.406  27.260  32.481  1.00  0.00     0.020 A 
ATOM     60  C   UNL A   1      48.443  27.307  31.548  1.00  0.00     0.054 A 
BRANCH  60  61
ATOM     61  S   UNL A   1      50.065  26.594  31.933  1.00  0.00     0.124 S 
ATOM     62  O   UNL A   1      50.467  27.374  33.101  1.00  0.00    -0.237 OA
ATOM     63  O   UNL A   1      49.742  25.193  32.194  1.00  0.00    -0.237 OA
ATOM     64  O   UNL A   1      50.848  26.837  30.724  1.00  0.00    -0.744 OA
ENDBRANCH  60  61
ENDBRANCH  41  55
BRANCH  42  65
ATOM     65  C   UNL A   1      37.045  32.771  29.519  1.00  0.00    -0.014 A 
ATOM     66  C   UNL A   1      36.694  33.406  28.313  1.00  0.00     0.010 A 
ATOM     67  C   UNL A   1      36.132  32.799  30.589  1.00  0.00     0.010 A 
ATOM     68  C   UNL A   1      35.481  34.093  28.196  1.00  0.00     0.020 A 
ATOM     69  C   UNL A   1      34.903  33.454  30.465  1.00  0.00     0.020 A 
ATOM     70  C   UNL A   1      34.594  34.115  29.276  1.00  0.00     0.054 A 
BRANCH  70  71
ATOM     71  S   UNL A   1      33.026  35.014  29.103  1.00  0.00     0.124 S 
ATOM     72  O   UNL A   1      32.323  34.207  28.110  1.00  0.00    -0.237 OA
ATOM     73  O   UNL A   1      32.484  34.963  30.458  1.00  0.00    -0.237 OA
ATOM     74  O   UNL A   1      33.441  36.340  28.653  1.00  0.00    -0.744 OA
ENDBRANCH  70  71
ENDBRANCH  42  65
BRANCH  54  75
ATOM     75  C   UNL A   1      43.058  34.914  32.324  1.00  0.00    -0.014 A 
ATOM     76  C   UNL A   1      43.689  35.933  31.587  1.00  0.00     0.010 A 
ATOM     77  C   UNL A   1      42.741  35.141  33.676  1.00  0.00     0.010 A 
ATOM     78  C   UNL A   1      44.014  37.146  32.197  1.00  0.00     0.020 A 
ATOM     79  C   UNL A   1      43.034  36.365  34.280  1.00  0.00     0.020 A 
ATOM     80  C   UNL A   1      43.678  37.356  33.538  1.00  0.00     0.054 A 
BRANCH  80  81
ATOM     81  S   UNL A   1      44.050  38.967  34.285  1.00  0.00     0.124 S 
ATOM     82  O   UNL A   1      42.933  39.784  33.819  1.00  0.00    -0.237 OA
ATOM     83  O   UNL A   1      44.054  38.662  35.713  1.00  0.00    -0.237 OA
ATOM     84  O   UNL A   1      45.354  39.317  33.724  1.00  0.00    -0.744 OA
ENDBRANCH  80  81
ENDBRANCH  54  75
ENDBRANCH  28  29
ENDBRANCH  20  23
ENDBRANCH  18  19
ENDBRANCH   1  18
TORSDOF 16
ENDMDL
MODEL 2
REMARK VINA RESULT:      -9.9      2.717      9.471
REMARK SMILES C[C@H]1CN(CCC(=O)NCCCCNC(=O)c2ccc(-c3c4nc(c(-c5ccc(S(=O)(=O)[O-])cc5)c5ccc([nH]5)c(-c5ccc(S(=O)(=O)[O-])cc5)c5nc(c(-c6ccc(S(=O)(=O)[O-])cc6)c6ccc3[nH]6)C=C5)C=C4)cc2)S(=O)(=O)C1
REMARK SMILES IDX 12 1 11 2 10 3 9 4 7 5 8 6 6 8 5 9 4 10 1 11 2 12 3 13 80 14
REMARK SMILES IDX 77 15 78 16 79 17 13 18 14 19 15 20 16 22 17 23 18 24 76 25
REMARK SMILES IDX 19 26 75 27 20 28 21 29 22 30 69 31 23 32 74 33 68 34 70 35
REMARK SMILES IDX 24 36 73 37 67 38 66 39 25 41 55 42 36 43 54 44 37 45 40 46
REMARK SMILES IDX 53 47 71 48 38 49 39 50 52 52 72 53 41 54 26 55 27 56 35 57
REMARK SMILES IDX 28 58 34 59 29 60 30 61 31 62 32 63 33 64 56 65 57 66 65 67
REMARK SMILES IDX 58 68 64 69 59 70 60 71 61 72 62 73 63 74 42 75 43 76 51 77
REMARK SMILES IDX 44 78 50 79 45 80 46 81 47 82 48 83 49 84
REMARK H PARENT 9 7 14 21 70 40 40 51
REMARK Flexibility Score: inf
ROOT
ATOM      1  C   UNL A   1      32.037  29.403  26.634  1.00  0.00     0.023 C 
ENDROOT
BRANCH   1   2
ATOM      2  C   UNL A   1      31.478  30.254  25.497  1.00  0.00     0.023 C 
BRANCH   2   3
ATOM      3  C   UNL A   1      31.081  29.518  24.207  1.00  0.00     0.116 C 
BRANCH   3   4
ATOM      4  N   UNL A   1      32.194  29.344  23.289  1.00  0.00    -0.356 N 
ATOM      5  C   UNL A   1      32.903  28.252  22.899  1.00  0.00     0.221 C 
ATOM      6  O   UNL A   1      33.717  28.402  21.984  1.00  0.00    -0.275 OA
ATOM      7  H   UNL A   1      32.493  30.182  22.867  1.00  0.00     0.163 HD
BRANCH   5   8
ATOM      8  C   UNL A   1      32.695  26.871  23.491  1.00  0.00     0.116 C 
BRANCH   8   9
ATOM      9  C   UNL A   1      33.968  26.108  23.829  1.00  0.00     0.112 C 
BRANCH   9  10
ATOM     10  N   UNL A   1      33.970  24.696  23.425  1.00  0.00    -0.201 NA
ATOM     11  C   UNL A   1      31.403  22.962  24.645  1.00  0.00     0.010 C 
ATOM     12  C   UNL A   1      32.584  22.764  23.688  1.00  0.00     0.017 C 
ATOM     13  C   UNL A   1      32.837  24.012  22.810  1.00  0.00     0.106 C 
ATOM     14  C   UNL A   1      33.907  22.383  24.398  1.00  0.00     0.158 C 
ATOM     15  S   UNL A   1      35.132  23.601  23.926  1.00  0.00     0.214 S 
ATOM     16  O   UNL A   1      35.821  23.111  22.757  1.00  0.00    -0.212 OA
ATOM     17  O   UNL A   1      35.829  24.154  25.061  1.00  0.00    -0.212 OA
ENDBRANCH   9  10
ENDBRANCH   8   9
ENDBRANCH   5   8
ENDBRANCH   3   4
ENDBRANCH   2   3
ENDBRANCH   1   2
BRANCH   1  18
ATOM     18  C   UNL A   1      33.471  29.689  27.061  1.00  0.00     0.116 C 
BRANCH  18  19
ATOM     19  N   UNL A   1      33.658  30.799  27.992  1.00  0.00    -0.352 N 
ATOM     20  C   UNL A   1      34.778  31.167  28.714  1.00  0.00     0.251 C 
ATOM     21  H   UNL A   1      32.868  31.372  28.124  1.00  0.00     0.163 HD
ATOM     22  O   UNL A   1      34.769  32.186  29.399  1.00  0.00    -0.269 OA
BRANCH  20  23
ATOM     23  C   UNL A   1      35.950  30.267  28.726  1.00  0.00     0.039 A 
ATOM     24  C   UNL A   1      36.760  30.214  27.589  1.00  0.00     0.014 A 
ATOM     25  C   UNL A   1      36.349  29.647  29.908  1.00  0.00     0.014 A 
ATOM     26  C   UNL A   1      38.048  29.687  27.693  1.00  0.00     0.010 A 
ATOM     27  C   UNL A   1      37.674  29.251  30.042  1.00  0.00     0.010 A 
ATOM     28  C   UNL A   1      38.548  29.292  28.944  1.00  0.00    -0.014 A 
BRANCH  28  29
ATOM     29  C   UNL A   1      39.987  28.965  29.139  1.00  0.00     0.031 A 
ATOM     30  C   UNL A   1      40.933  30.020  29.647  1.00  0.00     0.074 A 
ATOM     31  C   UNL A   1      40.456  27.750  28.774  1.00  0.00     0.049 A 
ATOM     32  N   UNL A   1      42.229  29.953  29.808  1.00  0.00    -0.248 NA
ATOM     33  C   UNL A   1      40.356  31.333  29.985  1.00  0.00     0.031 C 
ATOM     34  C   UNL A   1      39.654  26.658  28.210  1.00  0.00     0.029 A 
ATOM     35  N   UNL A   1      41.727  27.227  28.818  1.00  0.00    -0.354 N 
ATOM     36  C   UNL A   1      42.622  31.217  30.233  1.00  0.00     0.074 A 
ATOM     37  C   UNL A   1      41.439  32.046  30.256  1.00  0.00     0.031 C 
ATOM     38  C   UNL A   1      40.440  25.588  28.007  1.00  0.00     0.029 A 
ATOM     39  C   UNL A   1      41.811  25.927  28.368  1.00  0.00     0.049 A 
ATOM     40  H   UNL A   1      42.506  27.734  29.141  1.00  0.00     0.167 HD
ATOM     41  C   UNL A   1      43.853  31.643  30.594  1.00  0.00     0.031 A 
ATOM     42  C   UNL A   1      42.873  25.103  28.250  1.00  0.00     0.031 A 
ATOM     43  C   UNL A   1      45.019  30.803  30.609  1.00  0.00     0.049 A 
ATOM     44  C   UNL A   1      44.233  25.611  28.655  1.00  0.00     0.074 A 
ATOM     45  C   UNL A   1      46.292  31.115  31.052  1.00  0.00     0.029 A 
ATOM     46  N   UNL A   1      45.058  29.494  30.158  1.00  0.00    -0.354 N 
ATOM     47  N   UNL A   1      44.559  26.776  29.162  1.00  0.00    -0.248 NA
ATOM     48  C   UNL A   1      45.368  24.694  28.474  1.00  0.00     0.031 C 
ATOM     49  C   UNL A   1      47.119  30.018  30.799  1.00  0.00     0.029 A 
ATOM     50  C   UNL A   1      46.346  28.999  30.267  1.00  0.00     0.049 A 
ATOM     51  H   UNL A   1      44.286  28.991  29.813  1.00  0.00     0.167 HD
ATOM     52  C   UNL A   1      45.932  26.720  29.384  1.00  0.00     0.074 A 
ATOM     53  C   UNL A   1      46.369  25.400  28.981  1.00  0.00     0.031 C 
ATOM     54  C   UNL A   1      46.758  27.678  29.870  1.00  0.00     0.031 A 
BRANCH  41  55
ATOM     55  C   UNL A   1      44.015  33.082  31.003  1.00  0.00    -0.014 A 
ATOM     56  C   UNL A   1      44.245  34.090  30.049  1.00  0.00     0.010 A 
ATOM     57  C   UNL A   1      43.849  33.441  32.353  1.00  0.00     0.010 A 
ATOM     58  C   UNL A   1      44.321  35.429  30.441  1.00  0.00     0.020 A 
ATOM     59  C   UNL A   1      43.894  34.781  32.745  1.00  0.00     0.020 A 
ATOM     60  C   UNL A   1      44.137  35.766  31.787  1.00  0.00     0.054 A 
BRANCH  60  61
ATOM     61  S   UNL A   1      44.168  37.519  32.252  1.00  0.00     0.124 S 
ATOM     62  O   UNL A   1      45.566  37.704  32.634  1.00  0.00    -0.237 OA
ATOM     63  O   UNL A   1      43.762  38.183  31.016  1.00  0.00    -0.237 OA
ATOM     64  O   UNL A   1      43.207  37.604  33.349  1.00  0.00    -0.744 OA
ENDBRANCH  60  61
ENDBRANCH  41  55
BRANCH  42  65
ATOM     65  C   UNL A   1      42.715  23.716  27.721  1.00  0.00    -0.014 A 
ATOM     66  C   UNL A   1      42.703  23.475  26.335  1.00  0.00     0.010 A 
ATOM     67  C   UNL A   1      42.524  22.632  28.599  1.00  0.00     0.010 A 
ATOM     68  C   UNL A   1      42.458  22.190  25.837  1.00  0.00     0.020 A 
ATOM     69  C   UNL A   1      42.314  21.340  28.106  1.00  0.00     0.020 A 
ATOM     70  C   UNL A   1      42.261  21.131  26.727  1.00  0.00     0.054 A 
BRANCH  70  71
ATOM     71  S   UNL A   1      41.944  19.474  26.059  1.00  0.00     0.124 S 
ATOM     72  O   UNL A   1      42.260  18.621  27.201  1.00  0.00    -0.237 OA
ATOM     73  O   UNL A   1      40.531  19.546  25.695  1.00  0.00    -0.237 OA
ATOM     74  O   UNL A   1      42.867  19.377  24.931  1.00  0.00    -0.744 OA
ENDBRANCH  70  71
ENDBRANCH  42  65
BRANCH  54  75
ATOM     75  C   UNL A   1      48.215  27.332  30.022  1.00  0.00    -0.014 A 
ATOM     76  C   UNL A   1      49.145  27.649  29.016  1.00  0.00     0.010 A 
ATOM     77  C   UNL A   1      48.671  26.756  31.222  1.00  0.00     0.010 A 
ATOM     78  C   UNL A   1      50.502  27.376  29.200  1.00  0.00     0.020 A 
ATOM     79  C   UNL A   1      50.031  26.513  31.423  1.00  0.00     0.020 A 
ATOM     80  C   UNL A   1      50.936  26.816  30.405  1.00  0.00     0.054 A 
BRANCH  80  81
ATOM     81  S   UNL A   1      52.713  26.537  30.642  1.00  0.00     0.124 S 
ATOM     82  O   UNL A   1      53.158  26.238  29.283  1.00  0.00    -0.237 OA
ATOM     83  O   UNL A   1      53.166  27.815  31.186  1.00  0.00    -0.237 OA
ATOM     84  O   UNL A   1      52.767  25.414  31.576  1.00  0.00    -0.744 OA
ENDBRANCH  80  81
ENDBRANCH  54  75
ENDBRANCH  28  29
ENDBRANCH  20  23
ENDBRANCH  18  19
ENDBRANCH   1  18
TORSDOF 16
ENDMDL
MODEL 3
REMARK VINA RESULT:      -9.9      3.652      4.676
REMARK SMILES C[C@H]1CN(CCC(=O)NCCCCNC(=O)c2ccc(-c3c4nc(c(-c5ccc(S(=O)(=O)[O-])cc5)c5ccc([nH]5)c(-c5ccc(S(=O)(=O)[O-])cc5)c5nc(c(-c6ccc(S(=O)(=O)[O-])cc6)c6ccc3[nH]6)C=C5)C=C4)cc2)S(=O)(=O)C1
REMARK SMILES IDX 12 1 11 2 10 3 9 4 7 5 8 6 6 8 5 9 4 10 1 11 2 12 3 13 80 14
REMARK SMILES IDX 77 15 78 16 79 17 13 18 14 19 15 20 16 22 17 23 18 24 76 25
REMARK SMILES IDX 19 26 75 27 20 28 21 29 22 30 69 31 23 32 74 33 68 34 70 35
REMARK SMILES IDX 24 36 73 37 67 38 66 39 25 41 55 42 36 43 54 44 37 45 40 46
REMARK SMILES IDX 53 47 71 48 38 49 39 50 52 52 72 53 41 54 26 55 27 56 35 57
REMARK SMILES IDX 28 58 34 59 29 60 30 61 31 62 32 63 33 64 56 65 57 66 65 67
REMARK SMILES IDX 58 68 64 69 59 70 60 71 61 72 62 73 63 74 42 75 43 76 51 77
REMARK SMILES IDX 44 78 50 79 45 80 46 81 47 82 48 83 49 84
REMARK H PARENT 9 7 14 21 70 40 40 51
REMARK Flexibility Score: inf
ROOT
ATOM      1  C   UNL A   1      40.332  22.168  27.399  1.00  0.00     0.023 C 
ENDROOT
BRANCH   1   2
ATOM      2  C   UNL A   1      39.306  21.723  26.361  1.00  0.00     0.023 C 
BRANCH   2   3
ATOM      3  C   UNL A   1      38.183  22.717  26.022  1.00  0.00     0.116 C 
BRANCH   3   4
ATOM      4  N   UNL A   1      37.778  22.661  24.628  1.00  0.00    -0.356 N 
ATOM      5  C   UNL A   1      36.673  23.104  23.973  1.00  0.00     0.221 C 
ATOM      6  O   UNL A   1      36.677  23.031  22.741  1.00  0.00    -0.275 OA
ATOM      7  H   UNL A   1      38.432  22.214  24.044  1.00  0.00     0.163 HD
BRANCH   5   8
ATOM      8  C   UNL A   1      35.483  23.728  24.678  1.00  0.00     0.116 C 
BRANCH   8   9
ATOM      9  C   UNL A   1      34.169  23.675  23.909  1.00  0.00     0.112 C 
BRANCH   9  10
ATOM     10  N   UNL A   1      32.969  23.920  24.719  1.00  0.00    -0.201 NA
ATOM     11  C   UNL A   1      33.083  22.498  27.728  1.00  0.00     0.010 C 
ATOM     12  C   UNL A   1      32.174  23.434  26.923  1.00  0.00     0.017 C 
ATOM     13  C   UNL A   1      32.984  24.447  26.079  1.00  0.00     0.106 C 
ATOM     14  C   UNL A   1      31.184  22.694  25.990  1.00  0.00     0.158 C 
ATOM     15  S   UNL A   1      31.460  23.307  24.330  1.00  0.00     0.214 S 
ATOM     16  O   UNL A   1      30.567  24.418  24.109  1.00  0.00    -0.212 OA
ATOM     17  O   UNL A   1      31.628  22.244  23.369  1.00  0.00    -0.212 OA
ENDBRANCH   9  10
ENDBRANCH   8   9
ENDBRANCH   5   8
ENDBRANCH   3   4
ENDBRANCH   2   3
ENDBRANCH   1   2
BRANCH   1  18
ATOM     18  C   UNL A   1      41.569  22.888  26.875  1.00  0.00     0.116 C 
BRANCH  18  19
ATOM     19  N   UNL A   1      41.329  23.971  25.925  1.00  0.00    -0.352 N 
ATOM     20  C   UNL A   1      41.274  25.337  26.138  1.00  0.00     0.251 C 
ATOM     21  H   UNL A   1      41.186  23.687  24.993  1.00  0.00     0.163 HD
ATOM     22  O   UNL A   1      41.132  26.108  25.194  1.00  0.00    -0.269 OA
BRANCH  20  23
ATOM     23  C   UNL A   1      41.293  25.847  27.525  1.00  0.00     0.039 A 
ATOM     24  C   UNL A   1      42.436  26.511  27.975  1.00  0.00     0.014 A 
ATOM     25  C   UNL A   1      40.129  25.842  28.291  1.00  0.00     0.014 A 
ATOM     26  C   UNL A   1      42.353  27.317  29.112  1.00  0.00     0.010 A 
ATOM     27  C   UNL A   1      40.014  26.750  29.337  1.00  0.00     0.010 A 
ATOM     28  C   UNL A   1      41.116  27.519  29.743  1.00  0.00    -0.014 A 
BRANCH  28  29
ATOM     29  C   UNL A   1      40.939  28.559  30.793  1.00  0.00     0.031 A 
ATOM     30  C   UNL A   1      41.782  28.516  32.039  1.00  0.00     0.074 A 
ATOM     31  C   UNL A   1      39.960  29.484  30.667  1.00  0.00     0.049 A 
ATOM     32  N   UNL A   1      41.724  29.282  33.098  1.00  0.00    -0.248 NA
ATOM     33  C   UNL A   1      42.800  27.454  32.126  1.00  0.00     0.031 C 
ATOM     34  C   UNL A   1      39.032  29.596  29.535  1.00  0.00     0.029 A 
ATOM     35  N   UNL A   1      39.577  30.508  31.500  1.00  0.00    -0.354 N 
ATOM     36  C   UNL A   1      42.670  28.775  33.982  1.00  0.00     0.074 A 
ATOM     37  C   UNL A   1      43.253  27.609  33.361  1.00  0.00     0.031 C 
ATOM     38  C   UNL A   1      38.224  30.653  29.725  1.00  0.00     0.029 A 
ATOM     39  C   UNL A   1      38.531  31.263  31.014  1.00  0.00     0.049 A 
ATOM     40  H   UNL A   1      40.009  30.685  32.366  1.00  0.00     0.167 HD
ATOM     41  C   UNL A   1      43.038  29.254  35.191  1.00  0.00     0.031 A 
ATOM     42  C   UNL A   1      37.885  32.320  31.548  1.00  0.00     0.031 A 
ATOM     43  C   UNL A   1      42.484  30.439  35.786  1.00  0.00     0.049 A 
ATOM     44  C   UNL A   1      38.315  32.823  32.902  1.00  0.00     0.074 A 
ATOM     45  C   UNL A   1      42.861  31.059  36.965  1.00  0.00     0.029 A 
ATOM     46  N   UNL A   1      41.439  31.177  35.256  1.00  0.00    -0.354 N 
ATOM     47  N   UNL A   1      39.291  32.396  33.667  1.00  0.00    -0.248 NA
ATOM     48  C   UNL A   1      37.560  33.953  33.464  1.00  0.00     0.031 C 
ATOM     49  C   UNL A   1      41.992  32.131  37.185  1.00  0.00     0.029 A 
ATOM     50  C   UNL A   1      41.124  32.221  36.109  1.00  0.00     0.049 A 
ATOM     51  H   UNL A   1      40.989  30.989  34.402  1.00  0.00     0.167 HD
ATOM     52  C   UNL A   1      39.281  33.221  34.787  1.00  0.00     0.074 A 
ATOM     53  C   UNL A   1      38.222  34.187  34.588  1.00  0.00     0.031 C 
ATOM     54  C   UNL A   1      40.072  33.179  35.886  1.00  0.00     0.031 A 
BRANCH  41  55
ATOM     55  C   UNL A   1      44.087  28.499  35.964  1.00  0.00    -0.014 A 
ATOM     56  C   UNL A   1      43.737  27.462  36.847  1.00  0.00     0.010 A 
ATOM     57  C   UNL A   1      45.447  28.777  35.736  1.00  0.00     0.010 A 
ATOM     58  C   UNL A   1      44.730  26.727  37.500  1.00  0.00     0.020 A 
ATOM     59  C   UNL A   1      46.443  28.026  36.364  1.00  0.00     0.020 A 
ATOM     60  C   UNL A   1      46.077  27.009  37.247  1.00  0.00     0.054 A 
BRANCH  60  61
ATOM     61  S   UNL A   1      47.341  25.988  38.054  1.00  0.00     0.124 S 
ATOM     62  O   UNL A   1      46.531  24.949  38.685  1.00  0.00    -0.237 OA
ATOM     63  O   UNL A   1      48.161  25.549  36.928  1.00  0.00    -0.237 OA
ATOM     64  O   UNL A   1      47.996  26.912  38.977  1.00  0.00    -0.744 OA
ENDBRANCH  60  61
ENDBRANCH  41  55
BRANCH  42  65
ATOM     65  C   UNL A   1      36.759  32.979  30.822  1.00  0.00    -0.014 A 
ATOM     66  C   UNL A   1      37.014  33.901  29.790  1.00  0.00     0.010 A 
ATOM     67  C   UNL A   1      35.425  32.727  31.192  1.00  0.00     0.010 A 
ATOM     68  C   UNL A   1      35.963  34.590  29.175  1.00  0.00     0.020 A 
ATOM     69  C   UNL A   1      34.369  33.388  30.556  1.00  0.00     0.020 A 
ATOM     70  C   UNL A   1      34.647  34.332  29.566  1.00  0.00     0.054 A 
BRANCH  70  71
ATOM     71  S   UNL A   1      33.299  35.240  28.756  1.00  0.00     0.124 S 
ATOM     72  O   UNL A   1      34.027  36.264  28.013  1.00  0.00    -0.237 OA
ATOM     73  O   UNL A   1      32.664  34.202  27.946  1.00  0.00    -0.237 OA
ATOM     74  O   UNL A   1      32.496  35.728  29.874  1.00  0.00    -0.744 OA
ENDBRANCH  70  71
ENDBRANCH  42  65
BRANCH  54  75
ATOM     75  C   UNL A   1      39.847  34.220  36.950  1.00  0.00    -0.014 A 
ATOM     76  C   UNL A   1      39.004  33.966  38.047  1.00  0.00     0.010 A 
ATOM     77  C   UNL A   1      40.552  35.436  36.892  1.00  0.00     0.010 A 
ATOM     78  C   UNL A   1      38.855  34.920  39.056  1.00  0.00     0.020 A 
ATOM     79  C   UNL A   1      40.431  36.378  37.916  1.00  0.00     0.020 A 
ATOM     80  C   UNL A   1      39.574  36.117  38.987  1.00  0.00     0.054 A 
BRANCH  80  81
ATOM     81  S   UNL A   1      39.413  37.307  40.346  1.00  0.00     0.124 S 
ATOM     82  O   UNL A   1      40.631  38.099  40.203  1.00  0.00    -0.237 OA
ATOM     83  O   UNL A   1      38.170  38.000  40.015  1.00  0.00    -0.237 OA
ATOM     84  O   UNL A   1      39.353  36.466  41.539  1.00  0.00    -0.744 OA
ENDBRANCH  80  81
ENDBRANCH  54  75
ENDBRANCH  28  29
ENDBRANCH  20  23
ENDBRANCH  18  19
ENDBRANCH   1  18
TORSDOF 16
ENDMDL
