MODEL 1
REMARK VINA RESULT:     -12.6      0.000      0.000
REMARK SMILES O=C(NCCCCNC(=O)c1cnccc1C(=O)N1CCC(Cc2ccccc2)CC1)c1ccc(-c2c3nc(c(-c4ccc(S(=O)(=O)[O-])cc4)c4ccc([nH]4)c(-c4ccc(S(=O)(=O)[O-])cc4)c4nc(c(-c5ccc(S(=O)(=O)[O-])cc5)c5ccc2[nH]5)C=C4)C=C3)cc1
REMARK SMILES IDX 5 1 4 2 3 3 1 4 2 5 32 7 33 8 91 9 34 10 90 11 35 12 36 13
REMARK SMILES IDX 37 14 84 15 38 16 89 17 83 18 85 19 39 20 88 21 82 22 81 23
REMARK SMILES IDX 40 25 70 26 51 27 69 28 52 29 55 30 68 31 86 32 53 33 54 34
REMARK SMILES IDX 67 36 87 37 56 38 41 39 42 40 50 41 43 42 49 43 44 44 45 45
REMARK SMILES IDX 46 46 47 47 48 48 71 49 72 50 80 51 73 52 79 53 74 54 75 55
REMARK SMILES IDX 76 56 77 57 78 58 57 59 58 60 66 61 59 62 65 63 60 64 61 65
REMARK SMILES IDX 62 66 63 67 64 68 6 69 7 70 8 71 9 72 10 74 11 75 12 76
REMARK SMILES IDX 16 77 13 78 15 79 14 80 17 81 18 82 19 83 20 84 31 85 21 86
REMARK SMILES IDX 30 87 22 88 23 89 24 90 25 91 29 92 26 93 28 94 27 95
REMARK H PARENT 3 6 85 24 55 35 8 73
REMARK Flexibility Score: inf
ROOT
ATOM      1  C   UNL A   1      34.114  28.868  27.189  1.00  0.00     0.023 C 
ENDROOT
BRANCH   1   2
ATOM      2  C   UNL A   1      35.415  29.474  27.705  1.00  0.00     0.116 C 
BRANCH   2   3
ATOM      3  N   UNL A   1      35.381  29.829  29.113  1.00  0.00    -0.352 N 
ATOM      4  O   UNL A   1      36.136  29.985  31.231  1.00  0.00    -0.269 OA
ATOM      5  C   UNL A   1      36.385  29.754  30.055  1.00  0.00     0.251 C 
ATOM      6  H   UNL A   1      34.518  30.171  29.441  1.00  0.00     0.163 HD
BRANCH   5   7
ATOM      7  C   UNL A   1      37.755  29.362  29.650  1.00  0.00     0.039 A 
ATOM      8  C   UNL A   1      38.625  28.748  30.553  1.00  0.00     0.014 A 
ATOM      9  C   UNL A   1      38.171  29.610  28.337  1.00  0.00     0.014 A 
ATOM     10  C   UNL A   1      39.945  28.501  30.180  1.00  0.00     0.010 A 
ATOM     11  C   UNL A   1      39.481  29.308  27.948  1.00  0.00     0.010 A 
ATOM     12  C   UNL A   1      40.389  28.779  28.877  1.00  0.00    -0.014 A 
BRANCH  12  13
ATOM     13  C   UNL A   1      41.796  28.478  28.505  1.00  0.00     0.031 A 
ATOM     14  C   UNL A   1      42.200  27.104  28.052  1.00  0.00     0.074 A 
ATOM     15  C   UNL A   1      42.705  29.471  28.527  1.00  0.00     0.049 A 
ATOM     16  N   UNL A   1      43.368  26.688  27.633  1.00  0.00    -0.248 NA
ATOM     17  C   UNL A   1      41.162  26.061  28.072  1.00  0.00     0.031 C 
ATOM     18  C   UNL A   1      42.433  30.847  28.946  1.00  0.00     0.029 A 
ATOM     19  N   UNL A   1      44.027  29.491  28.160  1.00  0.00    -0.354 N 
ATOM     20  C   UNL A   1      43.213  25.335  27.351  1.00  0.00     0.074 A 
ATOM     21  C   UNL A   1      41.840  24.997  27.661  1.00  0.00     0.031 C 
ATOM     22  C   UNL A   1      43.534  31.590  28.757  1.00  0.00     0.029 A 
ATOM     23  C   UNL A   1      44.606  30.734  28.255  1.00  0.00     0.049 A 
ATOM     24  H   UNL A   1      44.515  28.691  27.859  1.00  0.00     0.167 HD
ATOM     25  C   UNL A   1      44.131  24.457  26.877  1.00  0.00     0.031 A 
ATOM     26  C   UNL A   1      45.859  31.144  27.977  1.00  0.00     0.031 A 
ATOM     27  C   UNL A   1      45.501  24.790  26.584  1.00  0.00     0.049 A 
ATOM     28  C   UNL A   1      46.864  30.142  27.484  1.00  0.00     0.074 A 
ATOM     29  C   UNL A   1      46.505  23.964  26.109  1.00  0.00     0.029 A 
ATOM     30  N   UNL A   1      46.062  26.048  26.743  1.00  0.00    -0.354 N 
ATOM     31  N   UNL A   1      46.693  28.870  27.218  1.00  0.00    -0.248 NA
ATOM     32  C   UNL A   1      48.231  30.631  27.263  1.00  0.00     0.031 C 
ATOM     33  C   UNL A   1      47.684  24.713  26.020  1.00  0.00     0.029 A 
ATOM     34  C   UNL A   1      47.403  26.017  26.392  1.00  0.00     0.049 A 
ATOM     35  H   UNL A   1      45.579  26.847  27.056  1.00  0.00     0.167 HD
ATOM     36  C   UNL A   1      47.933  28.405  26.794  1.00  0.00     0.074 A 
ATOM     37  C   UNL A   1      48.836  29.538  26.814  1.00  0.00     0.031 C 
ATOM     38  C   UNL A   1      48.292  27.150  26.429  1.00  0.00     0.031 A 
BRANCH  25  39
ATOM     39  C   UNL A   1      43.688  23.033  26.682  1.00  0.00    -0.014 A 
ATOM     40  C   UNL A   1      43.921  22.360  25.468  1.00  0.00     0.010 A 
ATOM     41  C   UNL A   1      43.063  22.344  27.737  1.00  0.00     0.010 A 
ATOM     42  C   UNL A   1      43.502  21.037  25.302  1.00  0.00     0.020 A 
ATOM     43  C   UNL A   1      42.661  21.014  27.582  1.00  0.00     0.020 A 
ATOM     44  C   UNL A   1      42.868  20.374  26.358  1.00  0.00     0.054 A 
BRANCH  44  45
ATOM     45  S   UNL A   1      42.340  18.655  26.119  1.00  0.00     0.124 S 
ATOM     46  O   UNL A   1      42.591  18.079  27.439  1.00  0.00    -0.237 OA
ATOM     47  O   UNL A   1      40.933  18.797  25.755  1.00  0.00    -0.237 OA
ATOM     48  O   UNL A   1      43.212  18.169  25.052  1.00  0.00    -0.744 OA
ENDBRANCH  44  45
ENDBRANCH  25  39
BRANCH  26  49
ATOM     49  C   UNL A   1      46.231  32.570  28.168  1.00  0.00    -0.014 A 
ATOM     50  C   UNL A   1      46.750  33.014  29.397  1.00  0.00     0.010 A 
ATOM     51  C   UNL A   1      46.087  33.489  27.112  1.00  0.00     0.010 A 
ATOM     52  C   UNL A   1      47.111  34.354  29.569  1.00  0.00     0.020 A 
ATOM     53  C   UNL A   1      46.470  34.823  27.273  1.00  0.00     0.020 A 
ATOM     54  C   UNL A   1      46.970  35.249  28.505  1.00  0.00     0.054 A 
BRANCH  54  55
ATOM     55  S   UNL A   1      47.501  36.970  28.726  1.00  0.00     0.124 S 
ATOM     56  O   UNL A   1      46.642  37.675  27.779  1.00  0.00    -0.237 OA
ATOM     57  O   UNL A   1      47.220  37.213  30.138  1.00  0.00    -0.237 OA
ATOM     58  O   UNL A   1      48.920  36.934  28.379  1.00  0.00    -0.744 OA
ENDBRANCH  54  55
ENDBRANCH  26  49
BRANCH  38  59
ATOM     59  C   UNL A   1      49.722  26.938  26.012  1.00  0.00    -0.014 A 
ATOM     60  C   UNL A   1      50.694  26.534  26.944  1.00  0.00     0.010 A 
ATOM     61  C   UNL A   1      50.088  27.104  24.664  1.00  0.00     0.010 A 
ATOM     62  C   UNL A   1      52.016  26.326  26.540  1.00  0.00     0.020 A 
ATOM     63  C   UNL A   1      51.403  26.876  24.252  1.00  0.00     0.020 A 
ATOM     64  C   UNL A   1      52.363  26.501  25.197  1.00  0.00     0.054 A 
BRANCH  64  65
ATOM     65  S   UNL A   1      54.074  26.186  24.687  1.00  0.00     0.124 S 
ATOM     66  O   UNL A   1      54.829  27.007  25.629  1.00  0.00    -0.237 OA
ATOM     67  O   UNL A   1      54.205  24.742  24.867  1.00  0.00    -0.237 OA
ATOM     68  O   UNL A   1      54.109  26.638  23.297  1.00  0.00    -0.744 OA
ENDBRANCH  64  65
ENDBRANCH  38  59
ENDBRANCH  12  13
ENDBRANCH   5   7
ENDBRANCH   2   3
ENDBRANCH   1   2
BRANCH   1  69
ATOM     69  C   UNL A   1      32.884  29.781  27.123  1.00  0.00     0.023 C 
BRANCH  69  70
ATOM     70  C   UNL A   1      32.435  30.245  25.738  1.00  0.00     0.116 C 
BRANCH  70  71
ATOM     71  N   UNL A   1      33.170  29.623  24.652  1.00  0.00    -0.352 N 
ATOM     72  C   UNL A   1      32.702  28.946  23.559  1.00  0.00     0.253 C 
ATOM     73  H   UNL A   1      34.150  29.700  24.711  1.00  0.00     0.163 HD
ATOM     74  O   UNL A   1      33.490  28.457  22.753  1.00  0.00    -0.269 OA
BRANCH  72  75
ATOM     75  C   UNL A   1      31.272  28.733  23.329  1.00  0.00     0.070 A 
ATOM     76  C   UNL A   1      30.687  29.570  22.385  1.00  0.00     0.125 A 
ATOM     77  C   UNL A   1      30.455  27.805  23.972  1.00  0.00     0.055 A 
ATOM     78  N   UNL A   1      29.389  29.497  21.997  1.00  0.00    -0.264 NA
ATOM     79  C   UNL A   1      29.111  27.706  23.577  1.00  0.00     0.035 A 
ATOM     80  C   UNL A   1      28.633  28.555  22.594  1.00  0.00     0.112 A 
BRANCH  77  81
ATOM     81  C   UNL A   1      30.945  26.736  24.864  1.00  0.00     0.254 C 
ATOM     82  O   UNL A   1      31.036  27.066  26.051  1.00  0.00    -0.269 OA
ATOM     83  N   UNL A   1      31.213  25.440  24.432  1.00  0.00    -0.339 N 
ATOM     84  C   UNL A   1      31.065  24.397  25.441  1.00  0.00     0.120 C 
ATOM     85  C   UNL A   1      31.371  24.989  23.045  1.00  0.00     0.120 C 
ATOM     86  C   UNL A   1      32.040  23.249  25.305  1.00  0.00     0.025 C 
ATOM     87  C   UNL A   1      32.354  23.817  22.909  1.00  0.00     0.025 C 
ATOM     88  C   UNL A   1      32.003  22.676  23.884  1.00  0.00    -0.003 C 
BRANCH  88  89
ATOM     89  C   UNL A   1      32.956  21.477  23.726  1.00  0.00     0.039 C 
BRANCH  89  90
ATOM     90  C   UNL A   1      34.386  21.797  24.109  1.00  0.00    -0.048 A 
ATOM     91  C   UNL A   1      35.089  22.806  23.433  1.00  0.00     0.004 A 
ATOM     92  C   UNL A   1      35.024  21.109  25.149  1.00  0.00     0.004 A 
ATOM     93  C   UNL A   1      36.402  23.120  23.788  1.00  0.00     0.000 A 
ATOM     94  C   UNL A   1      36.346  21.410  25.488  1.00  0.00     0.000 A 
ATOM     95  C   UNL A   1      37.031  22.416  24.809  1.00  0.00     0.000 A 
ENDBRANCH  89  90
ENDBRANCH  88  89
ENDBRANCH  77  81
ENDBRANCH  72  75
ENDBRANCH  70  71
ENDBRANCH  69  70
ENDBRANCH   1  69
TORSDOF 17
ENDMDL
MODEL 2
REMARK VINA RESULT:     -12.5      1.245      8.097
REMARK SMILES O=C(NCCCCNC(=O)c1cnccc1C(=O)N1CCC(Cc2ccccc2)CC1)c1ccc(-c2c3nc(c(-c4ccc(S(=O)(=O)[O-])cc4)c4ccc([nH]4)c(-c4ccc(S(=O)(=O)[O-])cc4)c4nc(c(-c5ccc(S(=O)(=O)[O-])cc5)c5ccc2[nH]5)C=C4)C=C3)cc1
REMARK SMILES IDX 5 1 4 2 3 3 1 4 2 5 32 7 33 8 91 9 34 10 90 11 35 12 36 13
REMARK SMILES IDX 37 14 84 15 38 16 89 17 83 18 85 19 39 20 88 21 82 22 81 23
REMARK SMILES IDX 40 25 70 26 51 27 69 28 52 29 55 30 68 31 86 32 53 33 54 34
REMARK SMILES IDX 67 36 87 37 56 38 41 39 42 40 50 41 43 42 49 43 44 44 45 45
REMARK SMILES IDX 46 46 47 47 48 48 71 49 72 50 80 51 73 52 79 53 74 54 75 55
REMARK SMILES IDX 76 56 77 57 78 58 57 59 58 60 66 61 59 62 65 63 60 64 61 65
REMARK SMILES IDX 62 66 63 67 64 68 6 69 7 70 8 71 9 72 10 74 11 75 12 76
REMARK SMILES IDX 16 77 13 78 15 79 14 80 17 81 18 82 19 83 20 84 31 85 21 86
REMARK SMILES IDX 30 87 22 88 23 89 24 90 25 91 29 92 26 93 28 94 27 95
REMARK H PARENT 3 6 85 24 55 35 8 73
REMARK Flexibility Score: inf
ROOT
ATOM      1  C   UNL A   1      34.624  29.799  27.606  1.00  0.00     0.023 C 
ENDROOT
BRANCH   1   2
ATOM      2  C   UNL A   1      35.660  30.652  28.332  1.00  0.00     0.116 C 
BRANCH   2   3
ATOM      3  N   UNL A   1      35.546  30.611  29.779  1.00  0.00    -0.352 N 
ATOM      4  O   UNL A   1      36.182  30.176  31.898  1.00  0.00    -0.269 OA
ATOM      5  C   UNL A   1      36.496  30.272  30.718  1.00  0.00     0.251 C 
ATOM      6  H   UNL A   1      34.665  30.860  30.141  1.00  0.00     0.163 HD
BRANCH   5   7
ATOM      7  C   UNL A   1      37.889  29.991  30.298  1.00  0.00     0.039 A 
ATOM      8  C   UNL A   1      38.374  30.440  29.068  1.00  0.00     0.014 A 
ATOM      9  C   UNL A   1      38.725  29.270  31.159  1.00  0.00     0.014 A 
ATOM     10  C   UNL A   1      39.648  30.058  28.648  1.00  0.00     0.010 A 
ATOM     11  C   UNL A   1      40.024  28.937  30.758  1.00  0.00     0.010 A 
ATOM     12  C   UNL A   1      40.485  29.302  29.485  1.00  0.00    -0.014 A 
BRANCH  12  13
ATOM     13  C   UNL A   1      41.847  28.936  29.016  1.00  0.00     0.031 A 
ATOM     14  C   UNL A   1      42.987  29.910  29.113  1.00  0.00     0.074 A 
ATOM     15  C   UNL A   1      42.065  27.692  28.548  1.00  0.00     0.049 A 
ATOM     16  N   UNL A   1      44.247  29.730  28.809  1.00  0.00    -0.248 NA
ATOM     17  C   UNL A   1      42.675  31.257  29.615  1.00  0.00     0.031 C 
ATOM     18  C   UNL A   1      41.039  26.658  28.407  1.00  0.00     0.029 A 
ATOM     19  N   UNL A   1      43.218  27.074  28.136  1.00  0.00    -0.354 N 
ATOM     20  C   UNL A   1      44.878  30.942  29.069  1.00  0.00     0.074 A 
ATOM     21  C   UNL A   1      43.858  31.853  29.541  1.00  0.00     0.031 C 
ATOM     22  C   UNL A   1      41.617  25.518  28.000  1.00  0.00     0.029 A 
ATOM     23  C   UNL A   1      43.043  25.753  27.797  1.00  0.00     0.049 A 
ATOM     24  H   UNL A   1      44.088  27.533  28.086  1.00  0.00     0.167 HD
ATOM     25  C   UNL A   1      46.187  31.264  28.925  1.00  0.00     0.031 A 
ATOM     26  C   UNL A   1      43.927  24.832  27.367  1.00  0.00     0.031 A 
ATOM     27  C   UNL A   1      47.200  30.362  28.440  1.00  0.00     0.049 A 
ATOM     28  C   UNL A   1      45.366  25.226  27.187  1.00  0.00     0.074 A 
ATOM     29  C   UNL A   1      48.551  30.603  28.253  1.00  0.00     0.029 A 
ATOM     30  N   UNL A   1      46.974  29.048  28.058  1.00  0.00    -0.354 N 
ATOM     31  N   UNL A   1      45.942  26.375  27.445  1.00  0.00    -0.248 NA
ATOM     32  C   UNL A   1      46.270  24.200  26.649  1.00  0.00     0.031 C 
ATOM     33  C   UNL A   1      49.133  29.447  27.720  1.00  0.00     0.029 A 
ATOM     34  C   UNL A   1      48.155  28.471  27.620  1.00  0.00     0.049 A 
ATOM     35  H   UNL A   1      46.102  28.591  28.095  1.00  0.00     0.167 HD
ATOM     36  C   UNL A   1      47.279  26.210  27.103  1.00  0.00     0.074 A 
ATOM     37  C   UNL A   1      47.431  24.844  26.646  1.00  0.00     0.031 C 
ATOM     38  C   UNL A   1      48.288  27.113  27.157  1.00  0.00     0.031 A 
BRANCH  25  39
ATOM     39  C   UNL A   1      46.594  32.672  29.266  1.00  0.00    -0.014 A 
ATOM     40  C   UNL A   1      46.553  33.694  28.299  1.00  0.00     0.010 A 
ATOM     41  C   UNL A   1      46.987  32.987  30.579  1.00  0.00     0.010 A 
ATOM     42  C   UNL A   1      46.936  34.996  28.632  1.00  0.00     0.020 A 
ATOM     43  C   UNL A   1      47.350  34.293  30.921  1.00  0.00     0.020 A 
ATOM     44  C   UNL A   1      47.339  35.286  29.939  1.00  0.00     0.054 A 
BRANCH  44  45
ATOM     45  S   UNL A   1      47.824  36.986  30.347  1.00  0.00     0.124 S 
ATOM     46  O   UNL A   1      47.645  37.664  29.064  1.00  0.00    -0.237 OA
ATOM     47  O   UNL A   1      46.869  37.353  31.388  1.00  0.00    -0.237 OA
ATOM     48  O   UNL A   1      49.209  36.855  30.792  1.00  0.00    -0.744 OA
ENDBRANCH  44  45
ENDBRANCH  25  39
BRANCH  26  49
ATOM     49  C   UNL A   1      43.469  23.449  27.068  1.00  0.00    -0.014 A 
ATOM     50  C   UNL A   1      43.114  22.575  28.109  1.00  0.00     0.010 A 
ATOM     51  C   UNL A   1      43.366  23.008  25.736  1.00  0.00     0.010 A 
ATOM     52  C   UNL A   1      42.671  21.280  27.825  1.00  0.00     0.020 A 
ATOM     53  C   UNL A   1      42.900  21.722  25.447  1.00  0.00     0.020 A 
ATOM     54  C   UNL A   1      42.565  20.863  26.495  1.00  0.00     0.054 A 
BRANCH  54  55
ATOM     55  S   UNL A   1      41.931  19.200  26.140  1.00  0.00     0.124 S 
ATOM     56  O   UNL A   1      42.273  18.479  27.362  1.00  0.00    -0.237 OA
ATOM     57  O   UNL A   1      40.506  19.441  25.926  1.00  0.00    -0.237 OA
ATOM     58  O   UNL A   1      42.673  18.801  24.947  1.00  0.00    -0.744 OA
ENDBRANCH  54  55
ENDBRANCH  26  49
BRANCH  38  59
ATOM     59  C   UNL A   1      49.651  26.649  26.717  1.00  0.00    -0.014 A 
ATOM     60  C   UNL A   1      50.550  26.076  27.633  1.00  0.00     0.010 A 
ATOM     61  C   UNL A   1      50.017  26.750  25.362  1.00  0.00     0.010 A 
ATOM     62  C   UNL A   1      51.806  25.636  27.206  1.00  0.00     0.020 A 
ATOM     63  C   UNL A   1      51.264  26.291  24.929  1.00  0.00     0.020 A 
ATOM     64  C   UNL A   1      52.156  25.749  25.858  1.00  0.00     0.054 A 
BRANCH  64  65
ATOM     65  S   UNL A   1      53.775  25.133  25.319  1.00  0.00     0.124 S 
ATOM     66  O   UNL A   1      53.547  23.693  25.256  1.00  0.00    -0.237 OA
ATOM     67  O   UNL A   1      53.961  25.797  24.031  1.00  0.00    -0.237 OA
ATOM     68  O   UNL A   1      54.682  25.575  26.377  1.00  0.00    -0.744 OA
ENDBRANCH  64  65
ENDBRANCH  38  59
ENDBRANCH  12  13
ENDBRANCH   5   7
ENDBRANCH   2   3
ENDBRANCH   1   2
BRANCH   1  69
ATOM     69  C   UNL A   1      33.317  30.478  27.183  1.00  0.00     0.023 C 
BRANCH  69  70
ATOM     70  C   UNL A   1      32.713  30.055  25.845  1.00  0.00     0.116 C 
BRANCH  70  71
ATOM     71  N   UNL A   1      33.533  29.107  25.113  1.00  0.00    -0.352 N 
ATOM     72  C   UNL A   1      33.157  28.096  24.272  1.00  0.00     0.253 C 
ATOM     73  H   UNL A   1      34.505  29.207  25.242  1.00  0.00     0.163 HD
ATOM     74  O   UNL A   1      34.007  27.369  23.763  1.00  0.00    -0.269 OA
BRANCH  72  75
ATOM     75  C   UNL A   1      31.751  27.807  23.984  1.00  0.00     0.070 A 
ATOM     76  C   UNL A   1      31.208  28.494  22.903  1.00  0.00     0.125 A 
ATOM     77  C   UNL A   1      30.917  26.943  24.691  1.00  0.00     0.055 A 
ATOM     78  N   UNL A   1      29.942  28.328  22.448  1.00  0.00    -0.264 NA
ATOM     79  C   UNL A   1      29.606  26.749  24.230  1.00  0.00     0.035 A 
ATOM     80  C   UNL A   1      29.172  27.446  23.116  1.00  0.00     0.112 A 
BRANCH  77  81
ATOM     81  C   UNL A   1      31.374  26.017  25.745  1.00  0.00     0.254 C 
ATOM     82  O   UNL A   1      31.239  26.447  26.895  1.00  0.00    -0.269 OA
ATOM     83  N   UNL A   1      31.848  24.734  25.484  1.00  0.00    -0.339 N 
ATOM     84  C   UNL A   1      31.658  23.763  26.556  1.00  0.00     0.120 C 
ATOM     85  C   UNL A   1      32.273  24.198  24.186  1.00  0.00     0.120 C 
ATOM     86  C   UNL A   1      32.763  22.737  26.678  1.00  0.00     0.025 C 
ATOM     87  C   UNL A   1      33.389  23.150  24.311  1.00  0.00     0.025 C 
ATOM     88  C   UNL A   1      33.015  22.055  25.329  1.00  0.00    -0.003 C 
BRANCH  88  89
ATOM     89  C   UNL A   1      34.107  20.974  25.431  1.00  0.00     0.039 C 
BRANCH  89  90
ATOM     90  C   UNL A   1      33.784  19.724  24.639  1.00  0.00    -0.048 A 
ATOM     91  C   UNL A   1      32.589  19.638  23.909  1.00  0.00     0.004 A 
ATOM     92  C   UNL A   1      34.675  18.642  24.606  1.00  0.00     0.004 A 
ATOM     93  C   UNL A   1      32.289  18.498  23.163  1.00  0.00     0.000 A 
ATOM     94  C   UNL A   1      34.362  17.492  23.876  1.00  0.00     0.000 A 
ATOM     95  C   UNL A   1      33.172  17.423  23.154  1.00  0.00     0.000 A 
ENDBRANCH  89  90
ENDBRANCH  88  89
ENDBRANCH  77  81
ENDBRANCH  72  75
ENDBRANCH  70  71
ENDBRANCH  69  70
ENDBRANCH   1  69
TORSDOF 17
ENDMDL
MODEL 3
REMARK VINA RESULT:     -12.5      3.423      8.875
REMARK SMILES O=C(NCCCCNC(=O)c1cnccc1C(=O)N1CCC(Cc2ccccc2)CC1)c1ccc(-c2c3nc(c(-c4ccc(S(=O)(=O)[O-])cc4)c4ccc([nH]4)c(-c4ccc(S(=O)(=O)[O-])cc4)c4nc(c(-c5ccc(S(=O)(=O)[O-])cc5)c5ccc2[nH]5)C=C4)C=C3)cc1
REMARK SMILES IDX 5 1 4 2 3 3 1 4 2 5 32 7 33 8 91 9 34 10 90 11 35 12 36 13
REMARK SMILES IDX 37 14 84 15 38 16 89 17 83 18 85 19 39 20 88 21 82 22 81 23
REMARK SMILES IDX 40 25 70 26 51 27 69 28 52 29 55 30 68 31 86 32 53 33 54 34
REMARK SMILES IDX 67 36 87 37 56 38 41 39 42 40 50 41 43 42 49 43 44 44 45 45
REMARK SMILES IDX 46 46 47 47 48 48 71 49 72 50 80 51 73 52 79 53 74 54 75 55
REMARK SMILES IDX 76 56 77 57 78 58 57 59 58 60 66 61 59 62 65 63 60 64 61 65
REMARK SMILES IDX 62 66 63 67 64 68 6 69 7 70 8 71 9 72 10 74 11 75 12 76
REMARK SMILES IDX 16 77 13 78 15 79 14 80 17 81 18 82 19 83 20 84 31 85 21 86
REMARK SMILES IDX 30 87 22 88 23 89 24 90 25 91 29 92 26 93 28 94 27 95
REMARK H PARENT 3 6 85 24 55 35 8 73
REMARK Flexibility Score: inf
ROOT
ATOM      1  C   UNL A   1      32.731  27.482  26.336  1.00  0.00     0.023 C 
ENDROOT
BRANCH   1   2
ATOM      2  C   UNL A   1      33.349  28.162  27.554  1.00  0.00     0.116 C 
BRANCH   2   3
ATOM      3  N   UNL A   1      33.279  29.612  27.516  1.00  0.00    -0.352 N 
ATOM      4  O   UNL A   1      33.979  31.731  27.836  1.00  0.00    -0.269 OA
ATOM      5  C   UNL A   1      34.258  30.539  27.805  1.00  0.00     0.251 C 
ATOM      6  H   UNL A   1      32.410  29.986  27.246  1.00  0.00     0.163 HD
BRANCH   5   7
ATOM      7  C   UNL A   1      35.637  30.092  28.112  1.00  0.00     0.039 A 
ATOM      8  C   UNL A   1      35.990  29.674  29.396  1.00  0.00     0.014 A 
ATOM      9  C   UNL A   1      36.591  30.087  27.087  1.00  0.00     0.014 A 
ATOM     10  C   UNL A   1      37.321  29.374  29.682  1.00  0.00     0.010 A 
ATOM     11  C   UNL A   1      37.916  29.730  27.365  1.00  0.00     0.010 A 
ATOM     12  C   UNL A   1      38.298  29.401  28.674  1.00  0.00    -0.014 A 
BRANCH  12  13
ATOM     13  C   UNL A   1      39.702  29.050  29.009  1.00  0.00     0.031 A 
ATOM     14  C   UNL A   1      40.572  29.996  29.786  1.00  0.00     0.074 A 
ATOM     15  C   UNL A   1      40.177  27.841  28.653  1.00  0.00     0.049 A 
ATOM     16  N   UNL A   1      41.796  29.821  30.216  1.00  0.00    -0.248 NA
ATOM     17  C   UNL A   1      39.998  31.307  30.126  1.00  0.00     0.031 C 
ATOM     18  C   UNL A   1      39.428  26.836  27.897  1.00  0.00     0.029 A 
ATOM     19  N   UNL A   1      41.384  27.237  28.902  1.00  0.00    -0.354 N 
ATOM     20  C   UNL A   1      42.146  31.000  30.865  1.00  0.00     0.074 A 
ATOM     21  C   UNL A   1      41.008  31.889  30.759  1.00  0.00     0.031 C 
ATOM     22  C   UNL A   1      40.167  25.720  27.797  1.00  0.00     0.029 A 
ATOM     23  C   UNL A   1      41.462  25.948  28.431  1.00  0.00     0.049 A 
ATOM     24  H   UNL A   1      42.124  27.685  29.373  1.00  0.00     0.167 HD
ATOM     25  C   UNL A   1      43.308  31.312  31.489  1.00  0.00     0.031 A 
ATOM     26  C   UNL A   1      42.462  25.048  28.496  1.00  0.00     0.031 A 
ATOM     27  C   UNL A   1      44.445  30.433  31.580  1.00  0.00     0.049 A 
ATOM     28  C   UNL A   1      43.750  25.432  29.167  1.00  0.00     0.074 A 
ATOM     29  C   UNL A   1      45.668  30.667  32.186  1.00  0.00     0.029 A 
ATOM     30  N   UNL A   1      44.504  29.154  31.046  1.00  0.00    -0.354 N 
ATOM     31  N   UNL A   1      44.056  26.550  29.779  1.00  0.00    -0.248 NA
ATOM     32  C   UNL A   1      44.830  24.436  29.146  1.00  0.00     0.031 C 
ATOM     33  C   UNL A   1      46.480  29.545  31.983  1.00  0.00     0.029 A 
ATOM     34  C   UNL A   1      45.747  28.594  31.292  1.00  0.00     0.049 A 
ATOM     35  H   UNL A   1      43.769  28.709  30.564  1.00  0.00     0.167 HD
ATOM     36  C   UNL A   1      45.365  26.392  30.221  1.00  0.00     0.074 A 
ATOM     37  C   UNL A   1      45.782  25.060  29.828  1.00  0.00     0.031 C 
ATOM     38  C   UNL A   1      46.151  27.273  30.885  1.00  0.00     0.031 A 
BRANCH  25  39
ATOM     39  C   UNL A   1      43.420  32.684  32.096  1.00  0.00    -0.014 A 
ATOM     40  C   UNL A   1      43.811  33.791  31.320  1.00  0.00     0.010 A 
ATOM     41  C   UNL A   1      43.093  32.878  33.450  1.00  0.00     0.010 A 
ATOM     42  C   UNL A   1      43.911  35.059  31.900  1.00  0.00     0.020 A 
ATOM     43  C   UNL A   1      43.172  34.149  34.028  1.00  0.00     0.020 A 
ATOM     44  C   UNL A   1      43.598  35.229  33.252  1.00  0.00     0.054 A 
BRANCH  44  45
ATOM     45  S   UNL A   1      43.730  36.886  33.978  1.00  0.00     0.124 S 
ATOM     46  O   UNL A   1      44.121  37.689  32.820  1.00  0.00    -0.237 OA
ATOM     47  O   UNL A   1      42.380  37.127  34.480  1.00  0.00    -0.237 OA
ATOM     48  O   UNL A   1      44.757  36.734  35.005  1.00  0.00    -0.744 OA
ENDBRANCH  44  45
ENDBRANCH  25  39
BRANCH  26  49
ATOM     49  C   UNL A   1      42.284  23.699  27.898  1.00  0.00    -0.014 A 
ATOM     50  C   UNL A   1      42.793  23.411  26.620  1.00  0.00     0.010 A 
ATOM     51  C   UNL A   1      41.620  22.687  28.617  1.00  0.00     0.010 A 
ATOM     52  C   UNL A   1      42.635  22.137  26.067  1.00  0.00     0.020 A 
ATOM     53  C   UNL A   1      41.483  21.405  28.077  1.00  0.00     0.020 A 
ATOM     54  C   UNL A   1      41.982  21.142  26.800  1.00  0.00     0.054 A 
BRANCH  54  55
ATOM     55  S   UNL A   1      41.839  19.476  26.093  1.00  0.00     0.124 S 
ATOM     56  O   UNL A   1      40.399  19.360  25.882  1.00  0.00    -0.237 OA
ATOM     57  O   UNL A   1      42.650  19.573  24.882  1.00  0.00    -0.237 OA
ATOM     58  O   UNL A   1      42.392  18.617  27.137  1.00  0.00    -0.744 OA
ENDBRANCH  54  55
ENDBRANCH  26  49
BRANCH  38  59
ATOM     59  C   UNL A   1      47.543  26.822  31.238  1.00  0.00    -0.014 A 
ATOM     60  C   UNL A   1      48.630  27.104  30.392  1.00  0.00     0.010 A 
ATOM     61  C   UNL A   1      47.771  26.144  32.449  1.00  0.00     0.010 A 
ATOM     62  C   UNL A   1      49.920  26.692  30.740  1.00  0.00     0.020 A 
ATOM     63  C   UNL A   1      49.062  25.749  32.810  1.00  0.00     0.020 A 
ATOM     64  C   UNL A   1      50.127  26.015  31.945  1.00  0.00     0.054 A 
BRANCH  64  65
ATOM     65  S   UNL A   1      51.815  25.526  32.396  1.00  0.00     0.124 S 
ATOM     66  O   UNL A   1      51.657  24.098  32.659  1.00  0.00    -0.237 OA
ATOM     67  O   UNL A   1      52.580  25.863  31.198  1.00  0.00    -0.237 OA
ATOM     68  O   UNL A   1      52.111  26.348  33.568  1.00  0.00    -0.744 OA
ENDBRANCH  64  65
ENDBRANCH  38  59
ENDBRANCH  12  13
ENDBRANCH   5   7
ENDBRANCH   2   3
ENDBRANCH   1   2
BRANCH   1  69
ATOM     69  C   UNL A   1      31.204  27.346  26.300  1.00  0.00     0.023 C 
BRANCH  69  70
ATOM     70  C   UNL A   1      30.619  26.323  25.328  1.00  0.00     0.116 C 
BRANCH  70  71
ATOM     71  N   UNL A   1      29.887  26.923  24.227  1.00  0.00    -0.352 N 
ATOM     72  C   UNL A   1      30.358  27.585  23.126  1.00  0.00     0.253 C 
ATOM     73  H   UNL A   1      28.907  26.842  24.281  1.00  0.00     0.163 HD
ATOM     74  O   UNL A   1      29.571  28.057  22.308  1.00  0.00    -0.269 OA
BRANCH  72  75
ATOM     75  C   UNL A   1      31.787  27.803  22.902  1.00  0.00     0.070 A 
ATOM     76  C   UNL A   1      32.290  29.011  23.373  1.00  0.00     0.125 A 
ATOM     77  C   UNL A   1      32.669  26.941  22.252  1.00  0.00     0.055 A 
ATOM     78  N   UNL A   1      33.594  29.377  23.305  1.00  0.00    -0.264 NA
ATOM     79  C   UNL A   1      34.025  27.296  22.180  1.00  0.00     0.035 A 
ATOM     80  C   UNL A   1      34.436  28.502  22.721  1.00  0.00     0.112 A 
BRANCH  77  81
ATOM     81  C   UNL A   1      32.341  25.559  21.849  1.00  0.00     0.254 C 
ATOM     82  O   UNL A   1      31.873  25.458  20.711  1.00  0.00    -0.269 OA
ATOM     83  N   UNL A   1      32.604  24.447  22.644  1.00  0.00    -0.339 N 
ATOM     84  C   UNL A   1      32.827  23.198  21.924  1.00  0.00     0.120 C 
ATOM     85  C   UNL A   1      32.929  24.443  24.075  1.00  0.00     0.120 C 
ATOM     86  C   UNL A   1      32.323  21.963  22.638  1.00  0.00     0.025 C 
ATOM     87  C   UNL A   1      32.424  23.185  24.797  1.00  0.00     0.025 C 
ATOM     88  C   UNL A   1      32.873  21.904  24.066  1.00  0.00    -0.003 C 
BRANCH  88  89
ATOM     89  C   UNL A   1      32.411  20.635  24.805  1.00  0.00     0.039 C 
BRANCH  89  90
ATOM     90  C   UNL A   1      33.013  19.365  24.243  1.00  0.00    -0.048 A 
ATOM     91  C   UNL A   1      34.243  18.892  24.724  1.00  0.00     0.004 A 
ATOM     92  C   UNL A   1      32.350  18.631  23.249  1.00  0.00     0.004 A 
ATOM     93  C   UNL A   1      34.800  17.714  24.224  1.00  0.00     0.000 A 
ATOM     94  C   UNL A   1      32.919  17.464  22.734  1.00  0.00     0.000 A 
ATOM     95  C   UNL A   1      34.141  17.006  23.225  1.00  0.00     0.000 A 
ENDBRANCH  89  90
ENDBRANCH  88  89
ENDBRANCH  77  81
ENDBRANCH  72  75
ENDBRANCH  70  71
ENDBRANCH  69  70
ENDBRANCH   1  69
TORSDOF 17
ENDMDL
