MODEL 1
REMARK VINA RESULT:     -11.8      0.000      0.000
REMARK SMILES O=C(NCCCCNC(=O)c1ccc(C[N@H+]2CC[N@H+]3CCCC[C@@H]3C2)c(F)c1)c1ccc(-c2c3nc(c(-c4ccc(S(=O)(=O)[O-])cc4)c4ccc([nH]4)c(-c4ccc(S(=O)(=O)[O-])cc4)c4nc(c(-c5ccc(S(=O)(=O)[O-])cc5)c5ccc2[nH]5)C=C4)C=C3)cc1
REMARK SMILES IDX 5 1 4 2 3 3 1 4 2 5 29 7 30 8 88 9 31 10 87 11 32 12 33 13
REMARK SMILES IDX 34 14 81 15 35 16 86 17 80 18 82 19 36 20 85 21 79 22 78 23
REMARK SMILES IDX 37 25 67 26 48 27 66 28 49 29 52 30 65 31 83 32 50 33 51 34
REMARK SMILES IDX 64 36 84 37 53 38 38 39 39 40 47 41 40 42 46 43 41 44 42 45
REMARK SMILES IDX 43 46 44 47 45 48 68 49 69 50 77 51 70 52 76 53 71 54 72 55
REMARK SMILES IDX 73 56 74 57 75 58 54 59 55 60 63 61 56 62 62 63 57 64 58 65
REMARK SMILES IDX 59 66 60 67 61 68 6 69 7 70 8 71 9 72 10 74 11 75 12 76
REMARK SMILES IDX 28 77 13 78 26 79 14 80 27 81 15 82 16 83 17 84 25 85 18 87
REMARK SMILES IDX 24 88 19 89 23 90 20 91 22 93 21 94
REMARK H PARENT 3 6 82 24 52 35 8 73 16 86 19 92
REMARK Flexibility Score: inf
ROOT
ATOM      1  C   UNL A   1      33.217  28.438  25.909  1.00  0.00     0.023 C 
ENDROOT
BRANCH   1   2
ATOM      2  C   UNL A   1      33.459  28.692  27.395  1.00  0.00     0.116 C 
BRANCH   2   3
ATOM      3  N   UNL A   1      33.589  30.099  27.755  1.00  0.00    -0.352 N 
ATOM      4  O   UNL A   1      34.613  31.981  28.469  1.00  0.00    -0.269 OA
ATOM      5  C   UNL A   1      34.705  30.798  28.170  1.00  0.00     0.251 C 
ATOM      6  H   UNL A   1      32.760  30.628  27.694  1.00  0.00     0.163 HD
BRANCH   5   7
ATOM      7  C   UNL A   1      35.998  30.088  28.307  1.00  0.00     0.039 A 
ATOM      8  C   UNL A   1      36.353  29.487  29.514  1.00  0.00     0.014 A 
ATOM      9  C   UNL A   1      36.898  30.103  27.238  1.00  0.00     0.014 A 
ATOM     10  C   UNL A   1      37.672  29.108  29.725  1.00  0.00     0.010 A 
ATOM     11  C   UNL A   1      38.199  29.626  27.423  1.00  0.00     0.010 A 
ATOM     12  C   UNL A   1      38.619  29.193  28.689  1.00  0.00    -0.014 A 
BRANCH  12  13
ATOM     13  C   UNL A   1      40.036  28.848  28.977  1.00  0.00     0.031 A 
ATOM     14  C   UNL A   1      40.919  29.784  29.766  1.00  0.00     0.074 A 
ATOM     15  C   UNL A   1      40.510  27.647  28.589  1.00  0.00     0.049 A 
ATOM     16  N   UNL A   1      42.152  29.606  30.172  1.00  0.00    -0.248 NA
ATOM     17  C   UNL A   1      40.350  31.088  30.147  1.00  0.00     0.031 C 
ATOM     18  C   UNL A   1      39.754  26.653  27.823  1.00  0.00     0.029 A 
ATOM     19  N   UNL A   1      41.719  27.044  28.816  1.00  0.00    -0.354 N 
ATOM     20  C   UNL A   1      42.517  30.783  30.819  1.00  0.00     0.074 A 
ATOM     21  C   UNL A   1      41.381  31.674  30.740  1.00  0.00     0.031 C 
ATOM     22  C   UNL A   1      40.490  25.537  27.706  1.00  0.00     0.029 A 
ATOM     23  C   UNL A   1      41.789  25.759  28.331  1.00  0.00     0.049 A 
ATOM     24  H   UNL A   1      42.465  27.486  29.281  1.00  0.00     0.167 HD
ATOM     25  C   UNL A   1      43.690  31.092  31.424  1.00  0.00     0.031 A 
ATOM     26  C   UNL A   1      42.785  24.855  28.382  1.00  0.00     0.031 A 
ATOM     27  C   UNL A   1      44.812  30.195  31.522  1.00  0.00     0.049 A 
ATOM     28  C   UNL A   1      44.069  25.218  29.067  1.00  0.00     0.074 A 
ATOM     29  C   UNL A   1      46.032  30.406  32.145  1.00  0.00     0.029 A 
ATOM     30  N   UNL A   1      44.853  28.917  30.989  1.00  0.00    -0.354 N 
ATOM     31  N   UNL A   1      44.385  26.331  29.685  1.00  0.00    -0.248 NA
ATOM     32  C   UNL A   1      45.129  24.202  29.065  1.00  0.00     0.031 C 
ATOM     33  C   UNL A   1      46.823  29.268  31.953  1.00  0.00     0.029 A 
ATOM     34  C   UNL A   1      46.080  28.331  31.253  1.00  0.00     0.049 A 
ATOM     35  H   UNL A   1      44.118  28.487  30.494  1.00  0.00     0.167 HD
ATOM     36  C   UNL A   1      45.676  26.142  30.162  1.00  0.00     0.074 A 
ATOM     37  C   UNL A   1      46.074  24.802  29.776  1.00  0.00     0.031 C 
ATOM     38  C   UNL A   1      46.462  27.000  30.858  1.00  0.00     0.031 A 
BRANCH  25  39
ATOM     39  C   UNL A   1      43.834  32.477  32.001  1.00  0.00    -0.014 A 
ATOM     40  C   UNL A   1      44.309  33.550  31.225  1.00  0.00     0.010 A 
ATOM     41  C   UNL A   1      43.451  32.716  33.333  1.00  0.00     0.010 A 
ATOM     42  C   UNL A   1      44.438  34.825  31.784  1.00  0.00     0.020 A 
ATOM     43  C   UNL A   1      43.557  33.994  33.890  1.00  0.00     0.020 A 
ATOM     44  C   UNL A   1      44.069  35.037  33.116  1.00  0.00     0.054 A 
BRANCH  44  45
ATOM     45  S   UNL A   1      44.240  36.702  33.818  1.00  0.00     0.124 S 
ATOM     46  O   UNL A   1      43.204  37.439  33.097  1.00  0.00    -0.237 OA
ATOM     47  O   UNL A   1      43.978  36.482  35.238  1.00  0.00    -0.237 OA
ATOM     48  O   UNL A   1      45.613  37.076  33.492  1.00  0.00    -0.744 OA
ENDBRANCH  44  45
ENDBRANCH  25  39
BRANCH  26  49
ATOM     49  C   UNL A   1      42.591  23.515  27.770  1.00  0.00    -0.014 A 
ATOM     50  C   UNL A   1      43.097  23.236  26.488  1.00  0.00     0.010 A 
ATOM     51  C   UNL A   1      41.933  22.497  28.485  1.00  0.00     0.010 A 
ATOM     52  C   UNL A   1      42.942  21.964  25.930  1.00  0.00     0.020 A 
ATOM     53  C   UNL A   1      41.801  21.218  27.941  1.00  0.00     0.020 A 
ATOM     54  C   UNL A   1      42.299  20.962  26.662  1.00  0.00     0.054 A 
BRANCH  54  55
ATOM     55  S   UNL A   1      42.171  19.298  25.950  1.00  0.00     0.124 S 
ATOM     56  O   UNL A   1      42.742  18.471  27.009  1.00  0.00    -0.237 OA
ATOM     57  O   UNL A   1      40.733  19.153  25.737  1.00  0.00    -0.237 OA
ATOM     58  O   UNL A   1      42.967  19.391  24.727  1.00  0.00    -0.744 OA
ENDBRANCH  54  55
ENDBRANCH  26  49
BRANCH  38  59
ATOM     59  C   UNL A   1      47.817  26.499  31.275  1.00  0.00    -0.014 A 
ATOM     60  C   UNL A   1      48.010  25.870  32.517  1.00  0.00     0.010 A 
ATOM     61  C   UNL A   1      48.907  26.641  30.398  1.00  0.00     0.010 A 
ATOM     62  C   UNL A   1      49.281  25.429  32.894  1.00  0.00     0.020 A 
ATOM     63  C   UNL A   1      50.175  26.180  30.761  1.00  0.00     0.020 A 
ATOM     64  C   UNL A   1      50.357  25.594  32.015  1.00  0.00     0.054 A 
BRANCH  64  65
ATOM     65  S   UNL A   1      51.996  24.997  32.514  1.00  0.00     0.124 S 
ATOM     66  O   UNL A   1      52.088  25.480  33.889  1.00  0.00    -0.237 OA
ATOM     67  O   UNL A   1      51.874  23.549  32.363  1.00  0.00    -0.237 OA
ATOM     68  O   UNL A   1      52.901  25.641  31.564  1.00  0.00    -0.744 OA
ENDBRANCH  64  65
ENDBRANCH  38  59
ENDBRANCH  12  13
ENDBRANCH   5   7
ENDBRANCH   2   3
ENDBRANCH   1   2
BRANCH   1  69
ATOM     69  C   UNL A   1      32.672  29.622  25.115  1.00  0.00     0.023 C 
BRANCH  69  70
ATOM     70  C   UNL A   1      31.147  29.723  25.045  1.00  0.00     0.116 C 
BRANCH  70  71
ATOM     71  N   UNL A   1      30.678  30.073  23.714  1.00  0.00    -0.352 N 
ATOM     72  C   UNL A   1      30.377  29.240  22.663  1.00  0.00     0.251 C 
ATOM     73  H   UNL A   1      30.558  31.035  23.543  1.00  0.00     0.163 HD
ATOM     74  O   UNL A   1      30.053  29.680  21.568  1.00  0.00    -0.269 OA
BRANCH  72  75
ATOM     75  C   UNL A   1      30.462  27.783  22.856  1.00  0.00     0.042 A 
ATOM     76  C   UNL A   1      29.496  27.117  23.617  1.00  0.00     0.014 A 
ATOM     77  C   UNL A   1      31.519  27.085  22.276  1.00  0.00     0.053 A 
ATOM     78  C   UNL A   1      29.635  25.748  23.860  1.00  0.00     0.013 A 
ATOM     79  C   UNL A   1      31.653  25.726  22.541  1.00  0.00     0.132 A 
ATOM     80  C   UNL A   1      30.754  25.048  23.374  1.00  0.00     0.042 A 
ATOM     81  F   UNL A   1      32.701  25.072  22.021  1.00  0.00    -0.206 F 
BRANCH  80  82
ATOM     82  C   UNL A   1      31.001  23.608  23.762  1.00  0.00     0.302 C 
BRANCH  82  83
ATOM     83  N   UNL A   1      31.524  23.327  25.106  1.00  0.00    -0.322 N 
ATOM     84  C   UNL A   1      31.661  21.907  25.464  1.00  0.00     0.324 C 
ATOM     85  C   UNL A   1      32.715  24.084  25.515  1.00  0.00     0.328 C 
ATOM     86  H   UNL A   1      30.752  23.693  25.662  1.00  0.00     0.348 HD
ATOM     87  C   UNL A   1      33.034  21.251  25.180  1.00  0.00     0.324 C 
ATOM     88  C   UNL A   1      34.063  23.437  25.107  1.00  0.00     0.239 C 
ATOM     89  N   UNL A   1      34.195  22.058  25.621  1.00  0.00    -0.323 N 
ATOM     90  C   UNL A   1      35.243  24.304  25.563  1.00  0.00     0.071 C 
ATOM     91  C   UNL A   1      35.437  21.439  25.137  1.00  0.00     0.262 C 
ATOM     92  H   UNL A   1      34.225  22.092  26.641  1.00  0.00     0.348 HD
ATOM     93  C   UNL A   1      36.544  23.720  25.024  1.00  0.00     0.012 C 
ATOM     94  C   UNL A   1      36.684  22.266  25.460  1.00  0.00     0.062 C 
ENDBRANCH  82  83
ENDBRANCH  80  82
ENDBRANCH  72  75
ENDBRANCH  70  71
ENDBRANCH  69  70
ENDBRANCH   1  69
TORSDOF 16
ENDMDL
MODEL 2
REMARK VINA RESULT:     -11.8      2.696      9.468
REMARK SMILES O=C(NCCCCNC(=O)c1ccc(C[N@H+]2CC[N@H+]3CCCC[C@@H]3C2)c(F)c1)c1ccc(-c2c3nc(c(-c4ccc(S(=O)(=O)[O-])cc4)c4ccc([nH]4)c(-c4ccc(S(=O)(=O)[O-])cc4)c4nc(c(-c5ccc(S(=O)(=O)[O-])cc5)c5ccc2[nH]5)C=C4)C=C3)cc1
REMARK SMILES IDX 5 1 4 2 3 3 1 4 2 5 29 7 30 8 88 9 31 10 87 11 32 12 33 13
REMARK SMILES IDX 34 14 81 15 35 16 86 17 80 18 82 19 36 20 85 21 79 22 78 23
REMARK SMILES IDX 37 25 67 26 48 27 66 28 49 29 52 30 65 31 83 32 50 33 51 34
REMARK SMILES IDX 64 36 84 37 53 38 38 39 39 40 47 41 40 42 46 43 41 44 42 45
REMARK SMILES IDX 43 46 44 47 45 48 68 49 69 50 77 51 70 52 76 53 71 54 72 55
REMARK SMILES IDX 73 56 74 57 75 58 54 59 55 60 63 61 56 62 62 63 57 64 58 65
REMARK SMILES IDX 59 66 60 67 61 68 6 69 7 70 8 71 9 72 10 74 11 75 12 76
REMARK SMILES IDX 28 77 13 78 26 79 14 80 27 81 15 82 16 83 17 84 25 85 18 87
REMARK SMILES IDX 24 88 19 89 23 90 20 91 22 93 21 94
REMARK H PARENT 3 6 82 24 52 35 8 73 16 86 19 92
REMARK Flexibility Score: inf
ROOT
ATOM      1  C   UNL A   1      36.250  22.666  24.177  1.00  0.00     0.023 C 
ENDROOT
BRANCH   1   2
ATOM      2  C   UNL A   1      37.308  23.419  24.979  1.00  0.00     0.116 C 
BRANCH   2   3
ATOM      3  N   UNL A   1      38.436  22.601  25.410  1.00  0.00    -0.352 N 
ATOM      4  O   UNL A   1      40.358  22.106  26.486  1.00  0.00    -0.269 OA
ATOM      5  C   UNL A   1      39.469  22.917  26.270  1.00  0.00     0.251 C 
ATOM      6  H   UNL A   1      38.466  21.692  25.033  1.00  0.00     0.163 HD
BRANCH   5   7
ATOM      7  C   UNL A   1      39.521  24.267  26.879  1.00  0.00     0.039 A 
ATOM      8  C   UNL A   1      40.155  25.319  26.219  1.00  0.00     0.014 A 
ATOM      9  C   UNL A   1      39.004  24.453  28.165  1.00  0.00     0.014 A 
ATOM     10  C   UNL A   1      40.469  26.474  26.923  1.00  0.00     0.010 A 
ATOM     11  C   UNL A   1      39.235  25.658  28.835  1.00  0.00     0.010 A 
ATOM     12  C   UNL A   1      40.033  26.651  28.247  1.00  0.00    -0.014 A 
BRANCH  12  13
ATOM     13  C   UNL A   1      40.454  27.868  28.990  1.00  0.00     0.031 A 
ATOM     14  C   UNL A   1      41.867  28.018  29.499  1.00  0.00     0.074 A 
ATOM     15  C   UNL A   1      39.577  28.880  29.139  1.00  0.00     0.049 A 
ATOM     16  N   UNL A   1      42.422  29.043  30.097  1.00  0.00    -0.248 NA
ATOM     17  C   UNL A   1      42.774  26.871  29.321  1.00  0.00     0.031 C 
ATOM     18  C   UNL A   1      38.182  28.858  28.687  1.00  0.00     0.029 A 
ATOM     19  N   UNL A   1      39.734  30.132  29.674  1.00  0.00    -0.354 N 
ATOM     20  C   UNL A   1      43.723  28.654  30.398  1.00  0.00     0.074 A 
ATOM     21  C   UNL A   1      43.873  27.293  29.931  1.00  0.00     0.031 C 
ATOM     22  C   UNL A   1      37.634  30.064  28.899  1.00  0.00     0.029 A 
ATOM     23  C   UNL A   1      38.614  30.922  29.557  1.00  0.00     0.049 A 
ATOM     24  H   UNL A   1      40.566  30.437  30.101  1.00  0.00     0.167 HD
ATOM     25  C   UNL A   1      44.705  29.365  31.007  1.00  0.00     0.031 A 
ATOM     26  C   UNL A   1      38.395  32.195  29.934  1.00  0.00     0.031 A 
ATOM     27  C   UNL A   1      44.562  30.727  31.450  1.00  0.00     0.049 A 
ATOM     28  C   UNL A   1      39.500  32.964  30.596  1.00  0.00     0.074 A 
ATOM     29  C   UNL A   1      45.510  31.542  32.048  1.00  0.00     0.029 A 
ATOM     30  N   UNL A   1      43.401  31.477  31.343  1.00  0.00    -0.354 N 
ATOM     31  N   UNL A   1      40.727  32.579  30.856  1.00  0.00    -0.248 NA
ATOM     32  C   UNL A   1      39.193  34.338  31.011  1.00  0.00     0.031 C 
ATOM     33  C   UNL A   1      44.909  32.772  32.336  1.00  0.00     0.029 A 
ATOM     34  C   UNL A   1      43.602  32.740  31.875  1.00  0.00     0.049 A 
ATOM     35  H   UNL A   1      42.558  31.160  30.947  1.00  0.00     0.167 HD
ATOM     36  C   UNL A   1      41.345  33.673  31.450  1.00  0.00     0.074 A 
ATOM     37  C   UNL A   1      40.361  34.737  31.495  1.00  0.00     0.031 C 
ATOM     38  C   UNL A   1      42.613  33.786  31.917  1.00  0.00     0.031 A 
BRANCH  25  39
ATOM     39  C   UNL A   1      46.016  28.667  31.261  1.00  0.00    -0.014 A 
ATOM     40  C   UNL A   1      47.072  28.726  30.333  1.00  0.00     0.010 A 
ATOM     41  C   UNL A   1      46.208  27.972  32.469  1.00  0.00     0.010 A 
ATOM     42  C   UNL A   1      48.277  28.066  30.590  1.00  0.00     0.020 A 
ATOM     43  C   UNL A   1      47.420  27.330  32.741  1.00  0.00     0.020 A 
ATOM     44  C   UNL A   1      48.440  27.365  31.789  1.00  0.00     0.054 A 
BRANCH  44  45
ATOM     45  S   UNL A   1      50.016  26.522  32.104  1.00  0.00     0.124 S 
ATOM     46  O   UNL A   1      49.593  25.127  32.213  1.00  0.00    -0.237 OA
ATOM     47  O   UNL A   1      50.800  26.847  30.915  1.00  0.00    -0.237 OA
ATOM     48  O   UNL A   1      50.492  27.127  33.345  1.00  0.00    -0.744 OA
ENDBRANCH  44  45
ENDBRANCH  25  39
BRANCH  26  49
ATOM     49  C   UNL A   1      37.069  32.817  29.680  1.00  0.00    -0.014 A 
ATOM     50  C   UNL A   1      36.117  32.913  30.709  1.00  0.00     0.010 A 
ATOM     51  C   UNL A   1      36.769  33.355  28.414  1.00  0.00     0.010 A 
ATOM     52  C   UNL A   1      34.885  33.530  30.475  1.00  0.00     0.020 A 
ATOM     53  C   UNL A   1      35.551  33.996  28.185  1.00  0.00     0.020 A 
ATOM     54  C   UNL A   1      34.611  34.071  29.215  1.00  0.00     0.054 A 
BRANCH  54  55
ATOM     55  S   UNL A   1      33.036  34.931  28.952  1.00  0.00     0.124 S 
ATOM     56  O   UNL A   1      32.379  34.067  27.976  1.00  0.00    -0.237 OA
ATOM     57  O   UNL A   1      32.449  34.937  30.289  1.00  0.00    -0.237 OA
ATOM     58  O   UNL A   1      33.445  36.243  28.454  1.00  0.00    -0.744 OA
ENDBRANCH  54  55
ENDBRANCH  26  49
BRANCH  38  59
ATOM     59  C   UNL A   1      43.015  35.120  32.483  1.00  0.00    -0.014 A 
ATOM     60  C   UNL A   1      42.781  35.438  33.831  1.00  0.00     0.010 A 
ATOM     61  C   UNL A   1      43.658  36.057  31.655  1.00  0.00     0.010 A 
ATOM     62  C   UNL A   1      43.145  36.690  34.333  1.00  0.00     0.020 A 
ATOM     63  C   UNL A   1      44.044  37.301  32.158  1.00  0.00     0.020 A 
ATOM     64  C   UNL A   1      43.768  37.616  33.490  1.00  0.00     0.054 A 
BRANCH  64  65
ATOM     65  S   UNL A   1      44.251  39.230  34.164  1.00  0.00     0.124 S 
ATOM     66  O   UNL A   1      45.434  39.548  33.369  1.00  0.00    -0.237 OA
ATOM     67  O   UNL A   1      43.076  40.057  33.902  1.00  0.00    -0.237 OA
ATOM     68  O   UNL A   1      44.506  38.951  35.576  1.00  0.00    -0.744 OA
ENDBRANCH  64  65
ENDBRANCH  38  59
ENDBRANCH  12  13
ENDBRANCH   5   7
ENDBRANCH   2   3
ENDBRANCH   1   2
BRANCH   1  69
ATOM     69  C   UNL A   1      35.967  21.236  24.632  1.00  0.00     0.023 C 
BRANCH  69  70
ATOM     70  C   UNL A   1      35.000  21.097  25.809  1.00  0.00     0.116 C 
BRANCH  70  71
ATOM     71  N   UNL A   1      34.105  19.961  25.657  1.00  0.00    -0.352 N 
ATOM     72  C   UNL A   1      32.807  19.945  25.206  1.00  0.00     0.251 C 
ATOM     73  H   UNL A   1      34.480  19.087  25.909  1.00  0.00     0.163 HD
ATOM     74  O   UNL A   1      32.145  18.915  25.193  1.00  0.00    -0.269 OA
BRANCH  72  75
ATOM     75  C   UNL A   1      32.193  21.200  24.743  1.00  0.00     0.042 A 
ATOM     76  C   UNL A   1      32.383  21.632  23.426  1.00  0.00     0.014 A 
ATOM     77  C   UNL A   1      31.429  21.949  25.635  1.00  0.00     0.053 A 
ATOM     78  C   UNL A   1      31.863  22.865  23.025  1.00  0.00     0.013 A 
ATOM     79  C   UNL A   1      30.933  23.182  25.226  1.00  0.00     0.132 A 
ATOM     80  C   UNL A   1      31.183  23.685  23.943  1.00  0.00     0.042 A 
ATOM     81  F   UNL A   1      30.242  23.919  26.107  1.00  0.00    -0.206 F 
BRANCH  80  82
ATOM     82  C   UNL A   1      30.757  25.086  23.569  1.00  0.00     0.302 C 
BRANCH  82  83
ATOM     83  N   UNL A   1      31.786  26.032  23.117  1.00  0.00    -0.322 N 
ATOM     84  C   UNL A   1      31.298  27.292  22.538  1.00  0.00     0.324 C 
ATOM     85  C   UNL A   1      32.898  26.280  24.045  1.00  0.00     0.328 C 
ATOM     86  H   UNL A   1      32.177  25.491  22.346  1.00  0.00     0.348 HD
ATOM     87  C   UNL A   1      31.138  28.485  23.513  1.00  0.00     0.324 C 
ATOM     88  C   UNL A   1      32.641  27.411  25.072  1.00  0.00     0.239 C 
ATOM     89  N   UNL A   1      32.293  28.689  24.417  1.00  0.00    -0.323 N 
ATOM     90  C   UNL A   1      33.847  27.586  26.003  1.00  0.00     0.071 C 
ATOM     91  C   UNL A   1      31.961  29.713  25.418  1.00  0.00     0.262 C 
ATOM     92  H   UNL A   1      33.100  29.009  23.880  1.00  0.00     0.348 HD
ATOM     93  C   UNL A   1      33.511  28.600  27.091  1.00  0.00     0.012 C 
ATOM     94  C   UNL A   1      33.064  29.914  26.460  1.00  0.00     0.062 C 
ENDBRANCH  82  83
ENDBRANCH  80  82
ENDBRANCH  72  75
ENDBRANCH  70  71
ENDBRANCH  69  70
ENDBRANCH   1  69
TORSDOF 16
ENDMDL
MODEL 3
REMARK VINA RESULT:     -11.7      0.946      8.163
REMARK SMILES O=C(NCCCCNC(=O)c1ccc(C[N@H+]2CC[N@H+]3CCCC[C@@H]3C2)c(F)c1)c1ccc(-c2c3nc(c(-c4ccc(S(=O)(=O)[O-])cc4)c4ccc([nH]4)c(-c4ccc(S(=O)(=O)[O-])cc4)c4nc(c(-c5ccc(S(=O)(=O)[O-])cc5)c5ccc2[nH]5)C=C4)C=C3)cc1
REMARK SMILES IDX 5 1 4 2 3 3 1 4 2 5 29 7 30 8 88 9 31 10 87 11 32 12 33 13
REMARK SMILES IDX 34 14 81 15 35 16 86 17 80 18 82 19 36 20 85 21 79 22 78 23
REMARK SMILES IDX 37 25 67 26 48 27 66 28 49 29 52 30 65 31 83 32 50 33 51 34
REMARK SMILES IDX 64 36 84 37 53 38 38 39 39 40 47 41 40 42 46 43 41 44 42 45
REMARK SMILES IDX 43 46 44 47 45 48 68 49 69 50 77 51 70 52 76 53 71 54 72 55
REMARK SMILES IDX 73 56 74 57 75 58 54 59 55 60 63 61 56 62 62 63 57 64 58 65
REMARK SMILES IDX 59 66 60 67 61 68 6 69 7 70 8 71 9 72 10 74 11 75 12 76
REMARK SMILES IDX 28 77 13 78 26 79 14 80 27 81 15 82 16 83 17 84 25 85 18 87
REMARK SMILES IDX 24 88 19 89 23 90 20 91 22 93 21 94
REMARK H PARENT 3 6 82 24 52 35 8 73 16 86 19 92
REMARK Flexibility Score: inf
ROOT
ATOM      1  C   UNL A   1      33.658  28.475  25.721  1.00  0.00     0.023 C 
ENDROOT
BRANCH   1   2
ATOM      2  C   UNL A   1      33.694  28.588  27.243  1.00  0.00     0.116 C 
BRANCH   2   3
ATOM      3  N   UNL A   1      33.757  29.956  27.746  1.00  0.00    -0.352 N 
ATOM      4  O   UNL A   1      34.683  31.791  28.679  1.00  0.00    -0.269 OA
ATOM      5  C   UNL A   1      34.831  30.650  28.266  1.00  0.00     0.251 C 
ATOM      6  H   UNL A   1      32.910  30.457  27.710  1.00  0.00     0.163 HD
BRANCH   5   7
ATOM      7  C   UNL A   1      36.147  29.977  28.375  1.00  0.00     0.039 A 
ATOM      8  C   UNL A   1      36.521  29.338  29.556  1.00  0.00     0.014 A 
ATOM      9  C   UNL A   1      37.046  30.066  27.309  1.00  0.00     0.014 A 
ATOM     10  C   UNL A   1      37.852  28.993  29.753  1.00  0.00     0.010 A 
ATOM     11  C   UNL A   1      38.362  29.625  27.475  1.00  0.00     0.010 A 
ATOM     12  C   UNL A   1      38.795  29.152  28.723  1.00  0.00    -0.014 A 
BRANCH  12  13
ATOM     13  C   UNL A   1      40.224  28.842  28.997  1.00  0.00     0.031 A 
ATOM     14  C   UNL A   1      40.823  27.518  28.591  1.00  0.00     0.074 A 
ATOM     15  C   UNL A   1      41.006  29.792  29.547  1.00  0.00     0.049 A 
ATOM     16  N   UNL A   1      42.066  27.114  28.685  1.00  0.00    -0.248 NA
ATOM     17  C   UNL A   1      39.914  26.515  28.011  1.00  0.00     0.031 C 
ATOM     18  C   UNL A   1      40.545  31.114  29.979  1.00  0.00     0.029 A 
ATOM     19  N   UNL A   1      42.353  29.809  29.801  1.00  0.00    -0.354 N 
ATOM     20  C   UNL A   1      42.081  25.805  28.213  1.00  0.00     0.074 A 
ATOM     21  C   UNL A   1      40.721  25.476  27.846  1.00  0.00     0.031 C 
ATOM     22  C   UNL A   1      41.602  31.838  30.378  1.00  0.00     0.029 A 
ATOM     23  C   UNL A   1      42.802  31.013  30.289  1.00  0.00     0.049 A 
ATOM     24  H   UNL A   1      42.941  29.035  29.649  1.00  0.00     0.167 HD
ATOM     25  C   UNL A   1      43.131  24.955  28.093  1.00  0.00     0.031 A 
ATOM     26  C   UNL A   1      44.041  31.415  30.627  1.00  0.00     0.031 A 
ATOM     27  C   UNL A   1      44.488  25.293  28.437  1.00  0.00     0.049 A 
ATOM     28  C   UNL A   1      45.188  30.460  30.476  1.00  0.00     0.074 A 
ATOM     29  C   UNL A   1      45.626  24.510  28.320  1.00  0.00     0.029 A 
ATOM     30  N   UNL A   1      44.894  26.511  28.958  1.00  0.00    -0.354 N 
ATOM     31  N   UNL A   1      45.180  29.233  30.013  1.00  0.00    -0.248 NA
ATOM     32  C   UNL A   1      46.511  30.945  30.889  1.00  0.00     0.031 C 
ATOM     33  C   UNL A   1      46.713  25.244  28.808  1.00  0.00     0.029 A 
ATOM     34  C   UNL A   1      46.261  26.498  29.184  1.00  0.00     0.049 A 
ATOM     35  H   UNL A   1      44.299  27.273  29.142  1.00  0.00     0.167 HD
ATOM     36  C   UNL A   1      46.501  28.805  30.063  1.00  0.00     0.074 A 
ATOM     37  C   UNL A   1      47.281  29.910  30.584  1.00  0.00     0.031 C 
ATOM     38  C   UNL A   1      47.021  27.604  29.707  1.00  0.00     0.031 A 
BRANCH  25  39
ATOM     39  C   UNL A   1      42.847  23.560  27.601  1.00  0.00    -0.014 A 
ATOM     40  C   UNL A   1      42.365  22.560  28.465  1.00  0.00     0.010 A 
ATOM     41  C   UNL A   1      43.032  23.255  26.240  1.00  0.00     0.010 A 
ATOM     42  C   UNL A   1      42.114  21.271  27.985  1.00  0.00     0.020 A 
ATOM     43  C   UNL A   1      42.760  21.973  25.751  1.00  0.00     0.020 A 
ATOM     44  C   UNL A   1      42.321  20.984  26.632  1.00  0.00     0.054 A 
BRANCH  44  45
ATOM     45  S   UNL A   1      41.983  19.305  26.031  1.00  0.00     0.124 S 
ATOM     46  O   UNL A   1      40.550  19.370  25.752  1.00  0.00    -0.237 OA
ATOM     47  O   UNL A   1      42.845  19.203  24.856  1.00  0.00    -0.237 OA
ATOM     48  O   UNL A   1      42.361  18.452  27.154  1.00  0.00    -0.744 OA
ENDBRANCH  44  45
ENDBRANCH  25  39
BRANCH  26  49
ATOM     49  C   UNL A   1      44.251  32.797  31.134  1.00  0.00    -0.014 A 
ATOM     50  C   UNL A   1      44.439  33.864  30.239  1.00  0.00     0.010 A 
ATOM     51  C   UNL A   1      44.223  33.057  32.517  1.00  0.00     0.010 A 
ATOM     52  C   UNL A   1      44.602  35.167  30.718  1.00  0.00     0.020 A 
ATOM     53  C   UNL A   1      44.357  34.360  32.998  1.00  0.00     0.020 A 
ATOM     54  C   UNL A   1      44.556  35.407  32.095  1.00  0.00     0.054 A 
BRANCH  54  55
ATOM     55  S   UNL A   1      44.697  37.114  32.694  1.00  0.00     0.124 S 
ATOM     56  O   UNL A   1      44.935  36.914  34.120  1.00  0.00    -0.237 OA
ATOM     57  O   UNL A   1      45.830  37.627  31.928  1.00  0.00    -0.237 OA
ATOM     58  O   UNL A   1      43.404  37.702  32.349  1.00  0.00    -0.744 OA
ENDBRANCH  54  55
ENDBRANCH  26  49
BRANCH  38  59
ATOM     59  C   UNL A   1      48.510  27.440  29.840  1.00  0.00    -0.014 A 
ATOM     60  C   UNL A   1      49.083  26.912  31.009  1.00  0.00     0.010 A 
ATOM     61  C   UNL A   1      49.343  27.798  28.766  1.00  0.00     0.010 A 
ATOM     62  C   UNL A   1      50.470  26.786  31.120  1.00  0.00     0.020 A 
ATOM     63  C   UNL A   1      50.729  27.652  28.863  1.00  0.00     0.020 A 
ATOM     64  C   UNL A   1      51.285  27.164  30.048  1.00  0.00     0.054 A 
BRANCH  64  65
ATOM     65  S   UNL A   1      53.082  26.974  30.201  1.00  0.00     0.124 S 
ATOM     66  O   UNL A   1      53.457  26.543  28.857  1.00  0.00    -0.237 OA
ATOM     67  O   UNL A   1      53.520  28.316  30.576  1.00  0.00    -0.237 OA
ATOM     68  O   UNL A   1      53.234  25.963  31.246  1.00  0.00    -0.744 OA
ENDBRANCH  64  65
ENDBRANCH  38  59
ENDBRANCH  12  13
ENDBRANCH   5   7
ENDBRANCH   2   3
ENDBRANCH   1   2
BRANCH   1  69
ATOM     69  C   UNL A   1      32.894  29.578  24.993  1.00  0.00     0.023 C 
BRANCH  69  70
ATOM     70  C   UNL A   1      31.370  29.470  25.043  1.00  0.00     0.116 C 
BRANCH  70  71
ATOM     71  N   UNL A   1      30.749  29.816  23.775  1.00  0.00    -0.352 N 
ATOM     72  C   UNL A   1      30.385  28.986  22.742  1.00  0.00     0.251 C 
ATOM     73  H   UNL A   1      30.563  30.773  23.639  1.00  0.00     0.163 HD
ATOM     74  O   UNL A   1      29.928  29.428  21.695  1.00  0.00    -0.269 OA
BRANCH  72  75
ATOM     75  C   UNL A   1      30.565  27.533  22.892  1.00  0.00     0.042 A 
ATOM     76  C   UNL A   1      29.673  26.792  23.676  1.00  0.00     0.014 A 
ATOM     77  C   UNL A   1      31.634  26.914  22.250  1.00  0.00     0.053 A 
ATOM     78  C   UNL A   1      29.904  25.429  23.876  1.00  0.00     0.013 A 
ATOM     79  C   UNL A   1      31.859  25.560  22.473  1.00  0.00     0.132 A 
ATOM     80  C   UNL A   1      31.040  24.809  23.325  1.00  0.00     0.042 A 
ATOM     81  F   UNL A   1      32.920  24.982  21.891  1.00  0.00    -0.206 F 
BRANCH  80  82
ATOM     82  C   UNL A   1      31.387  23.378  23.664  1.00  0.00     0.302 C 
BRANCH  82  83
ATOM     83  N   UNL A   1      31.915  23.086  25.004  1.00  0.00    -0.322 N 
ATOM     84  C   UNL A   1      32.012  21.665  25.367  1.00  0.00     0.324 C 
ATOM     85  C   UNL A   1      33.133  23.808  25.398  1.00  0.00     0.328 C 
ATOM     86  H   UNL A   1      31.160  23.478  25.567  1.00  0.00     0.348 HD
ATOM     87  C   UNL A   1      33.362  20.966  25.072  1.00  0.00     0.324 C 
ATOM     88  C   UNL A   1      34.456  23.119  24.980  1.00  0.00     0.239 C 
ATOM     89  N   UNL A   1      34.551  21.739  25.499  1.00  0.00    -0.323 N 
ATOM     90  C   UNL A   1      35.667  23.951  25.420  1.00  0.00     0.071 C 
ATOM     91  C   UNL A   1      35.770  21.080  25.005  1.00  0.00     0.262 C 
ATOM     92  H   UNL A   1      34.593  21.776  26.518  1.00  0.00     0.348 HD
ATOM     93  C   UNL A   1      36.944  23.326  24.871  1.00  0.00     0.012 C 
ATOM     94  C   UNL A   1      37.044  21.870  25.312  1.00  0.00     0.062 C 
ENDBRANCH  82  83
ENDBRANCH  80  82
ENDBRANCH  72  75
ENDBRANCH  70  71
ENDBRANCH  69  70
ENDBRANCH   1  69
TORSDOF 16
ENDMDL
