MODEL 1
REMARK VINA RESULT:     -11.4      0.000      0.000
REMARK SMILES O=C(NCCCCNC(=O)[C@H]1CCCCN1C(=O)c1cn2ccccc2n1)c1ccc(-c2c3nc(c(-c4ccc(S(=O)(=O)[O-])cc4)c4ccc([nH]4)c(-c4ccc(S(=O)(=O)[O-])cc4)c4nc(c(-c5ccc(S(=O)(=O)[O-])cc5)c5ccc2[nH]5)C=C4)C=C3)cc1
REMARK SMILES IDX 5 1 4 2 3 3 1 4 2 5 28 7 29 8 87 9 30 10 86 11 31 12 32 13
REMARK SMILES IDX 33 14 80 15 34 16 85 17 79 18 81 19 35 20 84 21 78 22 77 23
REMARK SMILES IDX 36 25 66 26 47 27 65 28 48 29 51 30 64 31 82 32 49 33 50 34
REMARK SMILES IDX 63 36 83 37 52 38 37 39 38 40 46 41 39 42 45 43 40 44 41 45
REMARK SMILES IDX 42 46 43 47 44 48 67 49 68 50 76 51 69 52 75 53 70 54 71 55
REMARK SMILES IDX 72 56 73 57 74 58 53 59 54 60 62 61 55 62 61 63 56 64 57 65
REMARK SMILES IDX 58 66 59 67 60 68 6 69 7 70 8 71 9 72 10 74 11 75 12 76
REMARK SMILES IDX 16 77 13 78 15 79 14 80 17 81 18 82 19 83 20 84 27 85 21 86
REMARK SMILES IDX 26 87 22 88 25 89 23 90 24 91
REMARK H PARENT 3 6 81 24 51 35 8 73
REMARK Flexibility Score: inf
ROOT
ATOM      1  C   UNL A   1      32.926  27.479  25.762  1.00  0.00     0.023 C 
ENDROOT
BRANCH   1   2
ATOM      2  C   UNL A   1      34.070  28.205  26.451  1.00  0.00     0.116 C 
BRANCH   2   3
ATOM      3  N   UNL A   1      33.749  29.586  26.770  1.00  0.00    -0.352 N 
ATOM      4  O   UNL A   1      33.986  31.568  27.821  1.00  0.00    -0.269 OA
ATOM      5  C   UNL A   1      34.470  30.481  27.523  1.00  0.00     0.251 C 
ATOM      6  H   UNL A   1      32.904  29.926  26.397  1.00  0.00     0.163 HD
BRANCH   5   7
ATOM      7  C   UNL A   1      35.817  30.104  27.994  1.00  0.00     0.039 A 
ATOM      8  C   UNL A   1      36.918  30.186  27.135  1.00  0.00     0.014 A 
ATOM      9  C   UNL A   1      35.973  29.646  29.304  1.00  0.00     0.014 A 
ATOM     10  C   UNL A   1      38.150  29.694  27.546  1.00  0.00     0.010 A 
ATOM     11  C   UNL A   1      37.229  29.220  29.738  1.00  0.00     0.010 A 
ATOM     12  C   UNL A   1      38.320  29.218  28.855  1.00  0.00    -0.014 A 
BRANCH  12  13
ATOM     13  C   UNL A   1      39.660  28.787  29.314  1.00  0.00     0.031 A 
ATOM     14  C   UNL A   1      40.546  29.716  30.091  1.00  0.00     0.074 A 
ATOM     15  C   UNL A   1      40.081  27.549  28.995  1.00  0.00     0.049 A 
ATOM     16  N   UNL A   1      41.768  29.521  30.515  1.00  0.00    -0.248 NA
ATOM     17  C   UNL A   1      39.994  31.037  30.429  1.00  0.00     0.031 C 
ATOM     18  C   UNL A   1      39.303  26.566  28.234  1.00  0.00     0.029 A 
ATOM     19  N   UNL A   1      41.262  26.909  29.259  1.00  0.00    -0.354 N 
ATOM     20  C   UNL A   1      42.145  30.701  31.143  1.00  0.00     0.074 A 
ATOM     21  C   UNL A   1      41.026  31.613  31.033  1.00  0.00     0.031 C 
ATOM     22  C   UNL A   1      40.024  25.444  28.103  1.00  0.00     0.029 A 
ATOM     23  C   UNL A   1      41.333  25.649  28.714  1.00  0.00     0.049 A 
ATOM     24  H   UNL A   1      41.989  27.311  29.787  1.00  0.00     0.167 HD
ATOM     25  C   UNL A   1      43.320  30.997  31.751  1.00  0.00     0.031 A 
ATOM     26  C   UNL A   1      42.347  24.766  28.675  1.00  0.00     0.031 A 
ATOM     27  C   UNL A   1      44.428  30.082  31.847  1.00  0.00     0.049 A 
ATOM     28  C   UNL A   1      43.645  25.120  29.334  1.00  0.00     0.074 A 
ATOM     29  C   UNL A   1      45.645  30.268  32.478  1.00  0.00     0.029 A 
ATOM     30  N   UNL A   1      44.458  28.813  31.285  1.00  0.00    -0.354 N 
ATOM     31  N   UNL A   1      43.969  26.224  29.963  1.00  0.00    -0.248 NA
ATOM     32  C   UNL A   1      44.713  24.114  29.282  1.00  0.00     0.031 C 
ATOM     33  C   UNL A   1      46.430  29.130  32.255  1.00  0.00     0.029 A 
ATOM     34  C   UNL A   1      45.682  28.215  31.529  1.00  0.00     0.049 A 
ATOM     35  H   UNL A   1      43.718  28.400  30.785  1.00  0.00     0.167 HD
ATOM     36  C   UNL A   1      45.276  26.043  30.396  1.00  0.00     0.074 A 
ATOM     37  C   UNL A   1      45.678  24.717  29.966  1.00  0.00     0.031 C 
ATOM     38  C   UNL A   1      46.067  26.897  31.088  1.00  0.00     0.031 A 
BRANCH  25  39
ATOM     39  C   UNL A   1      43.477  32.383  32.317  1.00  0.00    -0.014 A 
ATOM     40  C   UNL A   1      43.972  33.442  31.535  1.00  0.00     0.010 A 
ATOM     41  C   UNL A   1      43.118  32.631  33.654  1.00  0.00     0.010 A 
ATOM     42  C   UNL A   1      44.162  34.708  32.097  1.00  0.00     0.020 A 
ATOM     43  C   UNL A   1      43.284  33.901  34.214  1.00  0.00     0.020 A 
ATOM     44  C   UNL A   1      43.830  34.925  33.438  1.00  0.00     0.054 A 
BRANCH  44  45
ATOM     45  S   UNL A   1      44.115  36.567  34.156  1.00  0.00     0.124 S 
ATOM     46  O   UNL A   1      43.596  36.395  35.511  1.00  0.00    -0.237 OA
ATOM     47  O   UNL A   1      45.565  36.717  34.055  1.00  0.00    -0.237 OA
ATOM     48  O   UNL A   1      43.339  37.460  33.300  1.00  0.00    -0.744 OA
ENDBRANCH  44  45
ENDBRANCH  25  39
BRANCH  26  49
ATOM     49  C   UNL A   1      42.149  23.481  27.955  1.00  0.00    -0.014 A 
ATOM     50  C   UNL A   1      42.682  23.292  26.670  1.00  0.00     0.010 A 
ATOM     51  C   UNL A   1      41.516  22.404  28.604  1.00  0.00     0.010 A 
ATOM     52  C   UNL A   1      42.600  22.041  26.051  1.00  0.00     0.020 A 
ATOM     53  C   UNL A   1      41.453  21.147  27.998  1.00  0.00     0.020 A 
ATOM     54  C   UNL A   1      41.994  20.975  26.723  1.00  0.00     0.054 A 
BRANCH  54  55
ATOM     55  S   UNL A   1      41.999  19.334  25.948  1.00  0.00     0.124 S 
ATOM     56  O   UNL A   1      40.586  19.137  25.647  1.00  0.00    -0.237 OA
ATOM     57  O   UNL A   1      42.872  19.531  24.793  1.00  0.00    -0.237 OA
ATOM     58  O   UNL A   1      42.546  18.467  26.990  1.00  0.00    -0.744 OA
ENDBRANCH  54  55
ENDBRANCH  26  49
BRANCH  38  59
ATOM     59  C   UNL A   1      47.448  26.423  31.447  1.00  0.00    -0.014 A 
ATOM     60  C   UNL A   1      47.723  25.895  32.720  1.00  0.00     0.010 A 
ATOM     61  C   UNL A   1      48.459  26.430  30.469  1.00  0.00     0.010 A 
ATOM     62  C   UNL A   1      48.992  25.386  33.010  1.00  0.00     0.020 A 
ATOM     63  C   UNL A   1      49.721  25.902  30.750  1.00  0.00     0.020 A 
ATOM     64  C   UNL A   1      49.981  25.389  32.022  1.00  0.00     0.054 A 
BRANCH  64  65
ATOM     65  S   UNL A   1      51.595  24.649  32.398  1.00  0.00     0.124 S 
ATOM     66  O   UNL A   1      51.722  24.909  33.829  1.00  0.00    -0.237 OA
ATOM     67  O   UNL A   1      51.401  23.250  32.027  1.00  0.00    -0.237 OA
ATOM     68  O   UNL A   1      52.520  25.390  31.544  1.00  0.00    -0.744 OA
ENDBRANCH  64  65
ENDBRANCH  38  59
ENDBRANCH  12  13
ENDBRANCH   5   7
ENDBRANCH   2   3
ENDBRANCH   1   2
BRANCH   1  69
ATOM     69  C   UNL A   1      32.797  26.000  26.122  1.00  0.00     0.023 C 
BRANCH  69  70
ATOM     70  C   UNL A   1      33.968  25.123  25.694  1.00  0.00     0.116 C 
BRANCH  70  71
ATOM     71  N   UNL A   1      34.101  23.970  26.555  1.00  0.00    -0.354 N 
ATOM     72  C   UNL A   1      34.154  22.646  26.224  1.00  0.00     0.242 C 
ATOM     73  H   UNL A   1      34.160  24.167  27.518  1.00  0.00     0.163 HD
ATOM     74  O   UNL A   1      34.352  21.851  27.147  1.00  0.00    -0.273 OA
BRANCH  72  75
ATOM     75  C   UNL A   1      34.118  22.199  24.736  1.00  0.00     0.174 C 
ATOM     76  C   UNL A   1      35.267  21.223  24.417  1.00  0.00     0.035 C 
ATOM     77  N   UNL A   1      32.843  21.593  24.295  1.00  0.00    -0.325 N 
ATOM     78  C   UNL A   1      35.014  19.828  24.997  1.00  0.00     0.004 C 
ATOM     79  C   UNL A   1      32.536  20.295  24.897  1.00  0.00     0.121 C 
ATOM     80  C   UNL A   1      33.645  19.294  24.580  1.00  0.00     0.022 C 
BRANCH  77  81
ATOM     81  C   UNL A   1      32.216  22.116  23.154  1.00  0.00     0.274 C 
ATOM     82  O   UNL A   1      32.086  21.435  22.137  1.00  0.00    -0.267 OA
BRANCH  81  83
ATOM     83  C   UNL A   1      31.746  23.511  23.165  1.00  0.00     0.147 A 
ATOM     84  C   UNL A   1      32.244  24.584  22.447  1.00  0.00     0.127 A 
ATOM     85  N   UNL A   1      30.605  23.905  23.854  1.00  0.00    -0.223 NA
ATOM     86  N   UNL A   1      31.402  25.637  22.691  1.00  0.00    -0.306 N 
ATOM     87  C   UNL A   1      30.424  25.175  23.560  1.00  0.00     0.137 A 
ATOM     88  C   UNL A   1      31.446  26.937  22.195  1.00  0.00     0.093 A 
ATOM     89  C   UNL A   1      29.423  26.105  23.960  1.00  0.00     0.048 A 
ATOM     90  C   UNL A   1      30.500  27.813  22.573  1.00  0.00     0.018 A 
ATOM     91  C   UNL A   1      29.459  27.368  23.490  1.00  0.00     0.005 A 
ENDBRANCH  81  83
ENDBRANCH  77  81
ENDBRANCH  72  75
ENDBRANCH  70  71
ENDBRANCH  69  70
ENDBRANCH   1  69
TORSDOF 16
ENDMDL
MODEL 2
REMARK VINA RESULT:     -11.3      4.132     11.189
REMARK SMILES O=C(NCCCCNC(=O)[C@H]1CCCCN1C(=O)c1cn2ccccc2n1)c1ccc(-c2c3nc(c(-c4ccc(S(=O)(=O)[O-])cc4)c4ccc([nH]4)c(-c4ccc(S(=O)(=O)[O-])cc4)c4nc(c(-c5ccc(S(=O)(=O)[O-])cc5)c5ccc2[nH]5)C=C4)C=C3)cc1
REMARK SMILES IDX 5 1 4 2 3 3 1 4 2 5 28 7 29 8 87 9 30 10 86 11 31 12 32 13
REMARK SMILES IDX 33 14 80 15 34 16 85 17 79 18 81 19 35 20 84 21 78 22 77 23
REMARK SMILES IDX 36 25 66 26 47 27 65 28 48 29 51 30 64 31 82 32 49 33 50 34
REMARK SMILES IDX 63 36 83 37 52 38 37 39 38 40 46 41 39 42 45 43 40 44 41 45
REMARK SMILES IDX 42 46 43 47 44 48 67 49 68 50 76 51 69 52 75 53 70 54 71 55
REMARK SMILES IDX 72 56 73 57 74 58 53 59 54 60 62 61 55 62 61 63 56 64 57 65
REMARK SMILES IDX 58 66 59 67 60 68 6 69 7 70 8 71 9 72 10 74 11 75 12 76
REMARK SMILES IDX 16 77 13 78 15 79 14 80 17 81 18 82 19 83 20 84 27 85 21 86
REMARK SMILES IDX 26 87 22 88 25 89 23 90 24 91
REMARK H PARENT 3 6 81 24 51 35 8 73
REMARK Flexibility Score: inf
ROOT
ATOM      1  C   UNL A   1      33.788  33.763  28.104  1.00  0.00     0.023 C 
ENDROOT
BRANCH   1   2
ATOM      2  C   UNL A   1      34.702  32.550  28.044  1.00  0.00     0.116 C 
BRANCH   2   3
ATOM      3  N   UNL A   1      33.969  31.299  27.933  1.00  0.00    -0.352 N 
ATOM      4  O   UNL A   1      33.719  29.071  27.690  1.00  0.00    -0.269 OA
ATOM      5  C   UNL A   1      34.459  30.016  27.945  1.00  0.00     0.251 C 
ATOM      6  H   UNL A   1      32.992  31.382  27.838  1.00  0.00     0.163 HD
BRANCH   5   7
ATOM      7  C   UNL A   1      35.889  29.795  28.234  1.00  0.00     0.039 A 
ATOM      8  C   UNL A   1      36.854  30.005  27.243  1.00  0.00     0.014 A 
ATOM      9  C   UNL A   1      36.263  29.355  29.505  1.00  0.00     0.014 A 
ATOM     10  C   UNL A   1      38.176  29.656  27.485  1.00  0.00     0.010 A 
ATOM     11  C   UNL A   1      37.605  29.076  29.769  1.00  0.00     0.010 A 
ATOM     12  C   UNL A   1      38.566  29.201  28.753  1.00  0.00    -0.014 A 
BRANCH  12  13
ATOM     13  C   UNL A   1      39.994  28.926  29.030  1.00  0.00     0.031 A 
ATOM     14  C   UNL A   1      40.613  27.609  28.661  1.00  0.00     0.074 A 
ATOM     15  C   UNL A   1      40.724  29.874  29.646  1.00  0.00     0.049 A 
ATOM     16  N   UNL A   1      41.829  27.182  28.886  1.00  0.00    -0.248 NA
ATOM     17  C   UNL A   1      39.755  26.644  27.958  1.00  0.00     0.031 C 
ATOM     18  C   UNL A   1      40.220  31.189  30.057  1.00  0.00     0.029 A 
ATOM     19  N   UNL A   1      42.035  29.880  30.042  1.00  0.00    -0.354 N 
ATOM     20  C   UNL A   1      41.877  25.889  28.381  1.00  0.00     0.074 A 
ATOM     21  C   UNL A   1      40.563  25.596  27.848  1.00  0.00     0.031 C 
ATOM     22  C   UNL A   1      41.214  31.876  30.636  1.00  0.00     0.029 A 
ATOM     23  C   UNL A   1      42.403  31.033  30.694  1.00  0.00     0.049 A 
ATOM     24  H   UNL A   1      42.653  29.133  29.876  1.00  0.00     0.167 HD
ATOM     25  C   UNL A   1      42.922  25.026  28.368  1.00  0.00     0.031 A 
ATOM     26  C   UNL A   1      43.554  31.367  31.304  1.00  0.00     0.031 A 
ATOM     27  C   UNL A   1      44.222  25.328  28.907  1.00  0.00     0.049 A 
ATOM     28  C   UNL A   1      44.690  30.390  31.298  1.00  0.00     0.074 A 
ATOM     29  C   UNL A   1      45.358  24.540  28.906  1.00  0.00     0.029 A 
ATOM     30  N   UNL A   1      44.554  26.509  29.556  1.00  0.00    -0.354 N 
ATOM     31  N   UNL A   1      44.732  29.188  30.775  1.00  0.00    -0.248 NA
ATOM     32  C   UNL A   1      45.932  30.810  31.957  1.00  0.00     0.031 C 
ATOM     33  C   UNL A   1      46.365  25.224  29.598  1.00  0.00     0.029 A 
ATOM     34  C   UNL A   1      45.869  26.461  29.985  1.00  0.00     0.049 A 
ATOM     35  H   UNL A   1      43.944  27.270  29.692  1.00  0.00     0.167 HD
ATOM     36  C   UNL A   1      46.010  28.710  31.031  1.00  0.00     0.074 A 
ATOM     37  C   UNL A   1      46.714  29.758  31.745  1.00  0.00     0.031 C 
ATOM     38  C   UNL A   1      46.551  27.512  30.701  1.00  0.00     0.031 A 
BRANCH  25  39
ATOM     39  C   UNL A   1      42.680  23.656  27.791  1.00  0.00    -0.014 A 
ATOM     40  C   UNL A   1      42.125  22.621  28.565  1.00  0.00     0.010 A 
ATOM     41  C   UNL A   1      43.011  23.402  26.447  1.00  0.00     0.010 A 
ATOM     42  C   UNL A   1      41.962  21.342  28.024  1.00  0.00     0.020 A 
ATOM     43  C   UNL A   1      42.827  22.130  25.895  1.00  0.00     0.020 A 
ATOM     44  C   UNL A   1      42.328  21.102  26.696  1.00  0.00     0.054 A 
BRANCH  44  45
ATOM     45  S   UNL A   1      42.138  19.427  26.025  1.00  0.00     0.124 S 
ATOM     46  O   UNL A   1      40.694  19.353  25.812  1.00  0.00    -0.237 OA
ATOM     47  O   UNL A   1      42.948  19.472  24.810  1.00  0.00    -0.237 OA
ATOM     48  O   UNL A   1      42.657  18.567  27.085  1.00  0.00    -0.744 OA
ENDBRANCH  44  45
ENDBRANCH  25  39
BRANCH  26  49
ATOM     49  C   UNL A   1      43.646  32.684  31.986  1.00  0.00    -0.014 A 
ATOM     50  C   UNL A   1      44.153  33.805  31.311  1.00  0.00     0.010 A 
ATOM     51  C   UNL A   1      43.123  32.838  33.284  1.00  0.00     0.010 A 
ATOM     52  C   UNL A   1      44.121  35.065  31.916  1.00  0.00     0.020 A 
ATOM     53  C   UNL A   1      43.067  34.100  33.882  1.00  0.00     0.020 A 
ATOM     54  C   UNL A   1      43.569  35.206  33.194  1.00  0.00     0.054 A 
BRANCH  54  55
ATOM     55  S   UNL A   1      43.434  36.866  33.913  1.00  0.00     0.124 S 
ATOM     56  O   UNL A   1      43.463  37.713  32.726  1.00  0.00    -0.237 OA
ATOM     57  O   UNL A   1      42.155  36.804  34.616  1.00  0.00    -0.237 OA
ATOM     58  O   UNL A   1      44.607  36.959  34.779  1.00  0.00    -0.744 OA
ENDBRANCH  54  55
ENDBRANCH  26  49
BRANCH  38  59
ATOM     59  C   UNL A   1      47.982  27.269  31.088  1.00  0.00    -0.014 A 
ATOM     60  C   UNL A   1      49.038  27.693  30.262  1.00  0.00     0.010 A 
ATOM     61  C   UNL A   1      48.273  26.685  32.334  1.00  0.00     0.010 A 
ATOM     62  C   UNL A   1      50.363  27.530  30.676  1.00  0.00     0.020 A 
ATOM     63  C   UNL A   1      49.596  26.541  32.759  1.00  0.00     0.020 A 
ATOM     64  C   UNL A   1      50.633  26.960  31.923  1.00  0.00     0.054 A 
BRANCH  64  65
ATOM     65  S   UNL A   1      52.358  26.833  32.472  1.00  0.00     0.124 S 
ATOM     66  O   UNL A   1      52.362  25.550  33.169  1.00  0.00    -0.237 OA
ATOM     67  O   UNL A   1      53.098  26.868  31.214  1.00  0.00    -0.237 OA
ATOM     68  O   UNL A   1      52.535  28.007  33.324  1.00  0.00    -0.744 OA
ENDBRANCH  64  65
ENDBRANCH  38  59
ENDBRANCH  12  13
ENDBRANCH   5   7
ENDBRANCH   2   3
ENDBRANCH   1   2
BRANCH   1  69
ATOM     69  C   UNL A   1      33.826  34.527  29.427  1.00  0.00     0.023 C 
BRANCH  69  70
ATOM     70  C   UNL A   1      34.654  33.877  30.529  1.00  0.00     0.116 C 
BRANCH  70  71
ATOM     71  N   UNL A   1      34.868  34.789  31.631  1.00  0.00    -0.354 N 
ATOM     72  C   UNL A   1      35.751  34.697  32.668  1.00  0.00     0.242 C 
ATOM     73  H   UNL A   1      34.294  35.589  31.634  1.00  0.00     0.163 HD
ATOM     74  O   UNL A   1      35.794  35.654  33.446  1.00  0.00    -0.273 OA
BRANCH  72  75
ATOM     75  C   UNL A   1      36.748  33.508  32.759  1.00  0.00     0.174 C 
ATOM     76  C   UNL A   1      37.582  33.377  31.471  1.00  0.00     0.035 C 
ATOM     77  N   UNL A   1      37.664  33.547  33.919  1.00  0.00    -0.325 N 
ATOM     78  C   UNL A   1      38.657  34.464  31.370  1.00  0.00     0.004 C 
ATOM     79  C   UNL A   1      38.652  34.627  33.888  1.00  0.00     0.121 C 
ATOM     80  C   UNL A   1      39.515  34.515  32.633  1.00  0.00     0.022 C 
BRANCH  77  81
ATOM     81  C   UNL A   1      37.735  32.420  34.751  1.00  0.00     0.274 C 
ATOM     82  O   UNL A   1      37.076  32.359  35.790  1.00  0.00    -0.267 OA
BRANCH  81  83
ATOM     83  C   UNL A   1      38.640  31.315  34.394  1.00  0.00     0.147 A 
ATOM     84  C   UNL A   1      38.367  30.210  33.606  1.00  0.00     0.127 A 
ATOM     85  N   UNL A   1      39.987  31.318  34.736  1.00  0.00    -0.223 NA
ATOM     86  N   UNL A   1      39.552  29.539  33.460  1.00  0.00    -0.306 N 
ATOM     87  C   UNL A   1      40.507  30.249  34.173  1.00  0.00     0.137 A 
ATOM     88  C   UNL A   1      39.825  28.375  32.744  1.00  0.00     0.093 A 
ATOM     89  C   UNL A   1      41.834  29.734  34.165  1.00  0.00     0.048 A 
ATOM     90  C   UNL A   1      41.079  27.893  32.738  1.00  0.00     0.018 A 
ATOM     91  C   UNL A   1      42.109  28.606  33.481  1.00  0.00     0.005 A 
ENDBRANCH  81  83
ENDBRANCH  77  81
ENDBRANCH  72  75
ENDBRANCH  70  71
ENDBRANCH  69  70
ENDBRANCH   1  69
TORSDOF 16
ENDMDL
MODEL 3
REMARK VINA RESULT:     -11.3      1.402      3.436
REMARK SMILES O=C(NCCCCNC(=O)[C@H]1CCCCN1C(=O)c1cn2ccccc2n1)c1ccc(-c2c3nc(c(-c4ccc(S(=O)(=O)[O-])cc4)c4ccc([nH]4)c(-c4ccc(S(=O)(=O)[O-])cc4)c4nc(c(-c5ccc(S(=O)(=O)[O-])cc5)c5ccc2[nH]5)C=C4)C=C3)cc1
REMARK SMILES IDX 5 1 4 2 3 3 1 4 2 5 28 7 29 8 87 9 30 10 86 11 31 12 32 13
REMARK SMILES IDX 33 14 80 15 34 16 85 17 79 18 81 19 35 20 84 21 78 22 77 23
REMARK SMILES IDX 36 25 66 26 47 27 65 28 48 29 51 30 64 31 82 32 49 33 50 34
REMARK SMILES IDX 63 36 83 37 52 38 37 39 38 40 46 41 39 42 45 43 40 44 41 45
REMARK SMILES IDX 42 46 43 47 44 48 67 49 68 50 76 51 69 52 75 53 70 54 71 55
REMARK SMILES IDX 72 56 73 57 74 58 53 59 54 60 62 61 55 62 61 63 56 64 57 65
REMARK SMILES IDX 58 66 59 67 60 68 6 69 7 70 8 71 9 72 10 74 11 75 12 76
REMARK SMILES IDX 16 77 13 78 15 79 14 80 17 81 18 82 19 83 20 84 27 85 21 86
REMARK SMILES IDX 26 87 22 88 25 89 23 90 24 91
REMARK H PARENT 3 6 81 24 51 35 8 73
REMARK Flexibility Score: inf
ROOT
ATOM      1  C   UNL A   1      32.755  27.743  25.898  1.00  0.00     0.023 C 
ENDROOT
BRANCH   1   2
ATOM      2  C   UNL A   1      33.776  28.258  26.900  1.00  0.00     0.116 C 
BRANCH   2   3
ATOM      3  N   UNL A   1      33.540  29.640  27.284  1.00  0.00    -0.352 N 
ATOM      4  O   UNL A   1      33.956  31.583  28.350  1.00  0.00    -0.269 OA
ATOM      5  C   UNL A   1      34.368  30.490  27.975  1.00  0.00     0.251 C 
ATOM      6  H   UNL A   1      32.671  30.017  27.012  1.00  0.00     0.163 HD
BRANCH   5   7
ATOM      7  C   UNL A   1      35.743  30.057  28.289  1.00  0.00     0.039 A 
ATOM      8  C   UNL A   1      36.073  29.616  29.574  1.00  0.00     0.014 A 
ATOM      9  C   UNL A   1      36.715  30.112  27.287  1.00  0.00     0.014 A 
ATOM     10  C   UNL A   1      37.398  29.349  29.892  1.00  0.00     0.010 A 
ATOM     11  C   UNL A   1      38.034  29.771  27.590  1.00  0.00     0.010 A 
ATOM     12  C   UNL A   1      38.388  29.412  28.900  1.00  0.00    -0.014 A 
BRANCH  12  13
ATOM     13  C   UNL A   1      39.782  29.030  29.226  1.00  0.00     0.031 A 
ATOM     14  C   UNL A   1      40.724  30.012  29.858  1.00  0.00     0.074 A 
ATOM     15  C   UNL A   1      40.196  27.787  28.918  1.00  0.00     0.049 A 
ATOM     16  N   UNL A   1      41.990  29.862  30.151  1.00  0.00    -0.248 NA
ATOM     17  C   UNL A   1      40.180  31.336  30.195  1.00  0.00     0.031 C 
ATOM     18  C   UNL A   1      39.364  26.753  28.294  1.00  0.00     0.029 A 
ATOM     19  N   UNL A   1      41.415  27.183  29.078  1.00  0.00    -0.354 N 
ATOM     20  C   UNL A   1      42.404  31.078  30.680  1.00  0.00     0.074 A 
ATOM     21  C   UNL A   1      41.257  31.961  30.654  1.00  0.00     0.031 C 
ATOM     22  C   UNL A   1      40.094  25.641  28.134  1.00  0.00     0.029 A 
ATOM     23  C   UNL A   1      41.457  25.901  28.586  1.00  0.00     0.049 A 
ATOM     24  H   UNL A   1      42.185  27.624  29.503  1.00  0.00     0.167 HD
ATOM     25  C   UNL A   1      43.631  31.425  31.139  1.00  0.00     0.031 A 
ATOM     26  C   UNL A   1      42.482  25.037  28.474  1.00  0.00     0.031 A 
ATOM     27  C   UNL A   1      44.766  30.539  31.152  1.00  0.00     0.049 A 
ATOM     28  C   UNL A   1      43.836  25.448  28.967  1.00  0.00     0.074 A 
ATOM     29  C   UNL A   1      46.040  30.779  31.634  1.00  0.00     0.029 A 
ATOM     30  N   UNL A   1      44.765  29.245  30.648  1.00  0.00    -0.354 N 
ATOM     31  N   UNL A   1      44.199  26.587  29.506  1.00  0.00    -0.248 NA
ATOM     32  C   UNL A   1      44.916  24.462  28.842  1.00  0.00     0.031 C 
ATOM     33  C   UNL A   1      46.824  29.648  31.377  1.00  0.00     0.029 A 
ATOM     34  C   UNL A   1      46.024  28.684  30.780  1.00  0.00     0.049 A 
ATOM     35  H   UNL A   1      43.985  28.794  30.252  1.00  0.00     0.167 HD
ATOM     36  C   UNL A   1      45.550  26.453  29.798  1.00  0.00     0.074 A 
ATOM     37  C   UNL A   1      45.936  25.116  29.386  1.00  0.00     0.031 C 
ATOM     38  C   UNL A   1      46.391  27.355  30.359  1.00  0.00     0.031 A 
BRANCH  25  39
ATOM     39  C   UNL A   1      43.815  32.840  31.620  1.00  0.00    -0.014 A 
ATOM     40  C   UNL A   1      44.195  33.870  30.741  1.00  0.00     0.010 A 
ATOM     41  C   UNL A   1      43.599  33.144  32.977  1.00  0.00     0.010 A 
ATOM     42  C   UNL A   1      44.413  35.165  31.222  1.00  0.00     0.020 A 
ATOM     43  C   UNL A   1      43.793  34.442  33.457  1.00  0.00     0.020 A 
ATOM     44  C   UNL A   1      44.225  35.439  32.580  1.00  0.00     0.054 A 
BRANCH  44  45
ATOM     45  S   UNL A   1      44.546  37.118  33.187  1.00  0.00     0.124 S 
ATOM     46  O   UNL A   1      43.913  37.935  32.155  1.00  0.00    -0.237 OA
ATOM     47  O   UNL A   1      43.879  37.125  34.487  1.00  0.00    -0.237 OA
ATOM     48  O   UNL A   1      46.003  37.197  33.238  1.00  0.00    -0.744 OA
ENDBRANCH  44  45
ENDBRANCH  25  39
BRANCH  26  49
ATOM     49  C   UNL A   1      42.239  23.716  27.838  1.00  0.00    -0.014 A 
ATOM     50  C   UNL A   1      42.575  23.496  26.493  1.00  0.00     0.010 A 
ATOM     51  C   UNL A   1      41.767  22.641  28.616  1.00  0.00     0.010 A 
ATOM     52  C   UNL A   1      42.459  22.218  25.938  1.00  0.00     0.020 A 
ATOM     53  C   UNL A   1      41.673  21.358  28.071  1.00  0.00     0.020 A 
ATOM     54  C   UNL A   1      42.018  21.156  26.734  1.00  0.00     0.054 A 
BRANCH  54  55
ATOM     55  S   UNL A   1      41.984  19.486  26.026  1.00  0.00     0.124 S 
ATOM     56  O   UNL A   1      42.827  19.640  24.845  1.00  0.00    -0.237 OA
ATOM     57  O   UNL A   1      42.544  18.672  27.102  1.00  0.00    -0.237 OA
ATOM     58  O   UNL A   1      40.565  19.257  25.759  1.00  0.00    -0.744 OA
ENDBRANCH  54  55
ENDBRANCH  26  49
BRANCH  38  59
ATOM     59  C   UNL A   1      47.814  26.926  30.583  1.00  0.00    -0.014 A 
ATOM     60  C   UNL A   1      48.813  27.207  29.634  1.00  0.00     0.010 A 
ATOM     61  C   UNL A   1      48.169  26.310  31.797  1.00  0.00     0.010 A 
ATOM     62  C   UNL A   1      50.144  26.872  29.895  1.00  0.00     0.020 A 
ATOM     63  C   UNL A   1      49.502  25.994  32.069  1.00  0.00     0.020 A 
ATOM     64  C   UNL A   1      50.480  26.272  31.112  1.00  0.00     0.054 A 
BRANCH  64  65
ATOM     65  S   UNL A   1      52.226  25.920  31.461  1.00  0.00     0.124 S 
ATOM     66  O   UNL A   1      52.554  26.949  32.443  1.00  0.00    -0.237 OA
ATOM     67  O   UNL A   1      52.182  24.553  31.973  1.00  0.00    -0.237 OA
ATOM     68  O   UNL A   1      52.874  26.070  30.159  1.00  0.00    -0.744 OA
ENDBRANCH  64  65
ENDBRANCH  38  59
ENDBRANCH  12  13
ENDBRANCH   5   7
ENDBRANCH   2   3
ENDBRANCH   1   2
BRANCH   1  69
ATOM     69  C   UNL A   1      31.452  27.236  26.515  1.00  0.00     0.023 C 
BRANCH  69  70
ATOM     70  C   UNL A   1      30.957  25.899  25.977  1.00  0.00     0.116 C 
BRANCH  70  71
ATOM     71  N   UNL A   1      31.181  24.835  26.930  1.00  0.00    -0.354 N 
ATOM     72  C   UNL A   1      31.877  23.671  26.775  1.00  0.00     0.242 C 
ATOM     73  H   UNL A   1      30.773  24.969  27.816  1.00  0.00     0.163 HD
ATOM     74  O   UNL A   1      31.989  22.955  27.775  1.00  0.00    -0.273 OA
BRANCH  72  75
ATOM     75  C   UNL A   1      32.610  23.355  25.442  1.00  0.00     0.174 C 
ATOM     76  C   UNL A   1      33.630  24.455  25.090  1.00  0.00     0.035 C 
ATOM     77  N   UNL A   1      33.290  22.042  25.397  1.00  0.00    -0.325 N 
ATOM     78  C   UNL A   1      34.883  24.378  25.968  1.00  0.00     0.004 C 
ATOM     79  C   UNL A   1      34.443  21.914  26.288  1.00  0.00     0.121 C 
ATOM     80  C   UNL A   1      35.488  22.976  25.952  1.00  0.00     0.022 C 
BRANCH  77  81
ATOM     81  C   UNL A   1      33.003  21.179  24.328  1.00  0.00     0.274 C 
ATOM     82  O   UNL A   1      32.590  21.619  23.255  1.00  0.00    -0.267 OA
BRANCH  81  83
ATOM     83  C   UNL A   1      33.161  19.728  24.511  1.00  0.00     0.147 A 
ATOM     84  C   UNL A   1      34.299  18.963  24.318  1.00  0.00     0.127 A 
ATOM     85  N   UNL A   1      32.153  18.931  25.041  1.00  0.00    -0.223 NA
ATOM     86  N   UNL A   1      33.989  17.697  24.738  1.00  0.00    -0.306 N 
ATOM     87  C   UNL A   1      32.667  17.726  25.162  1.00  0.00     0.137 A 
ATOM     88  C   UNL A   1      34.789  16.557  24.773  1.00  0.00     0.093 A 
ATOM     89  C   UNL A   1      32.118  16.507  25.649  1.00  0.00     0.048 A 
ATOM     90  C   UNL A   1      34.267  15.408  25.235  1.00  0.00     0.018 A 
ATOM     91  C   UNL A   1      32.881  15.397  25.683  1.00  0.00     0.005 A 
ENDBRANCH  81  83
ENDBRANCH  77  81
ENDBRANCH  72  75
ENDBRANCH  70  71
ENDBRANCH  69  70
ENDBRANCH   1  69
TORSDOF 16
ENDMDL
