MODEL 1
REMARK VINA RESULT:     -14.0      0.000      0.000
REMARK SMILES C[C@H]1[C@H](C)CC[C@@]2(C(=O)NCCCCNC(=O)c3ccc(-c4c5nc(c(-c6ccc(S(=O)(=O)[O-])cc6)c6ccc([nH]6)c(-c6ccc(S(=O)(=O)[O-])cc6)c6nc(c(-c7ccc(S(=O)(=O)[O-])cc7)c7ccc4[nH]7)C=C6)C=C5)cc3)CC[C@@]3(C)C(=CC[C@@H]4[C@@]5(C)CC[C@H](O)C(C)(C)[C@@H]5CC[C@]43C)[C@H]12
REMARK SMILES IDX 13 1 12 2 11 3 10 4 8 5 9 6 7 8 1 9 2 10 3 11 100 12 4 13
REMARK SMILES IDX 5 14 82 15 6 16 78 17 80 18 83 19 79 20 81 21 98 22 84 23
REMARK SMILES IDX 85 24 97 25 99 26 86 27 96 28 87 29 88 30 95 31 89 32 92 33
REMARK SMILES IDX 90 34 93 35 94 36 91 37 14 39 15 40 16 41 17 43 18 44 19 45
REMARK SMILES IDX 77 46 20 47 76 48 21 49 22 50 23 51 70 52 24 53 75 54 69 55
REMARK SMILES IDX 71 56 25 57 74 58 68 59 67 60 26 62 56 63 37 64 55 65 38 66
REMARK SMILES IDX 41 67 54 68 72 69 39 70 40 71 53 73 73 74 42 75 27 76 28 77
REMARK SMILES IDX 36 78 29 79 35 80 30 81 31 82 32 83 33 84 34 85 57 86 58 87
REMARK SMILES IDX 66 88 59 89 65 90 60 91 61 92 62 93 63 94 64 95 43 96 44 97
REMARK SMILES IDX 52 98 45 99 51 100 46 101 47 102 48 103 49 104 50 105
REMARK H PARENT 10 7 91 38 15 42 71 61 41 72
REMARK Flexibility Score: inf
ROOT
ATOM      1  C   UNL A   1      34.880  30.787  27.823  1.00  0.00     0.023 C 
ENDROOT
BRANCH   1   2
ATOM      2  C   UNL A   1      35.267  29.320  27.599  1.00  0.00     0.023 C 
BRANCH   2   3
ATOM      3  C   UNL A   1      34.361  28.496  26.680  1.00  0.00     0.116 C 
BRANCH   3   4
ATOM      4  N   UNL A   1      34.068  29.099  25.396  1.00  0.00    -0.356 N 
ATOM      5  C   UNL A   1      32.912  29.152  24.667  1.00  0.00     0.226 C 
ATOM      6  O   UNL A   1      33.098  29.163  23.442  1.00  0.00    -0.274 OA
ATOM      7  H   UNL A   1      34.835  29.550  24.974  1.00  0.00     0.163 HD
BRANCH   5   8
ATOM      8  C   UNL A   1      31.447  29.252  25.256  1.00  0.00     0.056 C 
ATOM      9  C   UNL A   1      28.825  29.022  22.301  1.00  0.00     0.008 C 
ATOM     10  C   UNL A   1      29.940  29.627  23.174  1.00  0.00    -0.003 C 
ATOM     11  C   UNL A   1      29.466  30.990  23.766  1.00  0.00    -0.011 C 
ATOM     12  C   UNL A   1      30.356  28.666  24.311  1.00  0.00     0.034 C 
ATOM     13  C   UNL A   1      29.192  32.051  22.689  1.00  0.00     0.008 C 
ATOM     14  C   UNL A   1      30.406  31.621  24.805  1.00  0.00     0.005 C 
ATOM     15  C   UNL A   1      30.830  27.240  23.980  1.00  0.00    -0.063 C 
ATOM     16  C   UNL A   1      31.127  30.676  25.751  1.00  0.00     0.018 C 
ATOM     17  C   UNL A   1      31.376  28.348  26.556  1.00  0.00     0.018 C 
ATOM     18  C   UNL A   1      30.693  26.213  25.136  1.00  0.00    -0.006 C 
ATOM     19  C   UNL A   1      31.562  26.985  22.876  1.00  0.00    -0.027 C 
ATOM     20  C   UNL A   1      31.446  26.818  26.370  1.00  0.00     0.013 C 
ATOM     21  C   UNL A   1      29.198  26.049  25.521  1.00  0.00     0.017 C 
ATOM     22  C   UNL A   1      31.308  24.761  24.719  1.00  0.00    -0.020 C 
ATOM     23  C   UNL A   1      32.463  25.788  22.715  1.00  0.00     0.032 C 
ATOM     24  C   UNL A   1      32.706  25.053  24.058  1.00  0.00     0.006 C 
ATOM     25  C   UNL A   1      31.444  23.812  25.940  1.00  0.00     0.008 C 
ATOM     26  C   UNL A   1      30.351  24.032  23.723  1.00  0.00     0.012 C 
ATOM     27  C   UNL A   1      33.807  23.908  24.031  1.00  0.00    -0.025 C 
ATOM     28  C   UNL A   1      32.332  22.594  25.668  1.00  0.00     0.005 C 
ATOM     29  C   UNL A   1      33.668  23.065  22.748  1.00  0.00     0.012 C 
ATOM     30  C   UNL A   1      35.214  24.592  24.021  1.00  0.00     0.010 C 
ATOM     31  C   UNL A   1      33.757  23.073  25.365  1.00  0.00     0.003 C 
ATOM     32  C   UNL A   1      36.385  23.624  24.179  1.00  0.00     0.033 C 
ATOM     33  C   UNL A   1      34.889  21.991  25.549  1.00  0.00    -0.006 C 
ATOM     34  C   UNL A   1      36.262  22.714  25.405  1.00  0.00     0.120 C 
ATOM     35  C   UNL A   1      34.773  20.775  24.607  1.00  0.00     0.014 C 
ATOM     36  C   UNL A   1      34.833  21.401  26.987  1.00  0.00     0.014 C 
BRANCH  34  37
ATOM     37  O   UNL A   1      37.341  21.778  25.403  1.00  0.00    -0.393 OA
ATOM     38  H   UNL A   1      37.181  21.099  26.078  1.00  0.00     0.210 HD
ENDBRANCH  34  37
ENDBRANCH   5   8
ENDBRANCH   3   4
ENDBRANCH   2   3
ENDBRANCH   1   2
BRANCH   1  39
ATOM     39  C   UNL A   1      35.611  31.549  28.929  1.00  0.00     0.116 C 
BRANCH  39  40
ATOM     40  N   UNL A   1      35.608  30.892  30.229  1.00  0.00    -0.352 N 
ATOM     41  C   UNL A   1      36.628  30.339  30.967  1.00  0.00     0.251 C 
ATOM     42  H   UNL A   1      34.721  30.832  30.652  1.00  0.00     0.163 HD
ATOM     43  O   UNL A   1      36.376  29.834  32.060  1.00  0.00    -0.269 OA
BRANCH  41  44
ATOM     44  C   UNL A   1      38.007  30.280  30.435  1.00  0.00     0.039 A 
ATOM     45  C   UNL A   1      39.061  30.174  31.349  1.00  0.00     0.014 A 
ATOM     46  C   UNL A   1      38.275  30.301  29.066  1.00  0.00     0.014 A 
ATOM     47  C   UNL A   1      40.364  29.963  30.889  1.00  0.00     0.010 A 
ATOM     48  C   UNL A   1      39.563  30.021  28.608  1.00  0.00     0.010 A 
ATOM     49  C   UNL A   1      40.615  29.817  29.515  1.00  0.00    -0.014 A 
BRANCH  49  50
ATOM     50  C   UNL A   1      41.950  29.378  29.025  1.00  0.00     0.031 A 
ATOM     51  C   UNL A   1      43.091  30.350  28.909  1.00  0.00     0.074 A 
ATOM     52  C   UNL A   1      42.112  28.103  28.614  1.00  0.00     0.049 A 
ATOM     53  N   UNL A   1      44.302  30.146  28.456  1.00  0.00    -0.248 NA
ATOM     54  C   UNL A   1      42.833  31.734  29.333  1.00  0.00     0.031 C 
ATOM     55  C   UNL A   1      41.072  27.070  28.624  1.00  0.00     0.029 A 
ATOM     56  N   UNL A   1      43.209  27.457  28.100  1.00  0.00    -0.354 N 
ATOM     57  C   UNL A   1      44.945  31.376  28.525  1.00  0.00     0.074 A 
ATOM     58  C   UNL A   1      43.977  32.329  29.024  1.00  0.00     0.031 C 
ATOM     59  C   UNL A   1      41.588  25.917  28.169  1.00  0.00     0.029 A 
ATOM     60  C   UNL A   1      42.982  26.134  27.797  1.00  0.00     0.049 A 
ATOM     61  H   UNL A   1      44.079  27.899  27.961  1.00  0.00     0.167 HD
ATOM     62  C   UNL A   1      46.230  31.683  28.218  1.00  0.00     0.031 A 
ATOM     63  C   UNL A   1      43.798  25.197  27.276  1.00  0.00     0.031 A 
ATOM     64  C   UNL A   1      47.196  30.734  27.731  1.00  0.00     0.049 A 
ATOM     65  C   UNL A   1      45.220  25.559  26.949  1.00  0.00     0.074 A 
ATOM     66  C   UNL A   1      48.535  30.939  27.444  1.00  0.00     0.029 A 
ATOM     67  N   UNL A   1      46.931  29.400  27.458  1.00  0.00    -0.354 N 
ATOM     68  N   UNL A   1      45.826  26.714  27.086  1.00  0.00    -0.248 NA
ATOM     69  C   UNL A   1      46.071  24.490  26.410  1.00  0.00     0.031 C 
ATOM     70  C   UNL A   1      49.068  29.740  26.958  1.00  0.00     0.029 A 
ATOM     71  C   UNL A   1      48.074  28.775  26.989  1.00  0.00     0.049 A 
ATOM     72  H   UNL A   1      46.057  28.962  27.579  1.00  0.00     0.167 HD
ATOM     73  C   UNL A   1      47.138  26.503  26.674  1.00  0.00     0.074 A 
ATOM     74  C   UNL A   1      47.239  25.109  26.295  1.00  0.00     0.031 C 
ATOM     75  C   UNL A   1      48.163  27.386  26.616  1.00  0.00     0.031 A 
BRANCH  62  76
ATOM     76  C   UNL A   1      46.662  33.114  28.398  1.00  0.00    -0.014 A 
ATOM     77  C   UNL A   1      47.206  33.558  29.617  1.00  0.00     0.010 A 
ATOM     78  C   UNL A   1      46.555  34.019  27.327  1.00  0.00     0.010 A 
ATOM     79  C   UNL A   1      47.589  34.892  29.777  1.00  0.00     0.020 A 
ATOM     80  C   UNL A   1      46.963  35.349  27.474  1.00  0.00     0.020 A 
ATOM     81  C   UNL A   1      47.458  35.780  28.706  1.00  0.00     0.054 A 
BRANCH  81  82
ATOM     82  S   UNL A   1      47.970  37.505  28.939  1.00  0.00     0.124 S 
ATOM     83  O   UNL A   1      47.946  37.631  30.395  1.00  0.00    -0.237 OA
ATOM     84  O   UNL A   1      49.297  37.533  28.329  1.00  0.00    -0.237 OA
ATOM     85  O   UNL A   1      46.946  38.270  28.232  1.00  0.00    -0.744 OA
ENDBRANCH  81  82
ENDBRANCH  62  76
BRANCH  63  86
ATOM     86  C   UNL A   1      43.293  23.815  27.050  1.00  0.00    -0.014 A 
ATOM     87  C   UNL A   1      42.925  23.394  25.761  1.00  0.00     0.010 A 
ATOM     88  C   UNL A   1      43.191  22.908  28.121  1.00  0.00     0.010 A 
ATOM     89  C   UNL A   1      42.447  22.098  25.547  1.00  0.00     0.020 A 
ATOM     90  C   UNL A   1      42.738  21.603  27.907  1.00  0.00     0.020 A 
ATOM     91  C   UNL A   1      42.359  21.210  26.622  1.00  0.00     0.054 A 
BRANCH  91  92
ATOM     92  S   UNL A   1      41.790  19.514  26.313  1.00  0.00     0.124 S 
ATOM     93  O   UNL A   1      42.216  18.827  27.528  1.00  0.00    -0.237 OA
ATOM     94  O   UNL A   1      40.348  19.688  26.157  1.00  0.00    -0.237 OA
ATOM     95  O   UNL A   1      42.499  19.134  25.094  1.00  0.00    -0.744 OA
ENDBRANCH  91  92
ENDBRANCH  63  86
BRANCH  75  96
ATOM     96  C   UNL A   1      49.499  26.867  26.159  1.00  0.00    -0.014 A 
ATOM     97  C   UNL A   1      49.905  26.982  24.817  1.00  0.00     0.010 A 
ATOM     98  C   UNL A   1      50.383  26.305  27.098  1.00  0.00     0.010 A 
ATOM     99  C   UNL A   1      51.163  26.520  24.418  1.00  0.00     0.020 A 
ATOM    100  C   UNL A   1      51.651  25.865  26.707  1.00  0.00     0.020 A 
ATOM    101  C   UNL A   1      52.028  25.964  25.366  1.00  0.00     0.054 A 
BRANCH 101 102
ATOM    102  S   UNL A   1      53.674  25.417  24.834  1.00  0.00     0.124 S 
ATOM    103  O   UNL A   1      54.526  25.942  25.898  1.00  0.00    -0.237 OA
ATOM    104  O   UNL A   1      53.535  23.964  24.801  1.00  0.00    -0.237 OA
ATOM    105  O   UNL A   1      53.843  26.050  23.529  1.00  0.00    -0.744 OA
ENDBRANCH 101 102
ENDBRANCH  75  96
ENDBRANCH  49  50
ENDBRANCH  41  44
ENDBRANCH  39  40
ENDBRANCH   1  39
TORSDOF 15
ENDMDL
MODEL 2
REMARK VINA RESULT:     -13.8      5.802     11.631
REMARK SMILES C[C@H]1[C@H](C)CC[C@@]2(C(=O)NCCCCNC(=O)c3ccc(-c4c5nc(c(-c6ccc(S(=O)(=O)[O-])cc6)c6ccc([nH]6)c(-c6ccc(S(=O)(=O)[O-])cc6)c6nc(c(-c7ccc(S(=O)(=O)[O-])cc7)c7ccc4[nH]7)C=C6)C=C5)cc3)CC[C@@]3(C)C(=CC[C@@H]4[C@@]5(C)CC[C@H](O)C(C)(C)[C@@H]5CC[C@]43C)[C@H]12
REMARK SMILES IDX 13 1 12 2 11 3 10 4 8 5 9 6 7 8 1 9 2 10 3 11 100 12 4 13
REMARK SMILES IDX 5 14 82 15 6 16 78 17 80 18 83 19 79 20 81 21 98 22 84 23
REMARK SMILES IDX 85 24 97 25 99 26 86 27 96 28 87 29 88 30 95 31 89 32 92 33
REMARK SMILES IDX 90 34 93 35 94 36 91 37 14 39 15 40 16 41 17 43 18 44 19 45
REMARK SMILES IDX 77 46 20 47 76 48 21 49 22 50 23 51 70 52 24 53 75 54 69 55
REMARK SMILES IDX 71 56 25 57 74 58 68 59 67 60 26 62 56 63 37 64 55 65 38 66
REMARK SMILES IDX 41 67 54 68 72 69 39 70 40 71 53 73 73 74 42 75 27 76 28 77
REMARK SMILES IDX 36 78 29 79 35 80 30 81 31 82 32 83 33 84 34 85 57 86 58 87
REMARK SMILES IDX 66 88 59 89 65 90 60 91 61 92 62 93 63 94 64 95 43 96 44 97
REMARK SMILES IDX 52 98 45 99 51 100 46 101 47 102 48 103 49 104 50 105
REMARK H PARENT 10 7 91 38 15 42 71 61 41 72
REMARK Flexibility Score: inf
ROOT
ATOM      1  C   UNL A   1      39.208  22.934  26.535  1.00  0.00     0.023 C 
ENDROOT
BRANCH   1   2
ATOM      2  C   UNL A   1      38.210  24.098  26.547  1.00  0.00     0.023 C 
BRANCH   2   3
ATOM      3  C   UNL A   1      36.814  23.820  25.983  1.00  0.00     0.116 C 
BRANCH   3   4
ATOM      4  N   UNL A   1      36.083  22.752  26.634  1.00  0.00    -0.356 N 
ATOM      5  C   UNL A   1      35.227  21.810  26.136  1.00  0.00     0.226 C 
ATOM      6  O   UNL A   1      34.338  21.476  26.933  1.00  0.00    -0.274 OA
ATOM      7  H   UNL A   1      36.228  22.695  27.607  1.00  0.00     0.163 HD
BRANCH   5   8
ATOM      8  C   UNL A   1      35.329  21.122  24.715  1.00  0.00     0.056 C 
ATOM      9  C   UNL A   1      32.180  18.793  24.155  1.00  0.00     0.008 C 
ATOM     10  C   UNL A   1      33.511  19.267  24.765  1.00  0.00    -0.003 C 
ATOM     11  C   UNL A   1      34.612  18.186  24.539  1.00  0.00    -0.011 C 
ATOM     12  C   UNL A   1      33.960  20.620  24.167  1.00  0.00     0.034 C 
ATOM     13  C   UNL A   1      34.305  16.858  25.249  1.00  0.00     0.008 C 
ATOM     14  C   UNL A   1      36.037  18.601  24.934  1.00  0.00     0.005 C 
ATOM     15  C   UNL A   1      33.025  21.841  24.235  1.00  0.00    -0.063 C 
ATOM     16  C   UNL A   1      36.432  20.046  24.681  1.00  0.00     0.018 C 
ATOM     17  C   UNL A   1      35.800  22.216  23.671  1.00  0.00     0.018 C 
ATOM     18  C   UNL A   1      33.296  22.941  23.174  1.00  0.00    -0.006 C 
ATOM     19  C   UNL A   1      32.231  22.055  25.304  1.00  0.00    -0.027 C 
ATOM     20  C   UNL A   1      34.806  23.339  23.311  1.00  0.00     0.013 C 
ATOM     21  C   UNL A   1      33.083  22.363  21.748  1.00  0.00     0.017 C 
ATOM     22  C   UNL A   1      32.320  24.229  23.387  1.00  0.00    -0.020 C 
ATOM     23  C   UNL A   1      31.677  23.402  25.692  1.00  0.00     0.032 C 
ATOM     24  C   UNL A   1      32.366  24.561  24.925  1.00  0.00     0.006 C 
ATOM     25  C   UNL A   1      32.762  25.446  22.531  1.00  0.00     0.008 C 
ATOM     26  C   UNL A   1      30.867  23.893  22.924  1.00  0.00     0.012 C 
ATOM     27  C   UNL A   1      32.002  26.028  25.415  1.00  0.00    -0.025 C 
ATOM     28  C   UNL A   1      32.108  26.762  22.960  1.00  0.00     0.005 C 
ATOM     29  C   UNL A   1      30.491  26.134  25.703  1.00  0.00     0.012 C 
ATOM     30  C   UNL A   1      32.777  26.297  26.747  1.00  0.00     0.010 C 
ATOM     31  C   UNL A   1      32.544  27.093  24.392  1.00  0.00     0.003 C 
ATOM     32  C   UNL A   1      32.676  27.735  27.254  1.00  0.00     0.033 C 
ATOM     33  C   UNL A   1      32.387  28.604  24.816  1.00  0.00    -0.006 C 
ATOM     34  C   UNL A   1      33.072  28.779  26.205  1.00  0.00     0.120 C 
ATOM     35  C   UNL A   1      30.935  29.123  24.816  1.00  0.00     0.014 C 
ATOM     36  C   UNL A   1      33.148  29.520  23.815  1.00  0.00     0.014 C 
BRANCH  34  37
ATOM     37  O   UNL A   1      32.840  30.086  26.735  1.00  0.00    -0.393 OA
ATOM     38  H   UNL A   1      33.657  30.422  27.135  1.00  0.00     0.210 HD
ENDBRANCH  34  37
ENDBRANCH   5   8
ENDBRANCH   3   4
ENDBRANCH   2   3
ENDBRANCH   1   2
BRANCH   1  39
ATOM     39  C   UNL A   1      40.685  23.268  26.749  1.00  0.00     0.116 C 
BRANCH  39  40
ATOM     40  N   UNL A   1      41.236  24.232  25.807  1.00  0.00    -0.352 N 
ATOM     41  C   UNL A   1      41.696  25.516  25.990  1.00  0.00     0.251 C 
ATOM     42  H   UNL A   1      41.286  23.910  24.878  1.00  0.00     0.163 HD
ATOM     43  O   UNL A   1      42.125  26.145  25.025  1.00  0.00    -0.269 OA
BRANCH  41  44
ATOM     44  C   UNL A   1      41.617  26.172  27.313  1.00  0.00     0.039 A 
ATOM     45  C   UNL A   1      42.667  27.013  27.695  1.00  0.00     0.014 A 
ATOM     46  C   UNL A   1      40.524  25.996  28.163  1.00  0.00     0.014 A 
ATOM     47  C   UNL A   1      42.563  27.770  28.865  1.00  0.00     0.010 A 
ATOM     48  C   UNL A   1      40.389  26.803  29.294  1.00  0.00     0.010 A 
ATOM     49  C   UNL A   1      41.393  27.721  29.640  1.00  0.00    -0.014 A 
BRANCH  49  50
ATOM     50  C   UNL A   1      41.179  28.677  30.761  1.00  0.00     0.031 A 
ATOM     51  C   UNL A   1      42.017  28.609  32.007  1.00  0.00     0.074 A 
ATOM     52  C   UNL A   1      40.169  29.568  30.680  1.00  0.00     0.049 A 
ATOM     53  N   UNL A   1      41.931  29.331  33.095  1.00  0.00    -0.248 NA
ATOM     54  C   UNL A   1      43.071  27.585  32.046  1.00  0.00     0.031 C 
ATOM     55  C   UNL A   1      39.247  29.705  29.548  1.00  0.00     0.029 A 
ATOM     56  N   UNL A   1      39.741  30.524  31.568  1.00  0.00    -0.354 N 
ATOM     57  C   UNL A   1      42.906  28.839  33.955  1.00  0.00     0.074 A 
ATOM     58  C   UNL A   1      43.543  27.730  33.277  1.00  0.00     0.031 C 
ATOM     59  C   UNL A   1      38.386  30.704  29.798  1.00  0.00     0.029 A 
ATOM     60  C   UNL A   1      38.665  31.255  31.119  1.00  0.00     0.049 A 
ATOM     61  H   UNL A   1      40.166  30.675  32.444  1.00  0.00     0.167 HD
ATOM     62  C   UNL A   1      43.252  29.280  35.189  1.00  0.00     0.031 A 
ATOM     63  C   UNL A   1      37.973  32.253  31.703  1.00  0.00     0.031 A 
ATOM     64  C   UNL A   1      42.626  30.389  35.860  1.00  0.00     0.049 A 
ATOM     65  C   UNL A   1      38.380  32.728  33.070  1.00  0.00     0.074 A 
ATOM     66  C   UNL A   1      42.945  30.943  37.089  1.00  0.00     0.029 A 
ATOM     67  N   UNL A   1      41.553  31.113  35.363  1.00  0.00    -0.354 N 
ATOM     68  N   UNL A   1      39.351  32.293  33.837  1.00  0.00    -0.248 NA
ATOM     69  C   UNL A   1      37.608  33.839  33.644  1.00  0.00     0.031 C 
ATOM     70  C   UNL A   1      42.038  31.975  37.353  1.00  0.00     0.029 A 
ATOM     71  C   UNL A   1      41.187  32.097  36.266  1.00  0.00     0.049 A 
ATOM     72  H   UNL A   1      41.116  30.952  34.496  1.00  0.00     0.167 HD
ATOM     73  C   UNL A   1      39.322  33.093  34.974  1.00  0.00     0.074 A 
ATOM     74  C   UNL A   1      38.247  34.046  34.789  1.00  0.00     0.031 C 
ATOM     75  C   UNL A   1      40.116  33.041  36.070  1.00  0.00     0.031 A 
BRANCH  62  76
ATOM     76  C   UNL A   1      44.365  28.552  35.897  1.00  0.00    -0.014 A 
ATOM     77  C   UNL A   1      45.705  28.951  35.743  1.00  0.00     0.010 A 
ATOM     78  C   UNL A   1      44.066  27.477  36.754  1.00  0.00     0.010 A 
ATOM     79  C   UNL A   1      46.730  28.259  36.392  1.00  0.00     0.020 A 
ATOM     80  C   UNL A   1      45.086  26.798  37.427  1.00  0.00     0.020 A 
ATOM     81  C   UNL A   1      46.414  27.182  37.226  1.00  0.00     0.054 A 
BRANCH  81  82
ATOM     82  S   UNL A   1      47.763  26.305  38.063  1.00  0.00     0.124 S 
ATOM     83  O   UNL A   1      48.939  27.010  37.557  1.00  0.00    -0.237 OA
ATOM     84  O   UNL A   1      47.461  26.522  39.475  1.00  0.00    -0.237 OA
ATOM     85  O   UNL A   1      47.620  24.926  37.602  1.00  0.00    -0.744 OA
ENDBRANCH  81  82
ENDBRANCH  62  76
BRANCH  63  86
ATOM     86  C   UNL A   1      36.834  32.886  30.985  1.00  0.00    -0.014 A 
ATOM     87  C   UNL A   1      35.510  32.597  31.356  1.00  0.00     0.010 A 
ATOM     88  C   UNL A   1      37.067  33.793  29.933  1.00  0.00     0.010 A 
ATOM     89  C   UNL A   1      34.438  33.187  30.680  1.00  0.00     0.020 A 
ATOM     90  C   UNL A   1      35.999  34.405  29.273  1.00  0.00     0.020 A 
ATOM     91  C   UNL A   1      34.690  34.090  29.644  1.00  0.00     0.054 A 
BRANCH  91  92
ATOM     92  S   UNL A   1      33.285  34.889  28.817  1.00  0.00     0.124 S 
ATOM     93  O   UNL A   1      32.404  35.188  29.941  1.00  0.00    -0.237 OA
ATOM     94  O   UNL A   1      33.910  36.044  28.177  1.00  0.00    -0.237 OA
ATOM     95  O   UNL A   1      32.803  33.862  27.896  1.00  0.00    -0.744 OA
ENDBRANCH  91  92
ENDBRANCH  63  86
BRANCH  75  96
ATOM     96  C   UNL A   1      39.878  34.066  37.146  1.00  0.00    -0.014 A 
ATOM     97  C   UNL A   1      39.121  33.759  38.291  1.00  0.00     0.010 A 
ATOM     98  C   UNL A   1      40.469  35.338  37.034  1.00  0.00     0.010 A 
ATOM     99  C   UNL A   1      38.937  34.716  39.293  1.00  0.00     0.020 A 
ATOM    100  C   UNL A   1      40.308  36.289  38.046  1.00  0.00     0.020 A 
ATOM    101  C   UNL A   1      39.532  35.975  39.163  1.00  0.00     0.054 A 
BRANCH 101 102
ATOM    102  S   UNL A   1      39.321  37.184  40.500  1.00  0.00     0.124 S 
ATOM    103  O   UNL A   1      38.563  38.241  39.836  1.00  0.00    -0.237 OA
ATOM    104  O   UNL A   1      38.587  36.423  41.509  1.00  0.00    -0.237 OA
ATOM    105  O   UNL A   1      40.690  37.535  40.868  1.00  0.00    -0.744 OA
ENDBRANCH 101 102
ENDBRANCH  75  96
ENDBRANCH  49  50
ENDBRANCH  41  44
ENDBRANCH  39  40
ENDBRANCH   1  39
TORSDOF 15
ENDMDL
MODEL 3
REMARK VINA RESULT:     -13.7      0.442      7.597
REMARK SMILES C[C@H]1[C@H](C)CC[C@@]2(C(=O)NCCCCNC(=O)c3ccc(-c4c5nc(c(-c6ccc(S(=O)(=O)[O-])cc6)c6ccc([nH]6)c(-c6ccc(S(=O)(=O)[O-])cc6)c6nc(c(-c7ccc(S(=O)(=O)[O-])cc7)c7ccc4[nH]7)C=C6)C=C5)cc3)CC[C@@]3(C)C(=CC[C@@H]4[C@@]5(C)CC[C@H](O)C(C)(C)[C@@H]5CC[C@]43C)[C@H]12
REMARK SMILES IDX 13 1 12 2 11 3 10 4 8 5 9 6 7 8 1 9 2 10 3 11 100 12 4 13
REMARK SMILES IDX 5 14 82 15 6 16 78 17 80 18 83 19 79 20 81 21 98 22 84 23
REMARK SMILES IDX 85 24 97 25 99 26 86 27 96 28 87 29 88 30 95 31 89 32 92 33
REMARK SMILES IDX 90 34 93 35 94 36 91 37 14 39 15 40 16 41 17 43 18 44 19 45
REMARK SMILES IDX 77 46 20 47 76 48 21 49 22 50 23 51 70 52 24 53 75 54 69 55
REMARK SMILES IDX 71 56 25 57 74 58 68 59 67 60 26 62 56 63 37 64 55 65 38 66
REMARK SMILES IDX 41 67 54 68 72 69 39 70 40 71 53 73 73 74 42 75 27 76 28 77
REMARK SMILES IDX 36 78 29 79 35 80 30 81 31 82 32 83 33 84 34 85 57 86 58 87
REMARK SMILES IDX 66 88 59 89 65 90 60 91 61 92 62 93 63 94 64 95 43 96 44 97
REMARK SMILES IDX 52 98 45 99 51 100 46 101 47 102 48 103 49 104 50 105
REMARK H PARENT 10 7 91 38 15 42 71 61 41 72
REMARK Flexibility Score: inf
ROOT
ATOM      1  C   UNL A   1      34.833  30.932  27.903  1.00  0.00     0.023 C 
ENDROOT
BRANCH   1   2
ATOM      2  C   UNL A   1      35.385  29.574  27.455  1.00  0.00     0.023 C 
BRANCH   2   3
ATOM      3  C   UNL A   1      34.448  28.682  26.634  1.00  0.00     0.116 C 
BRANCH   3   4
ATOM      4  N   UNL A   1      34.099  29.190  25.324  1.00  0.00    -0.356 N 
ATOM      5  C   UNL A   1      32.921  29.159  24.629  1.00  0.00     0.226 C 
ATOM      6  O   UNL A   1      33.072  29.096  23.400  1.00  0.00    -0.274 OA
ATOM      7  H   UNL A   1      34.839  29.636  24.850  1.00  0.00     0.163 HD
BRANCH   5   8
ATOM      8  C   UNL A   1      31.471  29.251  25.254  1.00  0.00     0.056 C 
ATOM      9  C   UNL A   1      28.776  28.972  22.371  1.00  0.00     0.008 C 
ATOM     10  C   UNL A   1      29.908  29.595  23.209  1.00  0.00    -0.003 C 
ATOM     11  C   UNL A   1      29.437  30.959  23.802  1.00  0.00    -0.011 C 
ATOM     12  C   UNL A   1      30.362  28.648  24.343  1.00  0.00     0.034 C 
ATOM     13  C   UNL A   1      29.125  32.007  22.723  1.00  0.00     0.008 C 
ATOM     14  C   UNL A   1      30.398  31.607  24.810  1.00  0.00     0.005 C 
ATOM     15  C   UNL A   1      30.840  27.222  24.012  1.00  0.00    -0.063 C 
ATOM     16  C   UNL A   1      31.151  30.676  25.745  1.00  0.00     0.018 C 
ATOM     17  C   UNL A   1      31.442  28.358  26.563  1.00  0.00     0.018 C 
ATOM     18  C   UNL A   1      30.742  26.205  25.180  1.00  0.00    -0.006 C 
ATOM     19  C   UNL A   1      31.545  26.964  22.892  1.00  0.00    -0.027 C 
ATOM     20  C   UNL A   1      31.521  26.828  26.390  1.00  0.00     0.013 C 
ATOM     21  C   UNL A   1      29.259  26.030  25.606  1.00  0.00     0.017 C 
ATOM     22  C   UNL A   1      31.359  24.755  24.760  1.00  0.00    -0.020 C 
ATOM     23  C   UNL A   1      32.452  25.774  22.718  1.00  0.00     0.032 C 
ATOM     24  C   UNL A   1      32.737  25.053  24.061  1.00  0.00     0.006 C 
ATOM     25  C   UNL A   1      31.535  23.817  25.985  1.00  0.00     0.008 C 
ATOM     26  C   UNL A   1      30.384  24.008  23.795  1.00  0.00     0.012 C 
ATOM     27  C   UNL A   1      33.847  23.917  24.015  1.00  0.00    -0.025 C 
ATOM     28  C   UNL A   1      32.427  22.605  25.701  1.00  0.00     0.005 C 
ATOM     29  C   UNL A   1      33.682  23.062  22.743  1.00  0.00     0.012 C 
ATOM     30  C   UNL A   1      35.247  24.614  23.963  1.00  0.00     0.010 C 
ATOM     31  C   UNL A   1      33.839  23.094  25.357  1.00  0.00     0.003 C 
ATOM     32  C   UNL A   1      36.431  23.657  24.098  1.00  0.00     0.033 C 
ATOM     33  C   UNL A   1      34.985  22.024  25.520  1.00  0.00    -0.006 C 
ATOM     34  C   UNL A   1      36.347  22.757  25.334  1.00  0.00     0.120 C 
ATOM     35  C   UNL A   1      34.856  20.798  24.592  1.00  0.00     0.014 C 
ATOM     36  C   UNL A   1      34.972  21.446  26.964  1.00  0.00     0.014 C 
BRANCH  34  37
ATOM     37  O   UNL A   1      37.435  21.831  25.313  1.00  0.00    -0.393 OA
ATOM     38  H   UNL A   1      37.562  21.461  26.201  1.00  0.00     0.210 HD
ENDBRANCH  34  37
ENDBRANCH   5   8
ENDBRANCH   3   4
ENDBRANCH   2   3
ENDBRANCH   1   2
BRANCH   1  39
ATOM     39  C   UNL A   1      35.593  31.675  29.002  1.00  0.00     0.116 C 
BRANCH  39  40
ATOM     40  N   UNL A   1      35.600  31.010  30.297  1.00  0.00    -0.352 N 
ATOM     41  C   UNL A   1      36.626  30.451  31.024  1.00  0.00     0.251 C 
ATOM     42  H   UNL A   1      34.716  30.947  30.726  1.00  0.00     0.163 HD
ATOM     43  O   UNL A   1      36.382  29.939  32.115  1.00  0.00    -0.269 OA
BRANCH  41  44
ATOM     44  C   UNL A   1      38.001  30.396  30.482  1.00  0.00     0.039 A 
ATOM     45  C   UNL A   1      39.054  30.178  31.377  1.00  0.00     0.014 A 
ATOM     46  C   UNL A   1      38.265  30.528  29.118  1.00  0.00     0.014 A 
ATOM     47  C   UNL A   1      40.348  29.967  30.892  1.00  0.00     0.010 A 
ATOM     48  C   UNL A   1      39.543  30.248  28.630  1.00  0.00     0.010 A 
ATOM     49  C   UNL A   1      40.590  29.934  29.510  1.00  0.00    -0.014 A 
BRANCH  49  50
ATOM     50  C   UNL A   1      41.910  29.498  28.977  1.00  0.00     0.031 A 
ATOM     51  C   UNL A   1      42.125  28.087  28.504  1.00  0.00     0.074 A 
ATOM     52  C   UNL A   1      42.942  30.366  28.988  1.00  0.00     0.049 A 
ATOM     53  N   UNL A   1      43.222  27.528  28.057  1.00  0.00    -0.248 NA
ATOM     54  C   UNL A   1      40.968  27.181  28.560  1.00  0.00     0.031 C 
ATOM     55  C   UNL A   1      42.882  31.749  29.469  1.00  0.00     0.029 A 
ATOM     56  N   UNL A   1      44.248  30.214  28.590  1.00  0.00    -0.354 N 
ATOM     57  C   UNL A   1      42.893  26.204  27.796  1.00  0.00     0.074 A 
ATOM     58  C   UNL A   1      41.506  26.032  28.173  1.00  0.00     0.031 C 
ATOM     59  C   UNL A   1      44.085  32.326  29.311  1.00  0.00     0.029 A 
ATOM     60  C   UNL A   1      45.012  31.347  28.755  1.00  0.00     0.049 A 
ATOM     61  H   UNL A   1      44.604  29.374  28.220  1.00  0.00     0.167 HD
ATOM     62  C   UNL A   1      43.669  25.222  27.273  1.00  0.00     0.031 A 
ATOM     63  C   UNL A   1      46.314  31.577  28.493  1.00  0.00     0.031 A 
ATOM     64  C   UNL A   1      45.045  25.394  26.889  1.00  0.00     0.049 A 
ATOM     65  C   UNL A   1      47.152  30.474  27.908  1.00  0.00     0.074 A 
ATOM     66  C   UNL A   1      45.896  24.473  26.300  1.00  0.00     0.029 A 
ATOM     67  N   UNL A   1      45.775  26.562  27.053  1.00  0.00    -0.354 N 
ATOM     68  N   UNL A   1      46.802  29.247  27.606  1.00  0.00    -0.248 NA
ATOM     69  C   UNL A   1      48.557  30.792  27.616  1.00  0.00     0.031 C 
ATOM     70  C   UNL A   1      47.152  25.071  26.148  1.00  0.00     0.029 A 
ATOM     71  C   UNL A   1      47.069  26.380  26.595  1.00  0.00     0.049 A 
ATOM     72  H   UNL A   1      45.425  27.397  27.439  1.00  0.00     0.167 HD
ATOM     73  C   UNL A   1      47.937  28.654  27.064  1.00  0.00     0.074 A 
ATOM     74  C   UNL A   1      48.980  29.659  27.069  1.00  0.00     0.031 C 
ATOM     75  C   UNL A   1      48.098  27.389  26.604  1.00  0.00     0.031 A 
BRANCH  62  76
ATOM     76  C   UNL A   1      43.040  23.866  27.091  1.00  0.00    -0.014 A 
ATOM     77  C   UNL A   1      42.858  22.999  28.184  1.00  0.00     0.010 A 
ATOM     78  C   UNL A   1      42.595  23.464  25.819  1.00  0.00     0.010 A 
ATOM     79  C   UNL A   1      42.287  21.737  28.001  1.00  0.00     0.020 A 
ATOM     80  C   UNL A   1      41.999  22.213  25.635  1.00  0.00     0.020 A 
ATOM     81  C   UNL A   1      41.867  21.350  26.725  1.00  0.00     0.054 A 
BRANCH  81  82
ATOM     82  S   UNL A   1      41.123  19.709  26.516  1.00  0.00     0.124 S 
ATOM     83  O   UNL A   1      41.037  19.239  27.897  1.00  0.00    -0.237 OA
ATOM     84  O   UNL A   1      39.846  20.013  25.877  1.00  0.00    -0.237 OA
ATOM     85  O   UNL A   1      42.083  18.997  25.676  1.00  0.00    -0.744 OA
ENDBRANCH  81  82
ENDBRANCH  62  76
BRANCH  63  86
ATOM     86  C   UNL A   1      46.900  32.918  28.763  1.00  0.00    -0.014 A 
ATOM     87  C   UNL A   1      47.505  33.192  30.002  1.00  0.00     0.010 A 
ATOM     88  C   UNL A   1      46.869  33.923  27.779  1.00  0.00     0.010 A 
ATOM     89  C   UNL A   1      48.053  34.453  30.260  1.00  0.00     0.020 A 
ATOM     90  C   UNL A   1      47.439  35.176  28.024  1.00  0.00     0.020 A 
ATOM     91  C   UNL A   1      48.018  35.436  29.267  1.00  0.00     0.054 A 
BRANCH  91  92
ATOM     92  S   UNL A   1      48.786  37.046  29.602  1.00  0.00     0.124 S 
ATOM     93  O   UNL A   1      48.838  37.638  28.269  1.00  0.00    -0.237 OA
ATOM     94  O   UNL A   1      47.841  37.660  30.531  1.00  0.00    -0.237 OA
ATOM     95  O   UNL A   1      50.079  36.692  30.183  1.00  0.00    -0.744 OA
ENDBRANCH  91  92
ENDBRANCH  63  86
BRANCH  75  96
ATOM     96  C   UNL A   1      49.442  27.026  26.034  1.00  0.00    -0.014 A 
ATOM     97  C   UNL A   1      50.430  26.415  26.827  1.00  0.00     0.010 A 
ATOM     98  C   UNL A   1      49.699  27.250  24.669  1.00  0.00     0.010 A 
ATOM     99  C   UNL A   1      51.661  26.058  26.271  1.00  0.00     0.020 A 
ATOM    100  C   UNL A   1      50.920  26.872  24.103  1.00  0.00     0.020 A 
ATOM    101  C   UNL A   1      51.898  26.289  24.912  1.00  0.00     0.054 A 
BRANCH 101 102
ATOM    102  S   UNL A   1      53.485  25.772  24.200  1.00  0.00     0.124 S 
ATOM    103  O   UNL A   1      53.590  24.391  24.664  1.00  0.00    -0.237 OA
ATOM    104  O   UNL A   1      53.265  25.938  22.766  1.00  0.00    -0.237 OA
ATOM    105  O   UNL A   1      54.446  26.702  24.787  1.00  0.00    -0.744 OA
ENDBRANCH 101 102
ENDBRANCH  75  96
ENDBRANCH  49  50
ENDBRANCH  41  44
ENDBRANCH  39  40
ENDBRANCH   1  39
TORSDOF 15
ENDMDL
