MODEL 1
REMARK VINA RESULT:      -9.1      0.000      0.000
REMARK SMILES CC(C)[C@@H](C(=O)NCCCCNC(=O)c1ccc(-c2c3nc(c(-c4ccc(S(=O)(=O)[O-])cc4)c4ccc([nH]4)c(-c4ccc(S(=O)(=O)[O-])cc4)c4nc(c(-c5ccc(S(=O)(=O)[O-])cc5)c5ccc2[nH]5)C=C4)C=C3)cc1)N1C(=O)/C(=C\c2ccc([N+](=O)[O-])cc2)SC1=S
REMARK SMILES IDX 9 1 8 2 7 3 5 4 6 5 4 7 2 8 1 9 3 10 75 11 76 12 90 13 77 14
REMARK SMILES IDX 78 15 89 16 91 17 79 18 80 19 81 20 88 21 82 22 87 23 83 24
REMARK SMILES IDX 84 25 85 26 86 27 10 28 11 29 12 30 13 31 14 33 15 34 16 35
REMARK SMILES IDX 74 36 17 37 73 38 18 39 19 40 20 41 67 42 21 43 72 44 66 45
REMARK SMILES IDX 68 46 22 47 71 48 65 49 64 50 23 52 53 53 34 54 52 55 35 56
REMARK SMILES IDX 38 57 51 58 69 59 36 60 37 61 50 63 70 64 39 65 24 66 25 67
REMARK SMILES IDX 33 68 26 69 32 70 27 71 28 72 29 73 30 74 31 75 54 76 55 77
REMARK SMILES IDX 63 78 56 79 62 80 57 81 58 82 59 83 60 84 61 85 40 86 41 87
REMARK SMILES IDX 49 88 42 89 48 90 43 91 44 92 45 93 46 94 47 95
REMARK H PARENT 7 6 12 32 68 51 38 62
REMARK Flexibility Score: inf
ROOT
ATOM      1  C   UNL A   1      36.528  31.078  32.507  1.00  0.00     0.023 C 
ENDROOT
BRANCH   1   2
ATOM      2  C   UNL A   1      37.161  31.853  33.669  1.00  0.00     0.116 C 
BRANCH   2   3
ATOM      3  N   UNL A   1      38.584  31.560  33.768  1.00  0.00    -0.354 N 
ATOM      4  C   UNL A   1      39.673  32.222  33.265  1.00  0.00     0.243 C 
ATOM      5  O   UNL A   1      40.776  31.686  33.394  1.00  0.00    -0.273 OA
ATOM      6  H   UNL A   1      38.799  30.748  34.281  1.00  0.00     0.163 HD
BRANCH   4   7
ATOM      7  C   UNL A   1      39.517  33.628  32.638  1.00  0.00     0.184 C 
BRANCH   7   8
ATOM      8  C   UNL A   1      39.665  33.690  31.083  1.00  0.00     0.015 C 
ATOM      9  C   UNL A   1      39.384  32.418  30.300  1.00  0.00     0.010 C 
ATOM     10  C   UNL A   1      38.782  34.805  30.513  1.00  0.00     0.010 C 
ENDBRANCH   7   8
BRANCH   7  11
ATOM     11  N   UNL A   1      40.466  34.539  33.372  1.00  0.00    -0.280 N 
ATOM     12  C   UNL A   1      40.071  35.276  34.474  1.00  0.00     0.266 C 
ATOM     13  C   UNL A   1      41.757  34.811  32.944  1.00  0.00     0.149 C 
ATOM     14  O   UNL A   1      38.943  35.505  34.884  1.00  0.00    -0.268 OA
ATOM     15  C   UNL A   1      41.264  35.815  35.168  1.00  0.00     0.081 C 
ATOM     16  S   UNL A   1      42.524  35.999  34.021  1.00  0.00    -0.054 SA
ATOM     17  S   UNL A   1      42.592  34.143  31.661  1.00  0.00    -0.052 S 
ATOM     18  C   UNL A   1      41.434  35.862  36.500  1.00  0.00     0.029 C 
BRANCH  18  19
ATOM     19  C   UNL A   1      40.535  35.143  37.415  1.00  0.00    -0.024 A 
ATOM     20  C   UNL A   1      40.471  33.749  37.480  1.00  0.00     0.015 A 
ATOM     21  C   UNL A   1      39.768  35.914  38.307  1.00  0.00     0.015 A 
ATOM     22  C   UNL A   1      39.662  33.128  38.443  1.00  0.00     0.086 A 
ATOM     23  C   UNL A   1      38.970  35.304  39.275  1.00  0.00     0.086 A 
ATOM     24  C   UNL A   1      38.924  33.910  39.344  1.00  0.00     0.269 A 
BRANCH  24  25
ATOM     25  N   UNL A   1      38.100  33.266  40.376  1.00  0.00     0.062 N 
ATOM     26  O   UNL A   1      38.430  33.418  41.560  1.00  0.00    -0.258 OA
ATOM     27  O   UNL A   1      37.127  32.596  39.999  1.00  0.00    -0.258 OA
ENDBRANCH  24  25
ENDBRANCH  18  19
ENDBRANCH   7  11
ENDBRANCH   4   7
ENDBRANCH   2   3
ENDBRANCH   1   2
BRANCH   1  28
ATOM     28  C   UNL A   1      35.595  31.899  31.630  1.00  0.00     0.023 C 
BRANCH  28  29
ATOM     29  C   UNL A   1      35.945  31.849  30.154  1.00  0.00     0.116 C 
BRANCH  29  30
ATOM     30  N   UNL A   1      35.348  30.705  29.470  1.00  0.00    -0.352 N 
ATOM     31  C   UNL A   1      35.962  29.696  28.765  1.00  0.00     0.251 C 
ATOM     32  H   UNL A   1      34.366  30.647  29.520  1.00  0.00     0.163 HD
ATOM     33  O   UNL A   1      35.298  28.894  28.118  1.00  0.00    -0.269 OA
BRANCH  31  34
ATOM     34  C   UNL A   1      37.436  29.621  28.772  1.00  0.00     0.039 A 
ATOM     35  C   UNL A   1      38.088  29.057  29.870  1.00  0.00     0.014 A 
ATOM     36  C   UNL A   1      38.153  30.017  27.642  1.00  0.00     0.014 A 
ATOM     37  C   UNL A   1      39.455  28.787  29.786  1.00  0.00     0.010 A 
ATOM     38  C   UNL A   1      39.486  29.653  27.522  1.00  0.00     0.010 A 
ATOM     39  C   UNL A   1      40.149  29.026  28.588  1.00  0.00    -0.014 A 
BRANCH  39  40
ATOM     40  C   UNL A   1      41.561  28.612  28.401  1.00  0.00     0.031 A 
ATOM     41  C   UNL A   1      42.652  29.644  28.468  1.00  0.00     0.074 A 
ATOM     42  C   UNL A   1      41.847  27.336  28.072  1.00  0.00     0.049 A 
ATOM     43  N   UNL A   1      43.927  29.513  28.209  1.00  0.00    -0.248 NA
ATOM     44  C   UNL A   1      42.250  31.010  28.841  1.00  0.00     0.031 C 
ATOM     45  C   UNL A   1      40.871  26.251  27.942  1.00  0.00     0.029 A 
ATOM     46  N   UNL A   1      43.046  26.739  27.773  1.00  0.00    -0.354 N 
ATOM     47  C   UNL A   1      44.473  30.780  28.370  1.00  0.00     0.074 A 
ATOM     48  C   UNL A   1      43.383  31.676  28.687  1.00  0.00     0.031 C 
ATOM     49  C   UNL A   1      41.514  25.116  27.623  1.00  0.00     0.029 A 
ATOM     50  C   UNL A   1      42.937  25.401  27.472  1.00  0.00     0.049 A 
ATOM     51  H   UNL A   1      43.903  27.222  27.774  1.00  0.00     0.167 HD
ATOM     52  C   UNL A   1      45.770  31.161  28.286  1.00  0.00     0.031 A 
ATOM     53  C   UNL A   1      43.875  24.507  27.103  1.00  0.00     0.031 A 
ATOM     54  C   UNL A   1      46.848  30.264  27.974  1.00  0.00     0.049 A 
ATOM     55  C   UNL A   1      45.302  24.962  26.968  1.00  0.00     0.074 A 
ATOM     56  C   UNL A   1      48.203  30.535  27.913  1.00  0.00     0.029 A 
ATOM     57  N   UNL A   1      46.693  28.920  27.664  1.00  0.00    -0.354 N 
ATOM     58  N   UNL A   1      45.811  26.151  27.185  1.00  0.00    -0.248 NA
ATOM     59  C   UNL A   1      46.282  23.955  26.535  1.00  0.00     0.031 C 
ATOM     60  C   UNL A   1      48.862  29.369  27.512  1.00  0.00     0.029 A 
ATOM     61  C   UNL A   1      47.925  28.356  27.379  1.00  0.00     0.049 A 
ATOM     62  H   UNL A   1      45.835  28.439  27.650  1.00  0.00     0.167 HD
ATOM     63  C   UNL A   1      47.173  26.032  26.935  1.00  0.00     0.074 A 
ATOM     64  C   UNL A   1      47.410  24.651  26.564  1.00  0.00     0.031 C 
ATOM     65  C   UNL A   1      48.140  26.980  27.006  1.00  0.00     0.031 A 
BRANCH  52  66
ATOM     66  C   UNL A   1      46.078  32.616  28.525  1.00  0.00    -0.014 A 
ATOM     67  C   UNL A   1      46.112  33.534  27.460  1.00  0.00     0.010 A 
ATOM     68  C   UNL A   1      46.331  33.073  29.830  1.00  0.00     0.010 A 
ATOM     69  C   UNL A   1      46.454  34.869  27.686  1.00  0.00     0.020 A 
ATOM     70  C   UNL A   1      46.643  34.416  30.066  1.00  0.00     0.020 A 
ATOM     71  C   UNL A   1      46.725  35.300  28.988  1.00  0.00     0.054 A 
BRANCH  71  72
ATOM     72  S   UNL A   1      47.173  37.037  29.251  1.00  0.00     0.124 S 
ATOM     73  O   UNL A   1      47.893  36.972  30.521  1.00  0.00    -0.237 OA
ATOM     74  O   UNL A   1      47.993  37.338  28.081  1.00  0.00    -0.237 OA
ATOM     75  O   UNL A   1      45.885  37.725  29.299  1.00  0.00    -0.744 OA
ENDBRANCH  71  72
ENDBRANCH  52  66
BRANCH  53  76
ATOM     76  C   UNL A   1      43.494  23.090  26.851  1.00  0.00    -0.014 A 
ATOM     77  C   UNL A   1      43.621  22.543  25.562  1.00  0.00     0.010 A 
ATOM     78  C   UNL A   1      43.031  22.272  27.899  1.00  0.00     0.010 A 
ATOM     79  C   UNL A   1      43.287  21.206  25.323  1.00  0.00     0.020 A 
ATOM     80  C   UNL A   1      42.720  20.928  27.669  1.00  0.00     0.020 A 
ATOM     81  C   UNL A   1      42.843  20.406  26.379  1.00  0.00     0.054 A 
BRANCH  81  82
ATOM     82  S   UNL A   1      42.478  18.657  26.055  1.00  0.00     0.124 S 
ATOM     83  O   UNL A   1      42.771  18.042  27.345  1.00  0.00    -0.237 OA
ATOM     84  O   UNL A   1      41.069  18.697  25.676  1.00  0.00    -0.237 OA
ATOM     85  O   UNL A   1      43.397  18.312  24.973  1.00  0.00    -0.744 OA
ENDBRANCH  81  82
ENDBRANCH  53  76
BRANCH  65  86
ATOM     86  C   UNL A   1      49.549  26.561  26.690  1.00  0.00    -0.014 A 
ATOM     87  C   UNL A   1      50.407  26.088  27.698  1.00  0.00     0.010 A 
ATOM     88  C   UNL A   1      49.990  26.558  25.353  1.00  0.00     0.010 A 
ATOM     89  C   UNL A   1      51.686  25.629  27.375  1.00  0.00     0.020 A 
ATOM     90  C   UNL A   1      51.259  26.074  25.025  1.00  0.00     0.020 A 
ATOM     91  C   UNL A   1      52.101  25.617  26.039  1.00  0.00     0.054 A 
BRANCH  91  92
ATOM     92  S   UNL A   1      53.736  24.940  25.641  1.00  0.00     0.124 S 
ATOM     93  O   UNL A   1      53.415  23.565  25.269  1.00  0.00    -0.237 OA
ATOM     94  O   UNL A   1      54.180  25.800  24.548  1.00  0.00    -0.237 OA
ATOM     95  O   UNL A   1      54.486  25.089  26.886  1.00  0.00    -0.744 OA
ENDBRANCH  91  92
ENDBRANCH  65  86
ENDBRANCH  39  40
ENDBRANCH  31  34
ENDBRANCH  29  30
ENDBRANCH  28  29
ENDBRANCH   1  28
TORSDOF 18
ENDMDL
MODEL 2
REMARK VINA RESULT:      -9.1      2.214      3.996
REMARK SMILES CC(C)[C@@H](C(=O)NCCCCNC(=O)c1ccc(-c2c3nc(c(-c4ccc(S(=O)(=O)[O-])cc4)c4ccc([nH]4)c(-c4ccc(S(=O)(=O)[O-])cc4)c4nc(c(-c5ccc(S(=O)(=O)[O-])cc5)c5ccc2[nH]5)C=C4)C=C3)cc1)N1C(=O)/C(=C\c2ccc([N+](=O)[O-])cc2)SC1=S
REMARK SMILES IDX 9 1 8 2 7 3 5 4 6 5 4 7 2 8 1 9 3 10 75 11 76 12 90 13 77 14
REMARK SMILES IDX 78 15 89 16 91 17 79 18 80 19 81 20 88 21 82 22 87 23 83 24
REMARK SMILES IDX 84 25 85 26 86 27 10 28 11 29 12 30 13 31 14 33 15 34 16 35
REMARK SMILES IDX 74 36 17 37 73 38 18 39 19 40 20 41 67 42 21 43 72 44 66 45
REMARK SMILES IDX 68 46 22 47 71 48 65 49 64 50 23 52 53 53 34 54 52 55 35 56
REMARK SMILES IDX 38 57 51 58 69 59 36 60 37 61 50 63 70 64 39 65 24 66 25 67
REMARK SMILES IDX 33 68 26 69 32 70 27 71 28 72 29 73 30 74 31 75 54 76 55 77
REMARK SMILES IDX 63 78 56 79 62 80 57 81 58 82 59 83 60 84 61 85 40 86 41 87
REMARK SMILES IDX 49 88 42 89 48 90 43 91 44 92 45 93 46 94 47 95
REMARK H PARENT 7 6 12 32 68 51 38 62
REMARK Flexibility Score: inf
ROOT
ATOM      1  C   UNL A   1      36.808  32.340  32.638  1.00  0.00     0.023 C 
ENDROOT
BRANCH   1   2
ATOM      2  C   UNL A   1      37.424  33.739  32.769  1.00  0.00     0.116 C 
BRANCH   2   3
ATOM      3  N   UNL A   1      38.529  33.902  31.835  1.00  0.00    -0.354 N 
ATOM      4  C   UNL A   1      39.865  34.109  32.054  1.00  0.00     0.243 C 
ATOM      5  O   UNL A   1      40.577  34.336  31.073  1.00  0.00    -0.273 OA
ATOM      6  H   UNL A   1      38.273  33.855  30.886  1.00  0.00     0.163 HD
BRANCH   4   7
ATOM      7  C   UNL A   1      40.458  33.977  33.478  1.00  0.00     0.184 C 
BRANCH   7   8
ATOM      8  C   UNL A   1      41.978  34.318  33.608  1.00  0.00     0.015 C 
ATOM      9  C   UNL A   1      42.377  35.782  33.525  1.00  0.00     0.010 C 
ATOM     10  C   UNL A   1      42.539  33.744  34.912  1.00  0.00     0.010 C 
ENDBRANCH   7   8
BRANCH   7  11
ATOM     11  N   UNL A   1      40.104  32.598  33.969  1.00  0.00    -0.280 N 
ATOM     12  C   UNL A   1      40.329  31.466  33.207  1.00  0.00     0.266 C 
ATOM     13  C   UNL A   1      39.420  32.355  35.152  1.00  0.00     0.149 C 
ATOM     14  O   UNL A   1      40.602  31.379  32.018  1.00  0.00    -0.268 OA
ATOM     15  C   UNL A   1      40.188  30.257  34.052  1.00  0.00     0.081 C 
ATOM     16  S   UNL A   1      39.110  30.614  35.335  1.00  0.00    -0.054 SA
ATOM     17  S   UNL A   1      38.957  33.443  36.330  1.00  0.00    -0.052 S 
ATOM     18  C   UNL A   1      40.988  29.179  34.007  1.00  0.00     0.029 C 
BRANCH  18  19
ATOM     19  C   UNL A   1      42.259  29.195  33.265  1.00  0.00    -0.024 A 
ATOM     20  C   UNL A   1      43.352  29.978  33.646  1.00  0.00     0.015 A 
ATOM     21  C   UNL A   1      42.380  28.320  32.172  1.00  0.00     0.015 A 
ATOM     22  C   UNL A   1      44.566  29.873  32.951  1.00  0.00     0.086 A 
ATOM     23  C   UNL A   1      43.588  28.201  31.483  1.00  0.00     0.086 A 
ATOM     24  C   UNL A   1      44.681  28.975  31.879  1.00  0.00     0.269 A 
BRANCH  24  25
ATOM     25  N   UNL A   1      45.958  28.837  31.167  1.00  0.00     0.062 N 
ATOM     26  O   UNL A   1      46.826  29.699  31.360  1.00  0.00    -0.258 OA
ATOM     27  O   UNL A   1      46.088  27.869  30.402  1.00  0.00    -0.258 OA
ENDBRANCH  24  25
ENDBRANCH  18  19
ENDBRANCH   7  11
ENDBRANCH   4   7
ENDBRANCH   2   3
ENDBRANCH   1   2
BRANCH   1  28
ATOM     28  C   UNL A   1      35.626  32.254  31.683  1.00  0.00     0.023 C 
BRANCH  28  29
ATOM     29  C   UNL A   1      36.027  32.032  30.236  1.00  0.00     0.116 C 
BRANCH  29  30
ATOM     30  N   UNL A   1      35.407  30.844  29.654  1.00  0.00    -0.352 N 
ATOM     31  C   UNL A   1      35.995  29.797  28.982  1.00  0.00     0.251 C 
ATOM     32  H   UNL A   1      34.429  30.783  29.757  1.00  0.00     0.163 HD
ATOM     33  O   UNL A   1      35.307  28.953  28.420  1.00  0.00    -0.269 OA
BRANCH  31  34
ATOM     34  C   UNL A   1      37.467  29.733  28.920  1.00  0.00     0.039 A 
ATOM     35  C   UNL A   1      38.183  29.310  30.041  1.00  0.00     0.014 A 
ATOM     36  C   UNL A   1      38.120  29.993  27.713  1.00  0.00     0.014 A 
ATOM     37  C   UNL A   1      39.547  29.040  29.918  1.00  0.00     0.010 A 
ATOM     38  C   UNL A   1      39.449  29.624  27.567  1.00  0.00     0.010 A 
ATOM     39  C   UNL A   1      40.174  29.135  28.664  1.00  0.00    -0.014 A 
BRANCH  39  40
ATOM     40  C   UNL A   1      41.579  28.710  28.454  1.00  0.00     0.031 A 
ATOM     41  C   UNL A   1      42.680  29.734  28.501  1.00  0.00     0.074 A 
ATOM     42  C   UNL A   1      41.850  27.432  28.121  1.00  0.00     0.049 A 
ATOM     43  N   UNL A   1      43.949  29.592  28.220  1.00  0.00    -0.248 NA
ATOM     44  C   UNL A   1      42.295  31.103  28.880  1.00  0.00     0.031 C 
ATOM     45  C   UNL A   1      40.863  26.354  28.008  1.00  0.00     0.029 A 
ATOM     46  N   UNL A   1      43.038  26.825  27.802  1.00  0.00    -0.354 N 
ATOM     47  C   UNL A   1      44.508  30.855  28.371  1.00  0.00     0.074 A 
ATOM     48  C   UNL A   1      43.431  31.760  28.706  1.00  0.00     0.031 C 
ATOM     49  C   UNL A   1      41.491  25.214  27.680  1.00  0.00     0.029 A 
ATOM     50  C   UNL A   1      42.914  25.487  27.504  1.00  0.00     0.049 A 
ATOM     51  H   UNL A   1      43.899  27.302  27.788  1.00  0.00     0.167 HD
ATOM     52  C   UNL A   1      45.806  31.226  28.264  1.00  0.00     0.031 A 
ATOM     53  C   UNL A   1      43.838  24.586  27.120  1.00  0.00     0.031 A 
ATOM     54  C   UNL A   1      46.872  30.320  27.935  1.00  0.00     0.049 A 
ATOM     55  C   UNL A   1      45.266  25.029  26.960  1.00  0.00     0.074 A 
ATOM     56  C   UNL A   1      48.227  30.580  27.851  1.00  0.00     0.029 A 
ATOM     57  N   UNL A   1      46.701  28.977  27.629  1.00  0.00    -0.354 N 
ATOM     58  N   UNL A   1      45.788  26.214  27.167  1.00  0.00    -0.248 NA
ATOM     59  C   UNL A   1      46.230  24.015  26.511  1.00  0.00     0.031 C 
ATOM     60  C   UNL A   1      48.870  29.408  27.439  1.00  0.00     0.029 A 
ATOM     61  C   UNL A   1      47.923  28.402  27.323  1.00  0.00     0.049 A 
ATOM     62  H   UNL A   1      45.838  28.502  27.630  1.00  0.00     0.167 HD
ATOM     63  C   UNL A   1      47.145  26.085  26.894  1.00  0.00     0.074 A 
ATOM     64  C   UNL A   1      47.365  24.702  26.520  1.00  0.00     0.031 C 
ATOM     65  C   UNL A   1      48.120  27.025  26.948  1.00  0.00     0.031 A 
BRANCH  52  66
ATOM     66  C   UNL A   1      46.129  32.678  28.498  1.00  0.00    -0.014 A 
ATOM     67  C   UNL A   1      46.399  33.542  27.421  1.00  0.00     0.010 A 
ATOM     68  C   UNL A   1      46.161  33.188  29.807  1.00  0.00     0.010 A 
ATOM     69  C   UNL A   1      46.753  34.874  27.652  1.00  0.00     0.020 A 
ATOM     70  C   UNL A   1      46.484  34.528  30.042  1.00  0.00     0.020 A 
ATOM     71  C   UNL A   1      46.800  35.356  28.963  1.00  0.00     0.054 A 
BRANCH  71  72
ATOM     72  S   UNL A   1      47.270  37.086  29.233  1.00  0.00     0.124 S 
ATOM     73  O   UNL A   1      47.867  37.439  27.947  1.00  0.00    -0.237 OA
ATOM     74  O   UNL A   1      45.989  37.724  29.526  1.00  0.00    -0.237 OA
ATOM     75  O   UNL A   1      48.201  37.022  30.357  1.00  0.00    -0.744 OA
ENDBRANCH  71  72
ENDBRANCH  52  66
BRANCH  53  76
ATOM     76  C   UNL A   1      43.441  23.172  26.875  1.00  0.00    -0.014 A 
ATOM     77  C   UNL A   1      43.495  22.638  25.576  1.00  0.00     0.010 A 
ATOM     78  C   UNL A   1      43.037  22.344  27.939  1.00  0.00     0.010 A 
ATOM     79  C   UNL A   1      43.146  21.304  25.342  1.00  0.00     0.020 A 
ATOM     80  C   UNL A   1      42.712  21.002  27.713  1.00  0.00     0.020 A 
ATOM     81  C   UNL A   1      42.762  20.493  26.414  1.00  0.00     0.054 A 
BRANCH  81  82
ATOM     82  S   UNL A   1      42.377  18.749  26.093  1.00  0.00     0.124 S 
ATOM     83  O   UNL A   1      43.335  18.414  25.044  1.00  0.00    -0.237 OA
ATOM     84  O   UNL A   1      42.619  18.130  27.393  1.00  0.00    -0.237 OA
ATOM     85  O   UNL A   1      40.977  18.778  25.676  1.00  0.00    -0.744 OA
ENDBRANCH  81  82
ENDBRANCH  53  76
BRANCH  65  86
ATOM     86  C   UNL A   1      49.521  26.594  26.608  1.00  0.00    -0.014 A 
ATOM     87  C   UNL A   1      50.336  25.965  27.564  1.00  0.00     0.010 A 
ATOM     88  C   UNL A   1      49.993  26.744  25.290  1.00  0.00     0.010 A 
ATOM     89  C   UNL A   1      51.606  25.500  27.210  1.00  0.00     0.020 A 
ATOM     90  C   UNL A   1      51.251  26.256  24.927  1.00  0.00     0.020 A 
ATOM     91  C   UNL A   1      52.051  25.641  25.892  1.00  0.00     0.054 A 
BRANCH  91  92
ATOM     92  S   UNL A   1      53.670  24.957  25.442  1.00  0.00     0.124 S 
ATOM     93  O   UNL A   1      54.487  25.322  26.596  1.00  0.00    -0.237 OA
ATOM     94  O   UNL A   1      53.385  23.531  25.300  1.00  0.00    -0.237 OA
ATOM     95  O   UNL A   1      54.004  25.645  24.198  1.00  0.00    -0.744 OA
ENDBRANCH  91  92
ENDBRANCH  65  86
ENDBRANCH  39  40
ENDBRANCH  31  34
ENDBRANCH  29  30
ENDBRANCH  28  29
ENDBRANCH   1  28
TORSDOF 18
ENDMDL
MODEL 3
REMARK VINA RESULT:      -8.9      5.721     12.395
REMARK SMILES CC(C)[C@@H](C(=O)NCCCCNC(=O)c1ccc(-c2c3nc(c(-c4ccc(S(=O)(=O)[O-])cc4)c4ccc([nH]4)c(-c4ccc(S(=O)(=O)[O-])cc4)c4nc(c(-c5ccc(S(=O)(=O)[O-])cc5)c5ccc2[nH]5)C=C4)C=C3)cc1)N1C(=O)/C(=C\c2ccc([N+](=O)[O-])cc2)SC1=S
REMARK SMILES IDX 9 1 8 2 7 3 5 4 6 5 4 7 2 8 1 9 3 10 75 11 76 12 90 13 77 14
REMARK SMILES IDX 78 15 89 16 91 17 79 18 80 19 81 20 88 21 82 22 87 23 83 24
REMARK SMILES IDX 84 25 85 26 86 27 10 28 11 29 12 30 13 31 14 33 15 34 16 35
REMARK SMILES IDX 74 36 17 37 73 38 18 39 19 40 20 41 67 42 21 43 72 44 66 45
REMARK SMILES IDX 68 46 22 47 71 48 65 49 64 50 23 52 53 53 34 54 52 55 35 56
REMARK SMILES IDX 38 57 51 58 69 59 36 60 37 61 50 63 70 64 39 65 24 66 25 67
REMARK SMILES IDX 33 68 26 69 32 70 27 71 28 72 29 73 30 74 31 75 54 76 55 77
REMARK SMILES IDX 63 78 56 79 62 80 57 81 58 82 59 83 60 84 61 85 40 86 41 87
REMARK SMILES IDX 49 88 42 89 48 90 43 91 44 92 45 93 46 94 47 95
REMARK H PARENT 7 6 12 32 68 51 38 62
REMARK Flexibility Score: inf
ROOT
ATOM      1  C   UNL A   1      47.758  40.238  27.524  1.00  0.00     0.023 C 
ENDROOT
BRANCH   1   2
ATOM      2  C   UNL A   1      48.010  41.751  27.505  1.00  0.00     0.116 C 
BRANCH   2   3
ATOM      3  N   UNL A   1      46.774  42.480  27.749  1.00  0.00    -0.354 N 
ATOM      4  C   UNL A   1      45.740  42.799  26.909  1.00  0.00     0.243 C 
ATOM      5  O   UNL A   1      44.855  43.538  27.347  1.00  0.00    -0.273 OA
ATOM      6  H   UNL A   1      46.662  42.798  28.674  1.00  0.00     0.163 HD
BRANCH   4   7
ATOM      7  C   UNL A   1      45.657  42.178  25.493  1.00  0.00     0.184 C 
BRANCH   7   8
ATOM      8  C   UNL A   1      46.347  43.000  24.358  1.00  0.00     0.015 C 
ATOM      9  C   UNL A   1      47.417  44.000  24.766  1.00  0.00     0.010 C 
ATOM     10  C   UNL A   1      46.952  42.055  23.314  1.00  0.00     0.010 C 
ENDBRANCH   7   8
BRANCH   7  11
ATOM     11  N   UNL A   1      44.202  41.887  25.231  1.00  0.00    -0.280 N 
ATOM     12  C   UNL A   1      43.401  42.749  24.502  1.00  0.00     0.266 C 
ATOM     13  C   UNL A   1      43.519  40.817  25.789  1.00  0.00     0.149 C 
ATOM     14  O   UNL A   1      43.616  43.906  24.170  1.00  0.00    -0.268 OA
ATOM     15  C   UNL A   1      42.137  42.068  24.137  1.00  0.00     0.081 C 
ATOM     16  S   UNL A   1      41.806  40.868  25.316  1.00  0.00    -0.054 SA
ATOM     17  S   UNL A   1      44.118  39.574  26.729  1.00  0.00    -0.052 S 
ATOM     18  C   UNL A   1      41.523  42.155  22.946  1.00  0.00     0.029 C 
BRANCH  18  19
ATOM     19  C   UNL A   1      42.188  42.756  21.780  1.00  0.00    -0.024 A 
ATOM     20  C   UNL A   1      41.559  43.675  20.936  1.00  0.00     0.015 A 
ATOM     21  C   UNL A   1      43.540  42.433  21.569  1.00  0.00     0.015 A 
ATOM     22  C   UNL A   1      42.282  44.282  19.898  1.00  0.00     0.086 A 
ATOM     23  C   UNL A   1      44.269  43.042  20.547  1.00  0.00     0.086 A 
ATOM     24  C   UNL A   1      43.637  43.971  19.717  1.00  0.00     0.269 A 
BRANCH  24  25
ATOM     25  N   UNL A   1      44.409  44.627  18.652  1.00  0.00     0.062 N 
ATOM     26  O   UNL A   1      45.124  45.589  18.964  1.00  0.00    -0.258 OA
ATOM     27  O   UNL A   1      44.287  44.187  17.499  1.00  0.00    -0.258 OA
ENDBRANCH  24  25
ENDBRANCH  18  19
ENDBRANCH   7  11
ENDBRANCH   4   7
ENDBRANCH   2   3
ENDBRANCH   1   2
BRANCH   1  28
ATOM     28  C   UNL A   1      47.008  39.735  28.749  1.00  0.00     0.023 C 
BRANCH  28  29
ATOM     29  C   UNL A   1      47.312  38.290  29.099  1.00  0.00     0.116 C 
BRANCH  29  30
ATOM     30  N   UNL A   1      48.701  37.924  28.830  1.00  0.00    -0.352 N 
ATOM     31  C   UNL A   1      49.261  36.674  28.697  1.00  0.00     0.251 C 
ATOM     32  H   UNL A   1      49.325  38.679  28.730  1.00  0.00     0.163 HD
ATOM     33  O   UNL A   1      50.477  36.541  28.627  1.00  0.00    -0.269 OA
BRANCH  31  34
ATOM     34  C   UNL A   1      48.372  35.498  28.679  1.00  0.00     0.039 A 
ATOM     35  C   UNL A   1      47.698  35.165  27.502  1.00  0.00     0.014 A 
ATOM     36  C   UNL A   1      48.294  34.672  29.803  1.00  0.00     0.014 A 
ATOM     37  C   UNL A   1      47.035  33.940  27.419  1.00  0.00     0.010 A 
ATOM     38  C   UNL A   1      47.726  33.413  29.681  1.00  0.00     0.010 A 
ATOM     39  C   UNL A   1      47.099  33.029  28.486  1.00  0.00    -0.014 A 
BRANCH  39  40
ATOM     40  C   UNL A   1      46.543  31.658  28.384  1.00  0.00     0.031 A 
ATOM     41  C   UNL A   1      47.360  30.571  27.743  1.00  0.00     0.074 A 
ATOM     42  C   UNL A   1      45.274  31.419  28.772  1.00  0.00     0.049 A 
ATOM     43  N   UNL A   1      47.013  29.347  27.444  1.00  0.00    -0.248 NA
ATOM     44  C   UNL A   1      48.738  30.919  27.356  1.00  0.00     0.031 C 
ATOM     45  C   UNL A   1      44.369  32.401  29.375  1.00  0.00     0.029 A 
ATOM     46  N   UNL A   1      44.520  30.275  28.704  1.00  0.00    -0.354 N 
ATOM     47  C   UNL A   1      48.119  28.786  26.819  1.00  0.00     0.074 A 
ATOM     48  C   UNL A   1      49.126  29.821  26.726  1.00  0.00     0.031 C 
ATOM     49  C   UNL A   1      43.196  31.808  29.652  1.00  0.00     0.029 A 
ATOM     50  C   UNL A   1      43.244  30.422  29.197  1.00  0.00     0.049 A 
ATOM     51  H   UNL A   1      44.860  29.427  28.335  1.00  0.00     0.167 HD
ATOM     52  C   UNL A   1      48.294  27.516  26.383  1.00  0.00     0.031 A 
ATOM     53  C   UNL A   1      42.224  29.546  29.264  1.00  0.00     0.031 A 
ATOM     54  C   UNL A   1      47.291  26.492  26.482  1.00  0.00     0.049 A 
ATOM     55  C   UNL A   1      42.422  28.154  28.729  1.00  0.00     0.074 A 
ATOM     56  C   UNL A   1      47.381  25.161  26.117  1.00  0.00     0.029 A 
ATOM     57  N   UNL A   1      46.009  26.687  26.977  1.00  0.00    -0.354 N 
ATOM     58  N   UNL A   1      43.497  27.622  28.198  1.00  0.00    -0.248 NA
ATOM     59  C   UNL A   1      41.270  27.245  28.799  1.00  0.00     0.031 C 
ATOM     60  C   UNL A   1      46.136  24.564  26.340  1.00  0.00     0.029 A 
ATOM     61  C   UNL A   1      45.287  25.508  26.897  1.00  0.00     0.049 A 
ATOM     62  H   UNL A   1      45.664  27.537  27.332  1.00  0.00     0.167 HD
ATOM     63  C   UNL A   1      43.158  26.311  27.889  1.00  0.00     0.074 A 
ATOM     64  C   UNL A   1      41.782  26.125  28.306  1.00  0.00     0.031 C 
ATOM     65  C   UNL A   1      43.917  25.346  27.313  1.00  0.00     0.031 A 
BRANCH  52  66
ATOM     66  C   UNL A   1      49.619  27.180  25.750  1.00  0.00    -0.014 A 
ATOM     67  C   UNL A   1      50.685  26.683  26.523  1.00  0.00     0.010 A 
ATOM     68  C   UNL A   1      49.802  27.359  24.368  1.00  0.00     0.010 A 
ATOM     69  C   UNL A   1      51.927  26.428  25.936  1.00  0.00     0.020 A 
ATOM     70  C   UNL A   1      51.034  27.074  23.771  1.00  0.00     0.020 A 
ATOM     71  C   UNL A   1      52.095  26.633  24.564  1.00  0.00     0.054 A 
BRANCH  71  72
ATOM     72  S   UNL A   1      53.719  26.301  23.831  1.00  0.00     0.124 S 
ATOM     73  O   UNL A   1      54.157  25.131  24.589  1.00  0.00    -0.237 OA
ATOM     74  O   UNL A   1      53.394  26.053  22.428  1.00  0.00    -0.237 OA
ATOM     75  O   UNL A   1      54.473  27.526  24.084  1.00  0.00    -0.744 OA
ENDBRANCH  71  72
ENDBRANCH  52  66
BRANCH  53  76
ATOM     76  C   UNL A   1      40.930  29.956  29.874  1.00  0.00    -0.014 A 
ATOM     77  C   UNL A   1      39.878  30.414  29.061  1.00  0.00     0.010 A 
ATOM     78  C   UNL A   1      40.728  29.865  31.264  1.00  0.00     0.010 A 
ATOM     79  C   UNL A   1      38.652  30.779  29.625  1.00  0.00     0.020 A 
ATOM     80  C   UNL A   1      39.495  30.204  31.829  1.00  0.00     0.020 A 
ATOM     81  C   UNL A   1      38.466  30.667  31.005  1.00  0.00     0.054 A 
BRANCH  81  82
ATOM     82  S   UNL A   1      36.844  31.085  31.704  1.00  0.00     0.124 S 
ATOM     83  O   UNL A   1      36.488  29.855  32.403  1.00  0.00    -0.237 OA
ATOM     84  O   UNL A   1      37.155  32.230  32.555  1.00  0.00    -0.237 OA
ATOM     85  O   UNL A   1      36.034  31.394  30.528  1.00  0.00    -0.744 OA
ENDBRANCH  81  82
ENDBRANCH  53  76
BRANCH  65  86
ATOM     86  C   UNL A   1      43.286  23.996  27.107  1.00  0.00    -0.014 A 
ATOM     87  C   UNL A   1      42.866  23.580  25.832  1.00  0.00     0.010 A 
ATOM     88  C   UNL A   1      43.194  23.099  28.188  1.00  0.00     0.010 A 
ATOM     89  C   UNL A   1      42.355  22.294  25.643  1.00  0.00     0.020 A 
ATOM     90  C   UNL A   1      42.709  21.803  27.996  1.00  0.00     0.020 A 
ATOM     91  C   UNL A   1      42.288  21.411  26.725  1.00  0.00     0.054 A 
BRANCH  91  92
ATOM     92  S   UNL A   1      41.696  19.721  26.434  1.00  0.00     0.124 S 
ATOM     93  O   UNL A   1      42.085  19.044  27.668  1.00  0.00    -0.237 OA
ATOM     94  O   UNL A   1      40.260  19.913  26.248  1.00  0.00    -0.237 OA
ATOM     95  O   UNL A   1      42.421  19.300  25.237  1.00  0.00    -0.744 OA
ENDBRANCH  91  92
ENDBRANCH  65  86
ENDBRANCH  39  40
ENDBRANCH  31  34
ENDBRANCH  29  30
ENDBRANCH  28  29
ENDBRANCH   1  28
TORSDOF 18
ENDMDL
