MODEL 1
REMARK VINA RESULT:     -11.3      0.000      0.000
REMARK SMILES C[C@H]([C@@H](C)C(=O)NCCCCNC(=O)c1ccc(-c2c3nc(c(-c4ccc(S(=O)(=O)[O-])cc4)c4ccc([nH]4)c(-c4ccc(S(=O)(=O)[O-])cc4)c4nc(c(-c5ccc(S(=O)(=O)[O-])cc5)c5ccc2[nH]5)C=C4)C=C3)cc1)[S@@](=O)c1ccc2ccccc2c1
REMARK SMILES IDX 9 1 8 2 7 3 5 4 6 5 3 7 4 8 2 9 1 10 75 11 76 12 77 13 78 14
REMARK SMILES IDX 86 15 79 16 85 17 80 18 84 19 81 20 83 21 82 22 10 23 11 24
REMARK SMILES IDX 12 25 13 26 14 28 15 29 16 30 74 31 17 32 73 33 18 34 19 35
REMARK SMILES IDX 20 36 67 37 21 38 72 39 66 40 68 41 22 42 71 43 65 44 64 45
REMARK SMILES IDX 23 47 53 48 34 49 52 50 35 51 38 52 51 53 69 54 36 55 37 56
REMARK SMILES IDX 50 58 70 59 39 60 24 61 25 62 33 63 26 64 32 65 27 66 28 67
REMARK SMILES IDX 29 68 30 69 31 70 54 71 55 72 63 73 56 74 62 75 57 76 58 77
REMARK SMILES IDX 59 78 60 79 61 80 40 81 41 82 49 83 42 84 48 85 43 86 44 87
REMARK SMILES IDX 45 88 46 89 47 90
REMARK H PARENT 7 6 12 27 68 46 38 57
REMARK Flexibility Score: inf
ROOT
ATOM      1  C   UNL A   1      32.806  29.339  24.883  1.00  0.00     0.023 C 
ENDROOT
BRANCH   1   2
ATOM      2  C   UNL A   1      31.484  28.765  24.378  1.00  0.00     0.116 C 
BRANCH   2   3
ATOM      3  N   UNL A   1      31.664  28.039  23.140  1.00  0.00    -0.356 N 
ATOM      4  C   UNL A   1      31.280  26.793  22.769  1.00  0.00     0.224 C 
ATOM      5  O   UNL A   1      31.651  26.391  21.662  1.00  0.00    -0.275 OA
ATOM      6  H   UNL A   1      32.152  28.537  22.445  1.00  0.00     0.163 HD
BRANCH   4   7
ATOM      7  C   UNL A   1      30.402  25.893  23.640  1.00  0.00     0.091 C 
ATOM      8  C   UNL A   1      29.036  26.533  23.893  1.00  0.00     0.019 C 
BRANCH   7   9
ATOM      9  C   UNL A   1      31.159  25.301  24.856  1.00  0.00     0.093 C 
ATOM     10  C   UNL A   1      30.599  25.589  26.252  1.00  0.00     0.023 C 
BRANCH   9  11
ATOM     11  S   UNL A   1      31.451  23.467  24.631  1.00  0.00     0.057 S 
ATOM     12  O   UNL A   1      31.264  23.155  23.175  1.00  0.00    -0.254 OA
BRANCH  11  13
ATOM     13  C   UNL A   1      33.229  23.377  24.916  1.00  0.00     0.040 A 
ATOM     14  C   UNL A   1      33.926  24.558  25.181  1.00  0.00     0.018 A 
ATOM     15  C   UNL A   1      33.920  22.162  24.894  1.00  0.00     0.026 A 
ATOM     16  C   UNL A   1      35.305  24.528  25.391  1.00  0.00     0.010 A 
ATOM     17  C   UNL A   1      35.314  22.122  25.049  1.00  0.00    -0.017 A 
ATOM     18  C   UNL A   1      36.015  23.320  25.314  1.00  0.00    -0.018 A 
ATOM     19  C   UNL A   1      36.026  20.918  24.935  1.00  0.00     0.009 A 
ATOM     20  C   UNL A   1      37.406  23.275  25.493  1.00  0.00     0.009 A 
ATOM     21  C   UNL A   1      37.412  20.894  25.092  1.00  0.00     0.001 A 
ATOM     22  C   UNL A   1      38.100  22.069  25.380  1.00  0.00     0.001 A 
ENDBRANCH  11  13
ENDBRANCH   9  11
ENDBRANCH   7   9
ENDBRANCH   4   7
ENDBRANCH   2   3
ENDBRANCH   1   2
BRANCH   1  23
ATOM     23  C   UNL A   1      33.633  28.368  25.724  1.00  0.00     0.023 C 
BRANCH  23  24
ATOM     24  C   UNL A   1      33.574  28.618  27.226  1.00  0.00     0.116 C 
BRANCH  24  25
ATOM     25  N   UNL A   1      33.560  30.032  27.583  1.00  0.00    -0.352 N 
ATOM     26  C   UNL A   1      34.585  30.767  28.132  1.00  0.00     0.251 C 
ATOM     27  H   UNL A   1      32.720  30.515  27.414  1.00  0.00     0.163 HD
ATOM     28  O   UNL A   1      34.417  31.933  28.470  1.00  0.00    -0.269 OA
BRANCH  26  29
ATOM     29  C   UNL A   1      35.882  30.096  28.341  1.00  0.00     0.039 A 
ATOM     30  C   UNL A   1      36.822  30.096  27.307  1.00  0.00     0.014 A 
ATOM     31  C   UNL A   1      36.196  29.577  29.599  1.00  0.00     0.014 A 
ATOM     32  C   UNL A   1      38.115  29.639  27.562  1.00  0.00     0.010 A 
ATOM     33  C   UNL A   1      37.501  29.191  29.866  1.00  0.00     0.010 A 
ATOM     34  C   UNL A   1      38.474  29.222  28.853  1.00  0.00    -0.014 A 
BRANCH  34  35
ATOM     35  C   UNL A   1      39.856  28.802  29.190  1.00  0.00     0.031 A 
ATOM     36  C   UNL A   1      40.803  29.804  29.786  1.00  0.00     0.074 A 
ATOM     37  C   UNL A   1      40.289  27.572  28.852  1.00  0.00     0.049 A 
ATOM     38  N   UNL A   1      42.091  29.705  29.987  1.00  0.00    -0.248 NA
ATOM     39  C   UNL A   1      40.229  31.105  30.167  1.00  0.00     0.031 C 
ATOM     40  C   UNL A   1      39.477  26.523  28.234  1.00  0.00     0.029 A 
ATOM     41  N   UNL A   1      41.537  27.007  28.958  1.00  0.00    -0.354 N 
ATOM     42  C   UNL A   1      42.488  30.945  30.476  1.00  0.00     0.074 A 
ATOM     43  C   UNL A   1      41.312  31.787  30.505  1.00  0.00     0.031 C 
ATOM     44  C   UNL A   1      40.243  25.439  28.024  1.00  0.00     0.029 A 
ATOM     45  C   UNL A   1      41.609  25.733  28.449  1.00  0.00     0.049 A 
ATOM     46  H   UNL A   1      42.306  27.471  29.360  1.00  0.00     0.167 HD
ATOM     47  C   UNL A   1      43.719  31.341  30.877  1.00  0.00     0.031 A 
ATOM     48  C   UNL A   1      42.660  24.899  28.321  1.00  0.00     0.031 A 
ATOM     49  C   UNL A   1      44.877  30.492  30.868  1.00  0.00     0.049 A 
ATOM     50  C   UNL A   1      44.014  25.348  28.796  1.00  0.00     0.074 A 
ATOM     51  C   UNL A   1      46.157  30.776  31.309  1.00  0.00     0.029 A 
ATOM     52  N   UNL A   1      44.895  29.186  30.397  1.00  0.00    -0.354 N 
ATOM     53  N   UNL A   1      44.364  26.506  29.301  1.00  0.00    -0.248 NA
ATOM     54  C   UNL A   1      45.111  24.376  28.693  1.00  0.00     0.031 C 
ATOM     55  C   UNL A   1      46.958  29.654  31.069  1.00  0.00     0.029 A 
ATOM     56  C   UNL A   1      46.166  28.655  30.526  1.00  0.00     0.049 A 
ATOM     57  H   UNL A   1      44.118  28.710  30.025  1.00  0.00     0.167 HD
ATOM     58  C   UNL A   1      45.716  26.393  29.606  1.00  0.00     0.074 A 
ATOM     59  C   UNL A   1      46.119  25.053  29.229  1.00  0.00     0.031 C 
ATOM     60  C   UNL A   1      46.545  27.315  30.155  1.00  0.00     0.031 A 
BRANCH  47  61
ATOM     61  C   UNL A   1      43.864  32.769  31.335  1.00  0.00    -0.014 A 
ATOM     62  C   UNL A   1      43.481  33.160  32.631  1.00  0.00     0.010 A 
ATOM     63  C   UNL A   1      44.375  33.734  30.450  1.00  0.00     0.010 A 
ATOM     64  C   UNL A   1      43.542  34.503  33.011  1.00  0.00     0.020 A 
ATOM     65  C   UNL A   1      44.467  35.075  30.838  1.00  0.00     0.020 A 
ATOM     66  C   UNL A   1      44.022  35.454  32.106  1.00  0.00     0.054 A 
BRANCH  66  67
ATOM     67  S   UNL A   1      44.070  37.194  32.612  1.00  0.00     0.124 S 
ATOM     68  O   UNL A   1      45.439  37.323  33.108  1.00  0.00    -0.237 OA
ATOM     69  O   UNL A   1      43.787  37.902  31.365  1.00  0.00    -0.237 OA
ATOM     70  O   UNL A   1      43.026  37.288  33.629  1.00  0.00    -0.744 OA
ENDBRANCH  66  67
ENDBRANCH  47  61
BRANCH  48  71
ATOM     71  C   UNL A   1      42.454  23.546  27.737  1.00  0.00    -0.014 A 
ATOM     72  C   UNL A   1      42.735  23.310  26.381  1.00  0.00     0.010 A 
ATOM     73  C   UNL A   1      42.035  22.475  28.546  1.00  0.00     0.010 A 
ATOM     74  C   UNL A   1      42.601  22.027  25.842  1.00  0.00     0.020 A 
ATOM     75  C   UNL A   1      41.921  21.186  28.017  1.00  0.00     0.020 A 
ATOM     76  C   UNL A   1      42.202  20.971  26.667  1.00  0.00     0.054 A 
BRANCH  76  77
ATOM     77  S   UNL A   1      42.124  19.297  25.967  1.00  0.00     0.124 S 
ATOM     78  O   UNL A   1      42.977  19.421  24.789  1.00  0.00    -0.237 OA
ATOM     79  O   UNL A   1      42.657  18.477  27.052  1.00  0.00    -0.237 OA
ATOM     80  O   UNL A   1      40.700  19.108  25.697  1.00  0.00    -0.744 OA
ENDBRANCH  76  77
ENDBRANCH  48  71
BRANCH  60  81
ATOM     81  C   UNL A   1      47.965  26.901  30.431  1.00  0.00    -0.014 A 
ATOM     82  C   UNL A   1      48.966  27.038  29.455  1.00  0.00     0.010 A 
ATOM     83  C   UNL A   1      48.314  26.459  31.720  1.00  0.00     0.010 A 
ATOM     84  C   UNL A   1      50.295  26.727  29.762  1.00  0.00     0.020 A 
ATOM     85  C   UNL A   1      49.642  26.169  32.037  1.00  0.00     0.020 A 
ATOM     86  C   UNL A   1      50.625  26.299  31.053  1.00  0.00     0.054 A 
BRANCH  86  87
ATOM     87  S   UNL A   1      52.365  25.976  31.451  1.00  0.00     0.124 S 
ATOM     88  O   UNL A   1      52.317  24.599  31.932  1.00  0.00    -0.237 OA
ATOM     89  O   UNL A   1      53.030  26.170  30.164  1.00  0.00    -0.237 OA
ATOM     90  O   UNL A   1      52.680  26.980  32.464  1.00  0.00    -0.744 OA
ENDBRANCH  86  87
ENDBRANCH  60  81
ENDBRANCH  34  35
ENDBRANCH  26  29
ENDBRANCH  24  25
ENDBRANCH  23  24
ENDBRANCH   1  23
TORSDOF 17
ENDMDL
MODEL 2
REMARK VINA RESULT:     -10.7      2.609      9.351
REMARK SMILES C[C@H]([C@@H](C)C(=O)NCCCCNC(=O)c1ccc(-c2c3nc(c(-c4ccc(S(=O)(=O)[O-])cc4)c4ccc([nH]4)c(-c4ccc(S(=O)(=O)[O-])cc4)c4nc(c(-c5ccc(S(=O)(=O)[O-])cc5)c5ccc2[nH]5)C=C4)C=C3)cc1)[S@@](=O)c1ccc2ccccc2c1
REMARK SMILES IDX 9 1 8 2 7 3 5 4 6 5 3 7 4 8 2 9 1 10 75 11 76 12 77 13 78 14
REMARK SMILES IDX 86 15 79 16 85 17 80 18 84 19 81 20 83 21 82 22 10 23 11 24
REMARK SMILES IDX 12 25 13 26 14 28 15 29 16 30 74 31 17 32 73 33 18 34 19 35
REMARK SMILES IDX 20 36 67 37 21 38 72 39 66 40 68 41 22 42 71 43 65 44 64 45
REMARK SMILES IDX 23 47 53 48 34 49 52 50 35 51 38 52 51 53 69 54 36 55 37 56
REMARK SMILES IDX 50 58 70 59 39 60 24 61 25 62 33 63 26 64 32 65 27 66 28 67
REMARK SMILES IDX 29 68 30 69 31 70 54 71 55 72 63 73 56 74 62 75 57 76 58 77
REMARK SMILES IDX 59 78 60 79 61 80 40 81 41 82 49 83 42 84 48 85 43 86 44 87
REMARK SMILES IDX 45 88 46 89 47 90
REMARK H PARENT 7 6 12 27 68 46 38 57
REMARK Flexibility Score: inf
ROOT
ATOM      1  C   UNL A   1      35.495  22.411  26.549  1.00  0.00     0.023 C 
ENDROOT
BRANCH   1   2
ATOM      2  C   UNL A   1      34.124  21.822  26.222  1.00  0.00     0.116 C 
BRANCH   2   3
ATOM      3  N   UNL A   1      33.896  21.782  24.793  1.00  0.00    -0.356 N 
ATOM      4  C   UNL A   1      32.952  22.373  24.021  1.00  0.00     0.224 C 
ATOM      5  O   UNL A   1      32.943  22.089  22.819  1.00  0.00    -0.275 OA
ATOM      6  H   UNL A   1      34.540  21.227  24.295  1.00  0.00     0.163 HD
BRANCH   4   7
ATOM      7  C   UNL A   1      31.934  23.377  24.564  1.00  0.00     0.091 C 
ATOM      8  C   UNL A   1      30.967  22.707  25.542  1.00  0.00     0.019 C 
BRANCH   7   9
ATOM      9  C   UNL A   1      31.332  24.286  23.463  1.00  0.00     0.093 C 
ATOM     10  C   UNL A   1      30.098  25.118  23.822  1.00  0.00     0.023 C 
BRANCH   9  11
ATOM     11  S   UNL A   1      32.653  25.367  22.696  1.00  0.00     0.057 S 
ATOM     12  O   UNL A   1      32.019  26.121  21.563  1.00  0.00    -0.254 OA
BRANCH  11  13
ATOM     13  C   UNL A   1      32.889  26.583  24.006  1.00  0.00     0.040 A 
ATOM     14  C   UNL A   1      33.816  26.308  25.015  1.00  0.00     0.018 A 
ATOM     15  C   UNL A   1      32.186  27.791  24.029  1.00  0.00     0.026 A 
ATOM     16  C   UNL A   1      34.014  27.220  26.054  1.00  0.00     0.010 A 
ATOM     17  C   UNL A   1      32.335  28.692  25.094  1.00  0.00    -0.017 A 
ATOM     18  C   UNL A   1      33.270  28.409  26.115  1.00  0.00    -0.018 A 
ATOM     19  C   UNL A   1      31.564  29.862  25.172  1.00  0.00     0.009 A 
ATOM     20  C   UNL A   1      33.435  29.322  27.167  1.00  0.00     0.009 A 
ATOM     21  C   UNL A   1      31.723  30.749  26.238  1.00  0.00     0.001 A 
ATOM     22  C   UNL A   1      32.663  30.484  27.229  1.00  0.00     0.001 A 
ENDBRANCH  11  13
ENDBRANCH   9  11
ENDBRANCH   7   9
ENDBRANCH   4   7
ENDBRANCH   2   3
ENDBRANCH   1   2
BRANCH   1  23
ATOM     23  C   UNL A   1      35.874  23.628  25.709  1.00  0.00     0.023 C 
BRANCH  23  24
ATOM     24  C   UNL A   1      37.140  23.459  24.880  1.00  0.00     0.116 C 
BRANCH  24  25
ATOM     25  N   UNL A   1      38.072  22.481  25.428  1.00  0.00    -0.352 N 
ATOM     26  C   UNL A   1      39.114  22.712  26.295  1.00  0.00     0.251 C 
ATOM     27  H   UNL A   1      37.942  21.548  25.143  1.00  0.00     0.163 HD
ATOM     28  O   UNL A   1      39.883  21.813  26.614  1.00  0.00    -0.269 OA
BRANCH  26  29
ATOM     29  C   UNL A   1      39.303  24.086  26.798  1.00  0.00     0.039 A 
ATOM     30  C   UNL A   1      38.880  24.401  28.091  1.00  0.00     0.014 A 
ATOM     31  C   UNL A   1      40.004  25.014  26.024  1.00  0.00     0.014 A 
ATOM     32  C   UNL A   1      39.229  25.635  28.641  1.00  0.00     0.010 A 
ATOM     33  C   UNL A   1      40.410  26.209  26.601  1.00  0.00     0.010 A 
ATOM     34  C   UNL A   1      40.031  26.529  27.915  1.00  0.00    -0.014 A 
BRANCH  34  35
ATOM     35  C   UNL A   1      40.493  27.817  28.487  1.00  0.00     0.031 A 
ATOM     36  C   UNL A   1      41.878  27.911  29.058  1.00  0.00     0.074 A 
ATOM     37  C   UNL A   1      39.636  28.850  28.602  1.00  0.00     0.049 A 
ATOM     38  N   UNL A   1      42.418  28.872  29.762  1.00  0.00    -0.248 NA
ATOM     39  C   UNL A   1      42.758  26.751  28.844  1.00  0.00     0.031 C 
ATOM     40  C   UNL A   1      38.254  28.869  28.120  1.00  0.00     0.029 A 
ATOM     41  N   UNL A   1      39.799  30.081  29.189  1.00  0.00    -0.354 N 
ATOM     42  C   UNL A   1      43.683  28.413  30.111  1.00  0.00     0.074 A 
ATOM     43  C   UNL A   1      43.814  27.077  29.573  1.00  0.00     0.031 C 
ATOM     44  C   UNL A   1      37.698  30.054  28.423  1.00  0.00     0.029 A 
ATOM     45  C   UNL A   1      38.668  30.860  29.159  1.00  0.00     0.049 A 
ATOM     46  H   UNL A   1      40.647  30.377  29.593  1.00  0.00     0.167 HD
ATOM     47  C   UNL A   1      44.653  29.053  30.806  1.00  0.00     0.031 A 
ATOM     48  C   UNL A   1      38.430  32.080  29.680  1.00  0.00     0.031 A 
ATOM     49  C   UNL A   1      44.525  30.390  31.316  1.00  0.00     0.049 A 
ATOM     50  C   UNL A   1      39.529  32.786  30.426  1.00  0.00     0.074 A 
ATOM     51  C   UNL A   1      45.469  31.152  31.980  1.00  0.00     0.029 A 
ATOM     52  N   UNL A   1      43.380  31.167  31.214  1.00  0.00    -0.354 N 
ATOM     53  N   UNL A   1      40.736  32.359  30.706  1.00  0.00    -0.248 NA
ATOM     54  C   UNL A   1      39.236  34.139  30.918  1.00  0.00     0.031 C 
ATOM     55  C   UNL A   1      44.882  32.378  32.313  1.00  0.00     0.029 A 
ATOM     56  C   UNL A   1      43.589  32.397  31.812  1.00  0.00     0.049 A 
ATOM     57  H   UNL A   1      42.543  30.885  30.780  1.00  0.00     0.167 HD
ATOM     58  C   UNL A   1      41.360  33.402  31.380  1.00  0.00     0.074 A 
ATOM     59  C   UNL A   1      40.397  34.482  31.464  1.00  0.00     0.031 C 
ATOM     60  C   UNL A   1      42.621  33.463  31.877  1.00  0.00     0.031 A 
BRANCH  47  61
ATOM     61  C   UNL A   1      45.926  28.291  31.066  1.00  0.00    -0.014 A 
ATOM     62  C   UNL A   1      46.988  28.311  30.144  1.00  0.00     0.010 A 
ATOM     63  C   UNL A   1      46.054  27.532  32.242  1.00  0.00     0.010 A 
ATOM     64  C   UNL A   1      48.126  27.530  30.360  1.00  0.00     0.020 A 
ATOM     65  C   UNL A   1      47.205  26.774  32.477  1.00  0.00     0.020 A 
ATOM     66  C   UNL A   1      48.221  26.756  31.520  1.00  0.00     0.054 A 
BRANCH  66  67
ATOM     67  S   UNL A   1      49.697  25.733  31.769  1.00  0.00     0.124 S 
ATOM     68  O   UNL A   1      49.918  25.196  30.427  1.00  0.00    -0.237 OA
ATOM     69  O   UNL A   1      50.690  26.703  32.226  1.00  0.00    -0.237 OA
ATOM     70  O   UNL A   1      49.277  24.756  32.770  1.00  0.00    -0.744 OA
ENDBRANCH  66  67
ENDBRANCH  47  61
BRANCH  48  71
ATOM     71  C   UNL A   1      37.097  32.711  29.487  1.00  0.00    -0.014 A 
ATOM     72  C   UNL A   1      36.162  32.730  30.536  1.00  0.00     0.010 A 
ATOM     73  C   UNL A   1      36.778  33.349  28.274  1.00  0.00     0.010 A 
ATOM     74  C   UNL A   1      34.933  33.375  30.378  1.00  0.00     0.020 A 
ATOM     75  C   UNL A   1      35.558  34.015  28.120  1.00  0.00     0.020 A 
ATOM     76  C   UNL A   1      34.642  34.020  29.173  1.00  0.00     0.054 A 
BRANCH  76  77
ATOM     77  S   UNL A   1      33.077  34.929  29.024  1.00  0.00     0.124 S 
ATOM     78  O   UNL A   1      33.532  36.252  28.610  1.00  0.00    -0.237 OA
ATOM     79  O   UNL A   1      32.360  34.159  28.011  1.00  0.00    -0.237 OA
ATOM     80  O   UNL A   1      32.510  34.852  30.369  1.00  0.00    -0.744 OA
ENDBRANCH  76  77
ENDBRANCH  48  71
BRANCH  60  81
ATOM     81  C   UNL A   1      43.058  34.751  32.517  1.00  0.00    -0.014 A 
ATOM     82  C   UNL A   1      43.684  35.762  31.767  1.00  0.00     0.010 A 
ATOM     83  C   UNL A   1      42.750  34.987  33.869  1.00  0.00     0.010 A 
ATOM     84  C   UNL A   1      44.004  36.985  32.365  1.00  0.00     0.020 A 
ATOM     85  C   UNL A   1      43.048  36.214  34.464  1.00  0.00     0.020 A 
ATOM     86  C   UNL A   1      43.680  37.205  33.708  1.00  0.00     0.054 A 
BRANCH  86  87
ATOM     87  S   UNL A   1      44.034  38.826  34.440  1.00  0.00     0.124 S 
ATOM     88  O   UNL A   1      45.353  39.126  33.892  1.00  0.00    -0.237 OA
ATOM     89  O   UNL A   1      42.941  39.653  33.934  1.00  0.00    -0.237 OA
ATOM     90  O   UNL A   1      43.998  38.572  35.878  1.00  0.00    -0.744 OA
ENDBRANCH  86  87
ENDBRANCH  60  81
ENDBRANCH  34  35
ENDBRANCH  26  29
ENDBRANCH  24  25
ENDBRANCH  23  24
ENDBRANCH   1  23
TORSDOF 17
ENDMDL
MODEL 3
REMARK VINA RESULT:     -10.7      2.590      3.270
REMARK SMILES C[C@H]([C@@H](C)C(=O)NCCCCNC(=O)c1ccc(-c2c3nc(c(-c4ccc(S(=O)(=O)[O-])cc4)c4ccc([nH]4)c(-c4ccc(S(=O)(=O)[O-])cc4)c4nc(c(-c5ccc(S(=O)(=O)[O-])cc5)c5ccc2[nH]5)C=C4)C=C3)cc1)[S@@](=O)c1ccc2ccccc2c1
REMARK SMILES IDX 9 1 8 2 7 3 5 4 6 5 3 7 4 8 2 9 1 10 75 11 76 12 77 13 78 14
REMARK SMILES IDX 86 15 79 16 85 17 80 18 84 19 81 20 83 21 82 22 10 23 11 24
REMARK SMILES IDX 12 25 13 26 14 28 15 29 16 30 74 31 17 32 73 33 18 34 19 35
REMARK SMILES IDX 20 36 67 37 21 38 72 39 66 40 68 41 22 42 71 43 65 44 64 45
REMARK SMILES IDX 23 47 53 48 34 49 52 50 35 51 38 52 51 53 69 54 36 55 37 56
REMARK SMILES IDX 50 58 70 59 39 60 24 61 25 62 33 63 26 64 32 65 27 66 28 67
REMARK SMILES IDX 29 68 30 69 31 70 54 71 55 72 63 73 56 74 62 75 57 76 58 77
REMARK SMILES IDX 59 78 60 79 61 80 40 81 41 82 49 83 42 84 48 85 43 86 44 87
REMARK SMILES IDX 45 88 46 89 47 90
REMARK H PARENT 7 6 12 27 68 46 38 57
REMARK Flexibility Score: inf
ROOT
ATOM      1  C   UNL A   1      32.777  30.138  26.965  1.00  0.00     0.023 C 
ENDROOT
BRANCH   1   2
ATOM      2  C   UNL A   1      32.147  29.993  25.580  1.00  0.00     0.116 C 
BRANCH   2   3
ATOM      3  N   UNL A   1      33.153  29.766  24.566  1.00  0.00    -0.356 N 
ATOM      4  C   UNL A   1      33.162  28.953  23.481  1.00  0.00     0.224 C 
ATOM      5  O   UNL A   1      34.207  28.894  22.826  1.00  0.00    -0.275 OA
ATOM      6  H   UNL A   1      33.976  30.294  24.684  1.00  0.00     0.163 HD
BRANCH   4   7
ATOM      7  C   UNL A   1      31.946  28.142  23.032  1.00  0.00     0.091 C 
ATOM      8  C   UNL A   1      30.719  29.038  22.859  1.00  0.00     0.019 C 
BRANCH   7   9
ATOM      9  C   UNL A   1      31.770  26.822  23.825  1.00  0.00     0.093 C 
ATOM     10  C   UNL A   1      30.704  26.788  24.923  1.00  0.00     0.023 C 
BRANCH   9  11
ATOM     11  S   UNL A   1      31.565  25.369  22.666  1.00  0.00     0.057 S 
ATOM     12  O   UNL A   1      32.097  25.782  21.324  1.00  0.00    -0.254 OA
BRANCH  11  13
ATOM     13  C   UNL A   1      32.792  24.232  23.337  1.00  0.00     0.040 A 
ATOM     14  C   UNL A   1      34.072  24.717  23.618  1.00  0.00     0.018 A 
ATOM     15  C   UNL A   1      32.493  22.892  23.598  1.00  0.00     0.026 A 
ATOM     16  C   UNL A   1      35.052  23.861  24.125  1.00  0.00     0.010 A 
ATOM     17  C   UNL A   1      33.481  22.008  24.056  1.00  0.00    -0.017 A 
ATOM     18  C   UNL A   1      34.776  22.501  24.335  1.00  0.00    -0.018 A 
ATOM     19  C   UNL A   1      33.213  20.641  24.230  1.00  0.00     0.009 A 
ATOM     20  C   UNL A   1      35.757  21.621  24.816  1.00  0.00     0.009 A 
ATOM     21  C   UNL A   1      34.207  19.774  24.687  1.00  0.00     0.001 A 
ATOM     22  C   UNL A   1      35.474  20.264  24.988  1.00  0.00     0.001 A 
ENDBRANCH  11  13
ENDBRANCH   9  11
ENDBRANCH   7   9
ENDBRANCH   4   7
ENDBRANCH   2   3
ENDBRANCH   1   2
BRANCH   1  23
ATOM     23  C   UNL A   1      33.882  29.127  27.262  1.00  0.00     0.023 C 
BRANCH  23  24
ATOM     24  C   UNL A   1      35.228  29.744  27.621  1.00  0.00     0.116 C 
BRANCH  24  25
ATOM     25  N   UNL A   1      35.231  30.433  28.907  1.00  0.00    -0.352 N 
ATOM     26  C   UNL A   1      36.253  30.484  29.826  1.00  0.00     0.251 C 
ATOM     27  H   UNL A   1      34.406  30.914  29.144  1.00  0.00     0.163 HD
ATOM     28  O   UNL A   1      36.098  31.026  30.914  1.00  0.00    -0.269 OA
BRANCH  26  29
ATOM     29  C   UNL A   1      37.529  29.831  29.480  1.00  0.00     0.039 A 
ATOM     30  C   UNL A   1      38.014  29.935  28.174  1.00  0.00     0.014 A 
ATOM     31  C   UNL A   1      38.286  29.221  30.482  1.00  0.00     0.014 A 
ATOM     32  C   UNL A   1      39.305  29.490  27.889  1.00  0.00     0.010 A 
ATOM     33  C   UNL A   1      39.595  28.847  30.211  1.00  0.00     0.010 A 
ATOM     34  C   UNL A   1      40.118  28.981  28.914  1.00  0.00    -0.014 A 
BRANCH  34  35
ATOM     35  C   UNL A   1      41.523  28.569  28.675  1.00  0.00     0.031 A 
ATOM     36  C   UNL A   1      42.604  29.612  28.679  1.00  0.00     0.074 A 
ATOM     37  C   UNL A   1      41.805  27.296  28.338  1.00  0.00     0.049 A 
ATOM     38  N   UNL A   1      43.856  29.504  28.319  1.00  0.00    -0.248 NA
ATOM     39  C   UNL A   1      42.211  30.964  29.106  1.00  0.00     0.031 C 
ATOM     40  C   UNL A   1      40.837  26.201  28.262  1.00  0.00     0.029 A 
ATOM     41  N   UNL A   1      42.993  26.715  27.967  1.00  0.00    -0.354 N 
ATOM     42  C   UNL A   1      44.388  30.783  28.434  1.00  0.00     0.074 A 
ATOM     43  C   UNL A   1      43.314  31.654  28.860  1.00  0.00     0.031 C 
ATOM     44  C   UNL A   1      41.470  25.079  27.879  1.00  0.00     0.029 A 
ATOM     45  C   UNL A   1      42.877  25.386  27.638  1.00  0.00     0.049 A 
ATOM     46  H   UNL A   1      43.847  27.205  27.941  1.00  0.00     0.167 HD
ATOM     47  C   UNL A   1      45.660  31.194  28.216  1.00  0.00     0.031 A 
ATOM     48  C   UNL A   1      43.795  24.515  27.176  1.00  0.00     0.031 A 
ATOM     49  C   UNL A   1      46.727  30.319  27.816  1.00  0.00     0.049 A 
ATOM     50  C   UNL A   1      45.209  24.983  26.965  1.00  0.00     0.074 A 
ATOM     51  C   UNL A   1      48.063  30.621  27.627  1.00  0.00     0.029 A 
ATOM     52  N   UNL A   1      46.579  28.965  27.548  1.00  0.00    -0.354 N 
ATOM     53  N   UNL A   1      45.708  26.185  27.124  1.00  0.00    -0.248 NA
ATOM     54  C   UNL A   1      46.184  23.977  26.522  1.00  0.00     0.031 C 
ATOM     55  C   UNL A   1      48.717  29.457  27.208  1.00  0.00     0.029 A 
ATOM     56  C   UNL A   1      47.797  28.419  27.184  1.00  0.00     0.049 A 
ATOM     57  H   UNL A   1      45.732  28.467  27.607  1.00  0.00     0.167 HD
ATOM     58  C   UNL A   1      47.063  26.075  26.831  1.00  0.00     0.074 A 
ATOM     59  C   UNL A   1      47.304  24.688  26.486  1.00  0.00     0.031 C 
ATOM     60  C   UNL A   1      48.020  27.035  26.854  1.00  0.00     0.031 A 
BRANCH  47  61
ATOM     61  C   UNL A   1      45.945  32.662  28.388  1.00  0.00    -0.014 A 
ATOM     62  C   UNL A   1      45.727  33.574  27.340  1.00  0.00     0.010 A 
ATOM     63  C   UNL A   1      46.453  33.133  29.611  1.00  0.00     0.010 A 
ATOM     64  C   UNL A   1      46.077  34.919  27.488  1.00  0.00     0.020 A 
ATOM     65  C   UNL A   1      46.775  34.484  29.774  1.00  0.00     0.020 A 
ATOM     66  C   UNL A   1      46.612  35.362  28.701  1.00  0.00     0.054 A 
BRANCH  66  67
ATOM     67  S   UNL A   1      47.081  37.106  28.863  1.00  0.00     0.124 S 
ATOM     68  O   UNL A   1      48.540  37.027  28.832  1.00  0.00    -0.237 OA
ATOM     69  O   UNL A   1      46.461  37.718  27.690  1.00  0.00    -0.237 OA
ATOM     70  O   UNL A   1      46.505  37.501  30.146  1.00  0.00    -0.744 OA
ENDBRANCH  66  67
ENDBRANCH  47  61
BRANCH  48  71
ATOM     71  C   UNL A   1      43.399  23.107  26.907  1.00  0.00    -0.014 A 
ATOM     72  C   UNL A   1      43.535  22.566  25.617  1.00  0.00     0.010 A 
ATOM     73  C   UNL A   1      42.940  22.283  27.951  1.00  0.00     0.010 A 
ATOM     74  C   UNL A   1      43.220  21.226  25.374  1.00  0.00     0.020 A 
ATOM     75  C   UNL A   1      42.646  20.936  27.717  1.00  0.00     0.020 A 
ATOM     76  C   UNL A   1      42.785  20.417  26.428  1.00  0.00     0.054 A 
BRANCH  76  77
ATOM     77  S   UNL A   1      42.471  18.658  26.108  1.00  0.00     0.124 S 
ATOM     78  O   UNL A   1      43.399  18.377  25.016  1.00  0.00    -0.237 OA
ATOM     79  O   UNL A   1      42.797  18.040  27.391  1.00  0.00    -0.237 OA
ATOM     80  O   UNL A   1      41.054  18.625  25.753  1.00  0.00    -0.744 OA
ENDBRANCH  76  77
ENDBRANCH  48  71
BRANCH  60  81
ATOM     81  C   UNL A   1      49.432  26.620  26.543  1.00  0.00    -0.014 A 
ATOM     82  C   UNL A   1      50.269  26.083  27.536  1.00  0.00     0.010 A 
ATOM     83  C   UNL A   1      49.891  26.685  25.215  1.00  0.00     0.010 A 
ATOM     84  C   UNL A   1      51.548  25.625  27.204  1.00  0.00     0.020 A 
ATOM     85  C   UNL A   1      51.159  26.209  24.877  1.00  0.00     0.020 A 
ATOM     86  C   UNL A   1      51.983  25.687  25.876  1.00  0.00     0.054 A 
BRANCH  86  87
ATOM     87  S   UNL A   1      53.616  25.016  25.457  1.00  0.00     0.124 S 
ATOM     88  O   UNL A   1      54.389  25.329  26.655  1.00  0.00    -0.237 OA
ATOM     89  O   UNL A   1      53.335  23.598  25.243  1.00  0.00    -0.237 OA
ATOM     90  O   UNL A   1      53.997  25.757  24.257  1.00  0.00    -0.744 OA
ENDBRANCH  86  87
ENDBRANCH  60  81
ENDBRANCH  34  35
ENDBRANCH  26  29
ENDBRANCH  24  25
ENDBRANCH  23  24
ENDBRANCH   1  23
TORSDOF 17
ENDMDL
