MODEL 1
REMARK VINA RESULT:     -12.6      0.000      0.000
REMARK SMILES CC[C@](C)(NC(=O)N(C)Cc1cccc(C)c1)C(=O)NCCCCNC(=O)c1ccc(-c2c3nc(c(-c4ccc(S(=O)(=O)[O-])cc4)c4ccc([nH]4)c(-c4ccc(S(=O)(=O)[O-])cc4)c4nc(c(-c5ccc(S(=O)(=O)[O-])cc5)c5ccc2[nH]5)C=C4)C=C3)cc1
REMARK SMILES IDX 22 1 21 2 20 3 18 4 19 5 3 7 4 8 2 9 1 10 5 11 6 12 7 14
REMARK SMILES IDX 8 15 9 16 10 17 11 18 12 19 17 20 13 21 15 22 14 23 16 24
REMARK SMILES IDX 23 25 24 26 25 27 26 28 27 30 28 31 29 32 87 33 30 34 86 35
REMARK SMILES IDX 31 36 32 37 33 38 80 39 34 40 85 41 79 42 81 43 35 44 84 45
REMARK SMILES IDX 78 46 77 47 36 49 66 50 47 51 65 52 48 53 51 54 64 55 82 56
REMARK SMILES IDX 49 57 50 58 63 60 83 61 52 62 37 63 38 64 46 65 39 66 45 67
REMARK SMILES IDX 40 68 41 69 42 70 43 71 44 72 67 73 68 74 76 75 69 76 75 77
REMARK SMILES IDX 70 78 71 79 72 80 73 81 74 82 53 83 54 84 62 85 55 86 61 87
REMARK SMILES IDX 56 88 57 89 58 90 59 91 60 92
REMARK H PARENT 20 6 5 13 25 29 81 48 51 59
REMARK Flexibility Score: inf
ROOT
ATOM      1  C   UNL A   1      32.349  30.446  26.724  1.00  0.00     0.023 C 
ENDROOT
BRANCH   1   2
ATOM      2  C   UNL A   1      31.889  29.996  25.334  1.00  0.00     0.116 C 
BRANCH   2   3
ATOM      3  N   UNL A   1      32.922  29.662  24.352  1.00  0.00    -0.354 N 
ATOM      4  C   UNL A   1      33.104  28.620  23.485  1.00  0.00     0.245 C 
ATOM      5  O   UNL A   1      33.966  28.776  22.609  1.00  0.00    -0.272 OA
ATOM      6  H   UNL A   1      33.642  30.333  24.305  1.00  0.00     0.163 HD
BRANCH   4   7
ATOM      7  C   UNL A   1      32.231  27.331  23.499  1.00  0.00     0.117 C 
ATOM      8  C   UNL A   1      30.709  27.598  23.456  1.00  0.00     0.045 C 
BRANCH   7   9
ATOM      9  C   UNL A   1      32.538  26.593  24.848  1.00  0.00     0.035 C 
ATOM     10  C   UNL A   1      34.011  26.539  25.253  1.00  0.00     0.007 C 
ENDBRANCH   7   9
BRANCH   7  11
ATOM     11  N   UNL A   1      32.565  26.433  22.377  1.00  0.00    -0.324 N 
ATOM     12  C   UNL A   1      32.590  25.112  22.135  1.00  0.00     0.318 C 
ATOM     13  H   UNL A   1      32.849  26.945  21.586  1.00  0.00     0.166 HD
ATOM     14  O   UNL A   1      33.246  24.809  21.129  1.00  0.00    -0.249 OA
BRANCH  12  15
ATOM     15  N   UNL A   1      31.892  24.173  22.839  1.00  0.00    -0.324 N 
ATOM     16  C   UNL A   1      30.511  24.192  23.311  1.00  0.00     0.149 C 
BRANCH  15  17
ATOM     17  C   UNL A   1      32.600  22.909  23.100  1.00  0.00     0.156 C 
BRANCH  17  18
ATOM     18  C   UNL A   1      33.514  22.953  24.302  1.00  0.00    -0.028 A 
ATOM     19  C   UNL A   1      32.972  22.854  25.590  1.00  0.00     0.005 A 
ATOM     20  C   UNL A   1      34.898  23.116  24.157  1.00  0.00     0.009 A 
ATOM     21  C   UNL A   1      33.795  22.973  26.709  1.00  0.00     0.001 A 
ATOM     22  C   UNL A   1      35.721  23.291  25.271  1.00  0.00    -0.051 A 
ATOM     23  C   UNL A   1      35.162  23.205  26.549  1.00  0.00     0.003 A 
ATOM     24  C   UNL A   1      37.180  23.570  25.081  1.00  0.00     0.044 C 
ENDBRANCH  17  18
ENDBRANCH  15  17
ENDBRANCH  12  15
ENDBRANCH   7  11
ENDBRANCH   4   7
ENDBRANCH   2   3
ENDBRANCH   1   2
BRANCH   1  25
ATOM     25  C   UNL A   1      33.197  29.466  27.522  1.00  0.00     0.023 C 
BRANCH  25  26
ATOM     26  C   UNL A   1      34.684  29.553  27.248  1.00  0.00     0.116 C 
BRANCH  26  27
ATOM     27  N   UNL A   1      35.310  30.721  27.860  1.00  0.00    -0.352 N 
ATOM     28  C   UNL A   1      36.492  30.757  28.587  1.00  0.00     0.251 C 
ATOM     29  H   UNL A   1      34.841  31.579  27.744  1.00  0.00     0.163 HD
ATOM     30  O   UNL A   1      36.861  31.713  29.231  1.00  0.00    -0.269 OA
BRANCH  28  31
ATOM     31  C   UNL A   1      37.358  29.571  28.428  1.00  0.00     0.039 A 
ATOM     32  C   UNL A   1      37.539  28.782  29.570  1.00  0.00     0.014 A 
ATOM     33  C   UNL A   1      38.241  29.527  27.355  1.00  0.00     0.014 A 
ATOM     34  C   UNL A   1      38.728  28.080  29.718  1.00  0.00     0.010 A 
ATOM     35  C   UNL A   1      39.465  28.925  27.557  1.00  0.00     0.010 A 
ATOM     36  C   UNL A   1      39.724  28.245  28.756  1.00  0.00    -0.014 A 
BRANCH  36  37
ATOM     37  C   UNL A   1      41.084  27.751  28.922  1.00  0.00     0.031 A 
ATOM     38  C   UNL A   1      41.369  26.351  28.535  1.00  0.00     0.074 A 
ATOM     39  C   UNL A   1      42.070  28.563  29.367  1.00  0.00     0.049 A 
ATOM     40  N   UNL A   1      42.346  25.647  28.993  1.00  0.00    -0.248 NA
ATOM     41  C   UNL A   1      40.507  25.604  27.623  1.00  0.00     0.031 C 
ATOM     42  C   UNL A   1      43.503  28.273  29.371  1.00  0.00     0.029 A 
ATOM     43  N   UNL A   1      41.969  29.739  30.119  1.00  0.00    -0.354 N 
ATOM     44  C   UNL A   1      42.430  24.508  28.220  1.00  0.00     0.074 A 
ATOM     45  C   UNL A   1      41.211  24.483  27.452  1.00  0.00     0.031 C 
ATOM     46  C   UNL A   1      44.088  29.019  30.321  1.00  0.00     0.029 A 
ATOM     47  C   UNL A   1      43.024  29.693  31.046  1.00  0.00     0.049 A 
ATOM     48  H   UNL A   1      41.297  30.451  30.018  1.00  0.00     0.167 HD
ATOM     49  C   UNL A   1      43.591  23.794  28.207  1.00  0.00     0.031 A 
ATOM     50  C   UNL A   1      42.843  29.634  32.399  1.00  0.00     0.031 A 
ATOM     51  C   UNL A   1      44.536  24.307  29.198  1.00  0.00     0.049 A 
ATOM     52  C   UNL A   1      43.468  28.396  33.021  1.00  0.00     0.074 A 
ATOM     53  C   UNL A   1      45.648  25.128  29.108  1.00  0.00     0.029 A 
ATOM     54  N   UNL A   1      44.198  24.245  30.546  1.00  0.00    -0.354 N 
ATOM     55  N   UNL A   1      43.828  27.340  32.343  1.00  0.00    -0.248 NA
ATOM     56  C   UNL A   1      43.712  28.237  34.453  1.00  0.00     0.031 C 
ATOM     57  C   UNL A   1      45.920  25.636  30.407  1.00  0.00     0.029 A 
ATOM     58  C   UNL A   1      44.999  25.093  31.287  1.00  0.00     0.049 A 
ATOM     59  H   UNL A   1      43.487  23.677  30.920  1.00  0.00     0.167 HD
ATOM     60  C   UNL A   1      44.354  26.395  33.188  1.00  0.00     0.074 A 
ATOM     61  C   UNL A   1      44.260  27.009  34.500  1.00  0.00     0.031 C 
ATOM     62  C   UNL A   1      44.823  25.195  32.732  1.00  0.00     0.031 A 
BRANCH  49  63
ATOM     63  C   UNL A   1      43.970  22.834  27.097  1.00  0.00    -0.014 A 
ATOM     64  C   UNL A   1      43.037  21.869  26.663  1.00  0.00     0.010 A 
ATOM     65  C   UNL A   1      45.239  22.774  26.490  1.00  0.00     0.010 A 
ATOM     66  C   UNL A   1      43.379  20.849  25.759  1.00  0.00     0.020 A 
ATOM     67  C   UNL A   1      45.609  21.742  25.611  1.00  0.00     0.020 A 
ATOM     68  C   UNL A   1      44.676  20.775  25.259  1.00  0.00     0.054 A 
BRANCH  68  69
ATOM     69  S   UNL A   1      45.128  19.416  24.151  1.00  0.00     0.124 S 
ATOM     70  O   UNL A   1      46.584  19.523  24.097  1.00  0.00    -0.237 OA
ATOM     71  O   UNL A   1      44.606  18.249  24.856  1.00  0.00    -0.237 OA
ATOM     72  O   UNL A   1      44.442  19.743  22.902  1.00  0.00    -0.744 OA
ENDBRANCH  68  69
ENDBRANCH  49  63
BRANCH  50  73
ATOM     73  C   UNL A   1      41.615  30.321  32.888  1.00  0.00    -0.014 A 
ATOM     74  C   UNL A   1      40.470  29.524  33.112  1.00  0.00     0.010 A 
ATOM     75  C   UNL A   1      41.692  31.580  33.505  1.00  0.00     0.010 A 
ATOM     76  C   UNL A   1      39.515  29.896  34.062  1.00  0.00     0.020 A 
ATOM     77  C   UNL A   1      40.729  31.960  34.454  1.00  0.00     0.020 A 
ATOM     78  C   UNL A   1      39.688  31.082  34.772  1.00  0.00     0.054 A 
BRANCH  78  79
ATOM     79  S   UNL A   1      38.645  31.362  36.237  1.00  0.00     0.124 S 
ATOM     80  O   UNL A   1      39.553  32.063  37.137  1.00  0.00    -0.237 OA
ATOM     81  O   UNL A   1      37.558  32.168  35.683  1.00  0.00    -0.237 OA
ATOM     82  O   UNL A   1      38.269  30.012  36.643  1.00  0.00    -0.744 OA
ENDBRANCH  78  79
ENDBRANCH  50  73
BRANCH  62  83
ATOM     83  C   UNL A   1      45.244  24.003  33.570  1.00  0.00    -0.014 A 
ATOM     84  C   UNL A   1      46.480  23.877  34.219  1.00  0.00     0.010 A 
ATOM     85  C   UNL A   1      44.290  22.984  33.828  1.00  0.00     0.010 A 
ATOM     86  C   UNL A   1      46.770  22.770  35.035  1.00  0.00     0.020 A 
ATOM     87  C   UNL A   1      44.547  21.904  34.676  1.00  0.00     0.020 A 
ATOM     88  C   UNL A   1      45.801  21.790  35.257  1.00  0.00     0.054 A 
BRANCH  88  89
ATOM     89  S   UNL A   1      46.161  20.404  36.365  1.00  0.00     0.124 S 
ATOM     90  O   UNL A   1      45.328  19.345  35.801  1.00  0.00    -0.237 OA
ATOM     91  O   UNL A   1      47.602  20.221  36.200  1.00  0.00    -0.237 OA
ATOM     92  O   UNL A   1      45.750  20.897  37.676  1.00  0.00    -0.744 OA
ENDBRANCH  88  89
ENDBRANCH  62  83
ENDBRANCH  36  37
ENDBRANCH  28  31
ENDBRANCH  26  27
ENDBRANCH  25  26
ENDBRANCH   1  25
TORSDOF 19
ENDMDL
MODEL 2
REMARK VINA RESULT:     -12.3      4.897     11.316
REMARK SMILES CC[C@](C)(NC(=O)N(C)Cc1cccc(C)c1)C(=O)NCCCCNC(=O)c1ccc(-c2c3nc(c(-c4ccc(S(=O)(=O)[O-])cc4)c4ccc([nH]4)c(-c4ccc(S(=O)(=O)[O-])cc4)c4nc(c(-c5ccc(S(=O)(=O)[O-])cc5)c5ccc2[nH]5)C=C4)C=C3)cc1
REMARK SMILES IDX 22 1 21 2 20 3 18 4 19 5 3 7 4 8 2 9 1 10 5 11 6 12 7 14
REMARK SMILES IDX 8 15 9 16 10 17 11 18 12 19 17 20 13 21 15 22 14 23 16 24
REMARK SMILES IDX 23 25 24 26 25 27 26 28 27 30 28 31 29 32 87 33 30 34 86 35
REMARK SMILES IDX 31 36 32 37 33 38 80 39 34 40 85 41 79 42 81 43 35 44 84 45
REMARK SMILES IDX 78 46 77 47 36 49 66 50 47 51 65 52 48 53 51 54 64 55 82 56
REMARK SMILES IDX 49 57 50 58 63 60 83 61 52 62 37 63 38 64 46 65 39 66 45 67
REMARK SMILES IDX 40 68 41 69 42 70 43 71 44 72 67 73 68 74 76 75 69 76 75 77
REMARK SMILES IDX 70 78 71 79 72 80 73 81 74 82 53 83 54 84 62 85 55 86 61 87
REMARK SMILES IDX 56 88 57 89 58 90 59 91 60 92
REMARK H PARENT 20 6 5 13 25 29 81 48 51 59
REMARK Flexibility Score: inf
ROOT
ATOM      1  C   UNL A   1      37.004  22.529  23.975  1.00  0.00     0.023 C 
ENDROOT
BRANCH   1   2
ATOM      2  C   UNL A   1      35.647  23.193  23.719  1.00  0.00     0.116 C 
BRANCH   2   3
ATOM      3  N   UNL A   1      34.445  22.389  23.943  1.00  0.00    -0.354 N 
ATOM      4  C   UNL A   1      33.357  22.518  24.762  1.00  0.00     0.245 C 
ATOM      5  O   UNL A   1      32.392  21.781  24.517  1.00  0.00    -0.272 OA
ATOM      6  H   UNL A   1      34.411  21.580  23.383  1.00  0.00     0.163 HD
BRANCH   4   7
ATOM      7  C   UNL A   1      33.254  23.588  25.888  1.00  0.00     0.117 C 
ATOM      8  C   UNL A   1      33.788  24.982  25.486  1.00  0.00     0.045 C 
BRANCH   7   9
ATOM      9  C   UNL A   1      34.136  23.075  27.079  1.00  0.00     0.035 C 
ATOM     10  C   UNL A   1      34.114  21.566  27.317  1.00  0.00     0.007 C 
ENDBRANCH   7   9
BRANCH   7  11
ATOM     11  N   UNL A   1      31.866  23.754  26.359  1.00  0.00    -0.324 N 
ATOM     12  C   UNL A   1      30.765  24.429  25.992  1.00  0.00     0.318 C 
ATOM     13  H   UNL A   1      31.702  23.220  27.170  1.00  0.00     0.166 HD
ATOM     14  O   UNL A   1      29.910  24.500  26.885  1.00  0.00    -0.249 OA
BRANCH  12  15
ATOM     15  N   UNL A   1      30.526  24.915  24.738  1.00  0.00    -0.324 N 
ATOM     16  C   UNL A   1      30.488  24.219  23.456  1.00  0.00     0.149 C 
BRANCH  15  17
ATOM     17  C   UNL A   1      30.169  26.341  24.660  1.00  0.00     0.156 C 
BRANCH  17  18
ATOM     18  C   UNL A   1      31.326  27.278  24.915  1.00  0.00    -0.028 A 
ATOM     19  C   UNL A   1      31.482  27.859  26.181  1.00  0.00     0.005 A 
ATOM     20  C   UNL A   1      32.239  27.600  23.902  1.00  0.00     0.009 A 
ATOM     21  C   UNL A   1      32.499  28.786  26.407  1.00  0.00     0.001 A 
ATOM     22  C   UNL A   1      33.224  28.568  24.104  1.00  0.00    -0.051 A 
ATOM     23  C   UNL A   1      33.358  29.149  25.368  1.00  0.00     0.003 A 
ATOM     24  C   UNL A   1      34.118  28.968  22.970  1.00  0.00     0.044 C 
ENDBRANCH  17  18
ENDBRANCH  15  17
ENDBRANCH  12  15
ENDBRANCH   7  11
ENDBRANCH   4   7
ENDBRANCH   2   3
ENDBRANCH   1   2
BRANCH   1  25
ATOM     25  C   UNL A   1      37.435  22.376  25.427  1.00  0.00     0.023 C 
BRANCH  25  26
ATOM     26  C   UNL A   1      38.130  23.591  26.008  1.00  0.00     0.116 C 
BRANCH  26  27
ATOM     27  N   UNL A   1      39.373  23.263  26.697  1.00  0.00    -0.352 N 
ATOM     28  C   UNL A   1      40.243  24.142  27.327  1.00  0.00     0.251 C 
ATOM     29  H   UNL A   1      39.623  22.310  26.718  1.00  0.00     0.163 HD
ATOM     30  O   UNL A   1      41.350  23.839  27.713  1.00  0.00    -0.269 OA
BRANCH  28  31
ATOM     31  C   UNL A   1      39.680  25.476  27.616  1.00  0.00     0.039 A 
ATOM     32  C   UNL A   1      40.189  26.538  26.860  1.00  0.00     0.014 A 
ATOM     33  C   UNL A   1      39.033  25.680  28.830  1.00  0.00     0.014 A 
ATOM     34  C   UNL A   1      40.221  27.808  27.423  1.00  0.00     0.010 A 
ATOM     35  C   UNL A   1      39.172  26.914  29.430  1.00  0.00     0.010 A 
ATOM     36  C   UNL A   1      39.807  27.961  28.745  1.00  0.00    -0.014 A 
BRANCH  36  37
ATOM     37  C   UNL A   1      40.013  29.183  29.509  1.00  0.00     0.031 A 
ATOM     38  C   UNL A   1      38.980  30.241  29.422  1.00  0.00     0.074 A 
ATOM     39  C   UNL A   1      41.087  29.328  30.317  1.00  0.00     0.049 A 
ATOM     40  N   UNL A   1      39.186  31.490  29.662  1.00  0.00    -0.248 NA
ATOM     41  C   UNL A   1      37.615  29.962  28.984  1.00  0.00     0.031 C 
ATOM     42  C   UNL A   1      41.305  30.390  31.298  1.00  0.00     0.029 A 
ATOM     43  N   UNL A   1      42.320  28.667  30.266  1.00  0.00    -0.354 N 
ATOM     44  C   UNL A   1      37.955  32.106  29.724  1.00  0.00     0.074 A 
ATOM     45  C   UNL A   1      37.022  31.139  29.201  1.00  0.00     0.031 C 
ATOM     46  C   UNL A   1      42.625  30.517  31.506  1.00  0.00     0.029 A 
ATOM     47  C   UNL A   1      43.290  29.644  30.554  1.00  0.00     0.049 A 
ATOM     48  H   UNL A   1      42.476  27.715  30.070  1.00  0.00     0.167 HD
ATOM     49  C   UNL A   1      37.840  33.310  30.352  1.00  0.00     0.031 A 
ATOM     50  C   UNL A   1      44.251  30.042  29.668  1.00  0.00     0.031 A 
ATOM     51  C   UNL A   1      39.153  33.835  30.726  1.00  0.00     0.049 A 
ATOM     52  C   UNL A   1      44.181  31.528  29.356  1.00  0.00     0.074 A 
ATOM     53  C   UNL A   1      39.855  33.864  31.920  1.00  0.00     0.029 A 
ATOM     54  N   UNL A   1      40.067  34.141  29.723  1.00  0.00    -0.354 N 
ATOM     55  N   UNL A   1      43.144  32.279  29.608  1.00  0.00    -0.248 NA
ATOM     56  C   UNL A   1      45.258  32.278  28.715  1.00  0.00     0.031 C 
ATOM     57  C   UNL A   1      41.224  34.100  31.615  1.00  0.00     0.029 A 
ATOM     58  C   UNL A   1      41.342  34.251  30.244  1.00  0.00     0.049 A 
ATOM     59  H   UNL A   1      39.838  34.262  28.774  1.00  0.00     0.167 HD
ATOM     60  C   UNL A   1      43.389  33.569  29.209  1.00  0.00     0.074 A 
ATOM     61  C   UNL A   1      44.731  33.515  28.657  1.00  0.00     0.031 C 
ATOM     62  C   UNL A   1      42.468  34.566  29.370  1.00  0.00     0.031 A 
BRANCH  49  63
ATOM     63  C   UNL A   1      36.531  33.855  30.886  1.00  0.00    -0.014 A 
ATOM     64  C   UNL A   1      35.427  33.987  30.017  1.00  0.00     0.010 A 
ATOM     65  C   UNL A   1      36.334  34.323  32.199  1.00  0.00     0.010 A 
ATOM     66  C   UNL A   1      34.242  34.634  30.404  1.00  0.00     0.020 A 
ATOM     67  C   UNL A   1      35.170  35.002  32.593  1.00  0.00     0.020 A 
ATOM     68  C   UNL A   1      34.131  35.165  31.686  1.00  0.00     0.054 A 
BRANCH  68  69
ATOM     69  S   UNL A   1      32.628  36.061  32.153  1.00  0.00     0.124 S 
ATOM     70  O   UNL A   1      31.726  34.981  32.546  1.00  0.00    -0.237 OA
ATOM     71  O   UNL A   1      33.098  36.918  33.238  1.00  0.00    -0.237 OA
ATOM     72  O   UNL A   1      32.247  36.764  30.928  1.00  0.00    -0.744 OA
ENDBRANCH  68  69
ENDBRANCH  49  63
BRANCH  50  73
ATOM     73  C   UNL A   1      44.698  28.980  28.723  1.00  0.00    -0.014 A 
ATOM     74  C   UNL A   1      44.039  28.902  27.475  1.00  0.00     0.010 A 
ATOM     75  C   UNL A   1      45.960  28.381  28.859  1.00  0.00     0.010 A 
ATOM     76  C   UNL A   1      44.698  28.398  26.351  1.00  0.00     0.020 A 
ATOM     77  C   UNL A   1      46.621  27.866  27.732  1.00  0.00     0.020 A 
ATOM     78  C   UNL A   1      46.009  27.942  26.476  1.00  0.00     0.054 A 
BRANCH  78  79
ATOM     79  S   UNL A   1      46.957  27.634  24.954  1.00  0.00     0.124 S 
ATOM     80  O   UNL A   1      46.664  28.821  24.159  1.00  0.00    -0.237 OA
ATOM     81  O   UNL A   1      48.323  27.538  25.465  1.00  0.00    -0.237 OA
ATOM     82  O   UNL A   1      46.393  26.384  24.456  1.00  0.00    -0.744 OA
ENDBRANCH  78  79
ENDBRANCH  50  73
BRANCH  62  83
ATOM     83  C   UNL A   1      42.537  35.972  28.805  1.00  0.00    -0.014 A 
ATOM     84  C   UNL A   1      43.253  37.032  29.379  1.00  0.00     0.010 A 
ATOM     85  C   UNL A   1      41.941  36.225  27.542  1.00  0.00     0.010 A 
ATOM     86  C   UNL A   1      43.324  38.290  28.756  1.00  0.00     0.020 A 
ATOM     87  C   UNL A   1      42.046  37.455  26.888  1.00  0.00     0.020 A 
ATOM     88  C   UNL A   1      42.719  38.494  27.515  1.00  0.00     0.054 A 
BRANCH  88  89
ATOM     89  S   UNL A   1      42.875  40.097  26.691  1.00  0.00     0.124 S 
ATOM     90  O   UNL A   1      43.064  41.000  27.823  1.00  0.00    -0.237 OA
ATOM     91  O   UNL A   1      44.046  39.912  25.836  1.00  0.00    -0.237 OA
ATOM     92  O   UNL A   1      41.610  40.241  25.976  1.00  0.00    -0.744 OA
ENDBRANCH  88  89
ENDBRANCH  62  83
ENDBRANCH  36  37
ENDBRANCH  28  31
ENDBRANCH  26  27
ENDBRANCH  25  26
ENDBRANCH   1  25
TORSDOF 19
ENDMDL
MODEL 3
REMARK VINA RESULT:     -11.4      4.501     11.099
REMARK SMILES CC[C@](C)(NC(=O)N(C)Cc1cccc(C)c1)C(=O)NCCCCNC(=O)c1ccc(-c2c3nc(c(-c4ccc(S(=O)(=O)[O-])cc4)c4ccc([nH]4)c(-c4ccc(S(=O)(=O)[O-])cc4)c4nc(c(-c5ccc(S(=O)(=O)[O-])cc5)c5ccc2[nH]5)C=C4)C=C3)cc1
REMARK SMILES IDX 22 1 21 2 20 3 18 4 19 5 3 7 4 8 2 9 1 10 5 11 6 12 7 14
REMARK SMILES IDX 8 15 9 16 10 17 11 18 12 19 17 20 13 21 15 22 14 23 16 24
REMARK SMILES IDX 23 25 24 26 25 27 26 28 27 30 28 31 29 32 87 33 30 34 86 35
REMARK SMILES IDX 31 36 32 37 33 38 80 39 34 40 85 41 79 42 81 43 35 44 84 45
REMARK SMILES IDX 78 46 77 47 36 49 66 50 47 51 65 52 48 53 51 54 64 55 82 56
REMARK SMILES IDX 49 57 50 58 63 60 83 61 52 62 37 63 38 64 46 65 39 66 45 67
REMARK SMILES IDX 40 68 41 69 42 70 43 71 44 72 67 73 68 74 76 75 69 76 75 77
REMARK SMILES IDX 70 78 71 79 72 80 73 81 74 82 53 83 54 84 62 85 55 86 61 87
REMARK SMILES IDX 56 88 57 89 58 90 59 91 60 92
REMARK H PARENT 20 6 5 13 25 29 81 48 51 59
REMARK Flexibility Score: inf
ROOT
ATOM      1  C   UNL A   1      36.390  21.621  25.799  1.00  0.00     0.023 C 
ENDROOT
BRANCH   1   2
ATOM      2  C   UNL A   1      34.968  21.684  25.232  1.00  0.00     0.116 C 
BRANCH   2   3
ATOM      3  N   UNL A   1      34.780  22.342  23.939  1.00  0.00    -0.354 N 
ATOM      4  C   UNL A   1      34.183  23.507  23.545  1.00  0.00     0.245 C 
ATOM      5  O   UNL A   1      34.424  23.889  22.392  1.00  0.00    -0.272 OA
ATOM      6  H   UNL A   1      35.167  21.835  23.188  1.00  0.00     0.163 HD
BRANCH   4   7
ATOM      7  C   UNL A   1      33.320  24.390  24.494  1.00  0.00     0.117 C 
ATOM      8  C   UNL A   1      33.915  24.566  25.910  1.00  0.00     0.045 C 
BRANCH   7   9
ATOM      9  C   UNL A   1      31.939  23.664  24.654  1.00  0.00     0.035 C 
ATOM     10  C   UNL A   1      31.204  23.344  23.353  1.00  0.00     0.007 C 
ENDBRANCH   7   9
BRANCH   7  11
ATOM     11  N   UNL A   1      33.088  25.734  23.930  1.00  0.00    -0.324 N 
ATOM     12  C   UNL A   1      32.104  26.648  23.910  1.00  0.00     0.318 C 
ATOM     13  H   UNL A   1      33.875  26.047  23.429  1.00  0.00     0.166 HD
ATOM     14  O   UNL A   1      32.253  27.512  23.036  1.00  0.00    -0.249 OA
BRANCH  12  15
ATOM     15  N   UNL A   1      31.080  26.716  24.811  1.00  0.00    -0.324 N 
ATOM     16  C   UNL A   1      29.644  26.543  24.612  1.00  0.00     0.149 C 
BRANCH  15  17
ATOM     17  C   UNL A   1      31.473  26.911  26.216  1.00  0.00     0.156 C 
BRANCH  17  18
ATOM     18  C   UNL A   1      32.169  28.225  26.483  1.00  0.00    -0.028 A 
ATOM     19  C   UNL A   1      33.483  28.228  26.969  1.00  0.00     0.005 A 
ATOM     20  C   UNL A   1      31.517  29.448  26.276  1.00  0.00     0.009 A 
ATOM     21  C   UNL A   1      34.108  29.431  27.294  1.00  0.00     0.001 A 
ATOM     22  C   UNL A   1      32.115  30.652  26.650  1.00  0.00    -0.051 A 
ATOM     23  C   UNL A   1      33.421  30.637  27.148  1.00  0.00     0.003 A 
ATOM     24  C   UNL A   1      31.352  31.934  26.516  1.00  0.00     0.044 C 
ENDBRANCH  17  18
ENDBRANCH  15  17
ENDBRANCH  12  15
ENDBRANCH   7  11
ENDBRANCH   4   7
ENDBRANCH   2   3
ENDBRANCH   1   2
BRANCH   1  25
ATOM     25  C   UNL A   1      36.976  22.918  26.336  1.00  0.00     0.023 C 
BRANCH  25  26
ATOM     26  C   UNL A   1      38.347  23.262  25.790  1.00  0.00     0.116 C 
BRANCH  26  27
ATOM     27  N   UNL A   1      39.432  22.892  26.693  1.00  0.00    -0.352 N 
ATOM     28  C   UNL A   1      40.220  23.743  27.455  1.00  0.00     0.251 C 
ATOM     29  H   UNL A   1      39.626  21.929  26.772  1.00  0.00     0.163 HD
ATOM     30  O   UNL A   1      41.224  23.398  28.036  1.00  0.00    -0.269 OA
BRANCH  28  31
ATOM     31  C   UNL A   1      39.682  25.109  27.621  1.00  0.00     0.039 A 
ATOM     32  C   UNL A   1      40.311  26.115  26.880  1.00  0.00     0.014 A 
ATOM     33  C   UNL A   1      38.915  25.393  28.745  1.00  0.00     0.014 A 
ATOM     34  C   UNL A   1      40.332  27.408  27.386  1.00  0.00     0.010 A 
ATOM     35  C   UNL A   1      39.036  26.649  29.303  1.00  0.00     0.010 A 
ATOM     36  C   UNL A   1      39.783  27.639  28.646  1.00  0.00    -0.014 A 
BRANCH  36  37
ATOM     37  C   UNL A   1      39.952  28.889  29.374  1.00  0.00     0.031 A 
ATOM     38  C   UNL A   1      38.949  29.958  29.165  1.00  0.00     0.074 A 
ATOM     39  C   UNL A   1      40.965  29.051  30.255  1.00  0.00     0.049 A 
ATOM     40  N   UNL A   1      39.159  31.213  29.368  1.00  0.00    -0.248 NA
ATOM     41  C   UNL A   1      37.616  29.682  28.635  1.00  0.00     0.031 C 
ATOM     42  C   UNL A   1      41.127  30.150  31.206  1.00  0.00     0.029 A 
ATOM     43  N   UNL A   1      42.186  28.370  30.326  1.00  0.00    -0.354 N 
ATOM     44  C   UNL A   1      37.938  31.849  29.311  1.00  0.00     0.074 A 
ATOM     45  C   UNL A   1      37.031  30.875  28.758  1.00  0.00     0.031 C 
ATOM     46  C   UNL A   1      42.430  30.265  31.509  1.00  0.00     0.029 A 
ATOM     47  C   UNL A   1      43.149  29.343  30.647  1.00  0.00     0.049 A 
ATOM     48  H   UNL A   1      42.338  27.408  30.181  1.00  0.00     0.167 HD
ATOM     49  C   UNL A   1      37.799  33.080  29.880  1.00  0.00     0.031 A 
ATOM     50  C   UNL A   1      44.182  29.689  29.822  1.00  0.00     0.031 A 
ATOM     51  C   UNL A   1      39.089  33.600  30.331  1.00  0.00     0.049 A 
ATOM     52  C   UNL A   1      44.163  31.161  29.445  1.00  0.00     0.074 A 
ATOM     53  C   UNL A   1      39.698  33.669  31.573  1.00  0.00     0.029 A 
ATOM     54  N   UNL A   1      40.082  33.850  29.390  1.00  0.00    -0.354 N 
ATOM     55  N   UNL A   1      43.124  31.938  29.587  1.00  0.00    -0.248 NA
ATOM     56  C   UNL A   1      45.299  31.867  28.859  1.00  0.00     0.031 C 
ATOM     57  C   UNL A   1      41.090  33.870  31.365  1.00  0.00     0.029 A 
ATOM     58  C   UNL A   1      41.316  33.962  30.002  1.00  0.00     0.049 A 
ATOM     59  H   UNL A   1      39.927  33.934  28.422  1.00  0.00     0.167 HD
ATOM     60  C   UNL A   1      43.422  33.207  29.155  1.00  0.00     0.074 A 
ATOM     61  C   UNL A   1      44.801  33.109  28.710  1.00  0.00     0.031 C 
ATOM     62  C   UNL A   1      42.510  34.224  29.205  1.00  0.00     0.031 A 
BRANCH  49  63
ATOM     63  C   UNL A   1      36.463  33.667  30.288  1.00  0.00    -0.014 A 
ATOM     64  C   UNL A   1      35.583  34.150  29.297  1.00  0.00     0.010 A 
ATOM     65  C   UNL A   1      36.039  33.842  31.620  1.00  0.00     0.010 A 
ATOM     66  C   UNL A   1      34.408  34.852  29.616  1.00  0.00     0.020 A 
ATOM     67  C   UNL A   1      34.887  34.570  31.957  1.00  0.00     0.020 A 
ATOM     68  C   UNL A   1      34.081  35.083  30.948  1.00  0.00     0.054 A 
BRANCH  68  69
ATOM     69  S   UNL A   1      32.602  36.050  31.349  1.00  0.00     0.124 S 
ATOM     70  O   UNL A   1      31.935  35.209  32.340  1.00  0.00    -0.237 OA
ATOM     71  O   UNL A   1      33.171  37.296  31.857  1.00  0.00    -0.237 OA
ATOM     72  O   UNL A   1      31.904  36.164  30.069  1.00  0.00    -0.744 OA
ENDBRANCH  68  69
ENDBRANCH  49  63
BRANCH  50  73
ATOM     73  C   UNL A   1      44.679  28.582  28.958  1.00  0.00    -0.014 A 
ATOM     74  C   UNL A   1      45.690  27.748  29.489  1.00  0.00     0.010 A 
ATOM     75  C   UNL A   1      43.914  28.112  27.878  1.00  0.00     0.010 A 
ATOM     76  C   UNL A   1      45.813  26.421  29.070  1.00  0.00     0.020 A 
ATOM     77  C   UNL A   1      44.042  26.781  27.451  1.00  0.00     0.020 A 
ATOM     78  C   UNL A   1      44.943  25.929  28.099  1.00  0.00     0.054 A 
BRANCH  78  79
ATOM     79  S   UNL A   1      44.882  24.129  27.836  1.00  0.00     0.124 S 
ATOM     80  O   UNL A   1      46.292  23.789  27.686  1.00  0.00    -0.237 OA
ATOM     81  O   UNL A   1      44.249  23.667  29.070  1.00  0.00    -0.237 OA
ATOM     82  O   UNL A   1      44.067  23.994  26.634  1.00  0.00    -0.744 OA
ENDBRANCH  78  79
ENDBRANCH  50  73
BRANCH  62  83
ATOM     83  C   UNL A   1      42.648  35.603  28.591  1.00  0.00    -0.014 A 
ATOM     84  C   UNL A   1      42.007  36.026  27.418  1.00  0.00     0.010 A 
ATOM     85  C   UNL A   1      43.378  36.592  29.301  1.00  0.00     0.010 A 
ATOM     86  C   UNL A   1      42.132  37.345  26.950  1.00  0.00     0.020 A 
ATOM     87  C   UNL A   1      43.469  37.919  28.873  1.00  0.00     0.020 A 
ATOM     88  C   UNL A   1      42.863  38.283  27.680  1.00  0.00     0.054 A 
BRANCH  88  89
ATOM     89  S   UNL A   1      42.960  39.995  27.103  1.00  0.00     0.124 S 
ATOM     90  O   UNL A   1      44.319  40.056  26.570  1.00  0.00    -0.237 OA
ATOM     91  O   UNL A   1      41.893  40.065  26.106  1.00  0.00    -0.237 OA
ATOM     92  O   UNL A   1      42.723  40.779  28.311  1.00  0.00    -0.744 OA
ENDBRANCH  88  89
ENDBRANCH  62  83
ENDBRANCH  36  37
ENDBRANCH  28  31
ENDBRANCH  26  27
ENDBRANCH  25  26
ENDBRANCH   1  25
TORSDOF 19
ENDMDL
