MODEL 1
REMARK VINA RESULT:     -11.2      0.000      0.000
REMARK SMILES C[C@]1(C(=O)NCc2ccc(C(=O)NCCCCNC(=O)c3ccc(-c4c5nc(c(-c6ccc(S(=O)(=O)[O-])cc6)c6ccc([nH]6)c(-c6ccc(S(=O)(=O)[O-])cc6)c6nc(c(-c7ccc(S(=O)(=O)[O-])cc7)c7ccc4[nH]7)C=C6)C=C5)cc3)o2)CCC[NH2+]C1
REMARK SMILES IDX 15 1 14 2 13 3 11 4 12 5 10 7 7 8 8 9 81 10 9 11 6 12 5 13
REMARK SMILES IDX 3 14 4 15 2 17 1 18 82 19 86 20 83 21 85 22 84 23 16 26
REMARK SMILES IDX 17 27 18 28 19 29 20 31 21 32 22 33 80 34 23 35 79 36 24 37
REMARK SMILES IDX 25 38 26 39 73 40 27 41 78 42 72 43 74 44 28 45 77 46 71 47
REMARK SMILES IDX 70 48 29 50 59 51 40 52 58 53 41 54 44 55 57 56 75 57 42 58
REMARK SMILES IDX 43 59 56 61 76 62 45 63 30 64 31 65 39 66 32 67 38 68 33 69
REMARK SMILES IDX 34 70 35 71 36 72 37 73 60 74 61 75 69 76 62 77 68 78 63 79
REMARK SMILES IDX 64 80 65 81 66 82 67 83 46 84 47 85 55 86 48 87 54 88 49 89
REMARK SMILES IDX 50 90 51 91 52 92 53 93
REMARK H PARENT 13 6 5 16 85 24 85 25 18 30 74 49 44 60
REMARK Flexibility Score: inf
ROOT
ATOM      1  C   UNL A   1      32.541  29.218  24.919  1.00  0.00     0.023 C 
ENDROOT
BRANCH   1   2
ATOM      2  C   UNL A   1      31.134  29.815  24.905  1.00  0.00     0.116 C 
BRANCH   2   3
ATOM      3  N   UNL A   1      30.589  29.869  23.568  1.00  0.00    -0.349 N 
ATOM      4  C   UNL A   1      30.214  28.873  22.695  1.00  0.00     0.286 C 
ATOM      5  O   UNL A   1      29.748  29.264  21.621  1.00  0.00    -0.266 OA
ATOM      6  H   UNL A   1      30.465  30.780  23.218  1.00  0.00     0.163 HD
BRANCH   4   7
ATOM      7  C   UNL A   1      30.349  27.460  23.021  1.00  0.00     0.191 A 
ATOM      8  C   UNL A   1      31.403  25.508  22.848  1.00  0.00     0.124 A 
ATOM      9  C   UNL A   1      30.316  25.292  23.662  1.00  0.00     0.048 A 
ATOM     10  O   UNL A   1      31.433  26.813  22.467  1.00  0.00    -0.454 OA
ATOM     11  C   UNL A   1      29.653  26.537  23.785  1.00  0.00     0.056 A 
BRANCH   8  12
ATOM     12  C   UNL A   1      32.497  24.648  22.330  1.00  0.00     0.191 C 
BRANCH  12  13
ATOM     13  N   UNL A   1      32.195  23.258  22.604  1.00  0.00    -0.348 N 
ATOM     14  C   UNL A   1      32.665  22.318  23.446  1.00  0.00     0.232 C 
ATOM     15  O   UNL A   1      32.180  21.194  23.232  1.00  0.00    -0.274 OA
ATOM     16  H   UNL A   1      31.468  22.918  22.034  1.00  0.00     0.163 HD
BRANCH  14  17
ATOM     17  C   UNL A   1      33.740  22.490  24.555  1.00  0.00     0.095 C 
ATOM     18  C   UNL A   1      35.059  22.776  23.765  1.00  0.00     0.028 C 
ATOM     19  C   UNL A   1      33.470  23.747  25.411  1.00  0.00     0.028 C 
ATOM     20  C   UNL A   1      34.036  21.251  25.425  1.00  0.00     0.277 C 
ATOM     21  C   UNL A   1      32.624  23.483  26.648  1.00  0.00     0.063 C 
ATOM     22  N   UNL A   1      33.216  21.092  26.625  1.00  0.00    -0.345 N 
ATOM     23  C   UNL A   1      33.140  22.293  27.444  1.00  0.00     0.260 C 
ATOM     24  H   UNL A   1      32.271  20.837  26.337  1.00  0.00     0.346 HD
ATOM     25  H   UNL A   1      33.656  20.369  27.194  1.00  0.00     0.346 HD
ENDBRANCH  14  17
ENDBRANCH  12  13
ENDBRANCH   8  12
ENDBRANCH   4   7
ENDBRANCH   2   3
ENDBRANCH   1   2
BRANCH   1  26
ATOM     26  C   UNL A   1      32.752  28.134  25.982  1.00  0.00     0.023 C 
BRANCH  26  27
ATOM     27  C   UNL A   1      33.772  28.471  27.070  1.00  0.00     0.116 C 
BRANCH  27  28
ATOM     28  N   UNL A   1      33.649  29.827  27.584  1.00  0.00    -0.352 N 
ATOM     29  C   UNL A   1      34.591  30.584  28.244  1.00  0.00     0.251 C 
ATOM     30  H   UNL A   1      32.776  30.260  27.441  1.00  0.00     0.163 HD
ATOM     31  O   UNL A   1      34.294  31.681  28.691  1.00  0.00    -0.269 OA
BRANCH  29  32
ATOM     32  C   UNL A   1      35.949  30.033  28.441  1.00  0.00     0.039 A 
ATOM     33  C   UNL A   1      36.858  30.101  27.382  1.00  0.00     0.014 A 
ATOM     34  C   UNL A   1      36.332  29.492  29.670  1.00  0.00     0.014 A 
ATOM     35  C   UNL A   1      38.179  29.692  27.582  1.00  0.00     0.010 A 
ATOM     36  C   UNL A   1      37.662  29.144  29.885  1.00  0.00     0.010 A 
ATOM     37  C   UNL A   1      38.600  29.249  28.847  1.00  0.00    -0.014 A 
BRANCH  37  38
ATOM     38  C   UNL A   1      40.022  28.912  29.108  1.00  0.00     0.031 A 
ATOM     39  C   UNL A   1      40.951  29.944  29.686  1.00  0.00     0.074 A 
ATOM     40  C   UNL A   1      40.492  27.698  28.757  1.00  0.00     0.049 A 
ATOM     41  N   UNL A   1      42.235  29.854  29.922  1.00  0.00    -0.248 NA
ATOM     42  C   UNL A   1      40.368  31.253  30.017  1.00  0.00     0.031 C 
ATOM     43  C   UNL A   1      39.703  26.627  28.145  1.00  0.00     0.029 A 
ATOM     44  N   UNL A   1      41.753  27.164  28.857  1.00  0.00    -0.354 N 
ATOM     45  C   UNL A   1      42.616  31.098  30.412  1.00  0.00     0.074 A 
ATOM     46  C   UNL A   1      41.437  31.937  30.397  1.00  0.00     0.031 C 
ATOM     47  C   UNL A   1      40.491  25.557  27.947  1.00  0.00     0.029 A 
ATOM     48  C   UNL A   1      41.846  25.876  28.381  1.00  0.00     0.049 A 
ATOM     49  H   UNL A   1      42.518  27.655  29.234  1.00  0.00     0.167 HD
ATOM     50  C   UNL A   1      43.832  31.500  30.854  1.00  0.00     0.031 A 
ATOM     51  C   UNL A   1      42.905  25.048  28.299  1.00  0.00     0.031 A 
ATOM     52  C   UNL A   1      44.999  30.659  30.883  1.00  0.00     0.049 A 
ATOM     53  C   UNL A   1      44.244  25.516  28.797  1.00  0.00     0.074 A 
ATOM     54  C   UNL A   1      46.261  30.955  31.366  1.00  0.00     0.029 A 
ATOM     55  N   UNL A   1      45.048  29.357  30.408  1.00  0.00    -0.354 N 
ATOM     56  N   UNL A   1      44.569  26.674  29.320  1.00  0.00    -0.248 NA
ATOM     57  C   UNL A   1      45.358  24.562  28.704  1.00  0.00     0.031 C 
ATOM     58  C   UNL A   1      47.085  29.847  31.146  1.00  0.00     0.029 A 
ATOM     59  C   UNL A   1      46.323  28.843  30.569  1.00  0.00     0.049 A 
ATOM     60  H   UNL A   1      44.288  28.870  30.016  1.00  0.00     0.167 HD
ATOM     61  C   UNL A   1      45.919  26.580  29.637  1.00  0.00     0.074 A 
ATOM     62  C   UNL A   1      46.346  25.248  29.263  1.00  0.00     0.031 C 
ATOM     63  C   UNL A   1      46.732  27.515  30.189  1.00  0.00     0.031 A 
BRANCH  50  64
ATOM     64  C   UNL A   1      43.959  32.918  31.342  1.00  0.00    -0.014 A 
ATOM     65  C   UNL A   1      44.148  33.980  30.438  1.00  0.00     0.010 A 
ATOM     66  C   UNL A   1      43.854  33.199  32.716  1.00  0.00     0.010 A 
ATOM     67  C   UNL A   1      44.273  35.291  30.904  1.00  0.00     0.020 A 
ATOM     68  C   UNL A   1      43.953  34.513  33.183  1.00  0.00     0.020 A 
ATOM     69  C   UNL A   1      44.179  35.548  32.274  1.00  0.00     0.054 A 
BRANCH  69  70
ATOM     70  S   UNL A   1      44.327  37.262  32.850  1.00  0.00     0.124 S 
ATOM     71  O   UNL A   1      45.765  37.374  33.090  1.00  0.00    -0.237 OA
ATOM     72  O   UNL A   1      43.821  38.028  31.714  1.00  0.00    -0.237 OA
ATOM     73  O   UNL A   1      43.490  37.300  34.045  1.00  0.00    -0.744 OA
ENDBRANCH  69  70
ENDBRANCH  50  64
BRANCH  51  74
ATOM     74  C   UNL A   1      42.738  23.680  27.735  1.00  0.00    -0.014 A 
ATOM     75  C   UNL A   1      42.232  22.640  28.533  1.00  0.00     0.010 A 
ATOM     76  C   UNL A   1      43.073  23.416  26.395  1.00  0.00     0.010 A 
ATOM     77  C   UNL A   1      42.083  21.353  28.008  1.00  0.00     0.020 A 
ATOM     78  C   UNL A   1      42.902  22.136  25.858  1.00  0.00     0.020 A 
ATOM     79  C   UNL A   1      42.419  21.109  26.673  1.00  0.00     0.054 A 
BRANCH  79  80
ATOM     80  S   UNL A   1      42.171  19.444  25.996  1.00  0.00     0.124 S 
ATOM     81  O   UNL A   1      40.735  19.434  25.736  1.00  0.00    -0.237 OA
ATOM     82  O   UNL A   1      43.029  19.453  24.812  1.00  0.00    -0.237 OA
ATOM     83  O   UNL A   1      42.622  18.567  27.074  1.00  0.00    -0.744 OA
ENDBRANCH  79  80
ENDBRANCH  51  74
BRANCH  63  84
ATOM     84  C   UNL A   1      48.161  27.121  30.447  1.00  0.00    -0.014 A 
ATOM     85  C   UNL A   1      49.193  27.527  29.583  1.00  0.00     0.010 A 
ATOM     86  C   UNL A   1      48.481  26.381  31.601  1.00  0.00     0.010 A 
ATOM     87  C   UNL A   1      50.518  27.176  29.854  1.00  0.00     0.020 A 
ATOM     88  C   UNL A   1      49.807  26.050  31.887  1.00  0.00     0.020 A 
ATOM     89  C   UNL A   1      50.817  26.440  31.004  1.00  0.00     0.054 A 
BRANCH  89  90
ATOM     90  S   UNL A   1      52.550  26.038  31.359  1.00  0.00     0.124 S 
ATOM     91  O   UNL A   1      52.967  27.179  32.167  1.00  0.00    -0.237 OA
ATOM     92  O   UNL A   1      52.445  24.767  32.071  1.00  0.00    -0.237 OA
ATOM     93  O   UNL A   1      53.163  25.953  30.034  1.00  0.00    -0.744 OA
ENDBRANCH  89  90
ENDBRANCH  63  84
ENDBRANCH  37  38
ENDBRANCH  29  32
ENDBRANCH  27  28
ENDBRANCH  26  27
ENDBRANCH   1  26
TORSDOF 17
ENDMDL
MODEL 2
REMARK VINA RESULT:     -10.5      1.704      2.769
REMARK SMILES C[C@]1(C(=O)NCc2ccc(C(=O)NCCCCNC(=O)c3ccc(-c4c5nc(c(-c6ccc(S(=O)(=O)[O-])cc6)c6ccc([nH]6)c(-c6ccc(S(=O)(=O)[O-])cc6)c6nc(c(-c7ccc(S(=O)(=O)[O-])cc7)c7ccc4[nH]7)C=C6)C=C5)cc3)o2)CCC[NH2+]C1
REMARK SMILES IDX 15 1 14 2 13 3 11 4 12 5 10 7 7 8 8 9 81 10 9 11 6 12 5 13
REMARK SMILES IDX 3 14 4 15 2 17 1 18 82 19 86 20 83 21 85 22 84 23 16 26
REMARK SMILES IDX 17 27 18 28 19 29 20 31 21 32 22 33 80 34 23 35 79 36 24 37
REMARK SMILES IDX 25 38 26 39 73 40 27 41 78 42 72 43 74 44 28 45 77 46 71 47
REMARK SMILES IDX 70 48 29 50 59 51 40 52 58 53 41 54 44 55 57 56 75 57 42 58
REMARK SMILES IDX 43 59 56 61 76 62 45 63 30 64 31 65 39 66 32 67 38 68 33 69
REMARK SMILES IDX 34 70 35 71 36 72 37 73 60 74 61 75 69 76 62 77 68 78 63 79
REMARK SMILES IDX 64 80 65 81 66 82 67 83 46 84 47 85 55 86 48 87 54 88 49 89
REMARK SMILES IDX 50 90 51 91 52 92 53 93
REMARK H PARENT 13 6 5 16 85 24 85 25 18 30 74 49 44 60
REMARK Flexibility Score: inf
ROOT
ATOM      1  C   UNL A   1      31.764  28.316  26.518  1.00  0.00     0.023 C 
ENDROOT
BRANCH   1   2
ATOM      2  C   UNL A   1      31.380  26.865  26.805  1.00  0.00     0.116 C 
BRANCH   2   3
ATOM      3  N   UNL A   1      30.783  26.232  25.651  1.00  0.00    -0.349 N 
ATOM      4  C   UNL A   1      31.215  25.197  24.852  1.00  0.00     0.286 C 
ATOM      5  O   UNL A   1      30.438  24.872  23.950  1.00  0.00    -0.266 OA
ATOM      6  H   UNL A   1      29.913  26.609  25.388  1.00  0.00     0.163 HD
BRANCH   4   7
ATOM      7  C   UNL A   1      32.492  24.531  25.064  1.00  0.00     0.191 A 
ATOM      8  C   UNL A   1      33.700  22.815  25.803  1.00  0.00     0.124 A 
ATOM      9  C   UNL A   1      34.594  23.729  25.295  1.00  0.00     0.048 A 
ATOM     10  O   UNL A   1      32.433  23.288  25.658  1.00  0.00    -0.454 OA
ATOM     11  C   UNL A   1      33.824  24.814  24.811  1.00  0.00     0.056 A 
BRANCH   8  12
ATOM     12  C   UNL A   1      33.832  21.482  26.443  1.00  0.00     0.191 C 
BRANCH  12  13
ATOM     13  N   UNL A   1      34.785  20.678  25.705  1.00  0.00    -0.348 N 
ATOM     14  C   UNL A   1      34.728  19.561  24.956  1.00  0.00     0.232 C 
ATOM     15  O   UNL A   1      35.851  19.149  24.618  1.00  0.00    -0.274 OA
ATOM     16  H   UNL A   1      35.699  21.040  25.765  1.00  0.00     0.163 HD
BRANCH  14  17
ATOM     17  C   UNL A   1      33.463  18.754  24.552  1.00  0.00     0.095 C 
ATOM     18  C   UNL A   1      32.548  19.809  23.847  1.00  0.00     0.028 C 
ATOM     19  C   UNL A   1      33.792  17.688  23.485  1.00  0.00     0.028 C 
ATOM     20  C   UNL A   1      32.617  18.176  25.706  1.00  0.00     0.277 C 
ATOM     21  C   UNL A   1      34.146  16.325  24.061  1.00  0.00     0.063 C 
ATOM     22  N   UNL A   1      32.986  16.841  26.172  1.00  0.00    -0.345 N 
ATOM     23  C   UNL A   1      33.133  15.867  25.100  1.00  0.00     0.260 C 
ATOM     24  H   UNL A   1      33.873  16.908  26.671  1.00  0.00     0.346 HD
ATOM     25  H   UNL A   1      32.229  16.513  26.771  1.00  0.00     0.346 HD
ENDBRANCH  14  17
ENDBRANCH  12  13
ENDBRANCH   8  12
ENDBRANCH   4   7
ENDBRANCH   2   3
ENDBRANCH   1   2
BRANCH   1  26
ATOM     26  C   UNL A   1      32.951  28.473  25.560  1.00  0.00     0.023 C 
BRANCH  26  27
ATOM     27  C   UNL A   1      34.195  29.131  26.158  1.00  0.00     0.116 C 
BRANCH  27  28
ATOM     28  N   UNL A   1      33.905  30.319  26.946  1.00  0.00    -0.352 N 
ATOM     29  C   UNL A   1      34.643  30.875  27.967  1.00  0.00     0.251 C 
ATOM     30  H   UNL A   1      33.070  30.788  26.719  1.00  0.00     0.163 HD
ATOM     31  O   UNL A   1      34.209  31.832  28.589  1.00  0.00    -0.269 OA
BRANCH  29  32
ATOM     32  C   UNL A   1      35.944  30.271  28.327  1.00  0.00     0.039 A 
ATOM     33  C   UNL A   1      36.966  30.266  27.374  1.00  0.00     0.014 A 
ATOM     34  C   UNL A   1      36.165  29.750  29.604  1.00  0.00     0.014 A 
ATOM     35  C   UNL A   1      38.236  29.806  27.728  1.00  0.00     0.010 A 
ATOM     36  C   UNL A   1      37.446  29.351  29.973  1.00  0.00     0.010 A 
ATOM     37  C   UNL A   1      38.495  29.383  29.043  1.00  0.00    -0.014 A 
BRANCH  37  38
ATOM     38  C   UNL A   1      39.863  28.992  29.468  1.00  0.00     0.031 A 
ATOM     39  C   UNL A   1      40.717  29.952  30.249  1.00  0.00     0.074 A 
ATOM     40  C   UNL A   1      40.360  27.798  29.088  1.00  0.00     0.049 A 
ATOM     41  N   UNL A   1      41.954  29.813  30.650  1.00  0.00    -0.248 NA
ATOM     42  C   UNL A   1      40.111  31.246  30.602  1.00  0.00     0.031 C 
ATOM     43  C   UNL A   1      39.649  26.798  28.288  1.00  0.00     0.029 A 
ATOM     44  N   UNL A   1      41.588  27.227  29.316  1.00  0.00    -0.354 N 
ATOM     45  C   UNL A   1      42.281  31.004  31.288  1.00  0.00     0.074 A 
ATOM     46  C   UNL A   1      41.127  31.871  31.179  1.00  0.00     0.031 C 
ATOM     47  C   UNL A   1      40.443  25.728  28.114  1.00  0.00     0.029 A 
ATOM     48  C   UNL A   1      41.729  25.979  28.754  1.00  0.00     0.049 A 
ATOM     49  H   UNL A   1      42.300  27.668  29.831  1.00  0.00     0.167 HD
ATOM     50  C   UNL A   1      43.429  31.341  31.922  1.00  0.00     0.031 A 
ATOM     51  C   UNL A   1      42.778  25.134  28.751  1.00  0.00     0.031 A 
ATOM     52  C   UNL A   1      44.569  30.472  32.043  1.00  0.00     0.049 A 
ATOM     53  C   UNL A   1      44.041  25.529  29.463  1.00  0.00     0.074 A 
ATOM     54  C   UNL A   1      45.756  30.698  32.717  1.00  0.00     0.029 A 
ATOM     55  N   UNL A   1      44.666  29.211  31.475  1.00  0.00    -0.354 N 
ATOM     56  N   UNL A   1      44.306  26.634  30.118  1.00  0.00    -0.248 NA
ATOM     57  C   UNL A   1      45.145  24.558  29.446  1.00  0.00     0.031 C 
ATOM     58  C   UNL A   1      46.587  29.591  32.522  1.00  0.00     0.029 A 
ATOM     59  C   UNL A   1      45.899  28.655  31.767  1.00  0.00     0.049 A 
ATOM     60  H   UNL A   1      43.961  28.774  30.944  1.00  0.00     0.167 HD
ATOM     61  C   UNL A   1      45.598  26.482  30.608  1.00  0.00     0.074 A 
ATOM     62  C   UNL A   1      46.054  25.173  30.189  1.00  0.00     0.031 C 
ATOM     63  C   UNL A   1      46.339  27.350  31.340  1.00  0.00     0.031 A 
BRANCH  50  64
ATOM     64  C   UNL A   1      43.506  32.713  32.536  1.00  0.00    -0.014 A 
ATOM     65  C   UNL A   1      43.117  32.931  33.871  1.00  0.00     0.010 A 
ATOM     66  C   UNL A   1      44.005  33.791  31.784  1.00  0.00     0.010 A 
ATOM     67  C   UNL A   1      43.185  34.210  34.428  1.00  0.00     0.020 A 
ATOM     68  C   UNL A   1      44.099  35.068  32.346  1.00  0.00     0.020 A 
ATOM     69  C   UNL A   1      43.672  35.272  33.659  1.00  0.00     0.054 A 
BRANCH  69  70
ATOM     70  S   UNL A   1      43.766  36.919  34.413  1.00  0.00     0.124 S 
ATOM     71  O   UNL A   1      43.045  36.715  35.668  1.00  0.00    -0.237 OA
ATOM     72  O   UNL A   1      45.205  37.131  34.544  1.00  0.00    -0.237 OA
ATOM     73  O   UNL A   1      43.097  37.783  33.444  1.00  0.00    -0.744 OA
ENDBRANCH  69  70
ENDBRANCH  50  64
BRANCH  51  74
ATOM     74  C   UNL A   1      42.672  23.819  28.060  1.00  0.00    -0.014 A 
ATOM     75  C   UNL A   1      42.439  22.646  28.798  1.00  0.00     0.010 A 
ATOM     76  C   UNL A   1      42.792  23.737  26.661  1.00  0.00     0.010 A 
ATOM     77  C   UNL A   1      42.349  21.409  28.152  1.00  0.00     0.020 A 
ATOM     78  C   UNL A   1      42.678  22.505  26.009  1.00  0.00     0.020 A 
ATOM     79  C   UNL A   1      42.468  21.347  26.761  1.00  0.00     0.054 A 
BRANCH  79  80
ATOM     80  S   UNL A   1      42.298  19.740  25.936  1.00  0.00     0.124 S 
ATOM     81  O   UNL A   1      43.323  19.820  24.901  1.00  0.00    -0.237 OA
ATOM     82  O   UNL A   1      42.566  18.797  27.021  1.00  0.00    -0.237 OA
ATOM     83  O   UNL A   1      40.918  19.747  25.457  1.00  0.00    -0.744 OA
ENDBRANCH  79  80
ENDBRANCH  51  74
BRANCH  63  84
ATOM     84  C   UNL A   1      47.713  26.903  31.758  1.00  0.00    -0.014 A 
ATOM     85  C   UNL A   1      47.916  26.212  32.966  1.00  0.00     0.010 A 
ATOM     86  C   UNL A   1      48.808  27.130  30.903  1.00  0.00     0.010 A 
ATOM     87  C   UNL A   1      49.195  25.780  33.324  1.00  0.00     0.020 A 
ATOM     88  C   UNL A   1      50.083  26.677  31.247  1.00  0.00     0.020 A 
ATOM     89  C   UNL A   1      50.272  26.015  32.462  1.00  0.00     0.054 A 
BRANCH  89  90
ATOM     90  S   UNL A   1      51.914  25.402  32.927  1.00  0.00     0.124 S 
ATOM     91  O   UNL A   1      52.091  24.281  32.010  1.00  0.00    -0.237 OA
ATOM     92  O   UNL A   1      52.770  26.559  32.680  1.00  0.00    -0.237 OA
ATOM     93  O   UNL A   1      51.761  25.038  34.335  1.00  0.00    -0.744 OA
ENDBRANCH  89  90
ENDBRANCH  63  84
ENDBRANCH  37  38
ENDBRANCH  29  32
ENDBRANCH  27  28
ENDBRANCH  26  27
ENDBRANCH   1  26
TORSDOF 17
ENDMDL
MODEL 3
REMARK VINA RESULT:     -10.5      4.655     10.466
REMARK SMILES C[C@]1(C(=O)NCc2ccc(C(=O)NCCCCNC(=O)c3ccc(-c4c5nc(c(-c6ccc(S(=O)(=O)[O-])cc6)c6ccc([nH]6)c(-c6ccc(S(=O)(=O)[O-])cc6)c6nc(c(-c7ccc(S(=O)(=O)[O-])cc7)c7ccc4[nH]7)C=C6)C=C5)cc3)o2)CCC[NH2+]C1
REMARK SMILES IDX 15 1 14 2 13 3 11 4 12 5 10 7 7 8 8 9 81 10 9 11 6 12 5 13
REMARK SMILES IDX 3 14 4 15 2 17 1 18 82 19 86 20 83 21 85 22 84 23 16 26
REMARK SMILES IDX 17 27 18 28 19 29 20 31 21 32 22 33 80 34 23 35 79 36 24 37
REMARK SMILES IDX 25 38 26 39 73 40 27 41 78 42 72 43 74 44 28 45 77 46 71 47
REMARK SMILES IDX 70 48 29 50 59 51 40 52 58 53 41 54 44 55 57 56 75 57 42 58
REMARK SMILES IDX 43 59 56 61 76 62 45 63 30 64 31 65 39 66 32 67 38 68 33 69
REMARK SMILES IDX 34 70 35 71 36 72 37 73 60 74 61 75 69 76 62 77 68 78 63 79
REMARK SMILES IDX 64 80 65 81 66 82 67 83 46 84 47 85 55 86 48 87 54 88 49 89
REMARK SMILES IDX 50 90 51 91 52 92 53 93
REMARK H PARENT 13 6 5 16 85 24 85 25 18 30 74 49 44 60
REMARK Flexibility Score: inf
ROOT
ATOM      1  C   UNL A   1      39.552  21.908  26.214  1.00  0.00     0.023 C 
ENDROOT
BRANCH   1   2
ATOM      2  C   UNL A   1      38.135  22.433  25.978  1.00  0.00     0.116 C 
BRANCH   2   3
ATOM      3  N   UNL A   1      37.820  22.503  24.570  1.00  0.00    -0.349 N 
ATOM      4  C   UNL A   1      36.643  22.780  23.911  1.00  0.00     0.286 C 
ATOM      5  O   UNL A   1      36.721  22.792  22.680  1.00  0.00    -0.266 OA
ATOM      6  H   UNL A   1      38.582  22.320  23.975  1.00  0.00     0.163 HD
BRANCH   4   7
ATOM      7  C   UNL A   1      35.400  23.049  24.619  1.00  0.00     0.191 A 
ATOM      8  C   UNL A   1      33.295  23.771  24.666  1.00  0.00     0.124 A 
ATOM      9  C   UNL A   1      33.604  23.394  25.952  1.00  0.00     0.048 A 
ATOM     10  O   UNL A   1      34.369  23.558  23.858  1.00  0.00    -0.454 OA
ATOM     11  C   UNL A   1      34.939  22.920  25.919  1.00  0.00     0.056 A 
BRANCH   8  12
ATOM     12  C   UNL A   1      32.086  24.335  24.014  1.00  0.00     0.191 C 
BRANCH  12  13
ATOM     13  N   UNL A   1      32.452  25.496  23.228  1.00  0.00    -0.348 N 
ATOM     14  C   UNL A   1      32.379  26.831  23.390  1.00  0.00     0.232 C 
ATOM     15  O   UNL A   1      32.703  27.458  22.366  1.00  0.00    -0.274 OA
ATOM     16  H   UNL A   1      32.854  25.247  22.364  1.00  0.00     0.163 HD
BRANCH  14  17
ATOM     17  C   UNL A   1      31.896  27.609  24.645  1.00  0.00     0.095 C 
ATOM     18  C   UNL A   1      30.391  27.208  24.785  1.00  0.00     0.028 C 
ATOM     19  C   UNL A   1      32.596  27.104  25.925  1.00  0.00     0.028 C 
ATOM     20  C   UNL A   1      31.908  29.149  24.547  1.00  0.00     0.277 C 
ATOM     21  C   UNL A   1      33.867  27.865  26.275  1.00  0.00     0.063 C 
ATOM     22  N   UNL A   1      33.147  29.812  24.949  1.00  0.00    -0.345 N 
ATOM     23  C   UNL A   1      33.654  29.371  26.241  1.00  0.00     0.260 C 
ATOM     24  H   UNL A   1      33.858  29.622  24.242  1.00  0.00     0.346 HD
ATOM     25  H   UNL A   1      32.940  30.807  25.033  1.00  0.00     0.346 HD
ENDBRANCH  14  17
ENDBRANCH  12  13
ENDBRANCH   8  12
ENDBRANCH   4   7
ENDBRANCH   2   3
ENDBRANCH   1   2
BRANCH   1  26
ATOM     26  C   UNL A   1      40.254  22.521  27.431  1.00  0.00     0.023 C 
BRANCH  26  27
ATOM     27  C   UNL A   1      41.688  22.995  27.192  1.00  0.00     0.116 C 
BRANCH  27  28
ATOM     28  N   UNL A   1      41.831  23.857  26.029  1.00  0.00    -0.352 N 
ATOM     29  C   UNL A   1      41.805  25.232  25.970  1.00  0.00     0.251 C 
ATOM     30  H   UNL A   1      41.964  23.396  25.169  1.00  0.00     0.163 HD
ATOM     31  O   UNL A   1      41.851  25.803  24.891  1.00  0.00    -0.269 OA
BRANCH  29  32
ATOM     32  C   UNL A   1      41.676  26.005  27.225  1.00  0.00     0.039 A 
ATOM     33  C   UNL A   1      42.713  26.866  27.590  1.00  0.00     0.014 A 
ATOM     34  C   UNL A   1      40.526  25.907  28.012  1.00  0.00     0.014 A 
ATOM     35  C   UNL A   1      42.563  27.690  28.709  1.00  0.00     0.010 A 
ATOM     36  C   UNL A   1      40.353  26.772  29.089  1.00  0.00     0.010 A 
ATOM     37  C   UNL A   1      41.365  27.677  29.442  1.00  0.00    -0.014 A 
BRANCH  37  38
ATOM     38  C   UNL A   1      41.144  28.619  30.568  1.00  0.00     0.031 A 
ATOM     39  C   UNL A   1      41.980  28.519  31.814  1.00  0.00     0.074 A 
ATOM     40  C   UNL A   1      40.141  29.517  30.496  1.00  0.00     0.049 A 
ATOM     41  N   UNL A   1      41.891  29.210  32.922  1.00  0.00    -0.248 NA
ATOM     42  C   UNL A   1      43.038  27.496  31.826  1.00  0.00     0.031 C 
ATOM     43  C   UNL A   1      39.228  29.680  29.361  1.00  0.00     0.029 A 
ATOM     44  N   UNL A   1      39.714  30.456  31.401  1.00  0.00    -0.354 N 
ATOM     45  C   UNL A   1      42.866  28.694  33.768  1.00  0.00     0.074 A 
ATOM     46  C   UNL A   1      43.504  27.603  33.061  1.00  0.00     0.031 C 
ATOM     47  C   UNL A   1      38.367  30.676  29.629  1.00  0.00     0.029 A 
ATOM     48  C   UNL A   1      38.639  31.196  30.965  1.00  0.00     0.049 A 
ATOM     49  H   UNL A   1      40.137  30.588  32.280  1.00  0.00     0.167 HD
ATOM     50  C   UNL A   1      43.212  29.102  35.012  1.00  0.00     0.031 A 
ATOM     51  C   UNL A   1      37.948  32.179  31.573  1.00  0.00     0.031 A 
ATOM     52  C   UNL A   1      42.588  30.196  35.706  1.00  0.00     0.049 A 
ATOM     53  C   UNL A   1      38.352  32.615  32.953  1.00  0.00     0.074 A 
ATOM     54  C   UNL A   1      42.906  30.723  36.945  1.00  0.00     0.029 A 
ATOM     55  N   UNL A   1      41.515  30.929  35.223  1.00  0.00    -0.354 N 
ATOM     56  N   UNL A   1      39.322  32.159  33.710  1.00  0.00    -0.248 NA
ATOM     57  C   UNL A   1      37.577  33.707  33.559  1.00  0.00     0.031 C 
ATOM     58  C   UNL A   1      42.000  31.749  37.230  1.00  0.00     0.029 A 
ATOM     59  C   UNL A   1      41.147  31.892  36.147  1.00  0.00     0.049 A 
ATOM     60  H   UNL A   1      41.080  30.788  34.351  1.00  0.00     0.167 HD
ATOM     61  C   UNL A   1      39.285  32.922  34.871  1.00  0.00     0.074 A 
ATOM     62  C   UNL A   1      38.210  33.879  34.711  1.00  0.00     0.031 C 
ATOM     63  C   UNL A   1      40.073  32.837  35.972  1.00  0.00     0.031 A 
BRANCH  50  64
ATOM     64  C   UNL A   1      44.323  28.356  35.703  1.00  0.00    -0.014 A 
ATOM     65  C   UNL A   1      45.663  28.759  35.559  1.00  0.00     0.010 A 
ATOM     66  C   UNL A   1      44.022  27.261  36.533  1.00  0.00     0.010 A 
ATOM     67  C   UNL A   1      46.686  28.054  36.198  1.00  0.00     0.020 A 
ATOM     68  C   UNL A   1      45.041  26.569  37.195  1.00  0.00     0.020 A 
ATOM     69  C   UNL A   1      46.368  26.960  37.008  1.00  0.00     0.054 A 
BRANCH  69  70
ATOM     70  S   UNL A   1      47.714  26.074  37.840  1.00  0.00     0.124 S 
ATOM     71  O   UNL A   1      48.768  26.112  36.828  1.00  0.00    -0.237 OA
ATOM     72  O   UNL A   1      47.954  26.892  39.026  1.00  0.00    -0.237 OA
ATOM     73  O   UNL A   1      47.150  24.753  38.102  1.00  0.00    -0.744 OA
ENDBRANCH  69  70
ENDBRANCH  50  64
BRANCH  51  74
ATOM     74  C   UNL A   1      36.807  32.830  30.871  1.00  0.00    -0.014 A 
ATOM     75  C   UNL A   1      35.493  32.381  31.086  1.00  0.00     0.010 A 
ATOM     76  C   UNL A   1      37.031  33.906  29.995  1.00  0.00     0.010 A 
ATOM     77  C   UNL A   1      34.421  32.985  30.421  1.00  0.00     0.020 A 
ATOM     78  C   UNL A   1      35.959  34.529  29.346  1.00  0.00     0.020 A 
ATOM     79  C   UNL A   1      34.662  34.056  29.555  1.00  0.00     0.054 A 
BRANCH  79  80
ATOM     80  S   UNL A   1      33.253  34.858  28.740  1.00  0.00     0.124 S 
ATOM     81  O   UNL A   1      32.397  35.191  29.874  1.00  0.00    -0.237 OA
ATOM     82  O   UNL A   1      33.882  35.993  28.066  1.00  0.00    -0.237 OA
ATOM     83  O   UNL A   1      32.740  33.821  27.847  1.00  0.00    -0.744 OA
ENDBRANCH  79  80
ENDBRANCH  51  74
BRANCH  63  84
ATOM     84  C   UNL A   1      39.818  33.821  37.081  1.00  0.00    -0.014 A 
ATOM     85  C   UNL A   1      39.040  33.472  38.198  1.00  0.00     0.010 A 
ATOM     86  C   UNL A   1      40.413  35.096  37.028  1.00  0.00     0.010 A 
ATOM     87  C   UNL A   1      38.838  34.390  39.231  1.00  0.00     0.020 A 
ATOM     88  C   UNL A   1      40.234  36.007  38.071  1.00  0.00     0.020 A 
ATOM     89  C   UNL A   1      39.436  35.652  39.162  1.00  0.00     0.054 A 
BRANCH  89  90
ATOM     90  S   UNL A   1      39.199  36.810  40.538  1.00  0.00     0.124 S 
ATOM     91  O   UNL A   1      38.334  36.045  41.432  1.00  0.00    -0.237 OA
ATOM     92  O   UNL A   1      40.562  37.026  41.015  1.00  0.00    -0.237 OA
ATOM     93  O   UNL A   1      38.574  37.972  39.908  1.00  0.00    -0.744 OA
ENDBRANCH  89  90
ENDBRANCH  63  84
ENDBRANCH  37  38
ENDBRANCH  29  32
ENDBRANCH  27  28
ENDBRANCH  26  27
ENDBRANCH   1  26
TORSDOF 17
ENDMDL
