MODEL 1
REMARK VINA RESULT:     -10.7      0.000      0.000
REMARK SMILES CC(C)Cc1ccc([C@H](CC(=O)NCCCCNC(=O)c2ccc(-c3c4nc(c(-c5ccc(S(=O)(=O)[O-])cc5)c5ccc([nH]5)c(-c5ccc(S(=O)(=O)[O-])cc5)c5nc(c(-c6ccc(S(=O)(=O)[O-])cc6)c6ccc3[nH]6)C=C5)C=C4)cc2)NC=O)cc1
REMARK SMILES IDX 15 1 14 2 13 3 11 4 12 5 10 7 9 8 8 9 5 10 6 11 85 12 7 13
REMARK SMILES IDX 84 14 4 15 2 16 1 17 3 18 81 19 82 20 83 22 16 23 17 24
REMARK SMILES IDX 18 25 19 26 20 28 21 29 22 30 80 31 23 32 79 33 24 34 25 35
REMARK SMILES IDX 26 36 73 37 27 38 78 39 72 40 74 41 28 42 77 43 71 44 70 45
REMARK SMILES IDX 29 47 59 48 40 49 58 50 41 51 44 52 57 53 75 54 42 55 43 56
REMARK SMILES IDX 56 58 76 59 45 60 30 61 31 62 39 63 32 64 38 65 33 66 34 67
REMARK SMILES IDX 35 68 36 69 37 70 60 71 61 72 69 73 62 74 68 75 63 76 64 77
REMARK SMILES IDX 65 78 66 79 67 80 46 81 47 82 55 83 48 84 54 85 49 86 50 87
REMARK SMILES IDX 51 88 52 89 53 90
REMARK H PARENT 13 6 81 21 18 27 74 46 44 57
REMARK Flexibility Score: inf
ROOT
ATOM      1  C   UNL A   1      33.057  28.292  24.708  1.00  0.00     0.023 C 
ENDROOT
BRANCH   1   2
ATOM      2  C   UNL A   1      32.008  27.915  23.675  1.00  0.00     0.116 C 
BRANCH   2   3
ATOM      3  N   UNL A   1      32.597  27.152  22.585  1.00  0.00    -0.356 N 
ATOM      4  C   UNL A   1      33.253  25.954  22.621  1.00  0.00     0.222 C 
ATOM      5  O   UNL A   1      33.826  25.553  21.607  1.00  0.00    -0.275 OA
ATOM      6  H   UNL A   1      32.511  27.559  21.692  1.00  0.00     0.163 HD
BRANCH   4   7
ATOM      7  C   UNL A   1      33.204  25.113  23.877  1.00  0.00     0.129 C 
BRANCH   7   8
ATOM      8  C   UNL A   1      32.003  24.161  24.050  1.00  0.00     0.121 C 
BRANCH   8   9
ATOM      9  C   UNL A   1      32.319  22.670  23.967  1.00  0.00    -0.025 A 
ATOM     10  C   UNL A   1      32.520  19.837  24.018  1.00  0.00    -0.048 A 
ATOM     11  C   UNL A   1      32.238  20.507  22.823  1.00  0.00     0.004 A 
ATOM     12  C   UNL A   1      32.820  20.597  25.154  1.00  0.00     0.004 A 
ATOM     13  C   UNL A   1      32.138  21.907  22.797  1.00  0.00     0.006 A 
ATOM     14  C   UNL A   1      32.736  21.993  25.125  1.00  0.00     0.006 A 
BRANCH  10  15
ATOM     15  C   UNL A   1      32.365  18.335  24.123  1.00  0.00     0.038 C 
BRANCH  15  16
ATOM     16  C   UNL A   1      33.643  17.529  24.400  1.00  0.00    -0.013 C 
ATOM     17  C   UNL A   1      33.432  16.436  25.448  1.00  0.00     0.008 C 
ATOM     18  C   UNL A   1      34.121  16.887  23.091  1.00  0.00     0.008 C 
ENDBRANCH  15  16
ENDBRANCH  10  15
ENDBRANCH   8   9
BRANCH   8  19
ATOM     19  N   UNL A   1      31.393  24.500  25.338  1.00  0.00    -0.351 N 
ATOM     20  C   UNL A   1      30.303  25.290  25.523  1.00  0.00     0.337 C 
ATOM     21  H   UNL A   1      31.812  24.121  26.143  1.00  0.00     0.163 HD
ATOM     22  O   UNL A   1      29.833  25.499  26.627  1.00  0.00    -0.279 OA
ENDBRANCH   8  19
ENDBRANCH   7   8
ENDBRANCH   4   7
ENDBRANCH   2   3
ENDBRANCH   1   2
BRANCH   1  23
ATOM     23  C   UNL A   1      32.539  28.267  26.143  1.00  0.00     0.023 C 
BRANCH  23  24
ATOM     24  C   UNL A   1      33.622  28.543  27.162  1.00  0.00     0.116 C 
BRANCH  24  25
ATOM     25  N   UNL A   1      33.612  29.903  27.689  1.00  0.00    -0.352 N 
ATOM     26  C   UNL A   1      34.636  30.640  28.241  1.00  0.00     0.251 C 
ATOM     27  H   UNL A   1      32.743  30.363  27.643  1.00  0.00     0.163 HD
ATOM     28  O   UNL A   1      34.411  31.776  28.646  1.00  0.00    -0.269 OA
BRANCH  26  29
ATOM     29  C   UNL A   1      35.977  30.034  28.413  1.00  0.00     0.039 A 
ATOM     30  C   UNL A   1      36.896  30.116  27.362  1.00  0.00     0.014 A 
ATOM     31  C   UNL A   1      36.363  29.455  29.620  1.00  0.00     0.014 A 
ATOM     32  C   UNL A   1      38.215  29.701  27.562  1.00  0.00     0.010 A 
ATOM     33  C   UNL A   1      37.701  29.197  29.866  1.00  0.00     0.010 A 
ATOM     34  C   UNL A   1      38.643  29.289  28.834  1.00  0.00    -0.014 A 
BRANCH  34  35
ATOM     35  C   UNL A   1      40.051  28.911  29.117  1.00  0.00     0.031 A 
ATOM     36  C   UNL A   1      40.980  29.922  29.742  1.00  0.00     0.074 A 
ATOM     37  C   UNL A   1      40.514  27.704  28.736  1.00  0.00     0.049 A 
ATOM     38  N   UNL A   1      42.266  29.835  29.965  1.00  0.00    -0.248 NA
ATOM     39  C   UNL A   1      40.400  31.226  30.118  1.00  0.00     0.031 C 
ATOM     40  C   UNL A   1      39.733  26.664  28.059  1.00  0.00     0.029 A 
ATOM     41  N   UNL A   1      41.762  27.147  28.859  1.00  0.00    -0.354 N 
ATOM     42  C   UNL A   1      42.647  31.076  30.464  1.00  0.00     0.074 A 
ATOM     43  C   UNL A   1      41.477  31.922  30.439  1.00  0.00     0.031 C 
ATOM     44  C   UNL A   1      40.505  25.581  27.873  1.00  0.00     0.029 A 
ATOM     45  C   UNL A   1      41.847  25.864  28.368  1.00  0.00     0.049 A 
ATOM     46  H   UNL A   1      42.526  27.622  29.259  1.00  0.00     0.167 HD
ATOM     47  C   UNL A   1      43.852  31.469  30.938  1.00  0.00     0.031 A 
ATOM     48  C   UNL A   1      42.890  25.013  28.324  1.00  0.00     0.031 A 
ATOM     49  C   UNL A   1      44.996  30.604  31.009  1.00  0.00     0.049 A 
ATOM     50  C   UNL A   1      44.211  25.455  28.891  1.00  0.00     0.074 A 
ATOM     51  C   UNL A   1      46.245  30.869  31.542  1.00  0.00     0.029 A 
ATOM     52  N   UNL A   1      45.027  29.299  30.541  1.00  0.00    -0.354 N 
ATOM     53  N   UNL A   1      44.532  26.612  29.422  1.00  0.00    -0.248 NA
ATOM     54  C   UNL A   1      45.305  24.475  28.868  1.00  0.00     0.031 C 
ATOM     55  C   UNL A   1      47.045  29.739  31.354  1.00  0.00     0.029 A 
ATOM     56  C   UNL A   1      46.277  28.749  30.761  1.00  0.00     0.049 A 
ATOM     57  H   UNL A   1      44.271  28.833  30.117  1.00  0.00     0.167 HD
ATOM     58  C   UNL A   1      45.857  26.486  29.826  1.00  0.00     0.074 A 
ATOM     59  C   UNL A   1      46.270  25.139  29.490  1.00  0.00     0.031 C 
ATOM     60  C   UNL A   1      46.661  27.402  30.424  1.00  0.00     0.031 A 
BRANCH  47  61
ATOM     61  C   UNL A   1      43.982  32.889  31.428  1.00  0.00    -0.014 A 
ATOM     62  C   UNL A   1      43.726  33.222  32.772  1.00  0.00     0.010 A 
ATOM     63  C   UNL A   1      44.389  33.901  30.541  1.00  0.00     0.010 A 
ATOM     64  C   UNL A   1      43.825  34.546  33.206  1.00  0.00     0.020 A 
ATOM     65  C   UNL A   1      44.523  35.222  30.979  1.00  0.00     0.020 A 
ATOM     66  C   UNL A   1      44.220  35.539  32.305  1.00  0.00     0.054 A 
BRANCH  66  67
ATOM     67  S   UNL A   1      44.360  37.245  32.903  1.00  0.00     0.124 S 
ATOM     68  O   UNL A   1      43.188  37.358  33.767  1.00  0.00    -0.237 OA
ATOM     69  O   UNL A   1      45.649  37.238  33.591  1.00  0.00    -0.237 OA
ATOM     70  O   UNL A   1      44.313  38.046  31.682  1.00  0.00    -0.744 OA
ENDBRANCH  66  67
ENDBRANCH  47  61
BRANCH  48  71
ATOM     71  C   UNL A   1      42.714  23.646  27.757  1.00  0.00    -0.014 A 
ATOM     72  C   UNL A   1      42.216  22.602  28.556  1.00  0.00     0.010 A 
ATOM     73  C   UNL A   1      43.024  23.385  26.410  1.00  0.00     0.010 A 
ATOM     74  C   UNL A   1      42.053  21.318  28.027  1.00  0.00     0.020 A 
ATOM     75  C   UNL A   1      42.834  22.109  25.868  1.00  0.00     0.020 A 
ATOM     76  C   UNL A   1      42.362  21.080  26.684  1.00  0.00     0.054 A 
BRANCH  76  77
ATOM     77  S   UNL A   1      42.096  19.418  26.007  1.00  0.00     0.124 S 
ATOM     78  O   UNL A   1      42.906  19.451  24.795  1.00  0.00    -0.237 OA
ATOM     79  O   UNL A   1      42.591  18.558  27.080  1.00  0.00    -0.237 OA
ATOM     80  O   UNL A   1      40.651  19.364  25.794  1.00  0.00    -0.744 OA
ENDBRANCH  76  77
ENDBRANCH  48  71
BRANCH  60  81
ATOM     81  C   UNL A   1      48.051  26.966  30.796  1.00  0.00    -0.014 A 
ATOM     82  C   UNL A   1      49.128  27.119  29.906  1.00  0.00     0.010 A 
ATOM     83  C   UNL A   1      48.290  26.455  32.085  1.00  0.00     0.010 A 
ATOM     84  C   UNL A   1      50.416  26.740  30.289  1.00  0.00     0.020 A 
ATOM     85  C   UNL A   1      49.581  26.104  32.482  1.00  0.00     0.020 A 
ATOM     86  C   UNL A   1      50.634  26.235  31.576  1.00  0.00     0.054 A 
BRANCH  86  87
ATOM     87  S   UNL A   1      52.323  25.794  32.065  1.00  0.00     0.124 S 
ATOM     88  O   UNL A   1      52.204  24.359  32.306  1.00  0.00    -0.237 OA
ATOM     89  O   UNL A   1      53.105  26.172  30.889  1.00  0.00    -0.237 OA
ATOM     90  O   UNL A   1      52.565  26.609  33.254  1.00  0.00    -0.744 OA
ENDBRANCH  86  87
ENDBRANCH  60  81
ENDBRANCH  34  35
ENDBRANCH  26  29
ENDBRANCH  24  25
ENDBRANCH  23  24
ENDBRANCH   1  23
TORSDOF 19
ENDMDL
MODEL 2
REMARK VINA RESULT:     -10.6      1.472      2.182
REMARK SMILES CC(C)Cc1ccc([C@H](CC(=O)NCCCCNC(=O)c2ccc(-c3c4nc(c(-c5ccc(S(=O)(=O)[O-])cc5)c5ccc([nH]5)c(-c5ccc(S(=O)(=O)[O-])cc5)c5nc(c(-c6ccc(S(=O)(=O)[O-])cc6)c6ccc3[nH]6)C=C5)C=C4)cc2)NC=O)cc1
REMARK SMILES IDX 15 1 14 2 13 3 11 4 12 5 10 7 9 8 8 9 5 10 6 11 85 12 7 13
REMARK SMILES IDX 84 14 4 15 2 16 1 17 3 18 81 19 82 20 83 22 16 23 17 24
REMARK SMILES IDX 18 25 19 26 20 28 21 29 22 30 80 31 23 32 79 33 24 34 25 35
REMARK SMILES IDX 26 36 73 37 27 38 78 39 72 40 74 41 28 42 77 43 71 44 70 45
REMARK SMILES IDX 29 47 59 48 40 49 58 50 41 51 44 52 57 53 75 54 42 55 43 56
REMARK SMILES IDX 56 58 76 59 45 60 30 61 31 62 39 63 32 64 38 65 33 66 34 67
REMARK SMILES IDX 35 68 36 69 37 70 60 71 61 72 69 73 62 74 68 75 63 76 64 77
REMARK SMILES IDX 65 78 66 79 67 80 46 81 47 82 55 83 48 84 54 85 49 86 50 87
REMARK SMILES IDX 51 88 52 89 53 90
REMARK H PARENT 13 6 81 21 18 27 74 46 44 57
REMARK Flexibility Score: inf
ROOT
ATOM      1  C   UNL A   1      33.091  28.948  24.847  1.00  0.00     0.023 C 
ENDROOT
BRANCH   1   2
ATOM      2  C   UNL A   1      31.635  28.550  25.031  1.00  0.00     0.116 C 
BRANCH   2   3
ATOM      3  N   UNL A   1      31.146  27.806  23.879  1.00  0.00    -0.356 N 
ATOM      4  C   UNL A   1      30.938  26.462  23.741  1.00  0.00     0.222 C 
ATOM      5  O   UNL A   1      30.676  26.008  22.627  1.00  0.00    -0.275 OA
ATOM      6  H   UNL A   1      30.935  28.350  23.086  1.00  0.00     0.163 HD
BRANCH   4   7
ATOM      7  C   UNL A   1      30.963  25.573  24.963  1.00  0.00     0.129 C 
BRANCH   7   8
ATOM      8  C   UNL A   1      31.175  24.061  24.740  1.00  0.00     0.121 C 
BRANCH   8   9
ATOM      9  C   UNL A   1      32.606  23.558  24.904  1.00  0.00    -0.025 A 
ATOM     10  C   UNL A   1      35.348  22.821  24.822  1.00  0.00    -0.048 A 
ATOM     11  C   UNL A   1      34.906  23.815  25.701  1.00  0.00     0.004 A 
ATOM     12  C   UNL A   1      34.394  22.117  24.077  1.00  0.00     0.004 A 
ATOM     13  C   UNL A   1      33.551  24.181  25.741  1.00  0.00     0.006 A 
ATOM     14  C   UNL A   1      33.042  22.470  24.129  1.00  0.00     0.006 A 
BRANCH  10  15
ATOM     15  C   UNL A   1      36.825  22.605  24.571  1.00  0.00     0.038 C 
BRANCH  15  16
ATOM     16  C   UNL A   1      37.538  21.597  25.484  1.00  0.00    -0.013 C 
ATOM     17  C   UNL A   1      37.867  20.286  24.770  1.00  0.00     0.008 C 
ATOM     18  C   UNL A   1      38.837  22.226  26.005  1.00  0.00     0.008 C 
ENDBRANCH  15  16
ENDBRANCH  10  15
ENDBRANCH   8   9
BRANCH   8  19
ATOM     19  N   UNL A   1      30.266  23.379  25.665  1.00  0.00    -0.351 N 
ATOM     20  C   UNL A   1      30.041  23.719  26.962  1.00  0.00     0.337 C 
ATOM     21  H   UNL A   1      29.773  22.603  25.314  1.00  0.00     0.163 HD
ATOM     22  O   UNL A   1      29.242  23.121  27.659  1.00  0.00    -0.279 OA
ENDBRANCH   8  19
ENDBRANCH   7   8
ENDBRANCH   4   7
ENDBRANCH   2   3
ENDBRANCH   1   2
BRANCH   1  23
ATOM     23  C   UNL A   1      34.031  28.313  25.866  1.00  0.00     0.023 C 
BRANCH  23  24
ATOM     24  C   UNL A   1      33.610  28.578  27.295  1.00  0.00     0.116 C 
BRANCH  24  25
ATOM     25  N   UNL A   1      33.665  29.983  27.682  1.00  0.00    -0.352 N 
ATOM     26  C   UNL A   1      34.725  30.725  28.152  1.00  0.00     0.251 C 
ATOM     27  H   UNL A   1      32.816  30.475  27.595  1.00  0.00     0.163 HD
ATOM     28  O   UNL A   1      34.555  31.905  28.442  1.00  0.00    -0.269 OA
BRANCH  26  29
ATOM     29  C   UNL A   1      36.040  30.080  28.377  1.00  0.00     0.039 A 
ATOM     30  C   UNL A   1      37.006  30.143  27.370  1.00  0.00     0.014 A 
ATOM     31  C   UNL A   1      36.355  29.481  29.596  1.00  0.00     0.014 A 
ATOM     32  C   UNL A   1      38.303  29.689  27.624  1.00  0.00     0.010 A 
ATOM     33  C   UNL A   1      37.673  29.182  29.898  1.00  0.00     0.010 A 
ATOM     34  C   UNL A   1      38.662  29.255  28.910  1.00  0.00    -0.014 A 
BRANCH  34  35
ATOM     35  C   UNL A   1      40.044  28.835  29.252  1.00  0.00     0.031 A 
ATOM     36  C   UNL A   1      40.965  29.806  29.950  1.00  0.00     0.074 A 
ATOM     37  C   UNL A   1      40.498  27.628  28.860  1.00  0.00     0.049 A 
ATOM     38  N   UNL A   1      42.236  29.680  30.234  1.00  0.00    -0.248 NA
ATOM     39  C   UNL A   1      40.397  31.112  30.333  1.00  0.00     0.031 C 
ATOM     40  C   UNL A   1      39.727  26.626  28.116  1.00  0.00     0.029 A 
ATOM     41  N   UNL A   1      41.725  27.037  29.029  1.00  0.00    -0.354 N 
ATOM     42  C   UNL A   1      42.620  30.898  30.785  1.00  0.00     0.074 A 
ATOM     43  C   UNL A   1      41.473  31.773  30.727  1.00  0.00     0.031 C 
ATOM     44  C   UNL A   1      40.482  25.530  27.938  1.00  0.00     0.029 A 
ATOM     45  C   UNL A   1      41.804  25.766  28.507  1.00  0.00     0.049 A 
ATOM     46  H   UNL A   1      42.479  27.481  29.480  1.00  0.00     0.167 HD
ATOM     47  C   UNL A   1      43.808  31.247  31.330  1.00  0.00     0.031 A 
ATOM     48  C   UNL A   1      42.827  24.890  28.491  1.00  0.00     0.031 A 
ATOM     49  C   UNL A   1      44.927  30.353  31.433  1.00  0.00     0.049 A 
ATOM     50  C   UNL A   1      44.129  25.284  29.135  1.00  0.00     0.074 A 
ATOM     51  C   UNL A   1      46.153  30.573  32.034  1.00  0.00     0.029 A 
ATOM     52  N   UNL A   1      44.951  29.060  30.931  1.00  0.00    -0.354 N 
ATOM     53  N   UNL A   1      44.450  26.417  29.713  1.00  0.00    -0.248 NA
ATOM     54  C   UNL A   1      45.199  24.278  29.138  1.00  0.00     0.031 C 
ATOM     55  C   UNL A   1      46.935  29.429  31.855  1.00  0.00     0.029 A 
ATOM     56  C   UNL A   1      46.175  28.474  31.196  1.00  0.00     0.049 A 
ATOM     57  H   UNL A   1      44.206  28.625  30.457  1.00  0.00     0.167 HD
ATOM     58  C   UNL A   1      45.749  26.248  30.179  1.00  0.00     0.074 A 
ATOM     59  C   UNL A   1      46.147  24.901  29.826  1.00  0.00     0.031 C 
ATOM     60  C   UNL A   1      46.543  27.127  30.841  1.00  0.00     0.031 A 
BRANCH  47  61
ATOM     61  C   UNL A   1      43.947  32.650  31.866  1.00  0.00    -0.014 A 
ATOM     62  C   UNL A   1      44.345  33.713  31.032  1.00  0.00     0.010 A 
ATOM     63  C   UNL A   1      43.652  32.917  33.215  1.00  0.00     0.010 A 
ATOM     64  C   UNL A   1      44.495  35.002  31.548  1.00  0.00     0.020 A 
ATOM     65  C   UNL A   1      43.767  34.212  33.727  1.00  0.00     0.020 A 
ATOM     66  C   UNL A   1      44.207  35.243  32.895  1.00  0.00     0.054 A 
BRANCH  66  67
ATOM     67  S   UNL A   1      44.391  36.931  33.530  1.00  0.00     0.124 S 
ATOM     68  O   UNL A   1      43.005  37.393  33.561  1.00  0.00    -0.237 OA
ATOM     69  O   UNL A   1      45.010  36.716  34.836  1.00  0.00    -0.237 OA
ATOM     70  O   UNL A   1      45.243  37.585  32.540  1.00  0.00    -0.744 OA
ENDBRANCH  66  67
ENDBRANCH  47  61
BRANCH  48  71
ATOM     71  C   UNL A   1      42.648  23.544  27.877  1.00  0.00    -0.014 A 
ATOM     72  C   UNL A   1      43.113  23.287  26.575  1.00  0.00     0.010 A 
ATOM     73  C   UNL A   1      42.031  22.505  28.598  1.00  0.00     0.010 A 
ATOM     74  C   UNL A   1      42.944  22.026  25.996  1.00  0.00     0.020 A 
ATOM     75  C   UNL A   1      41.887  21.233  28.034  1.00  0.00     0.020 A 
ATOM     76  C   UNL A   1      42.333  21.005  26.731  1.00  0.00     0.054 A 
BRANCH  76  77
ATOM     77  S   UNL A   1      42.169  19.363  25.977  1.00  0.00     0.124 S 
ATOM     78  O   UNL A   1      40.726  19.257  25.793  1.00  0.00    -0.237 OA
ATOM     79  O   UNL A   1      42.957  19.497  24.754  1.00  0.00    -0.237 OA
ATOM     80  O   UNL A   1      42.740  18.468  26.982  1.00  0.00    -0.744 OA
ENDBRANCH  76  77
ENDBRANCH  48  71
BRANCH  60  81
ATOM     81  C   UNL A   1      47.902  26.647  31.269  1.00  0.00    -0.014 A 
ATOM     82  C   UNL A   1      48.111  26.074  32.536  1.00  0.00     0.010 A 
ATOM     83  C   UNL A   1      48.974  26.714  30.359  1.00  0.00     0.010 A 
ATOM     84  C   UNL A   1      49.375  25.603  32.895  1.00  0.00     0.020 A 
ATOM     85  C   UNL A   1      50.231  26.217  30.704  1.00  0.00     0.020 A 
ATOM     86  C   UNL A   1      50.427  25.677  31.976  1.00  0.00     0.054 A 
BRANCH  86  87
ATOM     87  S   UNL A   1      52.047  25.015  32.450  1.00  0.00     0.124 S 
ATOM     88  O   UNL A   1      52.198  25.528  33.809  1.00  0.00    -0.237 OA
ATOM     89  O   UNL A   1      51.847  23.572  32.340  1.00  0.00    -0.237 OA
ATOM     90  O   UNL A   1      52.960  25.589  31.463  1.00  0.00    -0.744 OA
ENDBRANCH  86  87
ENDBRANCH  60  81
ENDBRANCH  34  35
ENDBRANCH  26  29
ENDBRANCH  24  25
ENDBRANCH  23  24
ENDBRANCH   1  23
TORSDOF 19
ENDMDL
MODEL 3
REMARK VINA RESULT:     -10.6      2.847      9.511
REMARK SMILES CC(C)Cc1ccc([C@H](CC(=O)NCCCCNC(=O)c2ccc(-c3c4nc(c(-c5ccc(S(=O)(=O)[O-])cc5)c5ccc([nH]5)c(-c5ccc(S(=O)(=O)[O-])cc5)c5nc(c(-c6ccc(S(=O)(=O)[O-])cc6)c6ccc3[nH]6)C=C5)C=C4)cc2)NC=O)cc1
REMARK SMILES IDX 15 1 14 2 13 3 11 4 12 5 10 7 9 8 8 9 5 10 6 11 85 12 7 13
REMARK SMILES IDX 84 14 4 15 2 16 1 17 3 18 81 19 82 20 83 22 16 23 17 24
REMARK SMILES IDX 18 25 19 26 20 28 21 29 22 30 80 31 23 32 79 33 24 34 25 35
REMARK SMILES IDX 26 36 73 37 27 38 78 39 72 40 74 41 28 42 77 43 71 44 70 45
REMARK SMILES IDX 29 47 59 48 40 49 58 50 41 51 44 52 57 53 75 54 42 55 43 56
REMARK SMILES IDX 56 58 76 59 45 60 30 61 31 62 39 63 32 64 38 65 33 66 34 67
REMARK SMILES IDX 35 68 36 69 37 70 60 71 61 72 69 73 62 74 68 75 63 76 64 77
REMARK SMILES IDX 65 78 66 79 67 80 46 81 47 82 55 83 48 84 54 85 49 86 50 87
REMARK SMILES IDX 51 88 52 89 53 90
REMARK H PARENT 13 6 81 21 18 27 74 46 44 57
REMARK Flexibility Score: inf
ROOT
ATOM      1  C   UNL A   1      34.627  23.949  25.326  1.00  0.00     0.023 C 
ENDROOT
BRANCH   1   2
ATOM      2  C   UNL A   1      33.620  22.810  25.327  1.00  0.00     0.116 C 
BRANCH   2   3
ATOM      3  N   UNL A   1      33.399  22.305  23.980  1.00  0.00    -0.356 N 
ATOM      4  C   UNL A   1      32.283  22.391  23.194  1.00  0.00     0.222 C 
ATOM      5  O   UNL A   1      32.240  21.751  22.142  1.00  0.00    -0.275 OA
ATOM      6  H   UNL A   1      34.163  21.833  23.577  1.00  0.00     0.163 HD
BRANCH   4   7
ATOM      7  C   UNL A   1      31.159  23.319  23.593  1.00  0.00     0.129 C 
BRANCH   7   8
ATOM      8  C   UNL A   1      31.185  24.754  23.025  1.00  0.00     0.121 C 
BRANCH   8   9
ATOM      9  C   UNL A   1      31.495  25.861  24.028  1.00  0.00    -0.025 A 
ATOM     10  C   UNL A   1      32.129  27.596  26.186  1.00  0.00    -0.048 A 
ATOM     11  C   UNL A   1      33.052  27.375  25.158  1.00  0.00     0.004 A 
ATOM     12  C   UNL A   1      30.850  27.042  26.064  1.00  0.00     0.004 A 
ATOM     13  C   UNL A   1      32.739  26.518  24.091  1.00  0.00     0.006 A 
ATOM     14  C   UNL A   1      30.532  26.201  24.993  1.00  0.00     0.006 A 
BRANCH  10  15
ATOM     15  C   UNL A   1      32.542  28.291  27.465  1.00  0.00     0.038 C 
BRANCH  15  16
ATOM     16  C   UNL A   1      32.817  29.799  27.370  1.00  0.00    -0.013 C 
ATOM     17  C   UNL A   1      34.279  30.111  27.047  1.00  0.00     0.008 C 
ATOM     18  C   UNL A   1      31.921  30.403  26.280  1.00  0.00     0.008 C 
ENDBRANCH  15  16
ENDBRANCH  10  15
ENDBRANCH   8   9
BRANCH   8  19
ATOM     19  N   UNL A   1      32.159  24.744  21.931  1.00  0.00    -0.351 N 
ATOM     20  C   UNL A   1      32.269  25.677  20.949  1.00  0.00     0.337 C 
ATOM     21  H   UNL A   1      32.792  23.991  21.904  1.00  0.00     0.163 HD
ATOM     22  O   UNL A   1      33.131  25.616  20.090  1.00  0.00    -0.279 OA
ENDBRANCH   8  19
ENDBRANCH   7   8
ENDBRANCH   4   7
ENDBRANCH   2   3
ENDBRANCH   1   2
BRANCH   1  23
ATOM     23  C   UNL A   1      35.932  23.610  26.039  1.00  0.00     0.023 C 
BRANCH  23  24
ATOM     24  C   UNL A   1      37.112  23.536  25.095  1.00  0.00     0.116 C 
BRANCH  24  25
ATOM     25  N   UNL A   1      38.176  22.643  25.541  1.00  0.00    -0.352 N 
ATOM     26  C   UNL A   1      39.242  22.893  26.375  1.00  0.00     0.251 C 
ATOM     27  H   UNL A   1      38.124  21.724  25.192  1.00  0.00     0.163 HD
ATOM     28  O   UNL A   1      40.046  21.997  26.613  1.00  0.00    -0.269 OA
BRANCH  26  29
ATOM     29  C   UNL A   1      39.455  24.255  26.919  1.00  0.00     0.039 A 
ATOM     30  C   UNL A   1      39.074  24.526  28.236  1.00  0.00     0.014 A 
ATOM     31  C   UNL A   1      40.094  25.243  26.171  1.00  0.00     0.014 A 
ATOM     32  C   UNL A   1      39.416  25.748  28.819  1.00  0.00     0.010 A 
ATOM     33  C   UNL A   1      40.572  26.382  26.796  1.00  0.00     0.010 A 
ATOM     34  C   UNL A   1      40.217  26.666  28.121  1.00  0.00    -0.014 A 
BRANCH  34  35
ATOM     35  C   UNL A   1      40.673  27.945  28.723  1.00  0.00     0.031 A 
ATOM     36  C   UNL A   1      42.086  28.062  29.240  1.00  0.00     0.074 A 
ATOM     37  C   UNL A   1      39.801  28.961  28.887  1.00  0.00     0.049 A 
ATOM     38  N   UNL A   1      42.645  29.043  29.899  1.00  0.00    -0.248 NA
ATOM     39  C   UNL A   1      42.973  26.901  29.035  1.00  0.00     0.031 C 
ATOM     40  C   UNL A   1      38.389  28.946  28.493  1.00  0.00     0.029 A 
ATOM     41  N   UNL A   1      39.975  30.206  29.434  1.00  0.00    -0.354 N 
ATOM     42  C   UNL A   1      43.925  28.600  30.218  1.00  0.00     0.074 A 
ATOM     43  C   UNL A   1      44.033  27.239  29.750  1.00  0.00     0.031 C 
ATOM     44  C   UNL A   1      37.841  30.140  28.766  1.00  0.00     0.029 A 
ATOM     45  C   UNL A   1      38.843  30.989  29.399  1.00  0.00     0.049 A 
ATOM     46  H   UNL A   1      40.829  30.512  29.817  1.00  0.00     0.167 HD
ATOM     47  C   UNL A   1      44.935  29.277  30.812  1.00  0.00     0.031 A 
ATOM     48  C   UNL A   1      38.639  32.249  29.829  1.00  0.00     0.031 A 
ATOM     49  C   UNL A   1      44.836  30.648  31.226  1.00  0.00     0.049 A 
ATOM     50  C   UNL A   1      39.786  32.997  30.452  1.00  0.00     0.074 A 
ATOM     51  C   UNL A   1      45.818  31.459  31.766  1.00  0.00     0.029 A 
ATOM     52  N   UNL A   1      43.686  31.418  31.132  1.00  0.00    -0.354 N 
ATOM     53  N   UNL A   1      41.010  32.583  30.683  1.00  0.00    -0.248 NA
ATOM     54  C   UNL A   1      39.531  34.385  30.858  1.00  0.00     0.031 C 
ATOM     55  C   UNL A   1      45.249  32.704  32.043  1.00  0.00     0.029 A 
ATOM     56  C   UNL A   1      43.929  32.690  31.617  1.00  0.00     0.049 A 
ATOM     57  H   UNL A   1      42.824  31.104  30.773  1.00  0.00     0.167 HD
ATOM     58  C   UNL A   1      41.680  33.671  31.232  1.00  0.00     0.074 A 
ATOM     59  C   UNL A   1      40.729  34.763  31.285  1.00  0.00     0.031 C 
ATOM     60  C   UNL A   1      42.967  33.761  31.652  1.00  0.00     0.031 A 
BRANCH  47  61
ATOM     61  C   UNL A   1      46.234  28.543  31.033  1.00  0.00    -0.014 A 
ATOM     62  C   UNL A   1      47.246  28.543  30.054  1.00  0.00     0.010 A 
ATOM     63  C   UNL A   1      46.457  27.864  32.244  1.00  0.00     0.010 A 
ATOM     64  C   UNL A   1      48.433  27.837  30.261  1.00  0.00     0.020 A 
ATOM     65  C   UNL A   1      47.658  27.184  32.469  1.00  0.00     0.020 A 
ATOM     66  C   UNL A   1      48.631  27.159  31.468  1.00  0.00     0.054 A 
BRANCH  66  67
ATOM     67  S   UNL A   1      50.191  26.269  31.716  1.00  0.00     0.124 S 
ATOM     68  O   UNL A   1      50.365  26.365  33.163  1.00  0.00    -0.237 OA
ATOM     69  O   UNL A   1      49.883  24.935  31.207  1.00  0.00    -0.237 OA
ATOM     70  O   UNL A   1      51.154  27.029  30.921  1.00  0.00    -0.744 OA
ENDBRANCH  66  67
ENDBRANCH  47  61
BRANCH  48  71
ATOM     71  C   UNL A   1      37.307  32.893  29.648  1.00  0.00    -0.014 A 
ATOM     72  C   UNL A   1      36.958  33.473  28.416  1.00  0.00     0.010 A 
ATOM     73  C   UNL A   1      36.374  32.913  30.700  1.00  0.00     0.010 A 
ATOM     74  C   UNL A   1      35.710  34.080  28.245  1.00  0.00     0.020 A 
ATOM     75  C   UNL A   1      35.113  33.492  30.525  1.00  0.00     0.020 A 
ATOM     76  C   UNL A   1      34.794  34.084  29.302  1.00  0.00     0.054 A 
BRANCH  76  77
ATOM     77  S   UNL A   1      33.162  34.834  29.040  1.00  0.00     0.124 S 
ATOM     78  O   UNL A   1      33.514  36.162  28.550  1.00  0.00    -0.237 OA
ATOM     79  O   UNL A   1      32.555  33.936  28.061  1.00  0.00    -0.237 OA
ATOM     80  O   UNL A   1      32.554  34.798  30.369  1.00  0.00    -0.744 OA
ENDBRANCH  76  77
ENDBRANCH  48  71
BRANCH  60  81
ATOM     81  C   UNL A   1      43.437  35.095  32.163  1.00  0.00    -0.014 A 
ATOM     82  C   UNL A   1      44.023  36.042  31.305  1.00  0.00     0.010 A 
ATOM     83  C   UNL A   1      43.227  35.427  33.514  1.00  0.00     0.010 A 
ATOM     84  C   UNL A   1      44.418  37.288  31.797  1.00  0.00     0.020 A 
ATOM     85  C   UNL A   1      43.593  36.682  34.003  1.00  0.00     0.020 A 
ATOM     86  C   UNL A   1      44.200  37.600  33.144  1.00  0.00     0.054 A 
BRANCH  86  87
ATOM     87  S   UNL A   1      44.679  39.241  33.747  1.00  0.00     0.124 S 
ATOM     88  O   UNL A   1      45.696  38.913  34.741  1.00  0.00    -0.237 OA
ATOM     89  O   UNL A   1      45.170  39.896  32.536  1.00  0.00    -0.237 OA
ATOM     90  O   UNL A   1      43.436  39.791  34.284  1.00  0.00    -0.744 OA
ENDBRANCH  86  87
ENDBRANCH  60  81
ENDBRANCH  34  35
ENDBRANCH  26  29
ENDBRANCH  24  25
ENDBRANCH  23  24
ENDBRANCH   1  23
TORSDOF 19
ENDMDL
