MODEL 1
REMARK VINA RESULT:     -12.0      0.000      0.000
REMARK SMILES O=C(CC1CCN(C(=O)c2ccc3[nH]ccc3c2)CC1)NCCCCNC(=O)c1ccc(-c2c3nc(c(-c4ccc(S(=O)(=O)[O-])cc4)c4ccc([nH]4)c(-c4ccc(S(=O)(=O)[O-])cc4)c4nc(c(-c5ccc(S(=O)(=O)[O-])cc5)c5ccc2[nH]5)C=C4)C=C3)cc1
REMARK SMILES IDX 24 1 23 2 22 3 21 4 1 5 2 6 3 8 4 9 5 10 20 11 6 12 19 13
REMARK SMILES IDX 7 14 8 15 9 16 10 17 11 18 18 19 12 20 17 21 13 22 16 23
REMARK SMILES IDX 14 24 15 25 25 27 26 28 27 29 28 31 29 32 30 33 88 34 31 35
REMARK SMILES IDX 87 36 32 37 33 38 34 39 81 40 35 41 86 42 80 43 82 44 36 45
REMARK SMILES IDX 85 46 79 47 78 48 37 50 67 51 48 52 66 53 49 54 52 55 65 56
REMARK SMILES IDX 83 57 50 58 51 59 64 61 84 62 53 63 38 64 39 65 47 66 40 67
REMARK SMILES IDX 46 68 41 69 42 70 43 71 44 72 45 73 68 74 69 75 77 76 70 77
REMARK SMILES IDX 76 78 71 79 72 80 73 81 74 82 75 83 54 84 55 85 63 86 56 87
REMARK SMILES IDX 62 88 57 89 58 90 59 91 60 92 61 93
REMARK H PARENT 21 7 14 26 26 30 82 49 52 60
REMARK Flexibility Score: inf
ROOT
ATOM      1  C   UNL A   1      42.676  22.137  27.094  1.00  0.00     0.023 C 
ENDROOT
BRANCH   1   2
ATOM      2  C   UNL A   1      41.436  21.949  26.209  1.00  0.00     0.023 C 
BRANCH   2   3
ATOM      3  C   UNL A   1      40.135  21.567  26.923  1.00  0.00     0.116 C 
BRANCH   3   4
ATOM      4  N   UNL A   1      39.010  22.382  26.504  1.00  0.00    -0.356 N 
ATOM      5  O   UNL A   1      38.059  20.835  25.128  1.00  0.00    -0.275 OA
ATOM      6  C   UNL A   1      38.055  21.965  25.615  1.00  0.00     0.220 C 
ATOM      7  H   UNL A   1      38.928  23.289  26.881  1.00  0.00     0.163 HD
BRANCH   6   8
ATOM      8  C   UNL A   1      37.049  23.010  25.135  1.00  0.00     0.103 C 
BRANCH   8   9
ATOM      9  C   UNL A   1      35.528  22.916  25.369  1.00  0.00     0.002 C 
ATOM     10  C   UNL A   1      34.741  22.240  24.246  1.00  0.00     0.026 C 
ATOM     11  C   UNL A   1      34.798  24.181  25.799  1.00  0.00     0.026 C 
ATOM     12  C   UNL A   1      34.480  23.137  23.057  1.00  0.00     0.120 C 
ATOM     13  C   UNL A   1      34.442  25.127  24.664  1.00  0.00     0.120 C 
ATOM     14  N   UNL A   1      34.062  24.502  23.392  1.00  0.00    -0.339 N 
ATOM     15  C   UNL A   1      33.411  25.196  22.369  1.00  0.00     0.253 C 
ATOM     16  O   UNL A   1      33.312  24.746  21.229  1.00  0.00    -0.269 OA
BRANCH  15  17
ATOM     17  C   UNL A   1      32.771  26.503  22.627  1.00  0.00     0.040 A 
ATOM     18  C   UNL A   1      33.472  27.713  22.572  1.00  0.00     0.016 A 
ATOM     19  C   UNL A   1      31.377  26.485  22.779  1.00  0.00     0.024 A 
ATOM     20  C   UNL A   1      32.798  28.935  22.686  1.00  0.00     0.027 A 
ATOM     21  C   UNL A   1      30.685  27.702  22.885  1.00  0.00     0.000 A 
ATOM     22  C   UNL A   1      31.406  28.896  22.835  1.00  0.00     0.045 A 
ATOM     23  C   UNL A   1      29.312  28.039  23.018  1.00  0.00     0.028 A 
ATOM     24  N   UNL A   1      30.488  29.919  22.934  1.00  0.00    -0.361 N 
ATOM     25  C   UNL A   1      29.221  29.410  23.048  1.00  0.00     0.083 A 
ATOM     26  H   UNL A   1      30.710  30.878  22.925  1.00  0.00     0.166 HD
ENDBRANCH  15  17
ENDBRANCH   8   9
ENDBRANCH   6   8
ENDBRANCH   3   4
ENDBRANCH   2   3
ENDBRANCH   1   2
BRANCH   1  27
ATOM     27  C   UNL A   1      43.357  23.501  27.032  1.00  0.00     0.116 C 
BRANCH  27  28
ATOM     28  N   UNL A   1      42.937  24.320  25.907  1.00  0.00    -0.352 N 
ATOM     29  C   UNL A   1      42.369  25.573  25.899  1.00  0.00     0.251 C 
ATOM     30  H   UNL A   1      43.080  23.917  25.020  1.00  0.00     0.163 HD
ATOM     31  O   UNL A   1      42.012  26.057  24.822  1.00  0.00    -0.269 OA
BRANCH  29  32
ATOM     32  C   UNL A   1      42.149  26.342  27.151  1.00  0.00     0.039 A 
ATOM     33  C   UNL A   1      42.999  27.410  27.447  1.00  0.00     0.014 A 
ATOM     34  C   UNL A   1      41.144  26.004  28.057  1.00  0.00     0.014 A 
ATOM     35  C   UNL A   1      42.796  28.173  28.605  1.00  0.00     0.010 A 
ATOM     36  C   UNL A   1      40.901  26.802  29.179  1.00  0.00     0.010 A 
ATOM     37  C   UNL A   1      41.720  27.900  29.468  1.00  0.00    -0.014 A 
BRANCH  37  38
ATOM     38  C   UNL A   1      41.427  28.775  30.639  1.00  0.00     0.031 A 
ATOM     39  C   UNL A   1      42.221  28.664  31.915  1.00  0.00     0.074 A 
ATOM     40  C   UNL A   1      40.401  29.650  30.574  1.00  0.00     0.049 A 
ATOM     41  N   UNL A   1      42.100  29.351  33.024  1.00  0.00    -0.248 NA
ATOM     42  C   UNL A   1      43.280  27.642  31.959  1.00  0.00     0.031 C 
ATOM     43  C   UNL A   1      39.515  29.827  29.420  1.00  0.00     0.029 A 
ATOM     44  N   UNL A   1      39.925  30.550  31.496  1.00  0.00    -0.354 N 
ATOM     45  C   UNL A   1      43.061  28.850  33.895  1.00  0.00     0.074 A 
ATOM     46  C   UNL A   1      43.725  27.765  33.202  1.00  0.00     0.031 C 
ATOM     47  C   UNL A   1      38.624  30.794  29.693  1.00  0.00     0.029 A 
ATOM     48  C   UNL A   1      38.843  31.277  31.054  1.00  0.00     0.049 A 
ATOM     49  H   UNL A   1      40.320  30.664  32.391  1.00  0.00     0.167 HD
ATOM     50  C   UNL A   1      43.376  29.261  35.148  1.00  0.00     0.031 A 
ATOM     51  C   UNL A   1      38.100  32.219  31.668  1.00  0.00     0.031 A 
ATOM     52  C   UNL A   1      42.705  30.327  35.847  1.00  0.00     0.049 A 
ATOM     53  C   UNL A   1      38.447  32.635  33.073  1.00  0.00     0.074 A 
ATOM     54  C   UNL A   1      42.986  30.842  37.102  1.00  0.00     0.029 A 
ATOM     55  N   UNL A   1      41.613  31.032  35.365  1.00  0.00    -0.354 N 
ATOM     56  N   UNL A   1      39.414  32.203  33.846  1.00  0.00    -0.248 NA
ATOM     57  C   UNL A   1      37.607  33.676  33.684  1.00  0.00     0.031 C 
ATOM     58  C   UNL A   1      42.027  31.815  37.404  1.00  0.00     0.029 A 
ATOM     59  C   UNL A   1      41.190  31.956  36.309  1.00  0.00     0.049 A 
ATOM     60  H   UNL A   1      41.198  30.897  34.483  1.00  0.00     0.167 HD
ATOM     61  C   UNL A   1      39.318  32.940  35.022  1.00  0.00     0.074 A 
ATOM     62  C   UNL A   1      38.209  33.855  34.853  1.00  0.00     0.031 C 
ATOM     63  C   UNL A   1      40.083  32.864  36.139  1.00  0.00     0.031 A 
BRANCH  50  64
ATOM     64  C   UNL A   1      44.499  28.545  35.857  1.00  0.00    -0.014 A 
ATOM     65  C   UNL A   1      45.815  29.044  35.820  1.00  0.00     0.010 A 
ATOM     66  C   UNL A   1      44.230  27.390  36.614  1.00  0.00     0.010 A 
ATOM     67  C   UNL A   1      46.845  28.377  36.489  1.00  0.00     0.020 A 
ATOM     68  C   UNL A   1      45.253  26.737  37.309  1.00  0.00     0.020 A 
ATOM     69  C   UNL A   1      46.558  27.225  37.225  1.00  0.00     0.054 A 
BRANCH  69  70
ATOM     70  S   UNL A   1      47.915  26.386  38.089  1.00  0.00     0.124 S 
ATOM     71  O   UNL A   1      49.079  27.135  37.620  1.00  0.00    -0.237 OA
ATOM     72  O   UNL A   1      47.569  26.581  39.495  1.00  0.00    -0.237 OA
ATOM     73  O   UNL A   1      47.831  25.007  37.614  1.00  0.00    -0.744 OA
ENDBRANCH  69  70
ENDBRANCH  50  64
BRANCH  51  74
ATOM     74  C   UNL A   1      36.952  32.843  30.953  1.00  0.00    -0.014 A 
ATOM     75  C   UNL A   1      35.634  32.422  31.203  1.00  0.00     0.010 A 
ATOM     76  C   UNL A   1      37.172  33.873  30.018  1.00  0.00     0.010 A 
ATOM     77  C   UNL A   1      34.561  33.002  30.520  1.00  0.00     0.020 A 
ATOM     78  C   UNL A   1      36.101  34.477  29.356  1.00  0.00     0.020 A 
ATOM     79  C   UNL A   1      34.801  34.029  29.603  1.00  0.00     0.054 A 
BRANCH  79  80
ATOM     80  S   UNL A   1      33.389  34.802  28.765  1.00  0.00     0.124 S 
ATOM     81  O   UNL A   1      33.993  36.000  28.192  1.00  0.00    -0.237 OA
ATOM     82  O   UNL A   1      32.990  33.773  27.808  1.00  0.00    -0.237 OA
ATOM     83  O   UNL A   1      32.436  35.038  29.848  1.00  0.00    -0.744 OA
ENDBRANCH  79  80
ENDBRANCH  51  74
BRANCH  63  84
ATOM     84  C   UNL A   1      39.775  33.822  37.262  1.00  0.00    -0.014 A 
ATOM     85  C   UNL A   1      38.859  33.494  38.277  1.00  0.00     0.010 A 
ATOM     86  C   UNL A   1      40.456  35.053  37.329  1.00  0.00     0.010 A 
ATOM     87  C   UNL A   1      38.605  34.391  39.319  1.00  0.00     0.020 A 
ATOM     88  C   UNL A   1      40.228  35.939  38.385  1.00  0.00     0.020 A 
ATOM     89  C   UNL A   1      39.293  35.609  39.367  1.00  0.00     0.054 A 
BRANCH  89  90
ATOM     90  S   UNL A   1      38.979  36.735  40.754  1.00  0.00     0.124 S 
ATOM     91  O   UNL A   1      40.330  37.021  41.227  1.00  0.00    -0.237 OA
ATOM     92  O   UNL A   1      38.290  37.851  40.111  1.00  0.00    -0.237 OA
ATOM     93  O   UNL A   1      38.154  35.944  41.664  1.00  0.00    -0.744 OA
ENDBRANCH  89  90
ENDBRANCH  63  84
ENDBRANCH  37  38
ENDBRANCH  29  32
ENDBRANCH  27  28
ENDBRANCH   1  27
TORSDOF 16
ENDMDL
MODEL 2
REMARK VINA RESULT:     -11.8      6.069     12.072
REMARK SMILES O=C(CC1CCN(C(=O)c2ccc3[nH]ccc3c2)CC1)NCCCCNC(=O)c1ccc(-c2c3nc(c(-c4ccc(S(=O)(=O)[O-])cc4)c4ccc([nH]4)c(-c4ccc(S(=O)(=O)[O-])cc4)c4nc(c(-c5ccc(S(=O)(=O)[O-])cc5)c5ccc2[nH]5)C=C4)C=C3)cc1
REMARK SMILES IDX 24 1 23 2 22 3 21 4 1 5 2 6 3 8 4 9 5 10 20 11 6 12 19 13
REMARK SMILES IDX 7 14 8 15 9 16 10 17 11 18 18 19 12 20 17 21 13 22 16 23
REMARK SMILES IDX 14 24 15 25 25 27 26 28 27 29 28 31 29 32 30 33 88 34 31 35
REMARK SMILES IDX 87 36 32 37 33 38 34 39 81 40 35 41 86 42 80 43 82 44 36 45
REMARK SMILES IDX 85 46 79 47 78 48 37 50 67 51 48 52 66 53 49 54 52 55 65 56
REMARK SMILES IDX 83 57 50 58 51 59 64 61 84 62 53 63 38 64 39 65 47 66 40 67
REMARK SMILES IDX 46 68 41 69 42 70 43 71 44 72 45 73 68 74 69 75 77 76 70 77
REMARK SMILES IDX 76 78 71 79 72 80 73 81 74 82 75 83 54 84 55 85 63 86 56 87
REMARK SMILES IDX 62 88 57 89 58 90 59 91 60 92 61 93
REMARK H PARENT 21 7 14 26 26 30 82 49 52 60
REMARK Flexibility Score: inf
ROOT
ATOM      1  C   UNL A   1      36.147  33.118  28.148  1.00  0.00     0.023 C 
ENDROOT
BRANCH   1   2
ATOM      2  C   UNL A   1      34.731  33.668  27.938  1.00  0.00     0.023 C 
BRANCH   2   3
ATOM      3  C   UNL A   1      33.575  32.685  28.144  1.00  0.00     0.116 C 
BRANCH   3   4
ATOM      4  N   UNL A   1      33.878  31.355  27.644  1.00  0.00    -0.356 N 
ATOM      5  O   UNL A   1      31.827  30.933  26.750  1.00  0.00    -0.275 OA
ATOM      6  C   UNL A   1      32.973  30.559  26.997  1.00  0.00     0.220 C 
ATOM      7  H   UNL A   1      34.789  31.007  27.780  1.00  0.00     0.163 HD
BRANCH   6   8
ATOM      8  C   UNL A   1      33.396  29.119  26.707  1.00  0.00     0.103 C 
BRANCH   8   9
ATOM      9  C   UNL A   1      32.955  28.324  25.462  1.00  0.00     0.002 C 
ATOM     10  C   UNL A   1      31.477  27.933  25.433  1.00  0.00     0.026 C 
ATOM     11  C   UNL A   1      33.797  27.121  25.057  1.00  0.00     0.026 C 
ATOM     12  C   UNL A   1      31.143  26.734  26.290  1.00  0.00     0.120 C 
ATOM     13  C   UNL A   1      33.498  25.846  25.828  1.00  0.00     0.120 C 
ATOM     14  N   UNL A   1      32.095  25.622  26.195  1.00  0.00    -0.339 N 
ATOM     15  C   UNL A   1      31.607  24.380  26.610  1.00  0.00     0.253 C 
ATOM     16  O   UNL A   1      30.506  24.252  27.142  1.00  0.00    -0.269 OA
BRANCH  15  17
ATOM     17  C   UNL A   1      32.390  23.146  26.392  1.00  0.00     0.040 A 
ATOM     18  C   UNL A   1      33.344  22.683  27.304  1.00  0.00     0.016 A 
ATOM     19  C   UNL A   1      32.016  22.370  25.285  1.00  0.00     0.024 A 
ATOM     20  C   UNL A   1      33.961  21.439  27.125  1.00  0.00     0.027 A 
ATOM     21  C   UNL A   1      32.618  21.115  25.095  1.00  0.00     0.000 A 
ATOM     22  C   UNL A   1      33.571  20.677  26.015  1.00  0.00     0.045 A 
ATOM     23  C   UNL A   1      32.460  20.090  24.125  1.00  0.00     0.028 A 
ATOM     24  N   UNL A   1      33.972  19.423  25.606  1.00  0.00    -0.361 N 
ATOM     25  C   UNL A   1      33.307  19.062  24.464  1.00  0.00     0.083 A 
ATOM     26  H   UNL A   1      34.640  18.867  26.069  1.00  0.00     0.166 HD
ENDBRANCH  15  17
ENDBRANCH   8   9
ENDBRANCH   6   8
ENDBRANCH   3   4
ENDBRANCH   2   3
ENDBRANCH   1   2
BRANCH   1  27
ATOM     27  C   UNL A   1      36.737  33.269  29.547  1.00  0.00     0.116 C 
BRANCH  27  28
ATOM     28  N   UNL A   1      36.162  32.367  30.531  1.00  0.00    -0.352 N 
ATOM     29  C   UNL A   1      36.635  31.162  30.998  1.00  0.00     0.251 C 
ATOM     30  H   UNL A   1      35.307  32.662  30.920  1.00  0.00     0.163 HD
ATOM     31  O   UNL A   1      35.939  30.514  31.783  1.00  0.00    -0.269 OA
BRANCH  29  32
ATOM     32  C   UNL A   1      37.943  30.612  30.559  1.00  0.00     0.039 A 
ATOM     33  C   UNL A   1      38.151  30.364  29.200  1.00  0.00     0.014 A 
ATOM     34  C   UNL A   1      38.955  30.300  31.467  1.00  0.00     0.014 A 
ATOM     35  C   UNL A   1      39.386  29.875  28.753  1.00  0.00     0.010 A 
ATOM     36  C   UNL A   1      40.208  29.874  31.017  1.00  0.00     0.010 A 
ATOM     37  C   UNL A   1      40.443  29.658  29.654  1.00  0.00    -0.014 A 
BRANCH  37  38
ATOM     38  C   UNL A   1      41.795  29.249  29.176  1.00  0.00     0.031 A 
ATOM     39  C   UNL A   1      42.928  30.239  29.098  1.00  0.00     0.074 A 
ATOM     40  C   UNL A   1      41.997  27.981  28.759  1.00  0.00     0.049 A 
ATOM     41  N   UNL A   1      44.166  30.048  28.712  1.00  0.00    -0.248 NA
ATOM     42  C   UNL A   1      42.635  31.626  29.494  1.00  0.00     0.031 C 
ATOM     43  C   UNL A   1      40.976  26.930  28.730  1.00  0.00     0.029 A 
ATOM     44  N   UNL A   1      43.124  27.360  28.276  1.00  0.00    -0.354 N 
ATOM     45  C   UNL A   1      44.797  31.283  28.815  1.00  0.00     0.074 A 
ATOM     46  C   UNL A   1      43.793  32.228  29.256  1.00  0.00     0.031 C 
ATOM     47  C   UNL A   1      41.530  25.791  28.282  1.00  0.00     0.029 A 
ATOM     48  C   UNL A   1      42.930  26.037  27.950  1.00  0.00     0.049 A 
ATOM     49  H   UNL A   1      43.988  27.818  28.172  1.00  0.00     0.167 HD
ATOM     50  C   UNL A   1      46.094  31.601  28.584  1.00  0.00     0.031 A 
ATOM     51  C   UNL A   1      43.774  25.121  27.433  1.00  0.00     0.031 A 
ATOM     52  C   UNL A   1      47.093  30.667  28.128  1.00  0.00     0.049 A 
ATOM     53  C   UNL A   1      45.202  25.507  27.151  1.00  0.00     0.074 A 
ATOM     54  C   UNL A   1      48.442  30.890  27.909  1.00  0.00     0.029 A 
ATOM     55  N   UNL A   1      46.853  29.340  27.805  1.00  0.00    -0.354 N 
ATOM     56  N   UNL A   1      45.796  26.660  27.336  1.00  0.00    -0.248 NA
ATOM     57  C   UNL A   1      46.075  24.460  26.600  1.00  0.00     0.031 C 
ATOM     58  C   UNL A   1      49.005  29.716  27.396  1.00  0.00     0.029 A 
ATOM     59  C   UNL A   1      48.022  28.740  27.361  1.00  0.00     0.049 A 
ATOM     60  H   UNL A   1      45.981  28.889  27.880  1.00  0.00     0.167 HD
ATOM     61  C   UNL A   1      47.119  26.471  26.953  1.00  0.00     0.074 A 
ATOM     62  C   UNL A   1      47.243  25.088  26.541  1.00  0.00     0.031 C 
ATOM     63  C   UNL A   1      48.141  27.364  26.948  1.00  0.00     0.031 A 
BRANCH  50  64
ATOM     64  C   UNL A   1      46.515  33.031  28.811  1.00  0.00    -0.014 A 
ATOM     65  C   UNL A   1      46.548  33.956  27.750  1.00  0.00     0.010 A 
ATOM     66  C   UNL A   1      46.830  33.474  30.109  1.00  0.00     0.010 A 
ATOM     67  C   UNL A   1      46.930  35.281  27.975  1.00  0.00     0.020 A 
ATOM     68  C   UNL A   1      47.184  34.807  30.343  1.00  0.00     0.020 A 
ATOM     69  C   UNL A   1      47.251  35.697  29.270  1.00  0.00     0.054 A 
BRANCH  69  70
ATOM     70  S   UNL A   1      47.735  37.426  29.531  1.00  0.00     0.124 S 
ATOM     71  O   UNL A   1      46.826  38.132  28.631  1.00  0.00    -0.237 OA
ATOM     72  O   UNL A   1      47.482  37.617  30.957  1.00  0.00    -0.237 OA
ATOM     73  O   UNL A   1      49.143  37.456  29.142  1.00  0.00    -0.744 OA
ENDBRANCH  69  70
ENDBRANCH  50  64
BRANCH  51  74
ATOM     74  C   UNL A   1      43.290  23.740  27.154  1.00  0.00    -0.014 A 
ATOM     75  C   UNL A   1      43.153  22.803  28.193  1.00  0.00     0.010 A 
ATOM     76  C   UNL A   1      42.956  23.356  25.841  1.00  0.00     0.010 A 
ATOM     77  C   UNL A   1      42.711  21.504  27.924  1.00  0.00     0.020 A 
ATOM     78  C   UNL A   1      42.484  22.069  25.572  1.00  0.00     0.020 A 
ATOM     79  C   UNL A   1      42.375  21.146  26.615  1.00  0.00     0.054 A 
BRANCH  79  80
ATOM     80  S   UNL A   1      41.756  19.470  26.297  1.00  0.00     0.124 S 
ATOM     81  O   UNL A   1      42.497  19.094  25.099  1.00  0.00    -0.237 OA
ATOM     82  O   UNL A   1      42.125  18.761  27.520  1.00  0.00    -0.237 OA
ATOM     83  O   UNL A   1      40.320  19.666  26.109  1.00  0.00    -0.744 OA
ENDBRANCH  79  80
ENDBRANCH  51  74
BRANCH  63  84
ATOM     84  C   UNL A   1      49.498  26.870  26.515  1.00  0.00    -0.014 A 
ATOM     85  C   UNL A   1      50.409  26.325  27.436  1.00  0.00     0.010 A 
ATOM     86  C   UNL A   1      49.845  26.904  25.151  1.00  0.00     0.010 A 
ATOM     87  C   UNL A   1      51.655  25.855  27.008  1.00  0.00     0.020 A 
ATOM     88  C   UNL A   1      51.075  26.407  24.714  1.00  0.00     0.020 A 
ATOM     89  C   UNL A   1      51.979  25.898  25.648  1.00  0.00     0.054 A 
BRANCH  89  90
ATOM     90  S   UNL A   1      53.582  25.240  25.112  1.00  0.00     0.124 S 
ATOM     91  O   UNL A   1      54.497  25.837  26.082  1.00  0.00    -0.237 OA
ATOM     92  O   UNL A   1      53.393  23.797  25.233  1.00  0.00    -0.237 OA
ATOM     93  O   UNL A   1      53.720  25.731  23.743  1.00  0.00    -0.744 OA
ENDBRANCH  89  90
ENDBRANCH  63  84
ENDBRANCH  37  38
ENDBRANCH  29  32
ENDBRANCH  27  28
ENDBRANCH   1  27
TORSDOF 16
ENDMDL
MODEL 3
REMARK VINA RESULT:     -11.5      2.386      9.301
REMARK SMILES O=C(CC1CCN(C(=O)c2ccc3[nH]ccc3c2)CC1)NCCCCNC(=O)c1ccc(-c2c3nc(c(-c4ccc(S(=O)(=O)[O-])cc4)c4ccc([nH]4)c(-c4ccc(S(=O)(=O)[O-])cc4)c4nc(c(-c5ccc(S(=O)(=O)[O-])cc5)c5ccc2[nH]5)C=C4)C=C3)cc1
REMARK SMILES IDX 24 1 23 2 22 3 21 4 1 5 2 6 3 8 4 9 5 10 20 11 6 12 19 13
REMARK SMILES IDX 7 14 8 15 9 16 10 17 11 18 18 19 12 20 17 21 13 22 16 23
REMARK SMILES IDX 14 24 15 25 25 27 26 28 27 29 28 31 29 32 30 33 88 34 31 35
REMARK SMILES IDX 87 36 32 37 33 38 34 39 81 40 35 41 86 42 80 43 82 44 36 45
REMARK SMILES IDX 85 46 79 47 78 48 37 50 67 51 48 52 66 53 49 54 52 55 65 56
REMARK SMILES IDX 83 57 50 58 51 59 64 61 84 62 53 63 38 64 39 65 47 66 40 67
REMARK SMILES IDX 46 68 41 69 42 70 43 71 44 72 45 73 68 74 69 75 77 76 70 77
REMARK SMILES IDX 76 78 71 79 72 80 73 81 74 82 75 83 54 84 55 85 63 86 56 87
REMARK SMILES IDX 62 88 57 89 58 90 59 91 60 92 61 93
REMARK H PARENT 21 7 14 26 26 30 82 49 52 60
REMARK Flexibility Score: inf
ROOT
ATOM      1  C   UNL A   1      31.592  32.276  26.782  1.00  0.00     0.023 C 
ENDROOT
BRANCH   1   2
ATOM      2  C   UNL A   1      31.636  30.743  26.763  1.00  0.00     0.023 C 
BRANCH   2   3
ATOM      3  C   UNL A   1      32.592  30.097  25.755  1.00  0.00     0.116 C 
BRANCH   3   4
ATOM      4  N   UNL A   1      31.892  29.435  24.668  1.00  0.00    -0.356 N 
ATOM      5  O   UNL A   1      33.493  27.874  24.232  1.00  0.00    -0.275 OA
ATOM      6  C   UNL A   1      32.402  28.377  23.965  1.00  0.00     0.220 C 
ATOM      7  H   UNL A   1      30.997  29.767  24.423  1.00  0.00     0.163 HD
BRANCH   6   8
ATOM      8  C   UNL A   1      31.622  27.922  22.732  1.00  0.00     0.103 C 
BRANCH   8   9
ATOM      9  C   UNL A   1      30.756  26.647  22.680  1.00  0.00     0.002 C 
ATOM     10  C   UNL A   1      29.828  26.446  23.878  1.00  0.00     0.026 C 
ATOM     11  C   UNL A   1      31.452  25.331  22.361  1.00  0.00     0.026 C 
ATOM     12  C   UNL A   1      30.522  25.897  25.104  1.00  0.00     0.120 C 
ATOM     13  C   UNL A   1      32.138  24.670  23.545  1.00  0.00     0.120 C 
ATOM     14  N   UNL A   1      31.468  24.807  24.843  1.00  0.00    -0.339 N 
ATOM     15  C   UNL A   1      31.780  24.010  25.948  1.00  0.00     0.253 C 
ATOM     16  O   UNL A   1      31.397  24.283  27.084  1.00  0.00    -0.269 OA
BRANCH  15  17
ATOM     17  C   UNL A   1      32.567  22.768  25.790  1.00  0.00     0.040 A 
ATOM     18  C   UNL A   1      31.980  21.534  25.491  1.00  0.00     0.016 A 
ATOM     19  C   UNL A   1      33.960  22.919  25.801  1.00  0.00     0.024 A 
ATOM     20  C   UNL A   1      32.773  20.414  25.213  1.00  0.00     0.027 A 
ATOM     21  C   UNL A   1      34.771  21.809  25.514  1.00  0.00     0.000 A 
ATOM     22  C   UNL A   1      34.164  20.586  25.226  1.00  0.00     0.045 A 
ATOM     23  C   UNL A   1      36.175  21.621  25.416  1.00  0.00     0.028 A 
ATOM     24  N   UNL A   1      35.178  19.690  24.962  1.00  0.00    -0.361 N 
ATOM     25  C   UNL A   1      36.396  20.307  25.077  1.00  0.00     0.083 A 
ATOM     26  H   UNL A   1      35.046  18.744  24.724  1.00  0.00     0.166 HD
ENDBRANCH  15  17
ENDBRANCH   8   9
ENDBRANCH   6   8
ENDBRANCH   3   4
ENDBRANCH   2   3
ENDBRANCH   1   2
BRANCH   1  27
ATOM     27  C   UNL A   1      32.807  32.986  27.371  1.00  0.00     0.116 C 
BRANCH  27  28
ATOM     28  N   UNL A   1      32.531  34.330  27.851  1.00  0.00    -0.352 N 
ATOM     29  C   UNL A   1      33.137  35.043  28.860  1.00  0.00     0.251 C 
ATOM     30  H   UNL A   1      31.801  34.799  27.385  1.00  0.00     0.163 HD
ATOM     31  O   UNL A   1      32.686  36.151  29.159  1.00  0.00    -0.269 OA
BRANCH  29  32
ATOM     32  C   UNL A   1      34.296  34.500  29.614  1.00  0.00     0.039 A 
ATOM     33  C   UNL A   1      34.076  33.904  30.858  1.00  0.00     0.014 A 
ATOM     34  C   UNL A   1      35.602  34.602  29.133  1.00  0.00     0.014 A 
ATOM     35  C   UNL A   1      35.146  33.355  31.577  1.00  0.00     0.010 A 
ATOM     36  C   UNL A   1      36.661  33.998  29.818  1.00  0.00     0.010 A 
ATOM     37  C   UNL A   1      36.449  33.363  31.048  1.00  0.00    -0.014 A 
BRANCH  37  38
ATOM     38  C   UNL A   1      37.573  32.680  31.750  1.00  0.00     0.031 A 
ATOM     39  C   UNL A   1      38.089  33.186  33.073  1.00  0.00     0.074 A 
ATOM     40  C   UNL A   1      38.173  31.620  31.169  1.00  0.00     0.049 A 
ATOM     41  N   UNL A   1      39.053  32.707  33.820  1.00  0.00    -0.248 NA
ATOM     42  C   UNL A   1      37.449  34.390  33.626  1.00  0.00     0.031 C 
ATOM     43  C   UNL A   1      37.812  31.055  29.866  1.00  0.00     0.029 A 
ATOM     44  N   UNL A   1      39.214  30.829  31.593  1.00  0.00    -0.354 N 
ATOM     45  C   UNL A   1      39.138  33.545  34.925  1.00  0.00     0.074 A 
ATOM     46  C   UNL A   1      38.158  34.593  34.728  1.00  0.00     0.031 C 
ATOM     47  C   UNL A   1      38.597  29.996  29.612  1.00  0.00     0.029 A 
ATOM     48  C   UNL A   1      39.546  29.829  30.708  1.00  0.00     0.049 A 
ATOM     49  H   UNL A   1      39.679  30.966  32.450  1.00  0.00     0.167 HD
ATOM     50  C   UNL A   1      39.942  33.447  36.012  1.00  0.00     0.031 A 
ATOM     51  C   UNL A   1      40.510  28.888  30.760  1.00  0.00     0.031 A 
ATOM     52  C   UNL A   1      40.931  32.417  36.202  1.00  0.00     0.049 A 
ATOM     53  C   UNL A   1      41.414  28.820  31.962  1.00  0.00     0.074 A 
ATOM     54  C   UNL A   1      41.760  32.212  37.293  1.00  0.00     0.029 A 
ATOM     55  N   UNL A   1      41.239  31.428  35.280  1.00  0.00    -0.354 N 
ATOM     56  N   UNL A   1      41.419  29.574  33.034  1.00  0.00    -0.248 NA
ATOM     57  C   UNL A   1      42.436  27.763  31.965  1.00  0.00     0.031 C 
ATOM     58  C   UNL A   1      42.610  31.139  37.005  1.00  0.00     0.029 A 
ATOM     59  C   UNL A   1      42.264  30.630  35.764  1.00  0.00     0.049 A 
ATOM     60  H   UNL A   1      40.794  31.310  34.410  1.00  0.00     0.167 HD
ATOM     61  C   UNL A   1      42.423  29.066  33.851  1.00  0.00     0.074 A 
ATOM     62  C   UNL A   1      42.993  27.930  33.157  1.00  0.00     0.031 C 
ATOM     63  C   UNL A   1      42.832  29.501  35.069  1.00  0.00     0.031 A 
BRANCH  50  64
ATOM     64  C   UNL A   1      39.794  34.494  37.088  1.00  0.00    -0.014 A 
ATOM     65  C   UNL A   1      40.418  35.750  36.969  1.00  0.00     0.010 A 
ATOM     66  C   UNL A   1      38.980  34.243  38.207  1.00  0.00     0.010 A 
ATOM     67  C   UNL A   1      40.266  36.716  37.968  1.00  0.00     0.020 A 
ATOM     68  C   UNL A   1      38.801  35.217  39.194  1.00  0.00     0.020 A 
ATOM     69  C   UNL A   1      39.462  36.441  39.077  1.00  0.00     0.054 A 
BRANCH  69  70
ATOM     70  S   UNL A   1      39.278  37.718  40.353  1.00  0.00     0.124 S 
ATOM     71  O   UNL A   1      40.580  38.379  40.306  1.00  0.00    -0.237 OA
ATOM     72  O   UNL A   1      38.154  38.508  39.856  1.00  0.00    -0.237 OA
ATOM     73  O   UNL A   1      39.011  36.957  41.571  1.00  0.00    -0.744 OA
ENDBRANCH  69  70
ENDBRANCH  50  64
BRANCH  51  74
ATOM     74  C   UNL A   1      40.666  27.922  29.636  1.00  0.00    -0.014 A 
ATOM     75  C   UNL A   1      41.638  28.128  28.642  1.00  0.00     0.010 A 
ATOM     76  C   UNL A   1      39.843  26.783  29.559  1.00  0.00     0.010 A 
ATOM     77  C   UNL A   1      41.772  27.225  27.582  1.00  0.00     0.020 A 
ATOM     78  C   UNL A   1      39.994  25.862  28.519  1.00  0.00     0.020 A 
ATOM     79  C   UNL A   1      40.951  26.096  27.530  1.00  0.00     0.054 A 
BRANCH  79  80
ATOM     80  S   UNL A   1      41.177  24.912  26.173  1.00  0.00     0.124 S 
ATOM     81  O   UNL A   1      42.313  24.125  26.641  1.00  0.00    -0.237 OA
ATOM     82  O   UNL A   1      39.893  24.218  26.144  1.00  0.00    -0.237 OA
ATOM     83  O   UNL A   1      41.442  25.765  25.015  1.00  0.00    -0.744 OA
ENDBRANCH  79  80
ENDBRANCH  51  74
BRANCH  63  84
ATOM     84  C   UNL A   1      43.929  28.727  35.755  1.00  0.00    -0.014 A 
ATOM     85  C   UNL A   1      45.281  29.082  35.608  1.00  0.00     0.010 A 
ATOM     86  C   UNL A   1      43.594  27.655  36.604  1.00  0.00     0.010 A 
ATOM     87  C   UNL A   1      46.280  28.361  36.270  1.00  0.00     0.020 A 
ATOM     88  C   UNL A   1      44.585  26.951  37.292  1.00  0.00     0.020 A 
ATOM     89  C   UNL A   1      45.925  27.300  37.110  1.00  0.00     0.054 A 
BRANCH  89  90
ATOM     90  S   UNL A   1      47.235  26.409  37.992  1.00  0.00     0.124 S 
ATOM     91  O   UNL A   1      48.181  26.115  36.919  1.00  0.00    -0.237 OA
ATOM     92  O   UNL A   1      47.686  27.392  38.974  1.00  0.00    -0.237 OA
ATOM     93  O   UNL A   1      46.549  25.247  38.553  1.00  0.00    -0.744 OA
ENDBRANCH  89  90
ENDBRANCH  63  84
ENDBRANCH  37  38
ENDBRANCH  29  32
ENDBRANCH  27  28
ENDBRANCH   1  27
TORSDOF 16
ENDMDL
