MODEL 1
REMARK VINA RESULT:     -10.7      0.000      0.000
REMARK SMILES CC1(C)[C@@H](CBr)CC[C@]1(C)C(=O)NCCCCNC(=O)c1ccc(-c2c3nc(c(-c4ccc(S(=O)(=O)[O-])cc4)c4ccc([nH]4)c(-c4ccc(S(=O)(=O)[O-])cc4)c4nc(c(-c5ccc(S(=O)(=O)[O-])cc5)c5ccc2[nH]5)C=C4)C=C3)cc1
REMARK SMILES IDX 16 1 15 2 14 3 13 4 11 5 12 6 9 8 1 9 2 10 3 11 4 12 7 13
REMARK SMILES IDX 8 14 10 15 5 16 6 17 17 18 18 19 19 20 20 22 21 23 22 24
REMARK SMILES IDX 80 25 23 26 79 27 24 28 25 29 26 30 73 31 27 32 78 33 72 34
REMARK SMILES IDX 74 35 28 36 77 37 71 38 70 39 29 41 59 42 40 43 58 44 41 45
REMARK SMILES IDX 44 46 57 47 75 48 42 49 43 50 56 52 76 53 45 54 30 55 31 56
REMARK SMILES IDX 39 57 32 58 38 59 33 60 34 61 35 62 36 63 37 64 60 65 61 66
REMARK SMILES IDX 69 67 62 68 68 69 63 70 64 71 65 72 66 73 67 74 46 75 47 76
REMARK SMILES IDX 55 77 48 78 54 79 49 80 50 81 51 82 52 83 53 84
REMARK H PARENT 13 7 18 21 74 40 44 51
REMARK Flexibility Score: inf
ROOT
ATOM      1  C   UNL A   1      32.180  27.838  27.193  1.00  0.00     0.023 C 
ENDROOT
BRANCH   1   2
ATOM      2  C   UNL A   1      31.450  27.606  25.875  1.00  0.00     0.023 C 
BRANCH   2   3
ATOM      3  C   UNL A   1      31.534  26.179  25.337  1.00  0.00     0.116 C 
BRANCH   3   4
ATOM      4  N   UNL A   1      31.385  25.188  26.381  1.00  0.00    -0.356 N 
ATOM      5  C   UNL A   1      32.120  24.104  26.747  1.00  0.00     0.226 C 
ATOM      6  O   UNL A   1      31.663  23.461  27.698  1.00  0.00    -0.274 OA
ATOM      7  H   UNL A   1      30.588  25.328  26.943  1.00  0.00     0.163 HD
BRANCH   5   8
ATOM      8  C   UNL A   1      33.440  23.685  26.036  1.00  0.00     0.052 C 
ATOM      9  C   UNL A   1      33.203  23.552  23.384  1.00  0.00     0.012 C 
ATOM     10  C   UNL A   1      33.223  22.801  24.726  1.00  0.00    -0.018 C 
ATOM     11  C   UNL A   1      31.896  21.991  24.807  1.00  0.00     0.012 C 
ATOM     12  C   UNL A   1      34.404  21.760  24.755  1.00  0.00     0.006 C 
ATOM     13  C   UNL A   1      34.496  21.420  26.241  1.00  0.00     0.006 C 
ATOM     14  C   UNL A   1      34.251  22.723  26.984  1.00  0.00     0.017 C 
ATOM     15  C   UNL A   1      34.328  24.947  25.911  1.00  0.00     0.022 C 
BRANCH  12  16
ATOM     16  C   UNL A   1      35.691  22.265  24.089  1.00  0.00     0.084 C 
ATOM     17  Br  UNL A   1      37.278  22.088  25.196  1.00  0.00    -0.092 Br
ENDBRANCH  12  16
ENDBRANCH   5   8
ENDBRANCH   3   4
ENDBRANCH   2   3
ENDBRANCH   1   2
BRANCH   1  18
ATOM     18  C   UNL A   1      33.510  28.562  27.061  1.00  0.00     0.116 C 
BRANCH  18  19
ATOM     19  N   UNL A   1      33.451  29.951  27.501  1.00  0.00    -0.352 N 
ATOM     20  C   UNL A   1      34.424  30.688  28.133  1.00  0.00     0.251 C 
ATOM     21  H   UNL A   1      32.604  30.422  27.321  1.00  0.00     0.163 HD
ATOM     22  O   UNL A   1      34.183  31.815  28.551  1.00  0.00    -0.269 OA
BRANCH  20  23
ATOM     23  C   UNL A   1      35.751  30.075  28.328  1.00  0.00     0.039 A 
ATOM     24  C   UNL A   1      36.674  30.106  27.281  1.00  0.00     0.014 A 
ATOM     25  C   UNL A   1      36.098  29.556  29.577  1.00  0.00     0.014 A 
ATOM     26  C   UNL A   1      37.984  29.684  27.515  1.00  0.00     0.010 A 
ATOM     27  C   UNL A   1      37.420  29.211  29.827  1.00  0.00     0.010 A 
ATOM     28  C   UNL A   1      38.375  29.275  28.800  1.00  0.00    -0.014 A 
BRANCH  28  29
ATOM     29  C   UNL A   1      39.775  28.897  29.108  1.00  0.00     0.031 A 
ATOM     30  C   UNL A   1      40.707  29.924  29.689  1.00  0.00     0.074 A 
ATOM     31  C   UNL A   1      40.229  27.673  28.774  1.00  0.00     0.049 A 
ATOM     32  N   UNL A   1      41.994  29.843  29.900  1.00  0.00    -0.248 NA
ATOM     33  C   UNL A   1      40.117  31.225  30.046  1.00  0.00     0.031 C 
ATOM     34  C   UNL A   1      39.431  26.604  28.167  1.00  0.00     0.029 A 
ATOM     35  N   UNL A   1      41.484  27.126  28.884  1.00  0.00    -0.354 N 
ATOM     36  C   UNL A   1      42.374  31.090  30.382  1.00  0.00     0.074 A 
ATOM     37  C   UNL A   1      41.190  31.920  30.394  1.00  0.00     0.031 C 
ATOM     38  C   UNL A   1      40.211  25.527  27.975  1.00  0.00     0.029 A 
ATOM     39  C   UNL A   1      41.571  25.841  28.405  1.00  0.00     0.049 A 
ATOM     40  H   UNL A   1      42.250  27.610  29.269  1.00  0.00     0.167 HD
ATOM     41  C   UNL A   1      43.595  31.500  30.795  1.00  0.00     0.031 A 
ATOM     42  C   UNL A   1      42.628  25.011  28.310  1.00  0.00     0.031 A 
ATOM     43  C   UNL A   1      44.761  30.661  30.809  1.00  0.00     0.049 A 
ATOM     44  C   UNL A   1      43.973  25.485  28.789  1.00  0.00     0.074 A 
ATOM     45  C   UNL A   1      46.032  30.961  31.267  1.00  0.00     0.029 A 
ATOM     46  N   UNL A   1      44.797  29.353  30.352  1.00  0.00    -0.354 N 
ATOM     47  N   UNL A   1      44.302  26.650  29.293  1.00  0.00    -0.248 NA
ATOM     48  C   UNL A   1      45.088  24.532  28.693  1.00  0.00     0.031 C 
ATOM     49  C   UNL A   1      46.846  29.844  31.053  1.00  0.00     0.029 A 
ATOM     50  C   UNL A   1      46.071  28.835  30.503  1.00  0.00     0.049 A 
ATOM     51  H   UNL A   1      44.030  28.865  29.974  1.00  0.00     0.167 HD
ATOM     52  C   UNL A   1      45.655  26.561  29.601  1.00  0.00     0.074 A 
ATOM     53  C   UNL A   1      46.081  25.227  29.231  1.00  0.00     0.031 C 
ATOM     54  C   UNL A   1      46.470  27.499  30.141  1.00  0.00     0.031 A 
BRANCH  41  55
ATOM     55  C   UNL A   1      43.724  32.924  31.263  1.00  0.00    -0.014 A 
ATOM     56  C   UNL A   1      44.054  33.954  30.365  1.00  0.00     0.010 A 
ATOM     57  C   UNL A   1      43.494  33.240  32.614  1.00  0.00     0.010 A 
ATOM     58  C   UNL A   1      44.199  35.268  30.818  1.00  0.00     0.020 A 
ATOM     59  C   UNL A   1      43.611  34.557  33.067  1.00  0.00     0.020 A 
ATOM     60  C   UNL A   1      43.983  35.560  32.168  1.00  0.00     0.054 A 
BRANCH  60  61
ATOM     61  S   UNL A   1      44.166  37.275  32.728  1.00  0.00     0.124 S 
ATOM     62  O   UNL A   1      45.543  37.284  33.217  1.00  0.00    -0.237 OA
ATOM     63  O   UNL A   1      43.930  38.040  31.507  1.00  0.00    -0.237 OA
ATOM     64  O   UNL A   1      43.139  37.415  33.756  1.00  0.00    -0.744 OA
ENDBRANCH  60  61
ENDBRANCH  41  55
BRANCH  42  65
ATOM     65  C   UNL A   1      42.452  23.643  27.756  1.00  0.00    -0.014 A 
ATOM     66  C   UNL A   1      42.739  23.382  26.405  1.00  0.00     0.010 A 
ATOM     67  C   UNL A   1      42.018  22.588  28.579  1.00  0.00     0.010 A 
ATOM     68  C   UNL A   1      42.583  22.096  25.882  1.00  0.00     0.020 A 
ATOM     69  C   UNL A   1      41.882  21.294  28.065  1.00  0.00     0.020 A 
ATOM     70  C   UNL A   1      42.157  21.059  26.716  1.00  0.00     0.054 A 
BRANCH  70  71
ATOM     71  S   UNL A   1      42.018  19.384  26.031  1.00  0.00     0.124 S 
ATOM     72  O   UNL A   1      42.511  18.564  27.132  1.00  0.00    -0.237 OA
ATOM     73  O   UNL A   1      40.589  19.274  25.749  1.00  0.00    -0.237 OA
ATOM     74  O   UNL A   1      42.875  19.429  24.848  1.00  0.00    -0.744 OA
ENDBRANCH  70  71
ENDBRANCH  42  65
BRANCH  54  75
ATOM     75  C   UNL A   1      47.897  27.112  30.409  1.00  0.00    -0.014 A 
ATOM     76  C   UNL A   1      48.908  27.371  29.466  1.00  0.00     0.010 A 
ATOM     77  C   UNL A   1      48.242  26.568  31.659  1.00  0.00     0.010 A 
ATOM     78  C   UNL A   1      50.241  27.083  29.769  1.00  0.00     0.020 A 
ATOM     79  C   UNL A   1      49.577  26.299  31.972  1.00  0.00     0.020 A 
ATOM     80  C   UNL A   1      50.567  26.553  31.022  1.00  0.00     0.054 A 
BRANCH  80  81
ATOM     81  S   UNL A   1      52.312  26.263  31.420  1.00  0.00     0.124 S 
ATOM     82  O   UNL A   1      52.285  24.893  31.925  1.00  0.00    -0.237 OA
ATOM     83  O   UNL A   1      52.972  26.444  30.130  1.00  0.00    -0.237 OA
ATOM     84  O   UNL A   1      52.615  27.288  32.417  1.00  0.00    -0.744 OA
ENDBRANCH  80  81
ENDBRANCH  54  75
ENDBRANCH  28  29
ENDBRANCH  20  23
ENDBRANCH  18  19
ENDBRANCH   1  18
TORSDOF 15
ENDMDL
MODEL 2
REMARK VINA RESULT:     -10.3      2.807      9.334
REMARK SMILES CC1(C)[C@@H](CBr)CC[C@]1(C)C(=O)NCCCCNC(=O)c1ccc(-c2c3nc(c(-c4ccc(S(=O)(=O)[O-])cc4)c4ccc([nH]4)c(-c4ccc(S(=O)(=O)[O-])cc4)c4nc(c(-c5ccc(S(=O)(=O)[O-])cc5)c5ccc2[nH]5)C=C4)C=C3)cc1
REMARK SMILES IDX 16 1 15 2 14 3 13 4 11 5 12 6 9 8 1 9 2 10 3 11 4 12 7 13
REMARK SMILES IDX 8 14 10 15 5 16 6 17 17 18 18 19 19 20 20 22 21 23 22 24
REMARK SMILES IDX 80 25 23 26 79 27 24 28 25 29 26 30 73 31 27 32 78 33 72 34
REMARK SMILES IDX 74 35 28 36 77 37 71 38 70 39 29 41 59 42 40 43 58 44 41 45
REMARK SMILES IDX 44 46 57 47 75 48 42 49 43 50 56 52 76 53 45 54 30 55 31 56
REMARK SMILES IDX 39 57 32 58 38 59 33 60 34 61 35 62 36 63 37 64 60 65 61 66
REMARK SMILES IDX 69 67 62 68 68 69 63 70 64 71 65 72 66 73 67 74 46 75 47 76
REMARK SMILES IDX 55 77 48 78 54 79 49 80 50 81 51 82 52 83 53 84
REMARK H PARENT 13 7 18 21 74 40 44 51
REMARK Flexibility Score: inf
ROOT
ATOM      1  C   UNL A   1      36.074  23.003  24.068  1.00  0.00     0.023 C 
ENDROOT
BRANCH   1   2
ATOM      2  C   UNL A   1      35.242  21.835  24.582  1.00  0.00     0.023 C 
BRANCH   2   3
ATOM      3  C   UNL A   1      33.731  22.028  24.483  1.00  0.00     0.116 C 
BRANCH   3   4
ATOM      4  N   UNL A   1      33.145  22.434  25.743  1.00  0.00    -0.356 N 
ATOM      5  C   UNL A   1      32.299  23.438  26.096  1.00  0.00     0.226 C 
ATOM      6  O   UNL A   1      32.026  23.492  27.299  1.00  0.00    -0.274 OA
ATOM      7  H   UNL A   1      33.414  21.866  26.501  1.00  0.00     0.163 HD
BRANCH   5   8
ATOM      8  C   UNL A   1      31.706  24.455  25.076  1.00  0.00     0.052 C 
ATOM      9  C   UNL A   1      33.478  25.267  23.257  1.00  0.00     0.012 C 
ATOM     10  C   UNL A   1      32.745  25.559  24.577  1.00  0.00    -0.018 C 
ATOM     11  C   UNL A   1      33.841  25.826  25.650  1.00  0.00     0.012 C 
ATOM     12  C   UNL A   1      31.889  26.875  24.450  1.00  0.00     0.006 C 
ATOM     13  C   UNL A   1      30.971  26.779  25.667  1.00  0.00     0.006 C 
ATOM     14  C   UNL A   1      30.595  25.313  25.793  1.00  0.00     0.017 C 
ATOM     15  C   UNL A   1      30.941  23.651  23.998  1.00  0.00     0.022 C 
BRANCH  12  16
ATOM     16  C   UNL A   1      31.203  27.037  23.088  1.00  0.00     0.084 C 
ATOM     17  Br  UNL A   1      29.561  28.077  23.147  1.00  0.00    -0.092 Br
ENDBRANCH  12  16
ENDBRANCH   5   8
ENDBRANCH   3   4
ENDBRANCH   2   3
ENDBRANCH   1   2
BRANCH   1  18
ATOM     18  C   UNL A   1      37.052  23.577  25.080  1.00  0.00     0.116 C 
BRANCH  18  19
ATOM     19  N   UNL A   1      38.063  22.616  25.508  1.00  0.00    -0.352 N 
ATOM     20  C   UNL A   1      39.189  22.843  26.261  1.00  0.00     0.251 C 
ATOM     21  H   UNL A   1      37.918  21.686  25.220  1.00  0.00     0.163 HD
ATOM     22  O   UNL A   1      40.012  21.951  26.440  1.00  0.00    -0.269 OA
BRANCH  20  23
ATOM     23  C   UNL A   1      39.402  24.191  26.817  1.00  0.00     0.039 A 
ATOM     24  C   UNL A   1      38.980  24.465  28.120  1.00  0.00     0.014 A 
ATOM     25  C   UNL A   1      40.098  25.147  26.073  1.00  0.00     0.014 A 
ATOM     26  C   UNL A   1      39.332  25.680  28.710  1.00  0.00     0.010 A 
ATOM     27  C   UNL A   1      40.512  26.320  26.689  1.00  0.00     0.010 A 
ATOM     28  C   UNL A   1      40.135  26.596  28.013  1.00  0.00    -0.014 A 
BRANCH  28  29
ATOM     29  C   UNL A   1      40.597  27.861  28.633  1.00  0.00     0.031 A 
ATOM     30  C   UNL A   1      41.983  27.939  29.209  1.00  0.00     0.074 A 
ATOM     31  C   UNL A   1      39.742  28.894  28.768  1.00  0.00     0.049 A 
ATOM     32  N   UNL A   1      42.531  28.894  29.913  1.00  0.00    -0.248 NA
ATOM     33  C   UNL A   1      42.856  26.773  28.992  1.00  0.00     0.031 C 
ATOM     34  C   UNL A   1      38.358  28.923  28.287  1.00  0.00     0.029 A 
ATOM     35  N   UNL A   1      39.909  30.118  29.368  1.00  0.00    -0.354 N 
ATOM     36  C   UNL A   1      43.797  28.432  30.252  1.00  0.00     0.074 A 
ATOM     37  C   UNL A   1      43.921  27.096  29.711  1.00  0.00     0.031 C 
ATOM     38  C   UNL A   1      37.810  30.110  28.595  1.00  0.00     0.029 A 
ATOM     39  C   UNL A   1      38.785  30.910  29.330  1.00  0.00     0.049 A 
ATOM     40  H   UNL A   1      40.753  30.402  29.786  1.00  0.00     0.167 HD
ATOM     41  C   UNL A   1      44.775  29.069  30.935  1.00  0.00     0.031 A 
ATOM     42  C   UNL A   1      38.562  32.136  29.840  1.00  0.00     0.031 A 
ATOM     43  C   UNL A   1      44.656  30.407  31.444  1.00  0.00     0.049 A 
ATOM     44  C   UNL A   1      39.669  32.831  30.584  1.00  0.00     0.074 A 
ATOM     45  C   UNL A   1      45.611  31.167  32.097  1.00  0.00     0.029 A 
ATOM     46  N   UNL A   1      43.515  31.189  31.350  1.00  0.00    -0.354 N 
ATOM     47  N   UNL A   1      40.879  32.399  30.848  1.00  0.00    -0.248 NA
ATOM     48  C   UNL A   1      39.384  34.179  31.095  1.00  0.00     0.031 C 
ATOM     49  C   UNL A   1      45.034  32.397  32.429  1.00  0.00     0.029 A 
ATOM     50  C   UNL A   1      43.736  32.418  31.945  1.00  0.00     0.049 A 
ATOM     51  H   UNL A   1      42.673  30.910  30.925  1.00  0.00     0.167 HD
ATOM     52  C   UNL A   1      41.510  33.433  31.530  1.00  0.00     0.074 A 
ATOM     53  C   UNL A   1      40.549  34.513  31.634  1.00  0.00     0.031 C 
ATOM     54  C   UNL A   1      42.770  33.484  32.025  1.00  0.00     0.031 A 
BRANCH  41  55
ATOM     55  C   UNL A   1      46.057  28.318  31.171  1.00  0.00    -0.014 A 
ATOM     56  C   UNL A   1      46.222  27.507  32.308  1.00  0.00     0.010 A 
ATOM     57  C   UNL A   1      47.102  28.407  30.234  1.00  0.00     0.010 A 
ATOM     58  C   UNL A   1      47.428  26.837  32.529  1.00  0.00     0.020 A 
ATOM     59  C   UNL A   1      48.300  27.717  30.437  1.00  0.00     0.020 A 
ATOM     60  C   UNL A   1      48.463  26.951  31.595  1.00  0.00     0.054 A 
BRANCH  60  61
ATOM     61  S   UNL A   1      50.013  26.063  31.900  1.00  0.00     0.124 S 
ATOM     62  O   UNL A   1      49.542  24.869  32.598  1.00  0.00    -0.237 OA
ATOM     63  O   UNL A   1      50.528  25.839  30.552  1.00  0.00    -0.237 OA
ATOM     64  O   UNL A   1      50.791  26.993  32.714  1.00  0.00    -0.744 OA
ENDBRANCH  60  61
ENDBRANCH  41  55
BRANCH  42  65
ATOM     65  C   UNL A   1      37.240  32.791  29.648  1.00  0.00    -0.014 A 
ATOM     66  C   UNL A   1      36.239  32.670  30.628  1.00  0.00     0.010 A 
ATOM     67  C   UNL A   1      36.983  33.558  28.498  1.00  0.00     0.010 A 
ATOM     68  C   UNL A   1      34.999  33.291  30.455  1.00  0.00     0.020 A 
ATOM     69  C   UNL A   1      35.751  34.200  28.332  1.00  0.00     0.020 A 
ATOM     70  C   UNL A   1      34.763  34.054  29.308  1.00  0.00     0.054 A 
BRANCH  70  71
ATOM     71  S   UNL A   1      33.168  34.900  29.132  1.00  0.00     0.124 S 
ATOM     72  O   UNL A   1      32.641  34.840  30.492  1.00  0.00    -0.237 OA
ATOM     73  O   UNL A   1      33.562  36.226  28.663  1.00  0.00    -0.237 OA
ATOM     74  O   UNL A   1      32.459  34.086  28.147  1.00  0.00    -0.744 OA
ENDBRANCH  70  71
ENDBRANCH  42  65
BRANCH  54  75
ATOM     75  C   UNL A   1      43.208  34.760  32.687  1.00  0.00    -0.014 A 
ATOM     76  C   UNL A   1      43.747  35.819  31.937  1.00  0.00     0.010 A 
ATOM     77  C   UNL A   1      42.987  34.933  34.066  1.00  0.00     0.010 A 
ATOM     78  C   UNL A   1      44.067  37.029  32.559  1.00  0.00     0.020 A 
ATOM     79  C   UNL A   1      43.286  36.148  34.686  1.00  0.00     0.020 A 
ATOM     80  C   UNL A   1      43.830  37.187  33.928  1.00  0.00     0.054 A 
BRANCH  80  81
ATOM     81  S   UNL A   1      44.179  38.793  34.696  1.00  0.00     0.124 S 
ATOM     82  O   UNL A   1      43.147  39.642  34.107  1.00  0.00    -0.237 OA
ATOM     83  O   UNL A   1      44.024  38.509  36.120  1.00  0.00    -0.237 OA
ATOM     84  O   UNL A   1      45.546  39.089  34.272  1.00  0.00    -0.744 OA
ENDBRANCH  80  81
ENDBRANCH  54  75
ENDBRANCH  28  29
ENDBRANCH  20  23
ENDBRANCH  18  19
ENDBRANCH   1  18
TORSDOF 15
ENDMDL
MODEL 3
REMARK VINA RESULT:     -10.1      2.838      3.713
REMARK SMILES CC1(C)[C@@H](CBr)CC[C@]1(C)C(=O)NCCCCNC(=O)c1ccc(-c2c3nc(c(-c4ccc(S(=O)(=O)[O-])cc4)c4ccc([nH]4)c(-c4ccc(S(=O)(=O)[O-])cc4)c4nc(c(-c5ccc(S(=O)(=O)[O-])cc5)c5ccc2[nH]5)C=C4)C=C3)cc1
REMARK SMILES IDX 16 1 15 2 14 3 13 4 11 5 12 6 9 8 1 9 2 10 3 11 4 12 7 13
REMARK SMILES IDX 8 14 10 15 5 16 6 17 17 18 18 19 19 20 20 22 21 23 22 24
REMARK SMILES IDX 80 25 23 26 79 27 24 28 25 29 26 30 73 31 27 32 78 33 72 34
REMARK SMILES IDX 74 35 28 36 77 37 71 38 70 39 29 41 59 42 40 43 58 44 41 45
REMARK SMILES IDX 44 46 57 47 75 48 42 49 43 50 56 52 76 53 45 54 30 55 31 56
REMARK SMILES IDX 39 57 32 58 38 59 33 60 34 61 35 62 36 63 37 64 60 65 61 66
REMARK SMILES IDX 69 67 62 68 68 69 63 70 64 71 65 72 66 73 67 74 46 75 47 76
REMARK SMILES IDX 55 77 48 78 54 79 49 80 50 81 51 82 52 83 53 84
REMARK H PARENT 13 7 18 21 74 40 44 51
REMARK Flexibility Score: inf
ROOT
ATOM      1  C   UNL A   1      33.769  28.953  27.342  1.00  0.00     0.023 C 
ENDROOT
BRANCH   1   2
ATOM      2  C   UNL A   1      32.966  29.790  26.355  1.00  0.00     0.023 C 
BRANCH   2   3
ATOM      3  C   UNL A   1      33.055  29.331  24.901  1.00  0.00     0.116 C 
BRANCH   3   4
ATOM      4  N   UNL A   1      31.759  29.285  24.258  1.00  0.00    -0.356 N 
ATOM      5  C   UNL A   1      30.857  28.289  24.053  1.00  0.00     0.226 C 
ATOM      6  O   UNL A   1      29.843  28.623  23.430  1.00  0.00    -0.274 OA
ATOM      7  H   UNL A   1      31.471  30.155  23.896  1.00  0.00     0.163 HD
BRANCH   5   8
ATOM      8  C   UNL A   1      31.064  26.830  24.555  1.00  0.00     0.052 C 
ATOM      9  C   UNL A   1      33.621  26.075  24.550  1.00  0.00     0.012 C 
ATOM     10  C   UNL A   1      32.260  26.056  23.836  1.00  0.00    -0.018 C 
ATOM     11  C   UNL A   1      32.500  26.604  22.398  1.00  0.00     0.012 C 
ATOM     12  C   UNL A   1      31.738  24.578  23.687  1.00  0.00     0.006 C 
ATOM     13  C   UNL A   1      30.268  24.790  23.332  1.00  0.00     0.006 C 
ATOM     14  C   UNL A   1      29.802  25.969  24.169  1.00  0.00     0.017 C 
ATOM     15  C   UNL A   1      31.057  26.859  26.102  1.00  0.00     0.022 C 
BRANCH  12  16
ATOM     16  C   UNL A   1      32.025  23.695  24.909  1.00  0.00     0.084 C 
ATOM     17  Br  UNL A   1      32.290  21.817  24.485  1.00  0.00    -0.092 Br
ENDBRANCH  12  16
ENDBRANCH   5   8
ENDBRANCH   3   4
ENDBRANCH   2   3
ENDBRANCH   1   2
BRANCH   1  18
ATOM     18  C   UNL A   1      35.164  29.482  27.633  1.00  0.00     0.116 C 
BRANCH  18  19
ATOM     19  N   UNL A   1      35.222  30.312  28.831  1.00  0.00    -0.352 N 
ATOM     20  C   UNL A   1      36.275  30.486  29.697  1.00  0.00     0.251 C 
ATOM     21  H   UNL A   1      34.402  30.812  29.046  1.00  0.00     0.163 HD
ATOM     22  O   UNL A   1      36.134  31.126  30.733  1.00  0.00    -0.269 OA
BRANCH  20  23
ATOM     23  C   UNL A   1      37.566  29.854  29.367  1.00  0.00     0.039 A 
ATOM     24  C   UNL A   1      38.026  29.895  28.050  1.00  0.00     0.014 A 
ATOM     25  C   UNL A   1      38.350  29.306  30.385  1.00  0.00     0.014 A 
ATOM     26  C   UNL A   1      39.319  29.453  27.765  1.00  0.00     0.010 A 
ATOM     27  C   UNL A   1      39.661  28.941  30.112  1.00  0.00     0.010 A 
ATOM     28  C   UNL A   1      40.159  29.014  28.801  1.00  0.00    -0.014 A 
BRANCH  28  29
ATOM     29  C   UNL A   1      41.564  28.614  28.552  1.00  0.00     0.031 A 
ATOM     30  C   UNL A   1      42.645  29.659  28.570  1.00  0.00     0.074 A 
ATOM     31  C   UNL A   1      41.850  27.341  28.213  1.00  0.00     0.049 A 
ATOM     32  N   UNL A   1      43.905  29.547  28.243  1.00  0.00    -0.248 NA
ATOM     33  C   UNL A   1      42.245  31.016  28.977  1.00  0.00     0.031 C 
ATOM     34  C   UNL A   1      40.881  26.246  28.120  1.00  0.00     0.029 A 
ATOM     35  N   UNL A   1      43.043  26.757  27.863  1.00  0.00    -0.354 N 
ATOM     36  C   UNL A   1      44.440  30.823  28.372  1.00  0.00     0.074 A 
ATOM     37  C   UNL A   1      43.360  31.700  28.767  1.00  0.00     0.031 C 
ATOM     38  C   UNL A   1      41.521  25.121  27.758  1.00  0.00     0.029 A 
ATOM     39  C   UNL A   1      42.934  25.423  27.551  1.00  0.00     0.049 A 
ATOM     40  H   UNL A   1      43.896  27.248  27.839  1.00  0.00     0.167 HD
ATOM     41  C   UNL A   1      45.720  31.225  28.195  1.00  0.00     0.031 A 
ATOM     42  C   UNL A   1      43.865  24.543  27.133  1.00  0.00     0.031 A 
ATOM     43  C   UNL A   1      46.795  30.343  27.832  1.00  0.00     0.049 A 
ATOM     44  C   UNL A   1      45.284  25.010  26.958  1.00  0.00     0.074 A 
ATOM     45  C   UNL A   1      48.139  30.639  27.688  1.00  0.00     0.029 A 
ATOM     46  N   UNL A   1      46.649  28.991  27.563  1.00  0.00    -0.354 N 
ATOM     47  N   UNL A   1      45.783  26.210  27.136  1.00  0.00    -0.248 NA
ATOM     48  C   UNL A   1      46.267  24.005  26.529  1.00  0.00     0.031 C 
ATOM     49  C   UNL A   1      48.801  29.471  27.297  1.00  0.00     0.029 A 
ATOM     50  C   UNL A   1      47.876  28.440  27.240  1.00  0.00     0.049 A 
ATOM     51  H   UNL A   1      45.798  28.497  27.595  1.00  0.00     0.167 HD
ATOM     52  C   UNL A   1      47.143  26.098  26.871  1.00  0.00     0.074 A 
ATOM     53  C   UNL A   1      47.389  24.713  26.524  1.00  0.00     0.031 C 
ATOM     54  C   UNL A   1      48.101  27.056  26.912  1.00  0.00     0.031 A 
BRANCH  41  55
ATOM     55  C   UNL A   1      46.020  32.686  28.392  1.00  0.00    -0.014 A 
ATOM     56  C   UNL A   1      45.935  33.593  27.321  1.00  0.00     0.010 A 
ATOM     57  C   UNL A   1      46.371  33.162  29.668  1.00  0.00     0.010 A 
ATOM     58  C   UNL A   1      46.243  34.943  27.512  1.00  0.00     0.020 A 
ATOM     59  C   UNL A   1      46.654  34.516  29.869  1.00  0.00     0.020 A 
ATOM     60  C   UNL A   1      46.608  35.394  28.784  1.00  0.00     0.054 A 
BRANCH  60  61
ATOM     61  S   UNL A   1      46.992  37.152  29.006  1.00  0.00     0.124 S 
ATOM     62  O   UNL A   1      48.426  37.183  28.726  1.00  0.00    -0.237 OA
ATOM     63  O   UNL A   1      46.144  37.797  28.007  1.00  0.00    -0.237 OA
ATOM     64  O   UNL A   1      46.624  37.414  30.395  1.00  0.00    -0.744 OA
ENDBRANCH  60  61
ENDBRANCH  41  55
BRANCH  42  65
ATOM     65  C   UNL A   1      43.487  23.129  26.871  1.00  0.00    -0.014 A 
ATOM     66  C   UNL A   1      43.796  22.530  25.637  1.00  0.00     0.010 A 
ATOM     67  C   UNL A   1      42.837  22.367  27.858  1.00  0.00     0.010 A 
ATOM     68  C   UNL A   1      43.449  21.199  25.390  1.00  0.00     0.020 A 
ATOM     69  C   UNL A   1      42.509  21.028  27.622  1.00  0.00     0.020 A 
ATOM     70  C   UNL A   1      42.810  20.455  26.385  1.00  0.00     0.054 A 
BRANCH  70  71
ATOM     71  S   UNL A   1      42.422  18.712  26.064  1.00  0.00     0.124 S 
ATOM     72  O   UNL A   1      42.713  18.094  27.354  1.00  0.00    -0.237 OA
ATOM     73  O   UNL A   1      41.011  18.764  25.690  1.00  0.00    -0.237 OA
ATOM     74  O   UNL A   1      43.332  18.356  24.977  1.00  0.00    -0.744 OA
ENDBRANCH  70  71
ENDBRANCH  42  65
BRANCH  54  75
ATOM     75  C   UNL A   1      49.514  26.640  26.616  1.00  0.00    -0.014 A 
ATOM     76  C   UNL A   1      50.364  26.180  27.636  1.00  0.00     0.010 A 
ATOM     77  C   UNL A   1      49.964  26.622  25.283  1.00  0.00     0.010 A 
ATOM     78  C   UNL A   1      51.646  25.716  27.328  1.00  0.00     0.020 A 
ATOM     79  C   UNL A   1      51.237  26.139  24.969  1.00  0.00     0.020 A 
ATOM     80  C   UNL A   1      52.072  25.695  25.996  1.00  0.00     0.054 A 
BRANCH  80  81
ATOM     81  S   UNL A   1      53.709  25.014  25.613  1.00  0.00     0.124 S 
ATOM     82  O   UNL A   1      54.137  25.859  24.502  1.00  0.00    -0.237 OA
ATOM     83  O   UNL A   1      54.437  25.204  26.865  1.00  0.00    -0.237 OA
ATOM     84  O   UNL A   1      53.432  23.622  25.267  1.00  0.00    -0.744 OA
ENDBRANCH  80  81
ENDBRANCH  54  75
ENDBRANCH  28  29
ENDBRANCH  20  23
ENDBRANCH  18  19
ENDBRANCH   1  18
TORSDOF 15
ENDMDL
