MODEL 1
REMARK VINA RESULT:     -12.1      0.000      0.000
REMARK SMILES Cc1ccc(Cl)c(Nc2ccccc2C(=O)N[C@@H](C)C(=O)NCCCCNC(=O)c2ccc(-c3c4nc(c(-c5ccc(S(=O)(=O)[O-])cc5)c5ccc([nH]5)c(-c5ccc(S(=O)(=O)[O-])cc5)c5nc(c(-c6ccc(S(=O)(=O)[O-])cc6)c6ccc3[nH]6)C=C5)C=C4)cc2)c1Cl
REMARK SMILES IDX 24 1 23 2 22 3 20 4 21 5 18 7 19 8 17 9 15 10 16 11 14 13
REMARK SMILES IDX 9 14 10 15 11 16 13 17 12 18 8 19 7 21 1 22 2 23 3 24 90 25
REMARK SMILES IDX 4 26 91 27 5 28 6 29 25 30 26 31 27 32 28 33 29 35 30 36
REMARK SMILES IDX 31 37 89 38 32 39 88 40 33 41 34 42 35 43 82 44 36 45 87 46
REMARK SMILES IDX 81 47 83 48 37 49 86 50 80 51 79 52 38 54 68 55 49 56 67 57
REMARK SMILES IDX 50 58 53 59 66 60 84 61 51 62 52 63 65 65 85 66 54 67 39 68
REMARK SMILES IDX 40 69 48 70 41 71 47 72 42 73 43 74 44 75 45 76 46 77 69 78
REMARK SMILES IDX 70 79 78 80 71 81 77 82 72 83 73 84 74 85 75 86 76 87 55 88
REMARK SMILES IDX 56 89 64 90 57 91 63 92 58 93 59 94 60 95 61 96 62 97
REMARK H PARENT 22 6 17 12 8 20 27 34 83 53 53 64
REMARK Flexibility Score: inf
ROOT
ATOM      1  C   UNL A   1      34.993  30.039  27.009  1.00  0.00     0.023 C 
ENDROOT
BRANCH   1   2
ATOM      2  C   UNL A   1      33.570  29.497  26.812  1.00  0.00     0.116 C 
BRANCH   2   3
ATOM      3  N   UNL A   1      33.183  28.538  27.826  1.00  0.00    -0.354 N 
ATOM      4  C   UNL A   1      32.100  27.756  27.548  1.00  0.00     0.242 C 
ATOM      5  O   UNL A   1      30.992  28.221  27.813  1.00  0.00    -0.273 OA
ATOM      6  H   UNL A   1      33.676  28.454  28.675  1.00  0.00     0.163 HD
BRANCH   4   7
ATOM      7  C   UNL A   1      32.301  26.378  26.876  1.00  0.00     0.168 C 
ATOM      8  C   UNL A   1      33.208  26.350  25.655  1.00  0.00     0.041 C 
BRANCH   7   9
ATOM      9  N   UNL A   1      30.949  25.938  26.580  1.00  0.00    -0.340 N 
ATOM     10  C   UNL A   1      30.528  24.648  26.340  1.00  0.00     0.254 C 
ATOM     11  O   UNL A   1      29.432  24.347  26.825  1.00  0.00    -0.269 OA
ATOM     12  H   UNL A   1      30.257  26.638  26.548  1.00  0.00     0.164 HD
BRANCH  10  13
ATOM     13  C   UNL A   1      31.135  23.738  25.313  1.00  0.00     0.063 A 
ATOM     14  C   UNL A   1      31.077  23.748  23.902  1.00  0.00     0.051 A 
ATOM     15  C   UNL A   1      31.650  22.653  23.205  1.00  0.00     0.027 A 
ATOM     16  C   UNL A   1      32.332  21.624  23.852  1.00  0.00     0.002 A 
ATOM     17  C   UNL A   1      31.857  22.690  25.942  1.00  0.00     0.016 A 
ATOM     18  C   UNL A   1      32.460  21.657  25.227  1.00  0.00     0.001 A 
BRANCH  14  19
ATOM     19  N   UNL A   1      30.615  24.771  23.052  1.00  0.00    -0.352 N 
ATOM     20  H   UNL A   1      29.956  24.453  22.392  1.00  0.00     0.167 HD
BRANCH  19  21
ATOM     21  C   UNL A   1      30.886  26.162  22.934  1.00  0.00     0.077 A 
ATOM     22  C   UNL A   1      33.744  28.679  22.475  1.00  0.00     0.046 C 
ATOM     23  C   UNL A   1      32.365  28.108  22.683  1.00  0.00    -0.030 A 
ATOM     24  C   UNL A   1      31.355  28.952  23.174  1.00  0.00     0.006 A 
ATOM     25  C   UNL A   1      32.106  26.727  22.507  1.00  0.00     0.069 A 
ATOM     26  C   UNL A   1      30.110  28.433  23.507  1.00  0.00     0.023 A 
ATOM     27  Cl  UNL A   1      33.305  25.773  21.686  1.00  0.00    -0.082 Cl
ATOM     28  C   UNL A   1      29.890  27.059  23.404  1.00  0.00     0.066 A 
ATOM     29  Cl  UNL A   1      28.347  26.464  23.940  1.00  0.00    -0.082 Cl
ENDBRANCH  19  21
ENDBRANCH  14  19
ENDBRANCH  10  13
ENDBRANCH   7   9
ENDBRANCH   4   7
ENDBRANCH   2   3
ENDBRANCH   1   2
BRANCH   1  30
ATOM     30  C   UNL A   1      35.084  31.415  27.674  1.00  0.00     0.023 C 
BRANCH  30  31
ATOM     31  C   UNL A   1      36.235  31.570  28.659  1.00  0.00     0.116 C 
BRANCH  31  32
ATOM     32  N   UNL A   1      35.917  31.028  29.972  1.00  0.00    -0.352 N 
ATOM     33  C   UNL A   1      36.586  30.100  30.727  1.00  0.00     0.251 C 
ATOM     34  H   UNL A   1      35.095  31.383  30.380  1.00  0.00     0.163 HD
ATOM     35  O   UNL A   1      36.083  29.664  31.749  1.00  0.00    -0.269 OA
BRANCH  33  36
ATOM     36  C   UNL A   1      37.903  29.625  30.270  1.00  0.00     0.039 A 
ATOM     37  C   UNL A   1      38.194  29.677  28.906  1.00  0.00     0.014 A 
ATOM     38  C   UNL A   1      38.845  29.156  31.189  1.00  0.00     0.014 A 
ATOM     39  C   UNL A   1      39.461  29.304  28.465  1.00  0.00     0.010 A 
ATOM     40  C   UNL A   1      40.130  28.859  30.756  1.00  0.00     0.010 A 
ATOM     41  C   UNL A   1      40.446  28.922  29.390  1.00  0.00    -0.014 A 
BRANCH  41  42
ATOM     42  C   UNL A   1      41.816  28.571  28.953  1.00  0.00     0.031 A 
ATOM     43  C   UNL A   1      42.874  29.636  28.896  1.00  0.00     0.074 A 
ATOM     44  C   UNL A   1      42.080  27.316  28.542  1.00  0.00     0.049 A 
ATOM     45  N   UNL A   1      44.102  29.553  28.457  1.00  0.00    -0.248 NA
ATOM     46  C   UNL A   1      42.493  30.978  29.370  1.00  0.00     0.031 C 
ATOM     47  C   UNL A   1      41.121  26.208  28.527  1.00  0.00     0.029 A 
ATOM     48  N   UNL A   1      43.234  26.761  28.051  1.00  0.00    -0.354 N 
ATOM     49  C   UNL A   1      44.632  30.831  28.581  1.00  0.00     0.074 A 
ATOM     50  C   UNL A   1      43.578  31.682  29.089  1.00  0.00     0.031 C 
ATOM     51  C   UNL A   1      41.733  25.103  28.071  1.00  0.00     0.029 A 
ATOM     52  C   UNL A   1      43.110  25.434  27.718  1.00  0.00     0.049 A 
ATOM     53  H   UNL A   1      44.073  27.266  27.947  1.00  0.00     0.167 HD
ATOM     54  C   UNL A   1      45.891  31.253  28.315  1.00  0.00     0.031 A 
ATOM     55  C   UNL A   1      44.001  24.581  27.177  1.00  0.00     0.031 A 
ATOM     56  C   UNL A   1      46.933  30.396  27.819  1.00  0.00     0.049 A 
ATOM     57  C   UNL A   1      45.388  25.079  26.871  1.00  0.00     0.074 A 
ATOM     58  C   UNL A   1      48.256  30.710  27.562  1.00  0.00     0.029 A 
ATOM     59  N   UNL A   1      46.771  29.054  27.506  1.00  0.00    -0.354 N 
ATOM     60  N   UNL A   1      45.890  26.279  27.046  1.00  0.00    -0.248 NA
ATOM     61  C   UNL A   1      46.332  24.106  26.307  1.00  0.00     0.031 C 
ATOM     62  C   UNL A   1      48.878  29.572  27.038  1.00  0.00     0.029 A 
ATOM     63  C   UNL A   1      47.963  28.532  27.036  1.00  0.00     0.049 A 
ATOM     64  H   UNL A   1      45.932  28.548  27.604  1.00  0.00     0.167 HD
ATOM     65  C   UNL A   1      47.219  26.195  26.646  1.00  0.00     0.074 A 
ATOM     66  C   UNL A   1      47.443  24.826  26.229  1.00  0.00     0.031 C 
ATOM     67  C   UNL A   1      48.169  27.162  26.633  1.00  0.00     0.031 A 
BRANCH  54  68
ATOM     68  C   UNL A   1      46.203  32.710  28.543  1.00  0.00    -0.014 A 
ATOM     69  C   UNL A   1      46.696  33.164  29.780  1.00  0.00     0.010 A 
ATOM     70  C   UNL A   1      46.034  33.631  27.494  1.00  0.00     0.010 A 
ATOM     71  C   UNL A   1      46.972  34.520  29.976  1.00  0.00     0.020 A 
ATOM     72  C   UNL A   1      46.340  34.983  27.677  1.00  0.00     0.020 A 
ATOM     73  C   UNL A   1      46.792  35.421  28.923  1.00  0.00     0.054 A 
BRANCH  73  74
ATOM     74  S   UNL A   1      47.182  37.170  29.200  1.00  0.00     0.124 S 
ATOM     75  O   UNL A   1      48.613  37.117  29.490  1.00  0.00    -0.237 OA
ATOM     76  O   UNL A   1      46.822  37.783  27.924  1.00  0.00    -0.237 OA
ATOM     77  O   UNL A   1      46.331  37.541  30.329  1.00  0.00    -0.744 OA
ENDBRANCH  73  74
ENDBRANCH  54  68
BRANCH  55  78
ATOM     78  C   UNL A   1      43.611  23.172  26.902  1.00  0.00    -0.014 A 
ATOM     79  C   UNL A   1      43.945  22.563  25.680  1.00  0.00     0.010 A 
ATOM     80  C   UNL A   1      42.918  22.422  27.871  1.00  0.00     0.010 A 
ATOM     81  C   UNL A   1      43.573  21.241  25.421  1.00  0.00     0.020 A 
ATOM     82  C   UNL A   1      42.571  21.090  27.628  1.00  0.00     0.020 A 
ATOM     83  C   UNL A   1      42.891  20.512  26.399  1.00  0.00     0.054 A 
BRANCH  83  84
ATOM     84  S   UNL A   1      42.458  18.783  26.057  1.00  0.00     0.124 S 
ATOM     85  O   UNL A   1      43.345  18.463  24.943  1.00  0.00    -0.237 OA
ATOM     86  O   UNL A   1      42.769  18.124  27.323  1.00  0.00    -0.237 OA
ATOM     87  O   UNL A   1      41.036  18.846  25.728  1.00  0.00    -0.744 OA
ENDBRANCH  83  84
ENDBRANCH  55  78
BRANCH  67  88
ATOM     88  C   UNL A   1      49.556  26.770  26.201  1.00  0.00    -0.014 A 
ATOM     89  C   UNL A   1      50.470  26.190  27.099  1.00  0.00     0.010 A 
ATOM     90  C   UNL A   1      49.923  26.920  24.850  1.00  0.00     0.010 A 
ATOM     91  C   UNL A   1      51.734  25.791  26.659  1.00  0.00     0.020 A 
ATOM     92  C   UNL A   1      51.173  26.494  24.400  1.00  0.00     0.020 A 
ATOM     93  C   UNL A   1      52.076  25.942  25.311  1.00  0.00     0.054 A 
BRANCH  93  94
ATOM     94  S   UNL A   1      53.700  25.360  24.753  1.00  0.00     0.124 S 
ATOM     95  O   UNL A   1      54.585  25.891  25.786  1.00  0.00    -0.237 OA
ATOM     96  O   UNL A   1      53.537  23.909  24.751  1.00  0.00    -0.237 OA
ATOM     97  O   UNL A   1      53.852  25.966  23.432  1.00  0.00    -0.744 OA
ENDBRANCH  93  94
ENDBRANCH  67  88
ENDBRANCH  41  42
ENDBRANCH  33  36
ENDBRANCH  31  32
ENDBRANCH  30  31
ENDBRANCH   1  30
TORSDOF 18
ENDMDL
MODEL 2
REMARK VINA RESULT:     -12.0      5.857      7.999
REMARK SMILES Cc1ccc(Cl)c(Nc2ccccc2C(=O)N[C@@H](C)C(=O)NCCCCNC(=O)c2ccc(-c3c4nc(c(-c5ccc(S(=O)(=O)[O-])cc5)c5ccc([nH]5)c(-c5ccc(S(=O)(=O)[O-])cc5)c5nc(c(-c6ccc(S(=O)(=O)[O-])cc6)c6ccc3[nH]6)C=C5)C=C4)cc2)c1Cl
REMARK SMILES IDX 24 1 23 2 22 3 20 4 21 5 18 7 19 8 17 9 15 10 16 11 14 13
REMARK SMILES IDX 9 14 10 15 11 16 13 17 12 18 8 19 7 21 1 22 2 23 3 24 90 25
REMARK SMILES IDX 4 26 91 27 5 28 6 29 25 30 26 31 27 32 28 33 29 35 30 36
REMARK SMILES IDX 31 37 89 38 32 39 88 40 33 41 34 42 35 43 82 44 36 45 87 46
REMARK SMILES IDX 81 47 83 48 37 49 86 50 80 51 79 52 38 54 68 55 49 56 67 57
REMARK SMILES IDX 50 58 53 59 66 60 84 61 51 62 52 63 65 65 85 66 54 67 39 68
REMARK SMILES IDX 40 69 48 70 41 71 47 72 42 73 43 74 44 75 45 76 46 77 69 78
REMARK SMILES IDX 70 79 78 80 71 81 77 82 72 83 73 84 74 85 75 86 76 87 55 88
REMARK SMILES IDX 56 89 64 90 57 91 63 92 58 93 59 94 60 95 61 96 62 97
REMARK H PARENT 22 6 17 12 8 20 27 34 83 53 53 64
REMARK Flexibility Score: inf
ROOT
ATOM      1  C   UNL A   1      34.615  30.737  27.883  1.00  0.00     0.023 C 
ENDROOT
BRANCH   1   2
ATOM      2  C   UNL A   1      34.309  29.314  27.393  1.00  0.00     0.116 C 
BRANCH   2   3
ATOM      3  N   UNL A   1      33.091  28.768  27.957  1.00  0.00    -0.354 N 
ATOM      4  C   UNL A   1      32.227  28.172  27.087  1.00  0.00     0.242 C 
ATOM      5  O   UNL A   1      31.425  28.903  26.507  1.00  0.00    -0.273 OA
ATOM      6  H   UNL A   1      32.897  28.825  28.921  1.00  0.00     0.163 HD
BRANCH   4   7
ATOM      7  C   UNL A   1      32.327  26.651  26.828  1.00  0.00     0.168 C 
ATOM      8  C   UNL A   1      33.307  26.213  25.750  1.00  0.00     0.041 C 
BRANCH   7   9
ATOM      9  N   UNL A   1      30.959  26.261  26.532  1.00  0.00    -0.340 N 
ATOM     10  C   UNL A   1      30.469  24.979  26.399  1.00  0.00     0.254 C 
ATOM     11  O   UNL A   1      29.346  24.786  26.877  1.00  0.00    -0.269 OA
ATOM     12  H   UNL A   1      30.310  26.992  26.415  1.00  0.00     0.164 HD
BRANCH  10  13
ATOM     13  C   UNL A   1      31.048  23.945  25.479  1.00  0.00     0.063 A 
ATOM     14  C   UNL A   1      31.029  23.828  24.072  1.00  0.00     0.051 A 
ATOM     15  C   UNL A   1      31.554  22.642  23.497  1.00  0.00     0.027 A 
ATOM     16  C   UNL A   1      32.154  21.639  24.257  1.00  0.00     0.002 A 
ATOM     17  C   UNL A   1      31.688  22.919  26.224  1.00  0.00     0.016 A 
ATOM     18  C   UNL A   1      32.246  21.791  25.627  1.00  0.00     0.001 A 
BRANCH  14  19
ATOM     19  N   UNL A   1      30.654  24.793  23.118  1.00  0.00    -0.352 N 
ATOM     20  H   UNL A   1      30.040  24.438  22.436  1.00  0.00     0.167 HD
BRANCH  19  21
ATOM     21  C   UNL A   1      30.964  26.167  22.921  1.00  0.00     0.077 A 
ATOM     22  C   UNL A   1      33.896  28.579  22.378  1.00  0.00     0.046 C 
ATOM     23  C   UNL A   1      32.498  28.057  22.587  1.00  0.00    -0.030 A 
ATOM     24  C   UNL A   1      31.500  28.954  22.999  1.00  0.00     0.006 A 
ATOM     25  C   UNL A   1      32.208  26.674  22.490  1.00  0.00     0.069 A 
ATOM     26  C   UNL A   1      30.234  28.487  23.334  1.00  0.00     0.023 A 
ATOM     27  Cl  UNL A   1      33.400  25.641  21.759  1.00  0.00    -0.082 Cl
ATOM     28  C   UNL A   1      29.981  27.116  23.310  1.00  0.00     0.066 A 
ATOM     29  Cl  UNL A   1      28.411  26.593  23.844  1.00  0.00    -0.082 Cl
ENDBRANCH  19  21
ENDBRANCH  14  19
ENDBRANCH  10  13
ENDBRANCH   7   9
ENDBRANCH   4   7
ENDBRANCH   2   3
ENDBRANCH   1   2
BRANCH   1  30
ATOM     30  C   UNL A   1      33.418  31.690  27.915  1.00  0.00     0.023 C 
BRANCH  30  31
ATOM     31  C   UNL A   1      33.654  33.031  27.231  1.00  0.00     0.116 C 
BRANCH  31  32
ATOM     32  N   UNL A   1      33.029  34.134  27.945  1.00  0.00    -0.352 N 
ATOM     33  C   UNL A   1      33.276  34.620  29.203  1.00  0.00     0.251 C 
ATOM     34  H   UNL A   1      32.321  34.603  27.449  1.00  0.00     0.163 HD
ATOM     35  O   UNL A   1      32.545  35.469  29.686  1.00  0.00    -0.269 OA
BRANCH  33  36
ATOM     36  C   UNL A   1      34.418  34.085  29.963  1.00  0.00     0.039 A 
ATOM     37  C   UNL A   1      34.160  33.241  31.045  1.00  0.00     0.014 A 
ATOM     38  C   UNL A   1      35.727  34.398  29.591  1.00  0.00     0.014 A 
ATOM     39  C   UNL A   1      35.228  32.665  31.728  1.00  0.00     0.010 A 
ATOM     40  C   UNL A   1      36.786  33.762  30.224  1.00  0.00     0.010 A 
ATOM     41  C   UNL A   1      36.545  32.897  31.303  1.00  0.00    -0.014 A 
BRANCH  41  42
ATOM     42  C   UNL A   1      37.696  32.255  31.979  1.00  0.00     0.031 A 
ATOM     43  C   UNL A   1      38.173  32.788  33.300  1.00  0.00     0.074 A 
ATOM     44  C   UNL A   1      38.347  31.247  31.367  1.00  0.00     0.049 A 
ATOM     45  N   UNL A   1      39.213  32.427  34.005  1.00  0.00    -0.248 NA
ATOM     46  C   UNL A   1      37.395  33.888  33.894  1.00  0.00     0.031 C 
ATOM     47  C   UNL A   1      37.989  30.669  30.069  1.00  0.00     0.029 A 
ATOM     48  N   UNL A   1      39.452  30.533  31.754  1.00  0.00    -0.354 N 
ATOM     49  C   UNL A   1      39.226  33.268  35.111  1.00  0.00     0.074 A 
ATOM     50  C   UNL A   1      38.121  34.190  34.959  1.00  0.00     0.031 C 
ATOM     51  C   UNL A   1      38.845  29.676  29.779  1.00  0.00     0.029 A 
ATOM     52  C   UNL A   1      39.839  29.578  30.844  1.00  0.00     0.049 A 
ATOM     53  H   UNL A   1      39.925  30.690  32.603  1.00  0.00     0.167 HD
ATOM     54  C   UNL A   1      40.071  33.260  36.169  1.00  0.00     0.031 A 
ATOM     55  C   UNL A   1      40.883  28.729  30.859  1.00  0.00     0.031 A 
ATOM     56  C   UNL A   1      41.160  32.332  36.313  1.00  0.00     0.049 A 
ATOM     57  C   UNL A   1      41.821  28.752  32.036  1.00  0.00     0.074 A 
ATOM     58  C   UNL A   1      42.047  32.205  37.368  1.00  0.00     0.029 A 
ATOM     59  N   UNL A   1      41.511  31.372  35.376  1.00  0.00    -0.354 N 
ATOM     60  N   UNL A   1      41.787  29.518  33.101  1.00  0.00    -0.248 NA
ATOM     61  C   UNL A   1      42.929  27.789  32.020  1.00  0.00     0.031 C 
ATOM     62  C   UNL A   1      42.970  31.207  37.041  1.00  0.00     0.029 A 
ATOM     63  C   UNL A   1      42.616  30.664  35.816  1.00  0.00     0.049 A 
ATOM     64  H   UNL A   1      41.044  31.217  34.523  1.00  0.00     0.167 HD
ATOM     65  C   UNL A   1      42.848  29.104  33.898  1.00  0.00     0.074 A 
ATOM     66  C   UNL A   1      43.498  28.017  33.195  1.00  0.00     0.031 C 
ATOM     67  C   UNL A   1      43.244  29.577  35.105  1.00  0.00     0.031 A 
BRANCH  54  68
ATOM     68  C   UNL A   1      39.856  34.293  37.243  1.00  0.00    -0.014 A 
ATOM     69  C   UNL A   1      39.076  34.013  38.379  1.00  0.00     0.010 A 
ATOM     70  C   UNL A   1      40.473  35.553  37.132  1.00  0.00     0.010 A 
ATOM     71  C   UNL A   1      38.881  34.986  39.362  1.00  0.00     0.020 A 
ATOM     72  C   UNL A   1      40.307  36.519  38.130  1.00  0.00     0.020 A 
ATOM     73  C   UNL A   1      39.498  36.233  39.231  1.00  0.00     0.054 A 
BRANCH  73  74
ATOM     74  S   UNL A   1      39.246  37.468  40.535  1.00  0.00     0.124 S 
ATOM     75  O   UNL A   1      40.550  38.125  40.584  1.00  0.00    -0.237 OA
ATOM     76  O   UNL A   1      38.155  38.279  39.999  1.00  0.00    -0.237 OA
ATOM     77  O   UNL A   1      38.906  36.669  41.710  1.00  0.00    -0.744 OA
ENDBRANCH  73  74
ENDBRANCH  54  68
BRANCH  55  78
ATOM     78  C   UNL A   1      41.088  27.781  29.730  1.00  0.00    -0.014 A 
ATOM     79  C   UNL A   1      42.207  27.904  28.887  1.00  0.00     0.010 A 
ATOM     80  C   UNL A   1      40.173  26.736  29.501  1.00  0.00     0.010 A 
ATOM     81  C   UNL A   1      42.395  27.017  27.825  1.00  0.00     0.020 A 
ATOM     82  C   UNL A   1      40.374  25.828  28.458  1.00  0.00     0.020 A 
ATOM     83  C   UNL A   1      41.478  25.982  27.618  1.00  0.00     0.054 A 
BRANCH  83  84
ATOM     84  S   UNL A   1      41.769  24.815  26.259  1.00  0.00     0.124 S 
ATOM     85  O   UNL A   1      41.516  25.647  25.087  1.00  0.00    -0.237 OA
ATOM     86  O   UNL A   1      43.160  24.425  26.471  1.00  0.00    -0.237 OA
ATOM     87  O   UNL A   1      40.789  23.759  26.501  1.00  0.00    -0.744 OA
ENDBRANCH  83  84
ENDBRANCH  55  78
BRANCH  67  88
ATOM     88  C   UNL A   1      44.404  28.892  35.775  1.00  0.00    -0.014 A 
ATOM     89  C   UNL A   1      45.725  29.338  35.595  1.00  0.00     0.010 A 
ATOM     90  C   UNL A   1      44.155  27.826  36.659  1.00  0.00     0.010 A 
ATOM     91  C   UNL A   1      46.779  28.713  36.268  1.00  0.00     0.020 A 
ATOM     92  C   UNL A   1      45.200  27.220  37.357  1.00  0.00     0.020 A 
ATOM     93  C   UNL A   1      46.508  27.660  37.148  1.00  0.00     0.054 A 
BRANCH  93  94
ATOM     94  S   UNL A   1      47.886  26.907  38.055  1.00  0.00     0.124 S 
ATOM     95  O   UNL A   1      48.946  27.895  37.873  1.00  0.00    -0.237 OA
ATOM     96  O   UNL A   1      47.355  26.798  39.411  1.00  0.00    -0.237 OA
ATOM     97  O   UNL A   1      48.098  25.634  37.370  1.00  0.00    -0.744 OA
ENDBRANCH  93  94
ENDBRANCH  67  88
ENDBRANCH  41  42
ENDBRANCH  33  36
ENDBRANCH  31  32
ENDBRANCH  30  31
ENDBRANCH   1  30
TORSDOF 18
ENDMDL
MODEL 3
REMARK VINA RESULT:     -11.8      1.494      3.125
REMARK SMILES Cc1ccc(Cl)c(Nc2ccccc2C(=O)N[C@@H](C)C(=O)NCCCCNC(=O)c2ccc(-c3c4nc(c(-c5ccc(S(=O)(=O)[O-])cc5)c5ccc([nH]5)c(-c5ccc(S(=O)(=O)[O-])cc5)c5nc(c(-c6ccc(S(=O)(=O)[O-])cc6)c6ccc3[nH]6)C=C5)C=C4)cc2)c1Cl
REMARK SMILES IDX 24 1 23 2 22 3 20 4 21 5 18 7 19 8 17 9 15 10 16 11 14 13
REMARK SMILES IDX 9 14 10 15 11 16 13 17 12 18 8 19 7 21 1 22 2 23 3 24 90 25
REMARK SMILES IDX 4 26 91 27 5 28 6 29 25 30 26 31 27 32 28 33 29 35 30 36
REMARK SMILES IDX 31 37 89 38 32 39 88 40 33 41 34 42 35 43 82 44 36 45 87 46
REMARK SMILES IDX 81 47 83 48 37 49 86 50 80 51 79 52 38 54 68 55 49 56 67 57
REMARK SMILES IDX 50 58 53 59 66 60 84 61 51 62 52 63 65 65 85 66 54 67 39 68
REMARK SMILES IDX 40 69 48 70 41 71 47 72 42 73 43 74 44 75 45 76 46 77 69 78
REMARK SMILES IDX 70 79 78 80 71 81 77 82 72 83 73 84 74 85 75 86 76 87 55 88
REMARK SMILES IDX 56 89 64 90 57 91 63 92 58 93 59 94 60 95 61 96 62 97
REMARK H PARENT 22 6 17 12 8 20 27 34 83 53 53 64
REMARK Flexibility Score: inf
ROOT
ATOM      1  C   UNL A   1      33.101  29.814  27.139  1.00  0.00     0.023 C 
ENDROOT
BRANCH   1   2
ATOM      2  C   UNL A   1      32.500  29.614  25.740  1.00  0.00     0.116 C 
BRANCH   2   3
ATOM      3  N   UNL A   1      33.491  29.661  24.684  1.00  0.00    -0.354 N 
ATOM      4  C   UNL A   1      33.478  28.635  23.786  1.00  0.00     0.242 C 
ATOM      5  O   UNL A   1      34.103  27.620  24.089  1.00  0.00    -0.273 OA
ATOM      6  H   UNL A   1      34.141  30.398  24.617  1.00  0.00     0.163 HD
BRANCH   4   7
ATOM      7  C   UNL A   1      32.652  28.765  22.485  1.00  0.00     0.168 C 
ATOM      8  C   UNL A   1      31.220  29.255  22.642  1.00  0.00     0.041 C 
BRANCH   7   9
ATOM      9  N   UNL A   1      32.728  27.440  21.894  1.00  0.00    -0.340 N 
ATOM     10  C   UNL A   1      31.862  26.387  22.097  1.00  0.00     0.254 C 
ATOM     11  O   UNL A   1      31.606  25.709  21.096  1.00  0.00    -0.269 OA
ATOM     12  H   UNL A   1      33.481  27.276  21.282  1.00  0.00     0.164 HD
BRANCH  10  13
ATOM     13  C   UNL A   1      31.483  25.852  23.446  1.00  0.00     0.063 A 
ATOM     14  C   UNL A   1      32.075  24.860  24.259  1.00  0.00     0.051 A 
ATOM     15  C   UNL A   1      31.390  24.473  25.440  1.00  0.00     0.027 A 
ATOM     16  C   UNL A   1      30.212  25.088  25.862  1.00  0.00     0.002 A 
ATOM     17  C   UNL A   1      30.297  26.477  23.914  1.00  0.00     0.016 A 
ATOM     18  C   UNL A   1      29.677  26.115  25.108  1.00  0.00     0.001 A 
BRANCH  14  19
ATOM     19  N   UNL A   1      33.340  24.256  24.123  1.00  0.00    -0.352 N 
ATOM     20  H   UNL A   1      34.036  24.889  23.835  1.00  0.00     0.167 HD
BRANCH  19  21
ATOM     21  C   UNL A   1      33.835  22.937  24.311  1.00  0.00     0.077 A 
ATOM     22  C   UNL A   1      32.820  19.244  24.100  1.00  0.00     0.046 C 
ATOM     23  C   UNL A   1      33.634  20.488  24.345  1.00  0.00    -0.030 A 
ATOM     24  C   UNL A   1      34.777  20.395  25.155  1.00  0.00     0.006 A 
ATOM     25  C   UNL A   1      33.203  21.753  23.875  1.00  0.00     0.069 A 
ATOM     26  C   UNL A   1      35.475  21.542  25.516  1.00  0.00     0.023 A 
ATOM     27  Cl  UNL A   1      31.928  21.792  22.695  1.00  0.00    -0.082 Cl
ATOM     28  C   UNL A   1      34.999  22.789  25.113  1.00  0.00     0.066 A 
ATOM     29  Cl  UNL A   1      35.858  24.187  25.689  1.00  0.00    -0.082 Cl
ENDBRANCH  19  21
ENDBRANCH  14  19
ENDBRANCH  10  13
ENDBRANCH   7   9
ENDBRANCH   4   7
ENDBRANCH   2   3
ENDBRANCH   1   2
BRANCH   1  30
ATOM     30  C   UNL A   1      34.482  29.187  27.354  1.00  0.00     0.023 C 
BRANCH  30  31
ATOM     31  C   UNL A   1      35.541  30.148  27.881  1.00  0.00     0.116 C 
BRANCH  31  32
ATOM     32  N   UNL A   1      35.459  30.326  29.322  1.00  0.00    -0.352 N 
ATOM     33  C   UNL A   1      36.366  30.009  30.300  1.00  0.00     0.251 C 
ATOM     34  H   UNL A   1      34.626  30.738  29.645  1.00  0.00     0.163 HD
ATOM     35  O   UNL A   1      36.057  30.105  31.477  1.00  0.00    -0.269 OA
BRANCH  33  36
ATOM     36  C   UNL A   1      37.702  29.531  29.907  1.00  0.00     0.039 A 
ATOM     37  C   UNL A   1      38.095  29.673  28.575  1.00  0.00     0.014 A 
ATOM     38  C   UNL A   1      38.562  28.970  30.854  1.00  0.00     0.014 A 
ATOM     39  C   UNL A   1      39.382  29.297  28.201  1.00  0.00     0.010 A 
ATOM     40  C   UNL A   1      39.868  28.668  30.495  1.00  0.00     0.010 A 
ATOM     41  C   UNL A   1      40.286  28.822  29.163  1.00  0.00    -0.014 A 
BRANCH  41  42
ATOM     42  C   UNL A   1      41.676  28.464  28.802  1.00  0.00     0.031 A 
ATOM     43  C   UNL A   1      42.737  29.528  28.785  1.00  0.00     0.074 A 
ATOM     44  C   UNL A   1      41.960  27.203  28.422  1.00  0.00     0.049 A 
ATOM     45  N   UNL A   1      43.987  29.439  28.410  1.00  0.00    -0.248 NA
ATOM     46  C   UNL A   1      42.334  30.876  29.221  1.00  0.00     0.031 C 
ATOM     47  C   UNL A   1      41.002  26.096  28.372  1.00  0.00     0.029 A 
ATOM     48  N   UNL A   1      43.137  26.642  27.999  1.00  0.00    -0.354 N 
ATOM     49  C   UNL A   1      44.511  30.718  28.545  1.00  0.00     0.074 A 
ATOM     50  C   UNL A   1      43.433  31.576  28.986  1.00  0.00     0.031 C 
ATOM     51  C   UNL A   1      41.636  24.985  27.964  1.00  0.00     0.029 A 
ATOM     52  C   UNL A   1      43.029  25.310  27.678  1.00  0.00     0.049 A 
ATOM     53  H   UNL A   1      43.981  27.145  27.930  1.00  0.00     0.167 HD
ATOM     54  C   UNL A   1      45.782  31.136  28.338  1.00  0.00     0.031 A 
ATOM     55  C   UNL A   1      43.946  24.450  27.195  1.00  0.00     0.031 A 
ATOM     56  C   UNL A   1      46.847  30.271  27.908  1.00  0.00     0.049 A 
ATOM     57  C   UNL A   1      45.347  24.943  26.954  1.00  0.00     0.074 A 
ATOM     58  C   UNL A   1      48.181  30.581  27.714  1.00  0.00     0.029 A 
ATOM     59  N   UNL A   1      46.700  28.925  27.605  1.00  0.00    -0.354 N 
ATOM     60  N   UNL A   1      45.841  26.145  27.137  1.00  0.00    -0.248 NA
ATOM     61  C   UNL A   1      46.318  23.962  26.451  1.00  0.00     0.031 C 
ATOM     62  C   UNL A   1      48.828  29.437  27.238  1.00  0.00     0.029 A 
ATOM     63  C   UNL A   1      47.914  28.397  27.203  1.00  0.00     0.049 A 
ATOM     64  H   UNL A   1      45.856  28.421  27.667  1.00  0.00     0.167 HD
ATOM     65  C   UNL A   1      47.188  26.055  26.808  1.00  0.00     0.074 A 
ATOM     66  C   UNL A   1      47.432  24.680  26.422  1.00  0.00     0.031 C 
ATOM     67  C   UNL A   1      48.138  27.022  26.831  1.00  0.00     0.031 A 
BRANCH  54  68
ATOM     68  C   UNL A   1      46.083  32.595  28.562  1.00  0.00    -0.014 A 
ATOM     69  C   UNL A   1      45.923  33.540  27.533  1.00  0.00     0.010 A 
ATOM     70  C   UNL A   1      46.498  33.033  29.833  1.00  0.00     0.010 A 
ATOM     71  C   UNL A   1      46.214  34.888  27.757  1.00  0.00     0.020 A 
ATOM     72  C   UNL A   1      46.758  34.387  30.071  1.00  0.00     0.020 A 
ATOM     73  C   UNL A   1      46.630  35.302  29.025  1.00  0.00     0.054 A 
BRANCH  73  74
ATOM     74  S   UNL A   1      46.977  37.062  29.292  1.00  0.00     0.124 S 
ATOM     75  O   UNL A   1      46.114  37.370  30.430  1.00  0.00    -0.237 OA
ATOM     76  O   UNL A   1      48.410  37.066  29.573  1.00  0.00    -0.237 OA
ATOM     77  O   UNL A   1      46.589  37.688  28.030  1.00  0.00    -0.744 OA
ENDBRANCH  73  74
ENDBRANCH  54  68
BRANCH  55  78
ATOM     78  C   UNL A   1      43.569  23.037  26.919  1.00  0.00    -0.014 A 
ATOM     79  C   UNL A   1      43.888  22.439  25.687  1.00  0.00     0.010 A 
ATOM     80  C   UNL A   1      42.903  22.273  27.896  1.00  0.00     0.010 A 
ATOM     81  C   UNL A   1      43.529  21.114  25.429  1.00  0.00     0.020 A 
ATOM     82  C   UNL A   1      42.569  20.938  27.653  1.00  0.00     0.020 A 
ATOM     83  C   UNL A   1      42.874  20.370  26.415  1.00  0.00     0.054 A 
BRANCH  83  84
ATOM     84  S   UNL A   1      42.457  18.638  26.071  1.00  0.00     0.124 S 
ATOM     85  O   UNL A   1      42.740  17.998  27.352  1.00  0.00    -0.237 OA
ATOM     86  O   UNL A   1      41.047  18.721  25.702  1.00  0.00    -0.237 OA
ATOM     87  O   UNL A   1      43.360  18.281  24.979  1.00  0.00    -0.744 OA
ENDBRANCH  83  84
ENDBRANCH  55  78
BRANCH  67  88
ATOM     88  C   UNL A   1      49.546  26.623  26.476  1.00  0.00    -0.014 A 
ATOM     89  C   UNL A   1      50.387  25.988  27.406  1.00  0.00     0.010 A 
ATOM     90  C   UNL A   1      50.006  26.825  25.161  1.00  0.00     0.010 A 
ATOM     91  C   UNL A   1      51.673  25.585  27.034  1.00  0.00     0.020 A 
ATOM     92  C   UNL A   1      51.277  26.396  24.777  1.00  0.00     0.020 A 
ATOM     93  C   UNL A   1      52.107  25.789  25.720  1.00  0.00     0.054 A 
BRANCH  93  94
ATOM     94  S   UNL A   1      53.757  25.201  25.248  1.00  0.00     0.124 S 
ATOM     95  O   UNL A   1      53.850  25.643  23.859  1.00  0.00    -0.237 OA
ATOM     96  O   UNL A   1      54.627  25.899  26.190  1.00  0.00    -0.237 OA
ATOM     97  O   UNL A   1      53.677  23.754  25.435  1.00  0.00    -0.744 OA
ENDBRANCH  93  94
ENDBRANCH  67  88
ENDBRANCH  41  42
ENDBRANCH  33  36
ENDBRANCH  31  32
ENDBRANCH  30  31
ENDBRANCH   1  30
TORSDOF 18
ENDMDL
