MODEL 1
REMARK VINA RESULT:     -12.1      0.000      0.000
REMARK SMILES C[NH+]1CCC([NH+]2CCC(Oc3ccc4ccccc4c3)(C(=O)NCCCCNC(=O)c3ccc(-c4c5nc(c(-c6ccc(S(=O)(=O)[O-])cc6)c6ccc([nH]6)c(-c6ccc(S(=O)(=O)[O-])cc6)c6nc(c(-c7ccc(S(=O)(=O)[O-])cc7)c7ccc4[nH]7)C=C6)C=C5)cc3)CC2)CC1
REMARK SMILES IDX 26 1 25 2 24 3 23 4 21 5 22 6 9 8 6 9 7 10 92 11 8 13 91 14
REMARK SMILES IDX 5 15 1 16 2 17 3 18 94 19 4 21 93 22 10 23 11 24 12 25 20 26
REMARK SMILES IDX 13 27 19 28 14 29 18 30 15 31 17 32 16 33 27 34 28 35 29 36
REMARK SMILES IDX 30 38 31 39 32 40 90 41 33 42 89 43 34 44 35 45 36 46 83 47
REMARK SMILES IDX 37 48 88 49 82 50 84 51 38 52 87 53 81 54 80 55 39 57 69 58
REMARK SMILES IDX 50 59 68 60 51 61 54 62 67 63 85 64 52 65 53 66 66 68 86 69
REMARK SMILES IDX 55 70 40 71 41 72 49 73 42 74 48 75 43 76 44 77 45 78 46 79
REMARK SMILES IDX 47 80 70 81 71 82 79 83 72 84 78 85 73 86 74 87 75 88 76 89
REMARK SMILES IDX 77 90 56 91 57 92 65 93 58 94 64 95 59 96 60 97 61 98 62 99
REMARK SMILES IDX 63 100
REMARK H PARENT 23 7 6 12 2 20 28 37 84 56 54 67
REMARK Flexibility Score: inf
ROOT
ATOM      1  C   UNL A   1      33.765  27.992  26.925  1.00  0.00     0.023 C 
ENDROOT
BRANCH   1   2
ATOM      2  C   UNL A   1      32.277  28.023  27.267  1.00  0.00     0.023 C 
BRANCH   2   3
ATOM      3  C   UNL A   1      31.404  27.128  26.386  1.00  0.00     0.116 C 
BRANCH   3   4
ATOM      4  N   UNL A   1      31.436  25.751  26.836  1.00  0.00    -0.353 N 
ATOM      5  C   UNL A   1      31.647  24.596  26.135  1.00  0.00     0.264 C 
ATOM      6  O   UNL A   1      31.686  23.556  26.801  1.00  0.00    -0.270 OA
ATOM      7  H   UNL A   1      31.281  25.627  27.801  1.00  0.00     0.163 HD
BRANCH   5   8
ATOM      8  C   UNL A   1      31.825  24.604  24.585  1.00  0.00     0.197 C 
ATOM      9  N   UNL A   1      34.640  23.841  24.160  1.00  0.00    -0.332 N 
ATOM     10  C   UNL A   1      33.651  22.875  24.651  1.00  0.00     0.267 C 
ATOM     11  C   UNL A   1      34.315  25.208  24.608  1.00  0.00     0.267 C 
ATOM     12  H   UNL A   1      34.579  23.832  23.143  1.00  0.00     0.348 HD
ATOM     13  C   UNL A   1      32.295  23.240  24.073  1.00  0.00     0.120 C 
ATOM     14  C   UNL A   1      32.896  25.646  24.197  1.00  0.00     0.120 C 
BRANCH   9  15
ATOM     15  C   UNL A   1      36.040  23.453  24.461  1.00  0.00     0.195 C 
ATOM     16  C   UNL A   1      39.384  21.551  26.413  1.00  0.00     0.332 C 
ATOM     17  N   UNL A   1      38.062  22.045  26.040  1.00  0.00    -0.337 N 
ATOM     18  C   UNL A   1      37.640  21.498  24.746  1.00  0.00     0.268 C 
ATOM     19  C   UNL A   1      38.037  23.512  26.019  1.00  0.00     0.268 C 
ATOM     20  H   UNL A   1      37.398  21.728  26.747  1.00  0.00     0.347 HD
ATOM     21  C   UNL A   1      36.208  21.918  24.431  1.00  0.00     0.126 C 
ATOM     22  C   UNL A   1      36.618  24.023  25.768  1.00  0.00     0.126 C 
ENDBRANCH   9  15
BRANCH   8  23
ATOM     23  O   UNL A   1      30.495  25.003  24.163  1.00  0.00    -0.477 OA
BRANCH  23  24
ATOM     24  C   UNL A   1      30.310  26.223  23.591  1.00  0.00     0.121 A 
ATOM     25  C   UNL A   1      31.225  26.786  22.710  1.00  0.00     0.047 A 
ATOM     26  C   UNL A   1      29.072  26.834  23.786  1.00  0.00     0.055 A 
ATOM     27  C   UNL A   1      30.968  28.027  22.127  1.00  0.00     0.012 A 
ATOM     28  C   UNL A   1      28.775  28.060  23.169  1.00  0.00    -0.015 A 
ATOM     29  C   UNL A   1      29.750  28.678  22.353  1.00  0.00    -0.018 A 
ATOM     30  C   UNL A   1      27.528  28.683  23.334  1.00  0.00     0.009 A 
ATOM     31  C   UNL A   1      29.473  29.919  21.761  1.00  0.00     0.009 A 
ATOM     32  C   UNL A   1      27.258  29.908  22.721  1.00  0.00     0.001 A 
ATOM     33  C   UNL A   1      28.232  30.531  21.946  1.00  0.00     0.001 A 
ENDBRANCH  23  24
ENDBRANCH   8  23
ENDBRANCH   5   8
ENDBRANCH   3   4
ENDBRANCH   2   3
ENDBRANCH   1   2
BRANCH   1  34
ATOM     34  C   UNL A   1      34.256  29.172  26.101  1.00  0.00     0.116 C 
BRANCH  34  35
ATOM     35  N   UNL A   1      33.820  30.452  26.635  1.00  0.00    -0.352 N 
ATOM     36  C   UNL A   1      34.345  31.169  27.681  1.00  0.00     0.251 C 
ATOM     37  H   UNL A   1      33.044  30.860  26.187  1.00  0.00     0.163 HD
ATOM     38  O   UNL A   1      33.758  32.166  28.097  1.00  0.00    -0.269 OA
BRANCH  36  39
ATOM     39  C   UNL A   1      35.603  30.722  28.317  1.00  0.00     0.039 A 
ATOM     40  C   UNL A   1      36.805  31.310  27.921  1.00  0.00     0.014 A 
ATOM     41  C   UNL A   1      35.595  29.732  29.303  1.00  0.00     0.014 A 
ATOM     42  C   UNL A   1      37.996  30.928  28.543  1.00  0.00     0.010 A 
ATOM     43  C   UNL A   1      36.766  29.421  29.983  1.00  0.00     0.010 A 
ATOM     44  C   UNL A   1      37.984  29.996  29.594  1.00  0.00    -0.014 A 
BRANCH  44  45
ATOM     45  C   UNL A   1      39.243  29.576  30.259  1.00  0.00     0.031 A 
ATOM     46  C   UNL A   1      39.699  30.277  31.514  1.00  0.00     0.074 A 
ATOM     47  C   UNL A   1      39.992  28.593  29.722  1.00  0.00     0.049 A 
ATOM     48  N   UNL A   1      40.771  30.065  32.234  1.00  0.00    -0.248 NA
ATOM     49  C   UNL A   1      38.855  31.378  32.008  1.00  0.00     0.031 C 
ATOM     50  C   UNL A   1      39.682  27.869  28.487  1.00  0.00     0.029 A 
ATOM     51  N   UNL A   1      41.168  28.030  30.150  1.00  0.00    -0.354 N 
ATOM     52  C   UNL A   1      40.737  31.011  33.251  1.00  0.00     0.074 A 
ATOM     53  C   UNL A   1      39.575  31.840  33.020  1.00  0.00     0.031 C 
ATOM     54  C   UNL A   1      40.623  26.933  28.278  1.00  0.00     0.029 A 
ATOM     55  C   UNL A   1      41.621  27.016  29.339  1.00  0.00     0.049 A 
ATOM     56  H   UNL A   1      41.643  28.326  30.959  1.00  0.00     0.167 HD
ATOM     57  C   UNL A   1      41.578  31.163  34.301  1.00  0.00     0.031 A 
ATOM     58  C   UNL A   1      42.715  26.238  29.442  1.00  0.00     0.031 A 
ATOM     59  C   UNL A   1      42.728  30.328  34.536  1.00  0.00     0.049 A 
ATOM     60  C   UNL A   1      43.637  26.425  30.617  1.00  0.00     0.074 A 
ATOM     61  C   UNL A   1      43.614  30.364  35.597  1.00  0.00     0.029 A 
ATOM     62  N   UNL A   1      43.148  29.308  33.696  1.00  0.00    -0.354 N 
ATOM     63  N   UNL A   1      43.551  27.283  31.607  1.00  0.00    -0.248 NA
ATOM     64  C   UNL A   1      44.793  25.522  30.699  1.00  0.00     0.031 C 
ATOM     65  C   UNL A   1      44.604  29.403  35.370  1.00  0.00     0.029 A 
ATOM     66  C   UNL A   1      44.295  28.720  34.203  1.00  0.00     0.049 A 
ATOM     67  H   UNL A   1      42.698  29.040  32.863  1.00  0.00     0.167 HD
ATOM     68  C   UNL A   1      44.623  27.001  32.447  1.00  0.00     0.074 A 
ATOM     69  C   UNL A   1      45.330  25.881  31.857  1.00  0.00     0.031 C 
ATOM     70  C   UNL A   1      44.991  27.612  33.601  1.00  0.00     0.031 A 
BRANCH  57  71
ATOM     71  C   UNL A   1      41.286  32.278  35.272  1.00  0.00    -0.014 A 
ATOM     72  C   UNL A   1      41.960  33.512  35.191  1.00  0.00     0.010 A 
ATOM     73  C   UNL A   1      40.301  32.105  36.261  1.00  0.00     0.010 A 
ATOM     74  C   UNL A   1      41.690  34.531  36.107  1.00  0.00     0.020 A 
ATOM     75  C   UNL A   1      40.003  33.134  37.160  1.00  0.00     0.020 A 
ATOM     76  C   UNL A   1      40.713  34.335  37.087  1.00  0.00     0.054 A 
BRANCH  76  77
ATOM     77  S   UNL A   1      40.366  35.685  38.248  1.00  0.00     0.124 S 
ATOM     78  O   UNL A   1      39.789  36.697  37.368  1.00  0.00    -0.237 OA
ATOM     79  O   UNL A   1      39.435  35.066  39.188  1.00  0.00    -0.237 OA
ATOM     80  O   UNL A   1      41.677  36.014  38.800  1.00  0.00    -0.744 OA
ENDBRANCH  76  77
ENDBRANCH  57  71
BRANCH  58  81
ATOM     81  C   UNL A   1      42.987  25.192  28.415  1.00  0.00    -0.014 A 
ATOM     82  C   UNL A   1      42.519  23.878  28.589  1.00  0.00     0.010 A 
ATOM     83  C   UNL A   1      43.718  25.508  27.255  1.00  0.00     0.010 A 
ATOM     84  C   UNL A   1      42.796  22.894  27.636  1.00  0.00     0.020 A 
ATOM     85  C   UNL A   1      43.970  24.534  26.284  1.00  0.00     0.020 A 
ATOM     86  C   UNL A   1      43.518  23.230  26.487  1.00  0.00     0.054 A 
BRANCH  86  87
ATOM     87  S   UNL A   1      43.828  21.946  25.243  1.00  0.00     0.124 S 
ATOM     88  O   UNL A   1      43.701  22.693  23.997  1.00  0.00    -0.237 OA
ATOM     89  O   UNL A   1      45.178  21.501  25.580  1.00  0.00    -0.237 OA
ATOM     90  O   UNL A   1      42.776  20.964  25.496  1.00  0.00    -0.744 OA
ENDBRANCH  86  87
ENDBRANCH  58  81
BRANCH  70  91
ATOM     91  C   UNL A   1      46.189  27.052  34.325  1.00  0.00    -0.014 A 
ATOM     92  C   UNL A   1      46.058  26.024  35.276  1.00  0.00     0.010 A 
ATOM     93  C   UNL A   1      47.470  27.553  34.031  1.00  0.00     0.010 A 
ATOM     94  C   UNL A   1      47.180  25.552  35.964  1.00  0.00     0.020 A 
ATOM     95  C   UNL A   1      48.598  27.058  34.691  1.00  0.00     0.020 A 
ATOM     96  C   UNL A   1      48.442  26.077  35.670  1.00  0.00     0.054 A 
BRANCH  96  97
ATOM     97  S   UNL A   1      49.883  25.447  36.575  1.00  0.00     0.124 S 
ATOM     98  O   UNL A   1      49.459  24.092  36.915  1.00  0.00    -0.237 OA
ATOM     99  O   UNL A   1      50.950  25.542  35.583  1.00  0.00    -0.237 OA
ATOM    100  O   UNL A   1      50.008  26.363  37.707  1.00  0.00    -0.744 OA
ENDBRANCH  96  97
ENDBRANCH  70  91
ENDBRANCH  44  45
ENDBRANCH  36  39
ENDBRANCH  34  35
ENDBRANCH   1  34
TORSDOF 17
ENDMDL
MODEL 2
REMARK VINA RESULT:     -12.1      4.905      6.271
REMARK SMILES C[NH+]1CCC([NH+]2CCC(Oc3ccc4ccccc4c3)(C(=O)NCCCCNC(=O)c3ccc(-c4c5nc(c(-c6ccc(S(=O)(=O)[O-])cc6)c6ccc([nH]6)c(-c6ccc(S(=O)(=O)[O-])cc6)c6nc(c(-c7ccc(S(=O)(=O)[O-])cc7)c7ccc4[nH]7)C=C6)C=C5)cc3)CC2)CC1
REMARK SMILES IDX 26 1 25 2 24 3 23 4 21 5 22 6 9 8 6 9 7 10 92 11 8 13 91 14
REMARK SMILES IDX 5 15 1 16 2 17 3 18 94 19 4 21 93 22 10 23 11 24 12 25 20 26
REMARK SMILES IDX 13 27 19 28 14 29 18 30 15 31 17 32 16 33 27 34 28 35 29 36
REMARK SMILES IDX 30 38 31 39 32 40 90 41 33 42 89 43 34 44 35 45 36 46 83 47
REMARK SMILES IDX 37 48 88 49 82 50 84 51 38 52 87 53 81 54 80 55 39 57 69 58
REMARK SMILES IDX 50 59 68 60 51 61 54 62 67 63 85 64 52 65 53 66 66 68 86 69
REMARK SMILES IDX 55 70 40 71 41 72 49 73 42 74 48 75 43 76 44 77 45 78 46 79
REMARK SMILES IDX 47 80 70 81 71 82 79 83 72 84 78 85 73 86 74 87 75 88 76 89
REMARK SMILES IDX 77 90 56 91 57 92 65 93 58 94 64 95 59 96 60 97 61 98 62 99
REMARK SMILES IDX 63 100
REMARK H PARENT 23 7 6 12 2 20 28 37 84 56 54 67
REMARK Flexibility Score: inf
ROOT
ATOM      1  C   UNL A   1      34.403  31.755  27.759  1.00  0.00     0.023 C 
ENDROOT
BRANCH   1   2
ATOM      2  C   UNL A   1      33.323  30.805  27.242  1.00  0.00     0.023 C 
BRANCH   2   3
ATOM      3  C   UNL A   1      33.828  29.408  26.879  1.00  0.00     0.116 C 
BRANCH   3   4
ATOM      4  N   UNL A   1      34.022  29.271  25.450  1.00  0.00    -0.353 N 
ATOM      5  C   UNL A   1      33.389  28.465  24.545  1.00  0.00     0.264 C 
ATOM      6  O   UNL A   1      33.718  28.611  23.364  1.00  0.00    -0.270 OA
ATOM      7  H   UNL A   1      34.720  29.852  25.069  1.00  0.00     0.163 HD
BRANCH   5   8
ATOM      8  C   UNL A   1      32.316  27.424  24.992  1.00  0.00     0.197 C 
ATOM      9  N   UNL A   1      33.663  24.815  24.731  1.00  0.00    -0.332 N 
ATOM     10  C   UNL A   1      34.047  25.774  25.772  1.00  0.00     0.267 C 
ATOM     11  C   UNL A   1      33.178  25.509  23.523  1.00  0.00     0.267 C 
ATOM     12  H   UNL A   1      32.884  24.273  25.103  1.00  0.00     0.348 HD
ATOM     13  C   UNL A   1      32.819  26.576  26.164  1.00  0.00     0.120 C 
ATOM     14  C   UNL A   1      32.009  26.469  23.819  1.00  0.00     0.120 C 
BRANCH   9  15
ATOM     15  C   UNL A   1      34.717  23.814  24.436  1.00  0.00     0.195 C 
ATOM     16  C   UNL A   1      37.440  20.516  25.001  1.00  0.00     0.332 C 
ATOM     17  N   UNL A   1      36.454  21.578  25.176  1.00  0.00    -0.337 N 
ATOM     18  C   UNL A   1      35.263  21.331  24.357  1.00  0.00     0.268 C 
ATOM     19  C   UNL A   1      37.035  22.889  24.869  1.00  0.00     0.268 C 
ATOM     20  H   UNL A   1      36.167  21.580  26.156  1.00  0.00     0.347 HD
ATOM     21  C   UNL A   1      34.190  22.377  24.647  1.00  0.00     0.126 C 
ATOM     22  C   UNL A   1      36.044  24.007  25.191  1.00  0.00     0.126 C 
ENDBRANCH   9  15
BRANCH   8  23
ATOM     23  O   UNL A   1      31.199  28.300  25.292  1.00  0.00    -0.477 OA
BRANCH  23  24
ATOM     24  C   UNL A   1      30.452  28.807  24.275  1.00  0.00     0.121 A 
ATOM     25  C   UNL A   1      29.756  28.003  23.380  1.00  0.00     0.047 A 
ATOM     26  C   UNL A   1      30.262  30.188  24.254  1.00  0.00     0.055 A 
ATOM     27  C   UNL A   1      28.979  28.578  22.375  1.00  0.00     0.012 A 
ATOM     28  C   UNL A   1      29.444  30.783  23.280  1.00  0.00    -0.015 A 
ATOM     29  C   UNL A   1      28.820  29.967  22.309  1.00  0.00    -0.018 A 
ATOM     30  C   UNL A   1      29.224  32.169  23.253  1.00  0.00     0.009 A 
ATOM     31  C   UNL A   1      28.029  30.558  21.313  1.00  0.00     0.009 A 
ATOM     32  C   UNL A   1      28.416  32.741  22.267  1.00  0.00     0.001 A 
ATOM     33  C   UNL A   1      27.830  31.939  21.293  1.00  0.00     0.001 A 
ENDBRANCH  23  24
ENDBRANCH   8  23
ENDBRANCH   5   8
ENDBRANCH   3   4
ENDBRANCH   2   3
ENDBRANCH   1   2
BRANCH   1  34
ATOM     34  C   UNL A   1      35.630  31.071  28.341  1.00  0.00     0.116 C 
BRANCH  34  35
ATOM     35  N   UNL A   1      35.530  30.862  29.777  1.00  0.00    -0.352 N 
ATOM     36  C   UNL A   1      36.448  30.300  30.628  1.00  0.00     0.251 C 
ATOM     37  H   UNL A   1      34.691  31.164  30.195  1.00  0.00     0.163 HD
ATOM     38  O   UNL A   1      36.138  30.063  31.794  1.00  0.00    -0.269 OA
BRANCH  36  39
ATOM     39  C   UNL A   1      37.797  29.959  30.129  1.00  0.00     0.039 A 
ATOM     40  C   UNL A   1      38.780  29.583  31.046  1.00  0.00     0.014 A 
ATOM     41  C   UNL A   1      38.088  30.003  28.763  1.00  0.00     0.014 A 
ATOM     42  C   UNL A   1      40.047  29.218  30.585  1.00  0.00     0.010 A 
ATOM     43  C   UNL A   1      39.318  29.552  28.301  1.00  0.00     0.010 A 
ATOM     44  C   UNL A   1      40.321  29.179  29.208  1.00  0.00    -0.014 A 
BRANCH  44  45
ATOM     45  C   UNL A   1      41.665  28.799  28.704  1.00  0.00     0.031 A 
ATOM     46  C   UNL A   1      42.751  29.839  28.605  1.00  0.00     0.074 A 
ATOM     47  C   UNL A   1      41.900  27.533  28.305  1.00  0.00     0.049 A 
ATOM     48  N   UNL A   1      43.982  29.708  28.181  1.00  0.00    -0.248 NA
ATOM     49  C   UNL A   1      42.401  31.212  29.008  1.00  0.00     0.031 C 
ATOM     50  C   UNL A   1      40.918  26.446  28.308  1.00  0.00     0.029 A 
ATOM     51  N   UNL A   1      43.042  26.947  27.821  1.00  0.00    -0.354 N 
ATOM     52  C   UNL A   1      44.544  30.977  28.253  1.00  0.00     0.074 A 
ATOM     53  C   UNL A   1      43.504  31.877  28.697  1.00  0.00     0.031 C 
ATOM     54  C   UNL A   1      41.511  25.317  27.886  1.00  0.00     0.029 A 
ATOM     55  C   UNL A   1      42.900  25.608  27.545  1.00  0.00     0.049 A 
ATOM     56  H   UNL A   1      43.883  27.439  27.684  1.00  0.00     0.167 HD
ATOM     57  C   UNL A   1      45.818  31.360  27.999  1.00  0.00     0.031 A 
ATOM     58  C   UNL A   1      43.789  24.712  27.073  1.00  0.00     0.031 A 
ATOM     59  C   UNL A   1      46.856  30.460  27.568  1.00  0.00     0.049 A 
ATOM     60  C   UNL A   1      45.199  25.161  26.798  1.00  0.00     0.074 A 
ATOM     61  C   UNL A   1      48.191  30.735  27.335  1.00  0.00     0.029 A 
ATOM     62  N   UNL A   1      46.673  29.110  27.307  1.00  0.00    -0.354 N 
ATOM     63  N   UNL A   1      45.729  26.353  26.936  1.00  0.00    -0.248 NA
ATOM     64  C   UNL A   1      46.137  24.134  26.323  1.00  0.00     0.031 C 
ATOM     65  C   UNL A   1      48.803  29.564  26.877  1.00  0.00     0.029 A 
ATOM     66  C   UNL A   1      47.867  28.543  26.892  1.00  0.00     0.049 A 
ATOM     67  H   UNL A   1      45.821  28.627  27.402  1.00  0.00     0.167 HD
ATOM     68  C   UNL A   1      47.071  26.213  26.596  1.00  0.00     0.074 A 
ATOM     69  C   UNL A   1      47.272  24.815  26.266  1.00  0.00     0.031 C 
ATOM     70  C   UNL A   1      48.049  27.153  26.560  1.00  0.00     0.031 A 
BRANCH  57  71
ATOM     71  C   UNL A   1      46.156  32.818  28.178  1.00  0.00    -0.014 A 
ATOM     72  C   UNL A   1      46.607  33.317  29.415  1.00  0.00     0.010 A 
ATOM     73  C   UNL A   1      46.052  33.699  27.087  1.00  0.00     0.010 A 
ATOM     74  C   UNL A   1      46.902  34.673  29.570  1.00  0.00     0.020 A 
ATOM     75  C   UNL A   1      46.377  35.052  27.228  1.00  0.00     0.020 A 
ATOM     76  C   UNL A   1      46.783  35.533  28.474  1.00  0.00     0.054 A 
BRANCH  76  77
ATOM     77  S   UNL A   1      47.196  37.285  28.699  1.00  0.00     0.124 S 
ATOM     78  O   UNL A   1      48.573  37.334  28.213  1.00  0.00    -0.237 OA
ATOM     79  O   UNL A   1      46.209  37.956  27.857  1.00  0.00    -0.237 OA
ATOM     80  O   UNL A   1      47.034  37.499  30.135  1.00  0.00    -0.744 OA
ENDBRANCH  76  77
ENDBRANCH  57  71
BRANCH  58  81
ATOM     81  C   UNL A   1      43.380  23.296  26.855  1.00  0.00    -0.014 A 
ATOM     82  C   UNL A   1      43.072  22.463  27.945  1.00  0.00     0.010 A 
ATOM     83  C   UNL A   1      43.295  22.773  25.551  1.00  0.00     0.010 A 
ATOM     84  C   UNL A   1      42.712  21.128  27.738  1.00  0.00     0.020 A 
ATOM     85  C   UNL A   1      42.904  21.448  25.338  1.00  0.00     0.020 A 
ATOM     86  C   UNL A   1      42.627  20.630  26.435  1.00  0.00     0.054 A 
BRANCH  86  87
ATOM     87  S   UNL A   1      42.115  18.907  26.189  1.00  0.00     0.124 S 
ATOM     88  O   UNL A   1      42.302  18.341  27.521  1.00  0.00    -0.237 OA
ATOM     89  O   UNL A   1      40.729  19.051  25.750  1.00  0.00    -0.237 OA
ATOM     90  O   UNL A   1      43.037  18.419  25.166  1.00  0.00    -0.744 OA
ENDBRANCH  86  87
ENDBRANCH  58  81
BRANCH  70  91
ATOM     91  C   UNL A   1      49.436  26.690  26.191  1.00  0.00    -0.014 A 
ATOM     92  C   UNL A   1      50.232  25.961  27.093  1.00  0.00     0.010 A 
ATOM     93  C   UNL A   1      49.940  26.976  24.910  1.00  0.00     0.010 A 
ATOM     94  C   UNL A   1      51.530  25.581  26.742  1.00  0.00     0.020 A 
ATOM     95  C   UNL A   1      51.225  26.565  24.541  1.00  0.00     0.020 A 
ATOM     96  C   UNL A   1      52.019  25.891  25.469  1.00  0.00     0.054 A 
BRANCH  96  97
ATOM     97  S   UNL A   1      53.707  25.386  25.035  1.00  0.00     0.124 S 
ATOM     98  O   UNL A   1      54.513  26.308  25.830  1.00  0.00    -0.237 OA
ATOM     99  O   UNL A   1      53.743  23.990  25.463  1.00  0.00    -0.237 OA
ATOM    100  O   UNL A   1      53.769  25.591  23.589  1.00  0.00    -0.744 OA
ENDBRANCH  96  97
ENDBRANCH  70  91
ENDBRANCH  44  45
ENDBRANCH  36  39
ENDBRANCH  34  35
ENDBRANCH   1  34
TORSDOF 17
ENDMDL
MODEL 3
REMARK VINA RESULT:     -11.9      1.504      2.119
REMARK SMILES C[NH+]1CCC([NH+]2CCC(Oc3ccc4ccccc4c3)(C(=O)NCCCCNC(=O)c3ccc(-c4c5nc(c(-c6ccc(S(=O)(=O)[O-])cc6)c6ccc([nH]6)c(-c6ccc(S(=O)(=O)[O-])cc6)c6nc(c(-c7ccc(S(=O)(=O)[O-])cc7)c7ccc4[nH]7)C=C6)C=C5)cc3)CC2)CC1
REMARK SMILES IDX 26 1 25 2 24 3 23 4 21 5 22 6 9 8 6 9 7 10 92 11 8 13 91 14
REMARK SMILES IDX 5 15 1 16 2 17 3 18 94 19 4 21 93 22 10 23 11 24 12 25 20 26
REMARK SMILES IDX 13 27 19 28 14 29 18 30 15 31 17 32 16 33 27 34 28 35 29 36
REMARK SMILES IDX 30 38 31 39 32 40 90 41 33 42 89 43 34 44 35 45 36 46 83 47
REMARK SMILES IDX 37 48 88 49 82 50 84 51 38 52 87 53 81 54 80 55 39 57 69 58
REMARK SMILES IDX 50 59 68 60 51 61 54 62 67 63 85 64 52 65 53 66 66 68 86 69
REMARK SMILES IDX 55 70 40 71 41 72 49 73 42 74 48 75 43 76 44 77 45 78 46 79
REMARK SMILES IDX 47 80 70 81 71 82 79 83 72 84 78 85 73 86 74 87 75 88 76 89
REMARK SMILES IDX 77 90 56 91 57 92 65 93 58 94 64 95 59 96 60 97 61 98 62 99
REMARK SMILES IDX 63 100
REMARK H PARENT 23 7 6 12 2 20 28 37 84 56 54 67
REMARK Flexibility Score: inf
ROOT
ATOM      1  C   UNL A   1      32.772  28.347  25.927  1.00  0.00     0.023 C 
ENDROOT
BRANCH   1   2
ATOM      2  C   UNL A   1      32.318  27.355  26.998  1.00  0.00     0.023 C 
BRANCH   2   3
ATOM      3  C   UNL A   1      32.141  25.920  26.499  1.00  0.00     0.116 C 
BRANCH   3   4
ATOM      4  N   UNL A   1      33.395  25.365  26.031  1.00  0.00    -0.353 N 
ATOM      5  C   UNL A   1      33.722  24.817  24.822  1.00  0.00     0.264 C 
ATOM      6  O   UNL A   1      34.903  24.483  24.679  1.00  0.00    -0.270 OA
ATOM      7  H   UNL A   1      34.128  25.386  26.688  1.00  0.00     0.163 HD
BRANCH   5   8
ATOM      8  C   UNL A   1      32.658  24.630  23.697  1.00  0.00     0.197 C 
ATOM      9  N   UNL A   1      32.039  21.748  23.737  1.00  0.00    -0.332 N 
ATOM     10  C   UNL A   1      31.619  22.636  24.826  1.00  0.00     0.267 C 
ATOM     11  C   UNL A   1      33.298  22.215  23.127  1.00  0.00     0.267 C 
ATOM     12  H   UNL A   1      31.316  21.801  23.020  1.00  0.00     0.348 HD
ATOM     13  C   UNL A   1      31.367  24.018  24.250  1.00  0.00     0.120 C 
ATOM     14  C   UNL A   1      33.211  23.669  22.623  1.00  0.00     0.120 C 
BRANCH   9  15
ATOM     15  C   UNL A   1      32.084  20.318  24.128  1.00  0.00     0.195 C 
ATOM     16  C   UNL A   1      33.686  16.410  25.009  1.00  0.00     0.332 C 
ATOM     17  N   UNL A   1      33.497  17.799  24.601  1.00  0.00    -0.337 N 
ATOM     18  C   UNL A   1      33.101  18.634  25.740  1.00  0.00     0.268 C 
ATOM     19  C   UNL A   1      32.515  17.898  23.516  1.00  0.00     0.268 C 
ATOM     20  H   UNL A   1      34.391  18.147  24.252  1.00  0.00     0.347 HD
ATOM     21  C   UNL A   1      33.034  20.101  25.327  1.00  0.00     0.126 C 
ATOM     22  C   UNL A   1      32.428  19.333  22.997  1.00  0.00     0.126 C 
ENDBRANCH   9  15
BRANCH   8  23
ATOM     23  O   UNL A   1      32.541  25.991  23.207  1.00  0.00    -0.477 OA
BRANCH  23  24
ATOM     24  C   UNL A   1      31.319  26.586  23.164  1.00  0.00     0.121 A 
ATOM     25  C   UNL A   1      30.208  26.069  23.819  1.00  0.00     0.047 A 
ATOM     26  C   UNL A   1      31.248  27.846  22.570  1.00  0.00     0.055 A 
ATOM     27  C   UNL A   1      28.986  26.740  23.768  1.00  0.00     0.012 A 
ATOM     28  C   UNL A   1      30.038  28.559  22.551  1.00  0.00    -0.015 A 
ATOM     29  C   UNL A   1      28.886  27.982  23.131  1.00  0.00    -0.018 A 
ATOM     30  C   UNL A   1      29.949  29.837  21.977  1.00  0.00     0.009 A 
ATOM     31  C   UNL A   1      27.667  28.675  23.085  1.00  0.00     0.009 A 
ATOM     32  C   UNL A   1      28.733  30.523  21.957  1.00  0.00     0.001 A 
ATOM     33  C   UNL A   1      27.592  29.940  22.499  1.00  0.00     0.001 A 
ENDBRANCH  23  24
ENDBRANCH   8  23
ENDBRANCH   5   8
ENDBRANCH   3   4
ENDBRANCH   2   3
ENDBRANCH   1   2
BRANCH   1  34
ATOM     34  C   UNL A   1      34.004  29.161  26.292  1.00  0.00     0.116 C 
BRANCH  34  35
ATOM     35  N   UNL A   1      33.684  30.526  26.677  1.00  0.00    -0.352 N 
ATOM     36  C   UNL A   1      34.302  31.322  27.608  1.00  0.00     0.251 C 
ATOM     37  H   UNL A   1      32.921  30.934  26.206  1.00  0.00     0.163 HD
ATOM     38  O   UNL A   1      33.805  32.404  27.915  1.00  0.00    -0.269 OA
BRANCH  36  39
ATOM     39  C   UNL A   1      35.549  30.862  28.253  1.00  0.00     0.039 A 
ATOM     40  C   UNL A   1      36.739  31.542  27.985  1.00  0.00     0.014 A 
ATOM     41  C   UNL A   1      35.545  29.768  29.122  1.00  0.00     0.014 A 
ATOM     42  C   UNL A   1      37.917  31.144  28.620  1.00  0.00     0.010 A 
ATOM     43  C   UNL A   1      36.698  29.433  29.822  1.00  0.00     0.010 A 
ATOM     44  C   UNL A   1      37.903  30.099  29.560  1.00  0.00    -0.014 A 
BRANCH  44  45
ATOM     45  C   UNL A   1      39.149  29.662  30.237  1.00  0.00     0.031 A 
ATOM     46  C   UNL A   1      39.589  30.339  31.511  1.00  0.00     0.074 A 
ATOM     47  C   UNL A   1      39.903  28.685  29.695  1.00  0.00     0.049 A 
ATOM     48  N   UNL A   1      40.648  30.109  32.244  1.00  0.00    -0.248 NA
ATOM     49  C   UNL A   1      38.742  31.435  32.012  1.00  0.00     0.031 C 
ATOM     50  C   UNL A   1      39.609  27.984  28.442  1.00  0.00     0.029 A 
ATOM     51  N   UNL A   1      41.069  28.110  30.131  1.00  0.00    -0.354 N 
ATOM     52  C   UNL A   1      40.602  31.038  33.277  1.00  0.00     0.074 A 
ATOM     53  C   UNL A   1      39.448  31.876  33.042  1.00  0.00     0.031 C 
ATOM     54  C   UNL A   1      40.549  27.048  28.232  1.00  0.00     0.029 A 
ATOM     55  C   UNL A   1      41.530  27.108  29.310  1.00  0.00     0.049 A 
ATOM     56  H   UNL A   1      41.532  28.389  30.953  1.00  0.00     0.167 HD
ATOM     57  C   UNL A   1      41.428  31.166  34.343  1.00  0.00     0.031 A 
ATOM     58  C   UNL A   1      42.620  26.323  29.416  1.00  0.00     0.031 A 
ATOM     59  C   UNL A   1      42.570  30.323  34.580  1.00  0.00     0.049 A 
ATOM     60  C   UNL A   1      43.523  26.485  30.608  1.00  0.00     0.074 A 
ATOM     61  C   UNL A   1      43.440  30.336  35.656  1.00  0.00     0.029 A 
ATOM     62  N   UNL A   1      42.999  29.315  33.729  1.00  0.00    -0.354 N 
ATOM     63  N   UNL A   1      43.425  27.326  31.611  1.00  0.00    -0.248 NA
ATOM     64  C   UNL A   1      44.674  25.575  30.693  1.00  0.00     0.031 C 
ATOM     65  C   UNL A   1      44.429  29.374  35.427  1.00  0.00     0.029 A 
ATOM     66  C   UNL A   1      44.135  28.714  34.245  1.00  0.00     0.049 A 
ATOM     67  H   UNL A   1      42.561  29.065  32.885  1.00  0.00     0.167 HD
ATOM     68  C   UNL A   1      44.483  27.024  32.463  1.00  0.00     0.074 A 
ATOM     69  C   UNL A   1      45.194  25.911  31.865  1.00  0.00     0.031 C 
ATOM     70  C   UNL A   1      44.836  27.613  33.633  1.00  0.00     0.031 A 
BRANCH  57  71
ATOM     71  C   UNL A   1      41.125  32.266  35.328  1.00  0.00    -0.014 A 
ATOM     72  C   UNL A   1      41.654  33.561  35.163  1.00  0.00     0.010 A 
ATOM     73  C   UNL A   1      40.276  32.014  36.420  1.00  0.00     0.010 A 
ATOM     74  C   UNL A   1      41.377  34.566  36.093  1.00  0.00     0.020 A 
ATOM     75  C   UNL A   1      39.969  33.025  37.336  1.00  0.00     0.020 A 
ATOM     76  C   UNL A   1      40.536  34.290  37.175  1.00  0.00     0.054 A 
BRANCH  76  77
ATOM     77  S   UNL A   1      40.175  35.622  38.353  1.00  0.00     0.124 S 
ATOM     78  O   UNL A   1      38.951  35.138  38.987  1.00  0.00    -0.237 OA
ATOM     79  O   UNL A   1      41.363  35.626  39.203  1.00  0.00    -0.237 OA
ATOM     80  O   UNL A   1      40.014  36.801  37.506  1.00  0.00    -0.744 OA
ENDBRANCH  76  77
ENDBRANCH  57  71
BRANCH  58  81
ATOM     81  C   UNL A   1      42.903  25.294  28.375  1.00  0.00    -0.014 A 
ATOM     82  C   UNL A   1      42.382  23.993  28.493  1.00  0.00     0.010 A 
ATOM     83  C   UNL A   1      43.698  25.613  27.258  1.00  0.00     0.010 A 
ATOM     84  C   UNL A   1      42.670  23.024  27.527  1.00  0.00     0.020 A 
ATOM     85  C   UNL A   1      43.961  24.655  26.274  1.00  0.00     0.020 A 
ATOM     86  C   UNL A   1      43.456  23.363  26.422  1.00  0.00     0.054 A 
BRANCH  86  87
ATOM     87  S   UNL A   1      43.779  22.100  25.160  1.00  0.00     0.124 S 
ATOM     88  O   UNL A   1      43.571  22.846  23.923  1.00  0.00    -0.237 OA
ATOM     89  O   UNL A   1      45.160  21.718  25.444  1.00  0.00    -0.237 OA
ATOM     90  O   UNL A   1      42.784  21.069  25.445  1.00  0.00    -0.744 OA
ENDBRANCH  86  87
ENDBRANCH  58  81
BRANCH  70  91
ATOM     91  C   UNL A   1      46.020  27.034  34.366  1.00  0.00    -0.014 A 
ATOM     92  C   UNL A   1      45.876  25.959  35.261  1.00  0.00     0.010 A 
ATOM     93  C   UNL A   1      47.301  27.568  34.137  1.00  0.00     0.010 A 
ATOM     94  C   UNL A   1      46.983  25.469  35.960  1.00  0.00     0.020 A 
ATOM     95  C   UNL A   1      48.416  27.057  34.807  1.00  0.00     0.020 A 
ATOM     96  C   UNL A   1      48.245  26.026  35.731  1.00  0.00     0.054 A 
BRANCH  96  97
ATOM     97  S   UNL A   1      49.668  25.372  36.649  1.00  0.00     0.124 S 
ATOM     98  O   UNL A   1      49.104  24.178  37.272  1.00  0.00    -0.237 OA
ATOM     99  O   UNL A   1      50.645  25.128  35.592  1.00  0.00    -0.237 OA
ATOM    100  O   UNL A   1      50.012  26.453  37.571  1.00  0.00    -0.744 OA
ENDBRANCH  96  97
ENDBRANCH  70  91
ENDBRANCH  44  45
ENDBRANCH  36  39
ENDBRANCH  34  35
ENDBRANCH   1  34
TORSDOF 17
ENDMDL
