MODEL 1
REMARK VINA RESULT:      -9.6      0.000      0.000
REMARK SMILES CC(C)(C)N(CC(=O)NCCCCNC(=O)c1ccc(-c2c3nc(c(-c4ccc(S(=O)(=O)[O-])cc4)c4ccc([nH]4)c(-c4ccc(S(=O)(=O)[O-])cc4)c4nc(c(-c5ccc(S(=O)(=O)[O-])cc5)c5ccc2[nH]5)C=C4)C=C3)cc1)C(=O)C1C[NH2+]C1
REMARK SMILES IDX 11 1 10 2 9 3 7 4 8 5 6 7 5 8 2 9 1 10 3 11 4 12 77 13 78 14
REMARK SMILES IDX 79 15 80 16 82 17 81 18 12 21 13 22 14 23 15 24 16 26 17 27
REMARK SMILES IDX 18 28 76 29 19 30 75 31 20 32 21 33 22 34 69 35 23 36 74 37
REMARK SMILES IDX 68 38 70 39 24 40 73 41 67 42 66 43 25 45 55 46 36 47 54 48
REMARK SMILES IDX 37 49 40 50 53 51 71 52 38 53 39 54 52 56 72 57 41 58 26 59
REMARK SMILES IDX 27 60 35 61 28 62 34 63 29 64 30 65 31 66 32 67 33 68 56 69
REMARK SMILES IDX 57 70 65 71 58 72 64 73 59 74 60 75 61 76 62 77 63 78 42 79
REMARK SMILES IDX 43 80 51 81 44 82 50 83 45 84 46 85 47 86 48 87 49 88
REMARK H PARENT 9 6 81 19 81 20 14 25 70 44 40 55
REMARK Flexibility Score: inf
ROOT
ATOM      1  C   UNL A   1      31.566  27.877  26.207  1.00  0.00     0.023 C 
ENDROOT
BRANCH   1   2
ATOM      2  C   UNL A   1      30.894  26.508  26.260  1.00  0.00     0.116 C 
BRANCH   2   3
ATOM      3  N   UNL A   1      30.552  26.000  24.951  1.00  0.00    -0.355 N 
ATOM      4  C   UNL A   1      30.801  24.770  24.421  1.00  0.00     0.239 C 
ATOM      5  O   UNL A   1      30.237  24.474  23.364  1.00  0.00    -0.273 OA
ATOM      6  H   UNL A   1      30.074  26.628  24.363  1.00  0.00     0.163 HD
BRANCH   4   7
ATOM      7  C   UNL A   1      31.646  23.716  25.164  1.00  0.00     0.219 C 
BRANCH   7   8
ATOM      8  N   UNL A   1      32.862  23.191  24.510  1.00  0.00    -0.328 N 
BRANCH   8   9
ATOM      9  C   UNL A   1      34.237  23.695  24.915  1.00  0.00     0.035 C 
ATOM     10  C   UNL A   1      34.361  25.242  24.976  1.00  0.00     0.034 C 
ATOM     11  C   UNL A   1      35.328  23.228  23.923  1.00  0.00     0.034 C 
ATOM     12  C   UNL A   1      34.595  23.200  26.337  1.00  0.00     0.034 C 
ENDBRANCH   8   9
BRANCH   8  13
ATOM     13  C   UNL A   1      32.774  21.970  23.776  1.00  0.00     0.238 C 
ATOM     14  O   UNL A   1      32.694  21.981  22.540  1.00  0.00    -0.274 OA
BRANCH  13  15
ATOM     15  C   UNL A   1      32.770  20.622  24.537  1.00  0.00     0.188 C 
ATOM     16  C   UNL A   1      32.427  19.344  23.731  1.00  0.00     0.280 C 
ATOM     17  C   UNL A   1      34.116  19.903  24.771  1.00  0.00     0.280 C 
ATOM     18  N   UNL A   1      33.438  18.610  24.532  1.00  0.00    -0.345 N 
ATOM     19  H   UNL A   1      33.989  17.934  24.003  1.00  0.00     0.346 HD
ATOM     20  H   UNL A   1      33.165  18.002  25.305  1.00  0.00     0.346 HD
ENDBRANCH  13  15
ENDBRANCH   8  13
ENDBRANCH   7   8
ENDBRANCH   4   7
ENDBRANCH   2   3
ENDBRANCH   1   2
BRANCH   1  21
ATOM     21  C   UNL A   1      32.855  27.998  27.019  1.00  0.00     0.023 C 
BRANCH  21  22
ATOM     22  C   UNL A   1      33.883  28.986  26.477  1.00  0.00     0.116 C 
BRANCH  22  23
ATOM     23  N   UNL A   1      33.811  30.309  27.083  1.00  0.00    -0.352 N 
ATOM     24  C   UNL A   1      34.729  30.930  27.898  1.00  0.00     0.251 C 
ATOM     25  H   UNL A   1      32.999  30.826  26.882  1.00  0.00     0.163 HD
ATOM     26  O   UNL A   1      34.481  32.031  28.381  1.00  0.00    -0.269 OA
BRANCH  24  27
ATOM     27  C   UNL A   1      35.993  30.236  28.226  1.00  0.00     0.039 A 
ATOM     28  C   UNL A   1      37.028  30.242  27.289  1.00  0.00     0.014 A 
ATOM     29  C   UNL A   1      36.173  29.640  29.476  1.00  0.00     0.014 A 
ATOM     30  C   UNL A   1      38.276  29.726  27.639  1.00  0.00     0.010 A 
ATOM     31  C   UNL A   1      37.437  29.192  29.847  1.00  0.00     0.010 A 
ATOM     32  C   UNL A   1      38.504  29.240  28.938  1.00  0.00    -0.014 A 
BRANCH  32  33
ATOM     33  C   UNL A   1      39.854  28.801  29.374  1.00  0.00     0.031 A 
ATOM     34  C   UNL A   1      40.751  29.748  30.125  1.00  0.00     0.074 A 
ATOM     35  C   UNL A   1      40.306  27.582  29.015  1.00  0.00     0.049 A 
ATOM     36  N   UNL A   1      41.990  29.578  30.507  1.00  0.00    -0.248 NA
ATOM     37  C   UNL A   1      40.192  31.067  30.465  1.00  0.00     0.031 C 
ATOM     38  C   UNL A   1      39.558  26.594  28.232  1.00  0.00     0.029 A 
ATOM     39  N   UNL A   1      41.513  26.970  29.248  1.00  0.00    -0.354 N 
ATOM     40  C   UNL A   1      42.368  30.775  31.104  1.00  0.00     0.074 A 
ATOM     41  C   UNL A   1      41.240  31.675  31.001  1.00  0.00     0.031 C 
ATOM     42  C   UNL A   1      40.316  25.496  28.067  1.00  0.00     0.029 A 
ATOM     43  C   UNL A   1      41.612  25.713  28.700  1.00  0.00     0.049 A 
ATOM     44  H   UNL A   1      42.240  27.393  29.759  1.00  0.00     0.167 HD
ATOM     45  C   UNL A   1      43.543  31.091  31.699  1.00  0.00     0.031 A 
ATOM     46  C   UNL A   1      42.632  24.834  28.701  1.00  0.00     0.031 A 
ATOM     47  C   UNL A   1      44.649  30.183  31.835  1.00  0.00     0.049 A 
ATOM     48  C   UNL A   1      43.912  25.195  29.405  1.00  0.00     0.074 A 
ATOM     49  C   UNL A   1      45.851  30.385  32.492  1.00  0.00     0.029 A 
ATOM     50  N   UNL A   1      44.689  28.900  31.312  1.00  0.00    -0.354 N 
ATOM     51  N   UNL A   1      44.221  26.306  30.030  1.00  0.00    -0.248 NA
ATOM     52  C   UNL A   1      44.974  24.180  29.418  1.00  0.00     0.031 C 
ATOM     53  C   UNL A   1      46.632  29.236  32.336  1.00  0.00     0.029 A 
ATOM     54  C   UNL A   1      45.899  28.303  31.618  1.00  0.00     0.049 A 
ATOM     55  H   UNL A   1      43.964  28.477  30.798  1.00  0.00     0.167 HD
ATOM     56  C   UNL A   1      45.504  26.113  30.530  1.00  0.00     0.074 A 
ATOM     57  C   UNL A   1      45.906  24.775  30.150  1.00  0.00     0.031 C 
ATOM     58  C   UNL A   1      46.280  26.969  31.239  1.00  0.00     0.031 A 
BRANCH  45  59
ATOM     59  C   UNL A   1      43.691  32.479  32.260  1.00  0.00    -0.014 A 
ATOM     60  C   UNL A   1      44.138  33.541  31.456  1.00  0.00     0.010 A 
ATOM     61  C   UNL A   1      43.322  32.735  33.594  1.00  0.00     0.010 A 
ATOM     62  C   UNL A   1      44.242  34.831  31.982  1.00  0.00     0.020 A 
ATOM     63  C   UNL A   1      43.402  34.029  34.117  1.00  0.00     0.020 A 
ATOM     64  C   UNL A   1      43.874  35.067  33.310  1.00  0.00     0.054 A 
BRANCH  64  65
ATOM     65  S   UNL A   1      43.979  36.759  33.955  1.00  0.00     0.124 S 
ATOM     66  O   UNL A   1      44.619  36.546  35.251  1.00  0.00    -0.237 OA
ATOM     67  O   UNL A   1      44.800  37.435  32.954  1.00  0.00    -0.237 OA
ATOM     68  O   UNL A   1      42.587  37.195  34.012  1.00  0.00    -0.744 OA
ENDBRANCH  64  65
ENDBRANCH  45  59
BRANCH  46  69
ATOM     69  C   UNL A   1      42.489  23.518  28.023  1.00  0.00    -0.014 A 
ATOM     70  C   UNL A   1      41.645  22.529  28.557  1.00  0.00     0.010 A 
ATOM     71  C   UNL A   1      43.204  23.244  26.843  1.00  0.00     0.010 A 
ATOM     72  C   UNL A   1      41.542  21.278  27.942  1.00  0.00     0.020 A 
ATOM     73  C   UNL A   1      43.083  22.002  26.211  1.00  0.00     0.020 A 
ATOM     74  C   UNL A   1      42.265  21.022  26.775  1.00  0.00     0.054 A 
BRANCH  74  75
ATOM     75  S   UNL A   1      42.095  19.403  25.972  1.00  0.00     0.124 S 
ATOM     76  O   UNL A   1      42.629  18.504  26.990  1.00  0.00    -0.237 OA
ATOM     77  O   UNL A   1      40.655  19.312  25.739  1.00  0.00    -0.237 OA
ATOM     78  O   UNL A   1      42.906  19.536  24.763  1.00  0.00    -0.744 OA
ENDBRANCH  74  75
ENDBRANCH  46  69
BRANCH  58  79
ATOM     79  C   UNL A   1      47.628  26.472  31.682  1.00  0.00    -0.014 A 
ATOM     80  C   UNL A   1      47.806  25.878  32.943  1.00  0.00     0.010 A 
ATOM     81  C   UNL A   1      48.721  26.552  30.799  1.00  0.00     0.010 A 
ATOM     82  C   UNL A   1      49.061  25.399  33.326  1.00  0.00     0.020 A 
ATOM     83  C   UNL A   1      49.971  26.053  31.169  1.00  0.00     0.020 A 
ATOM     84  C   UNL A   1      50.137  25.491  32.437  1.00  0.00     0.054 A 
BRANCH  84  85
ATOM     85  S   UNL A   1      51.746  24.823  32.937  1.00  0.00     0.124 S 
ATOM     86  O   UNL A   1      52.668  25.821  32.404  1.00  0.00    -0.237 OA
ATOM     87  O   UNL A   1      51.640  24.780  34.394  1.00  0.00    -0.237 OA
ATOM     88  O   UNL A   1      51.795  23.517  32.285  1.00  0.00    -0.744 OA
ENDBRANCH  84  85
ENDBRANCH  58  79
ENDBRANCH  32  33
ENDBRANCH  24  27
ENDBRANCH  22  23
ENDBRANCH  21  22
ENDBRANCH   1  21
TORSDOF 18
ENDMDL
MODEL 2
REMARK VINA RESULT:      -9.6      2.650      9.399
REMARK SMILES CC(C)(C)N(CC(=O)NCCCCNC(=O)c1ccc(-c2c3nc(c(-c4ccc(S(=O)(=O)[O-])cc4)c4ccc([nH]4)c(-c4ccc(S(=O)(=O)[O-])cc4)c4nc(c(-c5ccc(S(=O)(=O)[O-])cc5)c5ccc2[nH]5)C=C4)C=C3)cc1)C(=O)C1C[NH2+]C1
REMARK SMILES IDX 11 1 10 2 9 3 7 4 8 5 6 7 5 8 2 9 1 10 3 11 4 12 77 13 78 14
REMARK SMILES IDX 79 15 80 16 82 17 81 18 12 21 13 22 14 23 15 24 16 26 17 27
REMARK SMILES IDX 18 28 76 29 19 30 75 31 20 32 21 33 22 34 69 35 23 36 74 37
REMARK SMILES IDX 68 38 70 39 24 40 73 41 67 42 66 43 25 45 55 46 36 47 54 48
REMARK SMILES IDX 37 49 40 50 53 51 71 52 38 53 39 54 52 56 72 57 41 58 26 59
REMARK SMILES IDX 27 60 35 61 28 62 34 63 29 64 30 65 31 66 32 67 33 68 56 69
REMARK SMILES IDX 57 70 65 71 58 72 64 73 59 74 60 75 61 76 62 77 63 78 42 79
REMARK SMILES IDX 43 80 51 81 44 82 50 83 45 84 46 85 47 86 48 87 49 88
REMARK H PARENT 9 6 81 19 81 20 14 25 70 44 40 55
REMARK Flexibility Score: inf
ROOT
ATOM      1  C   UNL A   1      34.882  24.190  24.621  1.00  0.00     0.023 C 
ENDROOT
BRANCH   1   2
ATOM      2  C   UNL A   1      33.989  23.108  25.222  1.00  0.00     0.116 C 
BRANCH   2   3
ATOM      3  N   UNL A   1      33.137  23.604  26.278  1.00  0.00    -0.355 N 
ATOM      4  C   UNL A   1      31.979  24.314  26.178  1.00  0.00     0.239 C 
ATOM      5  O   UNL A   1      31.301  24.455  27.199  1.00  0.00    -0.273 OA
ATOM      6  H   UNL A   1      33.435  23.402  27.194  1.00  0.00     0.163 HD
BRANCH   4   7
ATOM      7  C   UNL A   1      31.444  24.818  24.823  1.00  0.00     0.219 C 
BRANCH   7   8
ATOM      8  N   UNL A   1      31.937  26.110  24.301  1.00  0.00    -0.328 N 
BRANCH   8   9
ATOM      9  C   UNL A   1      32.251  26.277  22.824  1.00  0.00     0.035 C 
ATOM     10  C   UNL A   1      33.534  27.101  22.528  1.00  0.00     0.034 C 
ATOM     11  C   UNL A   1      31.107  27.006  22.079  1.00  0.00     0.034 C 
ATOM     12  C   UNL A   1      32.490  24.898  22.165  1.00  0.00     0.034 C 
ENDBRANCH   8   9
BRANCH   8  13
ATOM     13  C   UNL A   1      31.770  27.282  25.099  1.00  0.00     0.238 C 
ATOM     14  O   UNL A   1      30.768  27.998  24.965  1.00  0.00    -0.274 OA
BRANCH  13  15
ATOM     15  C   UNL A   1      32.857  27.660  26.134  1.00  0.00     0.188 C 
ATOM     16  C   UNL A   1      33.507  29.061  26.010  1.00  0.00     0.280 C 
ATOM     17  C   UNL A   1      32.409  28.181  27.516  1.00  0.00     0.280 C 
ATOM     18  N   UNL A   1      33.537  29.138  27.492  1.00  0.00    -0.345 N 
ATOM     19  H   UNL A   1      33.320  30.060  27.873  1.00  0.00     0.346 HD
ATOM     20  H   UNL A   1      34.395  28.962  28.017  1.00  0.00     0.346 HD
ENDBRANCH  13  15
ENDBRANCH   8  13
ENDBRANCH   7   8
ENDBRANCH   4   7
ENDBRANCH   2   3
ENDBRANCH   1   2
BRANCH   1  21
ATOM     21  C   UNL A   1      36.367  24.063  24.954  1.00  0.00     0.023 C 
BRANCH  21  22
ATOM     22  C   UNL A   1      36.699  23.179  26.152  1.00  0.00     0.116 C 
BRANCH  22  23
ATOM     23  N   UNL A   1      37.952  22.446  26.020  1.00  0.00    -0.352 N 
ATOM     24  C   UNL A   1      39.224  22.856  26.344  1.00  0.00     0.251 C 
ATOM     25  H   UNL A   1      37.877  21.537  25.650  1.00  0.00     0.163 HD
ATOM     26  O   UNL A   1      40.186  22.132  26.106  1.00  0.00    -0.269 OA
BRANCH  24  27
ATOM     27  C   UNL A   1      39.424  24.197  26.934  1.00  0.00     0.039 A 
ATOM     28  C   UNL A   1      38.981  24.432  28.238  1.00  0.00     0.014 A 
ATOM     29  C   UNL A   1      40.101  25.192  26.226  1.00  0.00     0.014 A 
ATOM     30  C   UNL A   1      39.296  25.639  28.863  1.00  0.00     0.010 A 
ATOM     31  C   UNL A   1      40.475  26.364  26.876  1.00  0.00     0.010 A 
ATOM     32  C   UNL A   1      40.087  26.596  28.205  1.00  0.00    -0.014 A 
BRANCH  32  33
ATOM     33  C   UNL A   1      40.540  27.831  28.892  1.00  0.00     0.031 A 
ATOM     34  C   UNL A   1      41.890  27.876  29.555  1.00  0.00     0.074 A 
ATOM     35  C   UNL A   1      39.700  28.881  28.996  1.00  0.00     0.049 A 
ATOM     36  N   UNL A   1      42.420  28.828  30.278  1.00  0.00    -0.248 NA
ATOM     37  C   UNL A   1      42.742  26.684  29.412  1.00  0.00     0.031 C 
ATOM     38  C   UNL A   1      38.340  28.940  28.450  1.00  0.00     0.029 A 
ATOM     39  N   UNL A   1      39.859  30.099  29.611  1.00  0.00    -0.354 N 
ATOM     40  C   UNL A   1      43.651  28.341  30.700  1.00  0.00     0.074 A 
ATOM     41  C   UNL A   1      43.774  26.996  30.184  1.00  0.00     0.031 C 
ATOM     42  C   UNL A   1      37.800  30.137  28.740  1.00  0.00     0.029 A 
ATOM     43  C   UNL A   1      38.757  30.915  29.518  1.00  0.00     0.049 A 
ATOM     44  H   UNL A   1      40.686  30.361  30.076  1.00  0.00     0.167 HD
ATOM     45  C   UNL A   1      44.601  28.964  31.437  1.00  0.00     0.031 A 
ATOM     46  C   UNL A   1      38.537  32.150  30.009  1.00  0.00     0.031 A 
ATOM     47  C   UNL A   1      44.494  30.315  31.916  1.00  0.00     0.049 A 
ATOM     48  C   UNL A   1      39.625  32.834  30.789  1.00  0.00     0.074 A 
ATOM     49  C   UNL A   1      45.438  31.060  32.603  1.00  0.00     0.029 A 
ATOM     50  N   UNL A   1      43.383  31.127  31.756  1.00  0.00    -0.354 N 
ATOM     51  N   UNL A   1      40.814  32.383  31.113  1.00  0.00    -0.248 NA
ATOM     52  C   UNL A   1      39.350  34.199  31.259  1.00  0.00     0.031 C 
ATOM     53  C   UNL A   1      44.882  32.311  32.889  1.00  0.00     0.029 A 
ATOM     54  C   UNL A   1      43.609  32.359  32.343  1.00  0.00     0.049 A 
ATOM     55  H   UNL A   1      42.554  30.864  31.294  1.00  0.00     0.167 HD
ATOM     56  C   UNL A   1      41.436  33.418  31.802  1.00  0.00     0.074 A 
ATOM     57  C   UNL A   1      40.500  34.523  31.835  1.00  0.00     0.031 C 
ATOM     58  C   UNL A   1      42.671  33.450  32.359  1.00  0.00     0.031 A 
BRANCH  45  59
ATOM     59  C   UNL A   1      45.850  28.192  31.763  1.00  0.00    -0.014 A 
ATOM     60  C   UNL A   1      45.974  27.494  32.977  1.00  0.00     0.010 A 
ATOM     61  C   UNL A   1      46.891  28.116  30.819  1.00  0.00     0.010 A 
ATOM     62  C   UNL A   1      47.127  26.756  33.254  1.00  0.00     0.020 A 
ATOM     63  C   UNL A   1      48.036  27.359  31.082  1.00  0.00     0.020 A 
ATOM     64  C   UNL A   1      48.152  26.694  32.305  1.00  0.00     0.054 A 
BRANCH  64  65
ATOM     65  S   UNL A   1      49.620  25.695  32.673  1.00  0.00     0.124 S 
ATOM     66  O   UNL A   1      50.390  26.596  33.527  1.00  0.00    -0.237 OA
ATOM     67  O   UNL A   1      49.054  24.526  33.344  1.00  0.00    -0.237 OA
ATOM     68  O   UNL A   1      50.200  25.434  31.359  1.00  0.00    -0.744 OA
ENDBRANCH  64  65
ENDBRANCH  45  59
BRANCH  46  69
ATOM     69  C   UNL A   1      37.236  32.831  29.770  1.00  0.00    -0.014 A 
ATOM     70  C   UNL A   1      36.239  32.830  30.761  1.00  0.00     0.010 A 
ATOM     71  C   UNL A   1      36.984  33.474  28.545  1.00  0.00     0.010 A 
ATOM     72  C   UNL A   1      35.001  33.435  30.521  1.00  0.00     0.020 A 
ATOM     73  C   UNL A   1      35.756  34.102  28.311  1.00  0.00     0.020 A 
ATOM     74  C   UNL A   1      34.767  34.064  29.295  1.00  0.00     0.054 A 
BRANCH  74  75
ATOM     75  S   UNL A   1      33.166  34.870  29.013  1.00  0.00     0.124 S 
ATOM     76  O   UNL A   1      33.572  36.186  28.528  1.00  0.00    -0.237 OA
ATOM     77  O   UNL A   1      32.539  33.997  28.024  1.00  0.00    -0.237 OA
ATOM     78  O   UNL A   1      32.540  34.853  30.334  1.00  0.00    -0.744 OA
ENDBRANCH  74  75
ENDBRANCH  46  69
BRANCH  58  79
ATOM     79  C   UNL A   1      43.096  34.731  33.021  1.00  0.00    -0.014 A 
ATOM     80  C   UNL A   1      42.955  34.915  34.407  1.00  0.00     0.010 A 
ATOM     81  C   UNL A   1      43.698  35.743  32.250  1.00  0.00     0.010 A 
ATOM     82  C   UNL A   1      43.380  36.102  35.007  1.00  0.00     0.020 A 
ATOM     83  C   UNL A   1      44.145  36.921  32.850  1.00  0.00     0.020 A 
ATOM     84  C   UNL A   1      43.971  37.100  34.224  1.00  0.00     0.054 A 
BRANCH  84  85
ATOM     85  S   UNL A   1      44.556  38.614  35.030  1.00  0.00     0.124 S 
ATOM     86  O   UNL A   1      43.756  39.640  34.368  1.00  0.00    -0.237 OA
ATOM     87  O   UNL A   1      44.236  38.378  36.436  1.00  0.00    -0.237 OA
ATOM     88  O   UNL A   1      45.984  38.641  34.720  1.00  0.00    -0.744 OA
ENDBRANCH  84  85
ENDBRANCH  58  79
ENDBRANCH  32  33
ENDBRANCH  24  27
ENDBRANCH  22  23
ENDBRANCH  21  22
ENDBRANCH   1  21
TORSDOF 18
ENDMDL
MODEL 3
REMARK VINA RESULT:      -9.3      3.818      8.280
REMARK SMILES CC(C)(C)N(CC(=O)NCCCCNC(=O)c1ccc(-c2c3nc(c(-c4ccc(S(=O)(=O)[O-])cc4)c4ccc([nH]4)c(-c4ccc(S(=O)(=O)[O-])cc4)c4nc(c(-c5ccc(S(=O)(=O)[O-])cc5)c5ccc2[nH]5)C=C4)C=C3)cc1)C(=O)C1C[NH2+]C1
REMARK SMILES IDX 11 1 10 2 9 3 7 4 8 5 6 7 5 8 2 9 1 10 3 11 4 12 77 13 78 14
REMARK SMILES IDX 79 15 80 16 82 17 81 18 12 21 13 22 14 23 15 24 16 26 17 27
REMARK SMILES IDX 18 28 76 29 19 30 75 31 20 32 21 33 22 34 69 35 23 36 74 37
REMARK SMILES IDX 68 38 70 39 24 40 73 41 67 42 66 43 25 45 55 46 36 47 54 48
REMARK SMILES IDX 37 49 40 50 53 51 71 52 38 53 39 54 52 56 72 57 41 58 26 59
REMARK SMILES IDX 27 60 35 61 28 62 34 63 29 64 30 65 31 66 32 67 33 68 56 69
REMARK SMILES IDX 57 70 65 71 58 72 64 73 59 74 60 75 61 76 62 77 63 78 42 79
REMARK SMILES IDX 43 80 51 81 44 82 50 83 45 84 46 85 47 86 48 87 49 88
REMARK H PARENT 9 6 81 19 81 20 14 25 70 44 40 55
REMARK Flexibility Score: inf
ROOT
ATOM      1  C   UNL A   1      37.422  21.296  24.641  1.00  0.00     0.023 C 
ENDROOT
BRANCH   1   2
ATOM      2  C   UNL A   1      35.947  21.245  25.029  1.00  0.00     0.116 C 
BRANCH   2   3
ATOM      3  N   UNL A   1      35.662  21.959  26.252  1.00  0.00    -0.355 N 
ATOM      4  C   UNL A   1      34.454  22.327  26.765  1.00  0.00     0.239 C 
ATOM      5  O   UNL A   1      34.425  22.744  27.925  1.00  0.00    -0.273 OA
ATOM      6  H   UNL A   1      36.447  22.215  26.787  1.00  0.00     0.163 HD
BRANCH   4   7
ATOM      7  C   UNL A   1      33.138  22.111  25.990  1.00  0.00     0.219 C 
BRANCH   7   8
ATOM      8  N   UNL A   1      32.576  23.239  25.218  1.00  0.00    -0.328 N 
BRANCH   8   9
ATOM      9  C   UNL A   1      32.230  23.072  23.748  1.00  0.00     0.035 C 
ATOM     10  C   UNL A   1      30.822  23.596  23.356  1.00  0.00     0.034 C 
ATOM     11  C   UNL A   1      32.255  21.585  23.324  1.00  0.00     0.034 C 
ATOM     12  C   UNL A   1      33.222  23.870  22.868  1.00  0.00     0.034 C 
ENDBRANCH   8   9
BRANCH   8  13
ATOM     13  C   UNL A   1      32.022  24.348  25.927  1.00  0.00     0.238 C 
ATOM     14  O   UNL A   1      31.181  24.171  26.818  1.00  0.00    -0.274 OA
BRANCH  13  15
ATOM     15  C   UNL A   1      32.477  25.783  25.569  1.00  0.00     0.188 C 
ATOM     16  C   UNL A   1      32.311  26.879  26.652  1.00  0.00     0.280 C 
ATOM     17  C   UNL A   1      33.976  26.134  25.691  1.00  0.00     0.280 C 
ATOM     18  N   UNL A   1      33.594  27.471  26.200  1.00  0.00    -0.345 N 
ATOM     19  H   UNL A   1      34.187  27.823  26.952  1.00  0.00     0.346 HD
ATOM     20  H   UNL A   1      33.617  28.295  25.598  1.00  0.00     0.346 HD
ENDBRANCH  13  15
ENDBRANCH   8  13
ENDBRANCH   7   8
ENDBRANCH   4   7
ENDBRANCH   2   3
ENDBRANCH   1   2
BRANCH   1  21
ATOM     21  C   UNL A   1      38.231  20.054  25.010  1.00  0.00     0.023 C 
BRANCH  21  22
ATOM     22  C   UNL A   1      39.248  20.241  26.131  1.00  0.00     0.116 C 
BRANCH  22  23
ATOM     23  N   UNL A   1      40.426  19.392  26.012  1.00  0.00    -0.352 N 
ATOM     24  C   UNL A   1      41.750  19.735  26.157  1.00  0.00     0.251 C 
ATOM     25  H   UNL A   1      40.250  18.447  25.799  1.00  0.00     0.163 HD
ATOM     26  O   UNL A   1      42.630  18.903  25.957  1.00  0.00    -0.269 OA
BRANCH  24  27
ATOM     27  C   UNL A   1      42.102  21.127  26.507  1.00  0.00     0.039 A 
ATOM     28  C   UNL A   1      42.357  21.443  27.844  1.00  0.00     0.014 A 
ATOM     29  C   UNL A   1      42.241  22.098  25.512  1.00  0.00     0.014 A 
ATOM     30  C   UNL A   1      42.838  22.711  28.171  1.00  0.00     0.010 A 
ATOM     31  C   UNL A   1      42.788  23.336  25.832  1.00  0.00     0.010 A 
ATOM     32  C   UNL A   1      43.103  23.653  27.162  1.00  0.00    -0.014 A 
BRANCH  32  33
ATOM     33  C   UNL A   1      43.730  24.962  27.472  1.00  0.00     0.031 A 
ATOM     34  C   UNL A   1      42.884  26.111  27.951  1.00  0.00     0.074 A 
ATOM     35  C   UNL A   1      45.045  25.143  27.235  1.00  0.00     0.049 A 
ATOM     36  N   UNL A   1      43.234  27.350  28.183  1.00  0.00    -0.248 NA
ATOM     37  C   UNL A   1      41.453  25.840  28.168  1.00  0.00     0.031 C 
ATOM     38  C   UNL A   1      45.963  24.127  26.711  1.00  0.00     0.029 A 
ATOM     39  N   UNL A   1      45.839  26.253  27.390  1.00  0.00    -0.354 N 
ATOM     40  C   UNL A   1      42.066  28.011  28.544  1.00  0.00     0.074 A 
ATOM     41  C   UNL A   1      40.991  27.047  28.465  1.00  0.00     0.031 C 
ATOM     42  C   UNL A   1      47.194  24.656  26.606  1.00  0.00     0.029 A 
ATOM     43  C   UNL A   1      47.149  26.054  27.021  1.00  0.00     0.049 A 
ATOM     44  H   UNL A   1      45.501  27.112  27.732  1.00  0.00     0.167 HD
ATOM     45  C   UNL A   1      41.906  29.301  28.924  1.00  0.00     0.031 A 
ATOM     46  C   UNL A   1      48.195  26.901  27.012  1.00  0.00     0.031 A 
ATOM     47  C   UNL A   1      42.982  30.248  29.040  1.00  0.00     0.049 A 
ATOM     48  C   UNL A   1      47.997  28.318  27.478  1.00  0.00     0.074 A 
ATOM     49  C   UNL A   1      42.930  31.555  29.493  1.00  0.00     0.029 A 
ATOM     50  N   UNL A   1      44.302  29.992  28.707  1.00  0.00    -0.354 N 
ATOM     51  N   UNL A   1      46.897  28.902  27.888  1.00  0.00    -0.248 NA
ATOM     52  C   UNL A   1      49.183  29.185  27.494  1.00  0.00     0.031 C 
ATOM     53  C   UNL A   1      44.214  32.101  29.401  1.00  0.00     0.029 A 
ATOM     54  C   UNL A   1      45.073  31.119  28.931  1.00  0.00     0.049 A 
ATOM     55  H   UNL A   1      44.641  29.134  28.362  1.00  0.00     0.167 HD
ATOM     56  C   UNL A   1      47.265  30.198  28.234  1.00  0.00     0.074 A 
ATOM     57  C   UNL A   1      48.690  30.307  28.000  1.00  0.00     0.031 C 
ATOM     58  C   UNL A   1      46.490  31.208  28.701  1.00  0.00     0.031 A 
BRANCH  45  59
ATOM     59  C   UNL A   1      40.514  29.764  29.254  1.00  0.00    -0.014 A 
ATOM     60  C   UNL A   1      39.524  29.850  28.259  1.00  0.00     0.010 A 
ATOM     61  C   UNL A   1      40.174  30.062  30.586  1.00  0.00     0.010 A 
ATOM     62  C   UNL A   1      38.227  30.252  28.585  1.00  0.00     0.020 A 
ATOM     63  C   UNL A   1      38.871  30.443  30.920  1.00  0.00     0.020 A 
ATOM     64  C   UNL A   1      37.909  30.548  29.913  1.00  0.00     0.054 A 
BRANCH  64  65
ATOM     65  S   UNL A   1      36.207  31.028  30.315  1.00  0.00     0.124 S 
ATOM     66  O   UNL A   1      36.375  32.423  30.714  1.00  0.00    -0.237 OA
ATOM     67  O   UNL A   1      35.506  30.816  29.051  1.00  0.00    -0.237 OA
ATOM     68  O   UNL A   1      35.833  30.113  31.391  1.00  0.00    -0.744 OA
ENDBRANCH  64  65
ENDBRANCH  45  59
BRANCH  46  69
ATOM     69  C   UNL A   1      49.533  26.435  26.557  1.00  0.00    -0.014 A 
ATOM     70  C   UNL A   1      49.947  26.645  25.230  1.00  0.00     0.010 A 
ATOM     71  C   UNL A   1      50.396  25.770  27.447  1.00  0.00     0.010 A 
ATOM     72  C   UNL A   1      51.187  26.170  24.792  1.00  0.00     0.020 A 
ATOM     73  C   UNL A   1      51.647  25.318  27.019  1.00  0.00     0.020 A 
ATOM     74  C   UNL A   1      52.027  25.507  25.689  1.00  0.00     0.054 A 
BRANCH  74  75
ATOM     75  S   UNL A   1      53.647  24.926  25.111  1.00  0.00     0.124 S 
ATOM     76  O   UNL A   1      53.773  25.612  23.829  1.00  0.00    -0.237 OA
ATOM     77  O   UNL A   1      54.546  25.385  26.166  1.00  0.00    -0.237 OA
ATOM     78  O   UNL A   1      53.479  23.476  25.034  1.00  0.00    -0.744 OA
ENDBRANCH  74  75
ENDBRANCH  46  69
BRANCH  58  79
ATOM     79  C   UNL A   1      47.173  32.507  29.025  1.00  0.00    -0.014 A 
ATOM     80  C   UNL A   1      47.275  33.533  28.071  1.00  0.00     0.010 A 
ATOM     81  C   UNL A   1      47.671  32.723  30.323  1.00  0.00     0.010 A 
ATOM     82  C   UNL A   1      47.890  34.743  28.399  1.00  0.00     0.020 A 
ATOM     83  C   UNL A   1      48.266  33.940  30.662  1.00  0.00     0.020 A 
ATOM     84  C   UNL A   1      48.384  34.938  29.693  1.00  0.00     0.054 A 
BRANCH  84  85
ATOM     85  S   UNL A   1      49.139  36.533  30.111  1.00  0.00     0.124 S 
ATOM     86  O   UNL A   1      49.963  36.186  31.265  1.00  0.00    -0.237 OA
ATOM     87  O   UNL A   1      49.873  36.873  28.894  1.00  0.00    -0.237 OA
ATOM     88  O   UNL A   1      47.993  37.393  30.399  1.00  0.00    -0.744 OA
ENDBRANCH  84  85
ENDBRANCH  58  79
ENDBRANCH  32  33
ENDBRANCH  24  27
ENDBRANCH  22  23
ENDBRANCH  21  22
ENDBRANCH   1  21
TORSDOF 18
ENDMDL
