MODEL 1
REMARK VINA RESULT:     -12.4      0.000      0.000
REMARK SMILES O=C(NCCCCNC(=O)[C@]12C[NH2+]C[C@H]1CN(C(=O)c1ccccc1-n1cncn1)C2)c1ccc(-c2c3nc(c(-c4ccc(S(=O)(=O)[O-])cc4)c4ccc([nH]4)c(-c4ccc(S(=O)(=O)[O-])cc4)c4nc(c(-c5ccc(S(=O)(=O)[O-])cc5)c5ccc2[nH]5)C=C4)C=C3)cc1
REMARK SMILES IDX 5 1 4 2 3 3 1 4 2 5 32 7 33 8 91 9 34 10 90 11 35 12 36 13
REMARK SMILES IDX 37 14 84 15 38 16 89 17 83 18 85 19 39 20 88 21 82 22 81 23
REMARK SMILES IDX 40 25 70 26 51 27 69 28 52 29 55 30 68 31 86 32 53 33 54 34
REMARK SMILES IDX 67 36 87 37 56 38 41 39 42 40 50 41 43 42 49 43 44 44 45 45
REMARK SMILES IDX 46 46 47 47 48 48 71 49 72 50 80 51 73 52 79 53 74 54 75 55
REMARK SMILES IDX 76 56 77 57 78 58 57 59 58 60 66 61 59 62 65 63 60 64 61 65
REMARK SMILES IDX 62 66 63 67 64 68 6 69 7 70 8 71 9 72 10 74 11 75 12 76
REMARK SMILES IDX 15 77 31 78 13 79 14 80 16 81 17 82 18 85 19 86 20 87 21 88
REMARK SMILES IDX 25 89 22 90 24 91 23 92 26 93 27 94 30 95 28 96 29 97
REMARK H PARENT 3 6 85 24 55 35 8 73 13 83 13 84
REMARK Flexibility Score: inf
ROOT
ATOM      1  C   UNL A   1      31.987  28.989  26.674  1.00  0.00     0.023 C 
ENDROOT
BRANCH   1   2
ATOM      2  C   UNL A   1      33.358  29.246  27.296  1.00  0.00     0.116 C 
BRANCH   2   3
ATOM      3  N   UNL A   1      33.591  30.629  27.649  1.00  0.00    -0.352 N 
ATOM      4  O   UNL A   1      34.520  32.554  28.201  1.00  0.00    -0.269 OA
ATOM      5  C   UNL A   1      34.691  31.343  28.035  1.00  0.00     0.251 C 
ATOM      6  H   UNL A   1      32.776  31.179  27.599  1.00  0.00     0.163 HD
BRANCH   5   7
ATOM      7  C   UNL A   1      36.034  30.760  28.309  1.00  0.00     0.039 A 
ATOM      8  C   UNL A   1      36.359  29.404  28.254  1.00  0.00     0.014 A 
ATOM      9  C   UNL A   1      37.049  31.680  28.628  1.00  0.00     0.014 A 
ATOM     10  C   UNL A   1      37.643  28.969  28.572  1.00  0.00     0.010 A 
ATOM     11  C   UNL A   1      38.340  31.254  28.926  1.00  0.00     0.010 A 
ATOM     12  C   UNL A   1      38.631  29.893  28.918  1.00  0.00    -0.014 A 
BRANCH  12  13
ATOM     13  C   UNL A   1      39.995  29.400  29.094  1.00  0.00     0.031 A 
ATOM     14  C   UNL A   1      40.440  29.258  30.514  1.00  0.00     0.074 A 
ATOM     15  C   UNL A   1      40.761  28.933  28.090  1.00  0.00     0.049 A 
ATOM     16  N   UNL A   1      41.452  29.807  31.105  1.00  0.00    -0.248 NA
ATOM     17  C   UNL A   1      39.589  28.454  31.409  1.00  0.00     0.031 C 
ATOM     18  C   UNL A   1      40.370  28.704  26.697  1.00  0.00     0.029 A 
ATOM     19  N   UNL A   1      42.033  28.441  28.142  1.00  0.00    -0.354 N 
ATOM     20  C   UNL A   1      41.473  29.287  32.398  1.00  0.00     0.074 A 
ATOM     21  C   UNL A   1      40.238  28.562  32.567  1.00  0.00     0.031 C 
ATOM     22  C   UNL A   1      41.290  27.907  26.106  1.00  0.00     0.029 A 
ATOM     23  C   UNL A   1      42.390  27.686  27.032  1.00  0.00     0.049 A 
ATOM     24  H   UNL A   1      42.641  28.606  28.897  1.00  0.00     0.167 HD
ATOM     25  C   UNL A   1      42.580  29.319  33.192  1.00  0.00     0.031 A 
ATOM     26  C   UNL A   1      43.472  26.877  26.912  1.00  0.00     0.031 A 
ATOM     27  C   UNL A   1      43.558  30.264  32.733  1.00  0.00     0.049 A 
ATOM     28  C   UNL A   1      44.453  27.279  27.946  1.00  0.00     0.074 A 
ATOM     29  C   UNL A   1      43.575  31.631  32.538  1.00  0.00     0.029 A 
ATOM     30  N   UNL A   1      44.649  29.775  32.056  1.00  0.00    -0.354 N 
ATOM     31  N   UNL A   1      45.083  28.420  27.941  1.00  0.00    -0.248 NA
ATOM     32  C   UNL A   1      44.448  26.577  29.219  1.00  0.00     0.031 C 
ATOM     33  C   UNL A   1      44.368  31.826  31.370  1.00  0.00     0.029 A 
ATOM     34  C   UNL A   1      44.825  30.574  30.954  1.00  0.00     0.049 A 
ATOM     35  H   UNL A   1      45.199  29.000  32.311  1.00  0.00     0.167 HD
ATOM     36  C   UNL A   1      45.185  28.778  29.277  1.00  0.00     0.074 A 
ATOM     37  C   UNL A   1      44.875  27.558  30.018  1.00  0.00     0.031 C 
ATOM     38  C   UNL A   1      45.247  30.088  29.657  1.00  0.00     0.031 A 
BRANCH  25  39
ATOM     39  C   UNL A   1      42.910  28.242  34.194  1.00  0.00    -0.014 A 
ATOM     40  C   UNL A   1      43.329  28.598  35.492  1.00  0.00     0.010 A 
ATOM     41  C   UNL A   1      43.081  26.892  33.817  1.00  0.00     0.010 A 
ATOM     42  C   UNL A   1      43.930  27.661  36.347  1.00  0.00     0.020 A 
ATOM     43  C   UNL A   1      43.635  25.942  34.675  1.00  0.00     0.020 A 
ATOM     44  C   UNL A   1      44.089  26.341  35.924  1.00  0.00     0.054 A 
BRANCH  44  45
ATOM     45  S   UNL A   1      44.955  25.162  36.991  1.00  0.00     0.124 S 
ATOM     46  O   UNL A   1      46.351  25.522  36.765  1.00  0.00    -0.237 OA
ATOM     47  O   UNL A   1      44.422  25.486  38.311  1.00  0.00    -0.237 OA
ATOM     48  O   UNL A   1      44.549  23.861  36.465  1.00  0.00    -0.744 OA
ENDBRANCH  44  45
ENDBRANCH  25  39
BRANCH  26  49
ATOM     49  C   UNL A   1      43.565  25.587  26.183  1.00  0.00    -0.014 A 
ATOM     50  C   UNL A   1      44.606  25.343  25.269  1.00  0.00     0.010 A 
ATOM     51  C   UNL A   1      42.785  24.487  26.598  1.00  0.00     0.010 A 
ATOM     52  C   UNL A   1      44.894  24.037  24.834  1.00  0.00     0.020 A 
ATOM     53  C   UNL A   1      43.058  23.186  26.161  1.00  0.00     0.020 A 
ATOM     54  C   UNL A   1      44.129  22.964  25.300  1.00  0.00     0.054 A 
BRANCH  54  55
ATOM     55  S   UNL A   1      44.619  21.265  24.880  1.00  0.00     0.124 S 
ATOM     56  O   UNL A   1      43.509  20.480  25.414  1.00  0.00    -0.237 OA
ATOM     57  O   UNL A   1      44.716  21.313  23.424  1.00  0.00    -0.237 OA
ATOM     58  O   UNL A   1      45.892  21.092  25.577  1.00  0.00    -0.744 OA
ENDBRANCH  54  55
ENDBRANCH  26  49
BRANCH  38  59
ATOM     59  C   UNL A   1      45.506  31.136  28.597  1.00  0.00    -0.014 A 
ATOM     60  C   UNL A   1      44.495  31.696  27.790  1.00  0.00     0.010 A 
ATOM     61  C   UNL A   1      46.800  31.683  28.522  1.00  0.00     0.010 A 
ATOM     62  C   UNL A   1      44.780  32.754  26.914  1.00  0.00     0.020 A 
ATOM     63  C   UNL A   1      47.085  32.750  27.666  1.00  0.00     0.020 A 
ATOM     64  C   UNL A   1      46.075  33.276  26.859  1.00  0.00     0.054 A 
BRANCH  64  65
ATOM     65  S   UNL A   1      46.425  34.684  25.768  1.00  0.00     0.124 S 
ATOM     66  O   UNL A   1      46.149  35.830  26.630  1.00  0.00    -0.237 OA
ATOM     67  O   UNL A   1      47.830  34.483  25.418  1.00  0.00    -0.237 OA
ATOM     68  O   UNL A   1      45.490  34.506  24.658  1.00  0.00    -0.744 OA
ENDBRANCH  64  65
ENDBRANCH  38  59
ENDBRANCH  12  13
ENDBRANCH   5   7
ENDBRANCH   2   3
ENDBRANCH   1   2
BRANCH   1  69
ATOM     69  C   UNL A   1      31.721  29.732  25.353  1.00  0.00     0.023 C 
BRANCH  69  70
ATOM     70  C   UNL A   1      31.313  28.860  24.171  1.00  0.00     0.116 C 
BRANCH  70  71
ATOM     71  N   UNL A   1      32.391  28.016  23.772  1.00  0.00    -0.355 N 
ATOM     72  C   UNL A   1      32.652  26.753  24.095  1.00  0.00     0.234 C 
ATOM     73  H   UNL A   1      33.042  28.433  23.163  1.00  0.00     0.163 HD
ATOM     74  O   UNL A   1      33.720  26.333  23.603  1.00  0.00    -0.274 OA
BRANCH  72  75
ATOM     75  C   UNL A   1      31.902  25.829  25.064  1.00  0.00     0.125 C 
ATOM     76  C   UNL A   1      30.862  25.400  23.999  1.00  0.00     0.280 C 
ATOM     77  C   UNL A   1      31.059  25.385  26.304  1.00  0.00     0.087 C 
ATOM     78  C   UNL A   1      33.264  25.310  25.636  1.00  0.00     0.143 C 
ATOM     79  N   UNL A   1      29.539  25.695  24.593  1.00  0.00    -0.345 N 
ATOM     80  C   UNL A   1      29.603  25.138  25.919  1.00  0.00     0.267 C 
ATOM     81  C   UNL A   1      31.647  23.980  26.638  1.00  0.00     0.130 C 
ATOM     82  N   UNL A   1      33.050  24.146  26.439  1.00  0.00    -0.337 N 
ATOM     83  H   UNL A   1      28.796  25.254  24.052  1.00  0.00     0.346 HD
ATOM     84  H   UNL A   1      29.335  26.694  24.603  1.00  0.00     0.346 HD
BRANCH  82  85
ATOM     85  C   UNL A   1      33.992  23.252  26.911  1.00  0.00     0.256 C 
ATOM     86  O   UNL A   1      33.957  22.767  28.027  1.00  0.00    -0.269 OA
BRANCH  85  87
ATOM     87  C   UNL A   1      35.111  22.874  26.005  1.00  0.00     0.065 A 
ATOM     88  C   UNL A   1      36.292  23.616  26.155  1.00  0.00     0.016 A 
ATOM     89  C   UNL A   1      35.071  21.801  25.098  1.00  0.00     0.079 A 
ATOM     90  C   UNL A   1      37.438  23.270  25.436  1.00  0.00     0.001 A 
ATOM     91  C   UNL A   1      36.246  21.429  24.418  1.00  0.00     0.029 A 
ATOM     92  C   UNL A   1      37.418  22.171  24.581  1.00  0.00     0.002 A 
BRANCH  89  93
ATOM     93  N   UNL A   1      33.890  21.071  24.831  1.00  0.00    -0.220 N 
ATOM     94  C   UNL A   1      33.407  19.928  25.424  1.00  0.00     0.225 A 
ATOM     95  N   UNL A   1      33.050  21.432  23.829  1.00  0.00    -0.155 NA
ATOM     96  N   UNL A   1      32.362  19.475  24.770  1.00  0.00    -0.223 NA
ATOM     97  C   UNL A   1      32.177  20.426  23.814  1.00  0.00     0.246 A 
ENDBRANCH  89  93
ENDBRANCH  85  87
ENDBRANCH  82  85
ENDBRANCH  72  75
ENDBRANCH  70  71
ENDBRANCH  69  70
ENDBRANCH   1  69
TORSDOF 17
ENDMDL
MODEL 2
REMARK VINA RESULT:     -12.2      1.234      2.064
REMARK SMILES O=C(NCCCCNC(=O)[C@]12C[NH2+]C[C@H]1CN(C(=O)c1ccccc1-n1cncn1)C2)c1ccc(-c2c3nc(c(-c4ccc(S(=O)(=O)[O-])cc4)c4ccc([nH]4)c(-c4ccc(S(=O)(=O)[O-])cc4)c4nc(c(-c5ccc(S(=O)(=O)[O-])cc5)c5ccc2[nH]5)C=C4)C=C3)cc1
REMARK SMILES IDX 5 1 4 2 3 3 1 4 2 5 32 7 33 8 91 9 34 10 90 11 35 12 36 13
REMARK SMILES IDX 37 14 84 15 38 16 89 17 83 18 85 19 39 20 88 21 82 22 81 23
REMARK SMILES IDX 40 25 70 26 51 27 69 28 52 29 55 30 68 31 86 32 53 33 54 34
REMARK SMILES IDX 67 36 87 37 56 38 41 39 42 40 50 41 43 42 49 43 44 44 45 45
REMARK SMILES IDX 46 46 47 47 48 48 71 49 72 50 80 51 73 52 79 53 74 54 75 55
REMARK SMILES IDX 76 56 77 57 78 58 57 59 58 60 66 61 59 62 65 63 60 64 61 65
REMARK SMILES IDX 62 66 63 67 64 68 6 69 7 70 8 71 9 72 10 74 11 75 12 76
REMARK SMILES IDX 15 77 31 78 13 79 14 80 16 81 17 82 18 85 19 86 20 87 21 88
REMARK SMILES IDX 25 89 22 90 24 91 23 92 26 93 27 94 30 95 28 96 29 97
REMARK H PARENT 3 6 85 24 55 35 8 73 13 83 13 84
REMARK Flexibility Score: inf
ROOT
ATOM      1  C   UNL A   1      33.719  29.682  25.664  1.00  0.00     0.023 C 
ENDROOT
BRANCH   1   2
ATOM      2  C   UNL A   1      33.332  29.641  27.140  1.00  0.00     0.116 C 
BRANCH   2   3
ATOM      3  N   UNL A   1      33.480  30.909  27.819  1.00  0.00    -0.352 N 
ATOM      4  O   UNL A   1      34.285  32.678  28.865  1.00  0.00    -0.269 OA
ATOM      5  C   UNL A   1      34.522  31.546  28.433  1.00  0.00     0.251 C 
ATOM      6  H   UNL A   1      32.644  31.428  27.845  1.00  0.00     0.163 HD
BRANCH   5   7
ATOM      7  C   UNL A   1      35.872  30.959  28.653  1.00  0.00     0.039 A 
ATOM      8  C   UNL A   1      36.243  29.642  28.373  1.00  0.00     0.014 A 
ATOM      9  C   UNL A   1      36.846  31.834  29.168  1.00  0.00     0.014 A 
ATOM     10  C   UNL A   1      37.528  29.191  28.660  1.00  0.00     0.010 A 
ATOM     11  C   UNL A   1      38.139  31.395  29.436  1.00  0.00     0.010 A 
ATOM     12  C   UNL A   1      38.474  30.064  29.201  1.00  0.00    -0.014 A 
BRANCH  12  13
ATOM     13  C   UNL A   1      39.846  29.583  29.341  1.00  0.00     0.031 A 
ATOM     14  C   UNL A   1      40.293  29.339  30.746  1.00  0.00     0.074 A 
ATOM     15  C   UNL A   1      40.620  29.208  28.304  1.00  0.00     0.049 A 
ATOM     16  N   UNL A   1      41.295  29.859  31.379  1.00  0.00    -0.248 NA
ATOM     17  C   UNL A   1      39.457  28.455  31.575  1.00  0.00     0.031 C 
ATOM     18  C   UNL A   1      40.234  29.079  26.897  1.00  0.00     0.029 A 
ATOM     19  N   UNL A   1      41.900  28.735  28.320  1.00  0.00    -0.354 N 
ATOM     20  C   UNL A   1      41.325  29.242  32.629  1.00  0.00     0.074 A 
ATOM     21  C   UNL A   1      40.103  28.485  32.740  1.00  0.00     0.031 C 
ATOM     22  C   UNL A   1      41.167  28.346  26.248  1.00  0.00     0.029 A 
ATOM     23  C   UNL A   1      42.270  28.074  27.157  1.00  0.00     0.049 A 
ATOM     24  H   UNL A   1      42.505  28.852  29.087  1.00  0.00     0.167 HD
ATOM     25  C   UNL A   1      42.431  29.232  33.424  1.00  0.00     0.031 A 
ATOM     26  C   UNL A   1      43.366  27.295  26.976  1.00  0.00     0.031 A 
ATOM     27  C   UNL A   1      43.393  30.226  33.040  1.00  0.00     0.049 A 
ATOM     28  C   UNL A   1      44.341  27.633  28.040  1.00  0.00     0.074 A 
ATOM     29  C   UNL A   1      43.386  31.604  32.951  1.00  0.00     0.029 A 
ATOM     30  N   UNL A   1      44.492  29.809  32.329  1.00  0.00    -0.354 N 
ATOM     31  N   UNL A   1      44.951  28.782  28.123  1.00  0.00    -0.248 NA
ATOM     32  C   UNL A   1      44.347  26.836  29.255  1.00  0.00     0.031 C 
ATOM     33  C   UNL A   1      44.176  31.901  31.802  1.00  0.00     0.029 A 
ATOM     34  C   UNL A   1      44.655  30.693  31.292  1.00  0.00     0.049 A 
ATOM     35  H   UNL A   1      45.056  29.026  32.525  1.00  0.00     0.167 HD
ATOM     36  C   UNL A   1      45.046  29.037  29.483  1.00  0.00     0.074 A 
ATOM     37  C   UNL A   1      44.757  27.759  30.127  1.00  0.00     0.031 C 
ATOM     38  C   UNL A   1      45.085  30.316  29.962  1.00  0.00     0.031 A 
BRANCH  25  39
ATOM     39  C   UNL A   1      42.780  28.086  34.341  1.00  0.00    -0.014 A 
ATOM     40  C   UNL A   1      43.072  28.339  35.696  1.00  0.00     0.010 A 
ATOM     41  C   UNL A   1      43.093  26.800  33.850  1.00  0.00     0.010 A 
ATOM     42  C   UNL A   1      43.689  27.369  36.502  1.00  0.00     0.020 A 
ATOM     43  C   UNL A   1      43.664  25.813  34.654  1.00  0.00     0.020 A 
ATOM     44  C   UNL A   1      43.990  26.116  35.969  1.00  0.00     0.054 A 
BRANCH  44  45
ATOM     45  S   UNL A   1      44.876  24.905  36.983  1.00  0.00     0.124 S 
ATOM     46  O   UNL A   1      46.258  25.354  36.848  1.00  0.00    -0.237 OA
ATOM     47  O   UNL A   1      44.271  25.099  38.298  1.00  0.00    -0.237 OA
ATOM     48  O   UNL A   1      44.564  23.629  36.343  1.00  0.00    -0.744 OA
ENDBRANCH  44  45
ENDBRANCH  25  39
BRANCH  26  49
ATOM     49  C   UNL A   1      43.482  26.067  26.150  1.00  0.00    -0.014 A 
ATOM     50  C   UNL A   1      44.651  25.791  25.417  1.00  0.00     0.010 A 
ATOM     51  C   UNL A   1      42.545  25.024  26.307  1.00  0.00     0.010 A 
ATOM     52  C   UNL A   1      44.900  24.503  24.912  1.00  0.00     0.020 A 
ATOM     53  C   UNL A   1      42.781  23.742  25.798  1.00  0.00     0.020 A 
ATOM     54  C   UNL A   1      43.970  23.481  25.124  1.00  0.00     0.054 A 
BRANCH  54  55
ATOM     55  S   UNL A   1      44.380  21.780  24.630  1.00  0.00     0.124 S 
ATOM     56  O   UNL A   1      43.253  21.021  25.165  1.00  0.00    -0.237 OA
ATOM     57  O   UNL A   1      44.444  21.878  23.176  1.00  0.00    -0.237 OA
ATOM     58  O   UNL A   1      45.662  21.532  25.288  1.00  0.00    -0.744 OA
ENDBRANCH  54  55
ENDBRANCH  26  49
BRANCH  38  59
ATOM     59  C   UNL A   1      45.326  31.446  28.986  1.00  0.00    -0.014 A 
ATOM     60  C   UNL A   1      46.609  31.895  28.612  1.00  0.00     0.010 A 
ATOM     61  C   UNL A   1      44.211  31.972  28.308  1.00  0.00     0.010 A 
ATOM     62  C   UNL A   1      46.767  32.861  27.608  1.00  0.00     0.020 A 
ATOM     63  C   UNL A   1      44.364  32.920  27.294  1.00  0.00     0.020 A 
ATOM     64  C   UNL A   1      45.641  33.367  26.953  1.00  0.00     0.054 A 
BRANCH  64  65
ATOM     65  S   UNL A   1      45.854  34.573  25.613  1.00  0.00     0.124 S 
ATOM     66  O   UNL A   1      47.281  34.472  25.318  1.00  0.00    -0.237 OA
ATOM     67  O   UNL A   1      44.959  34.067  24.574  1.00  0.00    -0.237 OA
ATOM     68  O   UNL A   1      45.435  35.839  26.213  1.00  0.00    -0.744 OA
ENDBRANCH  64  65
ENDBRANCH  38  59
ENDBRANCH  12  13
ENDBRANCH   5   7
ENDBRANCH   2   3
ENDBRANCH   1   2
BRANCH   1  69
ATOM     69  C   UNL A   1      32.969  28.682  24.765  1.00  0.00     0.023 C 
BRANCH  69  70
ATOM     70  C   UNL A   1      31.623  29.153  24.227  1.00  0.00     0.116 C 
BRANCH  70  71
ATOM     71  N   UNL A   1      31.299  28.475  23.014  1.00  0.00    -0.355 N 
ATOM     72  C   UNL A   1      31.031  27.191  22.798  1.00  0.00     0.234 C 
ATOM     73  H   UNL A   1      31.270  29.046  22.213  1.00  0.00     0.163 HD
ATOM     74  O   UNL A   1      30.840  26.927  21.593  1.00  0.00    -0.274 OA
BRANCH  72  75
ATOM     75  C   UNL A   1      31.056  26.019  23.790  1.00  0.00     0.125 C 
ATOM     76  C   UNL A   1      29.511  25.919  23.856  1.00  0.00     0.280 C 
ATOM     77  C   UNL A   1      31.328  25.227  25.109  1.00  0.00     0.087 C 
ATOM     78  C   UNL A   1      32.232  25.361  22.993  1.00  0.00     0.143 C 
ATOM     79  N   UNL A   1      29.167  26.020  25.291  1.00  0.00    -0.345 N 
ATOM     80  C   UNL A   1      30.057  25.098  25.945  1.00  0.00     0.267 C 
ATOM     81  C   UNL A   1      31.636  23.788  24.593  1.00  0.00     0.130 C 
ATOM     82  N   UNL A   1      32.425  24.011  23.426  1.00  0.00    -0.337 N 
ATOM     83  H   UNL A   1      28.194  25.756  25.447  1.00  0.00     0.346 HD
ATOM     84  H   UNL A   1      29.267  26.971  25.645  1.00  0.00     0.346 HD
BRANCH  82  85
ATOM     85  C   UNL A   1      33.175  23.021  22.818  1.00  0.00     0.256 C 
ATOM     86  O   UNL A   1      33.678  23.143  21.717  1.00  0.00    -0.269 OA
BRANCH  85  87
ATOM     87  C   UNL A   1      33.363  21.739  23.551  1.00  0.00     0.065 A 
ATOM     88  C   UNL A   1      32.401  20.749  23.301  1.00  0.00     0.016 A 
ATOM     89  C   UNL A   1      34.458  21.454  24.385  1.00  0.00     0.079 A 
ATOM     90  C   UNL A   1      32.545  19.472  23.846  1.00  0.00     0.001 A 
ATOM     91  C   UNL A   1      34.620  20.150  24.887  1.00  0.00     0.029 A 
ATOM     92  C   UNL A   1      33.660  19.170  24.625  1.00  0.00     0.002 A 
BRANCH  89  93
ATOM     93  N   UNL A   1      35.412  22.431  24.751  1.00  0.00    -0.220 N 
ATOM     94  C   UNL A   1      36.687  22.639  24.278  1.00  0.00     0.225 A 
ATOM     95  N   UNL A   1      35.162  23.324  25.741  1.00  0.00    -0.155 NA
ATOM     96  N   UNL A   1      37.305  23.544  25.001  1.00  0.00    -0.223 NA
ATOM     97  C   UNL A   1      36.337  23.939  25.872  1.00  0.00     0.246 A 
ENDBRANCH  89  93
ENDBRANCH  85  87
ENDBRANCH  82  85
ENDBRANCH  72  75
ENDBRANCH  70  71
ENDBRANCH  69  70
ENDBRANCH   1  69
TORSDOF 17
ENDMDL
MODEL 3
REMARK VINA RESULT:     -12.2      2.464      9.285
REMARK SMILES O=C(NCCCCNC(=O)[C@]12C[NH2+]C[C@H]1CN(C(=O)c1ccccc1-n1cncn1)C2)c1ccc(-c2c3nc(c(-c4ccc(S(=O)(=O)[O-])cc4)c4ccc([nH]4)c(-c4ccc(S(=O)(=O)[O-])cc4)c4nc(c(-c5ccc(S(=O)(=O)[O-])cc5)c5ccc2[nH]5)C=C4)C=C3)cc1
REMARK SMILES IDX 5 1 4 2 3 3 1 4 2 5 32 7 33 8 91 9 34 10 90 11 35 12 36 13
REMARK SMILES IDX 37 14 84 15 38 16 89 17 83 18 85 19 39 20 88 21 82 22 81 23
REMARK SMILES IDX 40 25 70 26 51 27 69 28 52 29 55 30 68 31 86 32 53 33 54 34
REMARK SMILES IDX 67 36 87 37 56 38 41 39 42 40 50 41 43 42 49 43 44 44 45 45
REMARK SMILES IDX 46 46 47 47 48 48 71 49 72 50 80 51 73 52 79 53 74 54 75 55
REMARK SMILES IDX 76 56 77 57 78 58 57 59 58 60 66 61 59 62 65 63 60 64 61 65
REMARK SMILES IDX 62 66 63 67 64 68 6 69 7 70 8 71 9 72 10 74 11 75 12 76
REMARK SMILES IDX 15 77 31 78 13 79 14 80 16 81 17 82 18 85 19 86 20 87 21 88
REMARK SMILES IDX 25 89 22 90 24 91 23 92 26 93 27 94 30 95 28 96 29 97
REMARK H PARENT 3 6 85 24 55 35 8 73 13 83 13 84
REMARK Flexibility Score: inf
ROOT
ATOM      1  C   UNL A   1      39.564  21.799  26.089  1.00  0.00     0.023 C 
ENDROOT
BRANCH   1   2
ATOM      2  C   UNL A   1      41.004  21.418  26.420  1.00  0.00     0.116 C 
BRANCH   2   3
ATOM      3  N   UNL A   1      41.963  21.823  25.416  1.00  0.00    -0.352 N 
ATOM      4  O   UNL A   1      43.469  22.928  24.239  1.00  0.00    -0.269 OA
ATOM      5  C   UNL A   1      42.681  22.964  25.189  1.00  0.00     0.251 C 
ATOM      6  H   UNL A   1      42.137  21.122  24.748  1.00  0.00     0.163 HD
BRANCH   5   7
ATOM      7  C   UNL A   1      42.541  24.229  25.961  1.00  0.00     0.039 A 
ATOM      8  C   UNL A   1      41.901  25.388  25.518  1.00  0.00     0.014 A 
ATOM      9  C   UNL A   1      43.093  24.223  27.255  1.00  0.00     0.014 A 
ATOM     10  C   UNL A   1      41.867  26.529  26.314  1.00  0.00     0.010 A 
ATOM     11  C   UNL A   1      43.044  25.353  28.065  1.00  0.00     0.010 A 
ATOM     12  C   UNL A   1      42.448  26.516  27.584  1.00  0.00    -0.014 A 
BRANCH  12  13
ATOM     13  C   UNL A   1      42.254  27.687  28.435  1.00  0.00     0.031 A 
ATOM     14  C   UNL A   1      43.377  28.672  28.426  1.00  0.00     0.074 A 
ATOM     15  C   UNL A   1      41.096  27.979  29.058  1.00  0.00     0.049 A 
ATOM     16  N   UNL A   1      44.085  29.104  29.419  1.00  0.00    -0.248 NA
ATOM     17  C   UNL A   1      43.815  29.181  27.115  1.00  0.00     0.031 C 
ATOM     18  C   UNL A   1      39.806  27.298  28.920  1.00  0.00     0.029 A 
ATOM     19  N   UNL A   1      40.801  29.043  29.860  1.00  0.00    -0.354 N 
ATOM     20  C   UNL A   1      44.944  30.067  28.892  1.00  0.00     0.074 A 
ATOM     21  C   UNL A   1      44.822  29.983  27.458  1.00  0.00     0.031 C 
ATOM     22  C   UNL A   1      38.831  28.094  29.414  1.00  0.00     0.029 A 
ATOM     23  C   UNL A   1      39.440  29.268  30.019  1.00  0.00     0.049 A 
ATOM     24  H   UNL A   1      41.491  29.600  30.287  1.00  0.00     0.167 HD
ATOM     25  C   UNL A   1      45.563  31.007  29.660  1.00  0.00     0.031 A 
ATOM     26  C   UNL A   1      38.853  30.375  30.540  1.00  0.00     0.031 A 
ATOM     27  C   UNL A   1      45.562  30.666  31.055  1.00  0.00     0.049 A 
ATOM     28  C   UNL A   1      39.874  31.094  31.338  1.00  0.00     0.074 A 
ATOM     29  C   UNL A   1      46.072  29.621  31.801  1.00  0.00     0.029 A 
ATOM     30  N   UNL A   1      44.653  31.299  31.866  1.00  0.00    -0.354 N 
ATOM     31  N   UNL A   1      40.389  30.629  32.441  1.00  0.00    -0.248 NA
ATOM     32  C   UNL A   1      40.626  32.162  30.702  1.00  0.00     0.031 C 
ATOM     33  C   UNL A   1      45.099  29.387  32.816  1.00  0.00     0.029 A 
ATOM     34  C   UNL A   1      44.084  30.332  32.657  1.00  0.00     0.049 A 
ATOM     35  H   UNL A   1      44.447  32.262  31.878  1.00  0.00     0.167 HD
ATOM     36  C   UNL A   1      41.715  31.037  32.416  1.00  0.00     0.074 A 
ATOM     37  C   UNL A   1      41.772  32.065  31.379  1.00  0.00     0.031 C 
ATOM     38  C   UNL A   1      42.689  30.318  33.047  1.00  0.00     0.031 A 
BRANCH  25  39
ATOM     39  C   UNL A   1      45.870  32.402  29.174  1.00  0.00    -0.014 A 
ATOM     40  C   UNL A   1      44.891  33.409  29.279  1.00  0.00     0.010 A 
ATOM     41  C   UNL A   1      46.995  32.686  28.371  1.00  0.00     0.010 A 
ATOM     42  C   UNL A   1      45.012  34.619  28.577  1.00  0.00     0.020 A 
ATOM     43  C   UNL A   1      47.148  33.903  27.705  1.00  0.00     0.020 A 
ATOM     44  C   UNL A   1      46.138  34.851  27.785  1.00  0.00     0.054 A 
BRANCH  44  45
ATOM     45  S   UNL A   1      46.240  36.369  26.804  1.00  0.00     0.124 S 
ATOM     46  O   UNL A   1      44.835  36.632  26.510  1.00  0.00    -0.237 OA
ATOM     47  O   UNL A   1      46.879  37.297  27.733  1.00  0.00    -0.237 OA
ATOM     48  O   UNL A   1      47.060  35.981  25.659  1.00  0.00    -0.744 OA
ENDBRANCH  44  45
ENDBRANCH  25  39
BRANCH  26  49
ATOM     49  C   UNL A   1      37.575  31.006  30.126  1.00  0.00    -0.014 A 
ATOM     50  C   UNL A   1      36.528  31.199  31.046  1.00  0.00     0.010 A 
ATOM     51  C   UNL A   1      37.491  31.675  28.887  1.00  0.00     0.010 A 
ATOM     52  C   UNL A   1      35.467  32.076  30.759  1.00  0.00     0.020 A 
ATOM     53  C   UNL A   1      36.434  32.541  28.590  1.00  0.00     0.020 A 
ATOM     54  C   UNL A   1      35.439  32.758  29.539  1.00  0.00     0.054 A 
BRANCH  54  55
ATOM     55  S   UNL A   1      34.168  34.025  29.251  1.00  0.00     0.124 S 
ATOM     56  O   UNL A   1      34.937  35.101  28.632  1.00  0.00    -0.237 OA
ATOM     57  O   UNL A   1      33.226  33.336  28.374  1.00  0.00    -0.237 OA
ATOM     58  O   UNL A   1      33.662  34.316  30.591  1.00  0.00    -0.744 OA
ENDBRANCH  54  55
ENDBRANCH  26  49
BRANCH  38  59
ATOM     59  C   UNL A   1      42.274  29.239  34.023  1.00  0.00    -0.014 A 
ATOM     60  C   UNL A   1      41.892  27.940  33.634  1.00  0.00     0.010 A 
ATOM     61  C   UNL A   1      42.424  29.509  35.395  1.00  0.00     0.010 A 
ATOM     62  C   UNL A   1      41.640  26.949  34.594  1.00  0.00     0.020 A 
ATOM     63  C   UNL A   1      42.194  28.520  36.355  1.00  0.00     0.020 A 
ATOM     64  C   UNL A   1      41.795  27.245  35.951  1.00  0.00     0.054 A 
BRANCH  64  65
ATOM     65  S   UNL A   1      41.527  25.942  37.186  1.00  0.00     0.124 S 
ATOM     66  O   UNL A   1      41.700  24.721  36.403  1.00  0.00    -0.237 OA
ATOM     67  O   UNL A   1      42.572  26.210  38.174  1.00  0.00    -0.237 OA
ATOM     68  O   UNL A   1      40.165  26.185  37.660  1.00  0.00    -0.744 OA
ENDBRANCH  64  65
ENDBRANCH  38  59
ENDBRANCH  12  13
ENDBRANCH   5   7
ENDBRANCH   2   3
ENDBRANCH   1   2
BRANCH   1  69
ATOM     69  C   UNL A   1      39.155  23.225  26.498  1.00  0.00     0.023 C 
BRANCH  69  70
ATOM     70  C   UNL A   1      37.771  23.675  26.046  1.00  0.00     0.116 C 
BRANCH  70  71
ATOM     71  N   UNL A   1      37.603  23.463  24.645  1.00  0.00    -0.355 N 
ATOM     72  C   UNL A   1      36.526  23.096  23.959  1.00  0.00     0.234 C 
ATOM     73  H   UNL A   1      38.411  23.612  24.103  1.00  0.00     0.163 HD
ATOM     74  O   UNL A   1      36.748  22.952  22.738  1.00  0.00    -0.274 OA
BRANCH  72  75
ATOM     75  C   UNL A   1      35.132  22.716  24.479  1.00  0.00     0.125 C 
ATOM     76  C   UNL A   1      35.692  21.726  25.531  1.00  0.00     0.280 C 
ATOM     77  C   UNL A   1      33.676  22.147  24.477  1.00  0.00     0.087 C 
ATOM     78  C   UNL A   1      34.690  24.216  24.412  1.00  0.00     0.143 C 
ATOM     79  N   UNL A   1      35.014  20.438  25.266  1.00  0.00    -0.345 N 
ATOM     80  C   UNL A   1      33.620  20.777  25.148  1.00  0.00     0.267 C 
ATOM     81  C   UNL A   1      32.924  23.115  25.441  1.00  0.00     0.130 C 
ATOM     82  N   UNL A   1      33.455  24.397  25.112  1.00  0.00    -0.337 N 
ATOM     83  H   UNL A   1      35.164  19.788  26.037  1.00  0.00     0.346 HD
ATOM     84  H   UNL A   1      35.372  19.979  24.429  1.00  0.00     0.346 HD
BRANCH  82  85
ATOM     85  C   UNL A   1      32.862  25.584  25.499  1.00  0.00     0.256 C 
ATOM     86  O   UNL A   1      33.352  26.342  26.316  1.00  0.00    -0.269 OA
BRANCH  85  87
ATOM     87  C   UNL A   1      31.553  25.943  24.889  1.00  0.00     0.065 A 
ATOM     88  C   UNL A   1      30.423  25.374  25.496  1.00  0.00     0.016 A 
ATOM     89  C   UNL A   1      31.394  26.850  23.828  1.00  0.00     0.079 A 
ATOM     90  C   UNL A   1      29.141  25.734  25.075  1.00  0.00     0.001 A 
ATOM     91  C   UNL A   1      30.097  27.244  23.447  1.00  0.00     0.029 A 
ATOM     92  C   UNL A   1      28.979  26.678  24.063  1.00  0.00     0.002 A 
BRANCH  89  93
ATOM     93  N   UNL A   1      32.489  27.389  23.113  1.00  0.00    -0.220 N 
ATOM     94  C   UNL A   1      33.177  26.876  22.038  1.00  0.00     0.225 A 
ATOM     95  N   UNL A   1      33.062  28.561  23.480  1.00  0.00    -0.155 NA
ATOM     96  N   UNL A   1      34.236  27.607  21.777  1.00  0.00    -0.223 NA
ATOM     97  C   UNL A   1      34.120  28.625  22.674  1.00  0.00     0.246 A 
ENDBRANCH  89  93
ENDBRANCH  85  87
ENDBRANCH  82  85
ENDBRANCH  72  75
ENDBRANCH  70  71
ENDBRANCH  69  70
ENDBRANCH   1  69
TORSDOF 17
ENDMDL
