MODEL 1
REMARK VINA RESULT:      -9.5      0.000      0.000
REMARK SMILES Cc1cc(C(=O)N[C@](C)(C(=O)NCCCCNC(=O)c2ccc(-c3c4nc(c(-c5ccc(S(=O)(=O)[O-])cc5)c5ccc([nH]5)c(-c5ccc(S(=O)(=O)[O-])cc5)c5nc(c(-c6ccc(S(=O)(=O)[O-])cc6)c6ccc3[nH]6)C=C5)C=C4)cc2)C(F)(F)F)no1
REMARK SMILES IDX 15 1 14 2 13 3 12 4 10 5 11 6 8 8 9 9 7 10 5 11 6 12 4 14
REMARK SMILES IDX 1 15 2 16 3 17 85 18 84 19 80 20 81 21 82 22 83 23 16 24
REMARK SMILES IDX 17 25 18 26 19 28 20 29 21 30 79 31 22 32 78 33 23 34 24 35
REMARK SMILES IDX 25 36 72 37 26 38 77 39 71 40 73 41 27 42 76 43 70 44 69 45
REMARK SMILES IDX 28 47 58 48 39 49 57 50 40 51 43 52 56 53 74 54 41 55 42 56
REMARK SMILES IDX 55 58 75 59 44 60 29 61 30 62 38 63 31 64 37 65 32 66 33 67
REMARK SMILES IDX 34 68 35 69 36 70 59 71 60 72 68 73 61 74 67 75 62 76 63 77
REMARK SMILES IDX 64 78 65 79 66 80 45 81 46 82 54 83 47 84 53 85 48 86 49 87
REMARK SMILES IDX 50 88 51 89 52 90
REMARK H PARENT 12 7 7 13 17 27 73 46 43 57
REMARK Flexibility Score: inf
ROOT
ATOM      1  C   UNL A   1      41.904  21.568  27.429  1.00  0.00     0.023 C 
ENDROOT
BRANCH   1   2
ATOM      2  C   UNL A   1      42.460  22.494  28.516  1.00  0.00     0.023 C 
BRANCH   2   3
ATOM      3  C   UNL A   1      43.627  23.367  28.063  1.00  0.00     0.116 C 
BRANCH   3   4
ATOM      4  N   UNL A   1      44.596  22.601  27.295  1.00  0.00    -0.354 N 
ATOM      5  C   UNL A   1      45.608  23.020  26.477  1.00  0.00     0.254 C 
ATOM      6  O   UNL A   1      46.261  22.136  25.919  1.00  0.00    -0.272 OA
ATOM      7  H   UNL A   1      44.509  21.625  27.377  1.00  0.00     0.163 HD
BRANCH   5   8
ATOM      8  C   UNL A   1      45.833  24.512  26.185  1.00  0.00     0.212 C 
ATOM      9  C   UNL A   1      46.571  24.587  24.821  1.00  0.00     0.056 C 
BRANCH   8  10
ATOM     10  N   UNL A   1      44.575  25.330  26.082  1.00  0.00    -0.329 N 
ATOM     11  C   UNL A   1      44.338  26.530  25.431  1.00  0.00     0.274 C 
ATOM     12  O   UNL A   1      43.238  26.652  24.892  1.00  0.00    -0.267 OA
ATOM     13  H   UNL A   1      43.796  24.952  26.550  1.00  0.00     0.165 HD
BRANCH  11  14
ATOM     14  C   UNL A   1      45.264  27.650  25.600  1.00  0.00     0.171 A 
ATOM     15  C   UNL A   1      46.534  30.936  26.586  1.00  0.00     0.091 C 
ATOM     16  C   UNL A   1      46.194  29.571  26.142  1.00  0.00     0.134 A 
ATOM     17  C   UNL A   1      45.475  28.535  26.686  1.00  0.00     0.082 A 
ATOM     18  O   UNL A   1      46.592  29.227  24.892  1.00  0.00    -0.361 OA
ATOM     19  N   UNL A   1      46.022  28.018  24.551  1.00  0.00    -0.074 NA
ENDBRANCH  11  14
ENDBRANCH   8  10
BRANCH   8  20
ATOM     20  C   UNL A   1      46.778  25.089  27.264  1.00  0.00     0.420 C 
ATOM     21  F   UNL A   1      47.617  26.037  26.798  1.00  0.00    -0.168 F 
ATOM     22  F   UNL A   1      46.033  25.686  28.235  1.00  0.00    -0.168 F 
ATOM     23  F   UNL A   1      47.508  24.132  27.876  1.00  0.00    -0.168 F 
ENDBRANCH   8  20
ENDBRANCH   5   8
ENDBRANCH   3   4
ENDBRANCH   2   3
ENDBRANCH   1   2
BRANCH   1  24
ATOM     24  C   UNL A   1      41.511  22.268  26.131  1.00  0.00     0.116 C 
BRANCH  24  25
ATOM     25  N   UNL A   1      40.086  22.175  25.858  1.00  0.00    -0.352 N 
ATOM     26  C   UNL A   1      39.070  23.029  26.210  1.00  0.00     0.251 C 
ATOM     27  H   UNL A   1      39.808  21.383  25.344  1.00  0.00     0.163 HD
ATOM     28  O   UNL A   1      37.902  22.697  26.033  1.00  0.00    -0.269 OA
BRANCH  26  29
ATOM     29  C   UNL A   1      39.385  24.333  26.833  1.00  0.00     0.039 A 
ATOM     30  C   UNL A   1      39.003  24.554  28.158  1.00  0.00     0.014 A 
ATOM     31  C   UNL A   1      40.062  25.325  26.121  1.00  0.00     0.014 A 
ATOM     32  C   UNL A   1      39.369  25.742  28.793  1.00  0.00     0.010 A 
ATOM     33  C   UNL A   1      40.489  26.478  26.777  1.00  0.00     0.010 A 
ATOM     34  C   UNL A   1      40.150  26.696  28.121  1.00  0.00    -0.014 A 
BRANCH  34  35
ATOM     35  C   UNL A   1      40.637  27.915  28.818  1.00  0.00     0.031 A 
ATOM     36  C   UNL A   1      42.044  27.981  29.344  1.00  0.00     0.074 A 
ATOM     37  C   UNL A   1      39.795  28.948  29.018  1.00  0.00     0.049 A 
ATOM     38  N   UNL A   1      42.635  28.948  29.997  1.00  0.00    -0.248 NA
ATOM     39  C   UNL A   1      42.890  26.797  29.124  1.00  0.00     0.031 C 
ATOM     40  C   UNL A   1      38.400  29.002  28.574  1.00  0.00     0.029 A 
ATOM     41  N   UNL A   1      39.989  30.154  29.644  1.00  0.00    -0.354 N 
ATOM     42  C   UNL A   1      43.919  28.491  30.270  1.00  0.00     0.074 A 
ATOM     43  C   UNL A   1      44.000  27.137  29.763  1.00  0.00     0.031 C 
ATOM     44  C   UNL A   1      37.880  30.195  28.905  1.00  0.00     0.029 A 
ATOM     45  C   UNL A   1      38.884  30.971  29.626  1.00  0.00     0.049 A 
ATOM     46  H   UNL A   1      40.841  30.409  30.069  1.00  0.00     0.167 HD
ATOM     47  C   UNL A   1      44.945  29.141  30.871  1.00  0.00     0.031 A 
ATOM     48  C   UNL A   1      38.698  32.205  30.131  1.00  0.00     0.031 A 
ATOM     49  C   UNL A   1      44.858  30.481  31.389  1.00  0.00     0.049 A 
ATOM     50  C   UNL A   1      39.829  32.884  30.854  1.00  0.00     0.074 A 
ATOM     51  C   UNL A   1      45.851  31.243  31.979  1.00  0.00     0.029 A 
ATOM     52  N   UNL A   1      43.707  31.256  31.391  1.00  0.00    -0.354 N 
ATOM     53  N   UNL A   1      41.053  32.458  31.049  1.00  0.00    -0.248 NA
ATOM     54  C   UNL A   1      39.550  34.208  31.424  1.00  0.00     0.031 C 
ATOM     55  C   UNL A   1      45.285  32.454  32.393  1.00  0.00     0.029 A 
ATOM     56  C   UNL A   1      43.955  32.472  32.006  1.00  0.00     0.049 A 
ATOM     57  H   UNL A   1      42.842  30.981  31.011  1.00  0.00     0.167 HD
ATOM     58  C   UNL A   1      41.700  33.473  31.745  1.00  0.00     0.074 A 
ATOM     59  C   UNL A   1      40.734  34.538  31.924  1.00  0.00     0.031 C 
ATOM     60  C   UNL A   1      42.979  33.520  32.191  1.00  0.00     0.031 A 
BRANCH  47  61
ATOM     61  C   UNL A   1      46.243  28.388  31.018  1.00  0.00    -0.014 A 
ATOM     62  C   UNL A   1      47.255  28.488  30.045  1.00  0.00     0.010 A 
ATOM     63  C   UNL A   1      46.452  27.564  32.137  1.00  0.00     0.010 A 
ATOM     64  C   UNL A   1      48.421  27.726  30.154  1.00  0.00     0.020 A 
ATOM     65  C   UNL A   1      47.631  26.824  32.267  1.00  0.00     0.020 A 
ATOM     66  C   UNL A   1      48.597  26.889  31.260  1.00  0.00     0.054 A 
BRANCH  66  67
ATOM     67  S   UNL A   1      50.107  25.890  31.365  1.00  0.00     0.124 S 
ATOM     68  O   UNL A   1      49.900  25.164  32.615  1.00  0.00    -0.237 OA
ATOM     69  O   UNL A   1      50.040  25.079  30.151  1.00  0.00    -0.237 OA
ATOM     70  O   UNL A   1      51.179  26.882  31.389  1.00  0.00    -0.744 OA
ENDBRANCH  66  67
ENDBRANCH  47  61
BRANCH  48  71
ATOM     71  C   UNL A   1      37.389  32.891  29.945  1.00  0.00    -0.014 A 
ATOM     72  C   UNL A   1      37.163  33.684  28.807  1.00  0.00     0.010 A 
ATOM     73  C   UNL A   1      36.353  32.731  30.883  1.00  0.00     0.010 A 
ATOM     74  C   UNL A   1      35.927  34.306  28.610  1.00  0.00     0.020 A 
ATOM     75  C   UNL A   1      35.108  33.330  30.678  1.00  0.00     0.020 A 
ATOM     76  C   UNL A   1      34.905  34.119  29.544  1.00  0.00     0.054 A 
BRANCH  76  77
ATOM     77  S   UNL A   1      33.287  34.878  29.229  1.00  0.00     0.124 S 
ATOM     78  O   UNL A   1      32.693  34.895  30.561  1.00  0.00    -0.237 OA
ATOM     79  O   UNL A   1      33.653  36.182  28.682  1.00  0.00    -0.237 OA
ATOM     80  O   UNL A   1      32.661  33.964  28.275  1.00  0.00    -0.744 OA
ENDBRANCH  76  77
ENDBRANCH  48  71
BRANCH  60  81
ATOM     81  C   UNL A   1      43.419  34.770  32.908  1.00  0.00    -0.014 A 
ATOM     82  C   UNL A   1      43.348  34.866  34.309  1.00  0.00     0.010 A 
ATOM     83  C   UNL A   1      43.968  35.837  32.174  1.00  0.00     0.010 A 
ATOM     84  C   UNL A   1      43.796  36.019  34.961  1.00  0.00     0.020 A 
ATOM     85  C   UNL A   1      44.443  36.979  32.825  1.00  0.00     0.020 A 
ATOM     86  C   UNL A   1      44.345  37.067  34.215  1.00  0.00     0.054 A 
BRANCH  86  87
ATOM     87  S   UNL A   1      44.973  38.525  35.091  1.00  0.00     0.124 S 
ATOM     88  O   UNL A   1      44.714  38.178  36.486  1.00  0.00    -0.237 OA
ATOM     89  O   UNL A   1      46.381  38.551  34.700  1.00  0.00    -0.237 OA
ATOM     90  O   UNL A   1      44.167  39.622  34.561  1.00  0.00    -0.744 OA
ENDBRANCH  86  87
ENDBRANCH  60  81
ENDBRANCH  34  35
ENDBRANCH  26  29
ENDBRANCH  24  25
ENDBRANCH   1  24
TORSDOF 17
ENDMDL
MODEL 2
REMARK VINA RESULT:      -9.4      4.654      7.261
REMARK SMILES Cc1cc(C(=O)N[C@](C)(C(=O)NCCCCNC(=O)c2ccc(-c3c4nc(c(-c5ccc(S(=O)(=O)[O-])cc5)c5ccc([nH]5)c(-c5ccc(S(=O)(=O)[O-])cc5)c5nc(c(-c6ccc(S(=O)(=O)[O-])cc6)c6ccc3[nH]6)C=C5)C=C4)cc2)C(F)(F)F)no1
REMARK SMILES IDX 15 1 14 2 13 3 12 4 10 5 11 6 8 8 9 9 7 10 5 11 6 12 4 14
REMARK SMILES IDX 1 15 2 16 3 17 85 18 84 19 80 20 81 21 82 22 83 23 16 24
REMARK SMILES IDX 17 25 18 26 19 28 20 29 21 30 79 31 22 32 78 33 23 34 24 35
REMARK SMILES IDX 25 36 72 37 26 38 77 39 71 40 73 41 27 42 76 43 70 44 69 45
REMARK SMILES IDX 28 47 58 48 39 49 57 50 40 51 43 52 56 53 74 54 41 55 42 56
REMARK SMILES IDX 55 58 75 59 44 60 29 61 30 62 38 63 31 64 37 65 32 66 33 67
REMARK SMILES IDX 34 68 35 69 36 70 59 71 60 72 68 73 61 74 67 75 62 76 63 77
REMARK SMILES IDX 64 78 65 79 66 80 45 81 46 82 54 83 47 84 53 85 48 86 49 87
REMARK SMILES IDX 50 88 51 89 52 90
REMARK H PARENT 12 7 7 13 17 27 73 46 43 57
REMARK Flexibility Score: inf
ROOT
ATOM      1  C   UNL A   1      34.841  23.822  25.310  1.00  0.00     0.023 C 
ENDROOT
BRANCH   1   2
ATOM      2  C   UNL A   1      34.508  24.419  23.939  1.00  0.00     0.023 C 
BRANCH   2   3
ATOM      3  C   UNL A   1      33.308  25.362  23.937  1.00  0.00     0.116 C 
BRANCH   3   4
ATOM      4  N   UNL A   1      33.676  26.688  23.464  1.00  0.00    -0.354 N 
ATOM      5  C   UNL A   1      33.372  27.922  23.964  1.00  0.00     0.254 C 
ATOM      6  O   UNL A   1      33.796  28.889  23.328  1.00  0.00    -0.272 OA
ATOM      7  H   UNL A   1      34.232  26.696  22.652  1.00  0.00     0.163 HD
BRANCH   5   8
ATOM      8  C   UNL A   1      32.451  28.085  25.184  1.00  0.00     0.212 C 
ATOM      9  C   UNL A   1      32.261  29.612  25.392  1.00  0.00     0.056 C 
BRANCH   8  10
ATOM     10  N   UNL A   1      31.091  27.460  25.034  1.00  0.00    -0.329 N 
ATOM     11  C   UNL A   1      30.250  27.399  23.936  1.00  0.00     0.274 C 
ATOM     12  O   UNL A   1      29.613  26.354  23.792  1.00  0.00    -0.267 OA
ATOM     13  H   UNL A   1      30.744  27.025  25.846  1.00  0.00     0.165 HD
BRANCH  11  14
ATOM     14  C   UNL A   1      29.977  28.604  23.153  1.00  0.00     0.171 A 
ATOM     15  C   UNL A   1      28.114  31.358  21.627  1.00  0.00     0.091 C 
ATOM     16  C   UNL A   1      29.016  30.332  22.184  1.00  0.00     0.134 A 
ATOM     17  C   UNL A   1      29.127  29.710  23.403  1.00  0.00     0.082 A 
ATOM     18  O   UNL A   1      29.915  29.789  21.325  1.00  0.00    -0.361 OA
ATOM     19  N   UNL A   1      30.529  28.713  21.931  1.00  0.00    -0.074 NA
ENDBRANCH  11  14
ENDBRANCH   8  10
BRANCH   8  20
ATOM     20  C   UNL A   1      33.179  27.527  26.429  1.00  0.00     0.420 C 
ATOM     21  F   UNL A   1      32.859  28.164  27.575  1.00  0.00    -0.168 F 
ATOM     22  F   UNL A   1      32.823  26.224  26.607  1.00  0.00    -0.168 F 
ATOM     23  F   UNL A   1      34.523  27.541  26.291  1.00  0.00    -0.168 F 
ENDBRANCH   8  20
ENDBRANCH   5   8
ENDBRANCH   3   4
ENDBRANCH   2   3
ENDBRANCH   1   2
BRANCH   1  24
ATOM     24  C   UNL A   1      36.212  24.205  25.860  1.00  0.00     0.116 C 
BRANCH  24  25
ATOM     25  N   UNL A   1      37.163  23.108  25.798  1.00  0.00    -0.352 N 
ATOM     26  C   UNL A   1      38.492  23.081  26.145  1.00  0.00     0.251 C 
ATOM     27  H   UNL A   1      36.802  22.258  25.459  1.00  0.00     0.163 HD
ATOM     28  O   UNL A   1      39.178  22.103  25.864  1.00  0.00    -0.269 OA
BRANCH  26  29
ATOM     29  C   UNL A   1      39.100  24.246  26.823  1.00  0.00     0.039 A 
ATOM     30  C   UNL A   1      39.888  25.123  26.075  1.00  0.00     0.014 A 
ATOM     31  C   UNL A   1      38.887  24.477  28.184  1.00  0.00     0.014 A 
ATOM     32  C   UNL A   1      40.398  26.276  26.675  1.00  0.00     0.010 A 
ATOM     33  C   UNL A   1      39.335  25.663  28.763  1.00  0.00     0.010 A 
ATOM     34  C   UNL A   1      40.092  26.577  28.012  1.00  0.00    -0.014 A 
BRANCH  34  35
ATOM     35  C   UNL A   1      40.538  27.851  28.633  1.00  0.00     0.031 A 
ATOM     36  C   UNL A   1      41.946  27.998  29.141  1.00  0.00     0.074 A 
ATOM     37  C   UNL A   1      39.660  28.862  28.781  1.00  0.00     0.049 A 
ATOM     38  N   UNL A   1      42.505  29.023  29.732  1.00  0.00    -0.248 NA
ATOM     39  C   UNL A   1      42.834  26.836  28.982  1.00  0.00     0.031 C 
ATOM     40  C   UNL A   1      38.261  28.840  28.348  1.00  0.00     0.029 A 
ATOM     41  N   UNL A   1      39.814  30.108  29.336  1.00  0.00    -0.354 N 
ATOM     42  C   UNL A   1      43.807  28.630  30.019  1.00  0.00     0.074 A 
ATOM     43  C   UNL A   1      43.934  27.252  29.589  1.00  0.00     0.031 C 
ATOM     44  C   UNL A   1      37.699  30.030  28.615  1.00  0.00     0.029 A 
ATOM     45  C   UNL A   1      38.679  30.882  29.280  1.00  0.00     0.049 A 
ATOM     46  H   UNL A   1      40.659  30.419  29.737  1.00  0.00     0.167 HD
ATOM     47  C   UNL A   1      44.812  29.351  30.572  1.00  0.00     0.031 A 
ATOM     48  C   UNL A   1      38.450  32.136  29.716  1.00  0.00     0.031 A 
ATOM     49  C   UNL A   1      44.680  30.714  31.013  1.00  0.00     0.049 A 
ATOM     50  C   UNL A   1      39.561  32.896  30.388  1.00  0.00     0.074 A 
ATOM     51  C   UNL A   1      45.648  31.545  31.549  1.00  0.00     0.029 A 
ATOM     52  N   UNL A   1      43.501  31.445  30.981  1.00  0.00    -0.354 N 
ATOM     53  N   UNL A   1      40.802  32.527  30.596  1.00  0.00    -0.248 NA
ATOM     54  C   UNL A   1      39.237  34.240  30.884  1.00  0.00     0.031 C 
ATOM     55  C   UNL A   1      45.041  32.756  31.898  1.00  0.00     0.029 A 
ATOM     56  C   UNL A   1      43.708  32.703  31.523  1.00  0.00     0.049 A 
ATOM     57  H   UNL A   1      42.644  31.117  30.626  1.00  0.00     0.167 HD
ATOM     58  C   UNL A   1      41.415  33.604  31.226  1.00  0.00     0.074 A 
ATOM     59  C   UNL A   1      40.412  34.641  31.353  1.00  0.00     0.031 C 
ATOM     60  C   UNL A   1      42.695  33.723  31.657  1.00  0.00     0.031 A 
BRANCH  47  61
ATOM     61  C   UNL A   1      46.138  28.656  30.749  1.00  0.00    -0.014 A 
ATOM     62  C   UNL A   1      47.106  28.664  29.727  1.00  0.00     0.010 A 
ATOM     63  C   UNL A   1      46.420  27.979  31.949  1.00  0.00     0.010 A 
ATOM     64  C   UNL A   1      48.299  27.951  29.875  1.00  0.00     0.020 A 
ATOM     65  C   UNL A   1      47.626  27.291  32.114  1.00  0.00     0.020 A 
ATOM     66  C   UNL A   1      48.547  27.260  31.064  1.00  0.00     0.054 A 
BRANCH  66  67
ATOM     67  S   UNL A   1      50.090  26.321  31.220  1.00  0.00     0.124 S 
ATOM     68  O   UNL A   1      50.585  26.327  29.846  1.00  0.00    -0.237 OA
ATOM     69  O   UNL A   1      50.860  27.125  32.167  1.00  0.00    -0.237 OA
ATOM     70  O   UNL A   1      49.656  25.019  31.721  1.00  0.00    -0.744 OA
ENDBRANCH  66  67
ENDBRANCH  47  61
BRANCH  48  71
ATOM     71  C   UNL A   1      37.116  32.761  29.503  1.00  0.00    -0.014 A 
ATOM     72  C   UNL A   1      36.149  32.726  30.522  1.00  0.00     0.010 A 
ATOM     73  C   UNL A   1      36.815  33.420  28.297  1.00  0.00     0.010 A 
ATOM     74  C   UNL A   1      34.905  33.337  30.340  1.00  0.00     0.020 A 
ATOM     75  C   UNL A   1      35.582  34.054  28.121  1.00  0.00     0.020 A 
ATOM     76  C   UNL A   1      34.632  34.003  29.143  1.00  0.00     0.054 A 
BRANCH  76  77
ATOM     77  S   UNL A   1      33.038  34.850  28.959  1.00  0.00     0.124 S 
ATOM     78  O   UNL A   1      32.509  34.802  30.317  1.00  0.00    -0.237 OA
ATOM     79  O   UNL A   1      33.438  36.171  28.481  1.00  0.00    -0.237 OA
ATOM     80  O   UNL A   1      32.327  34.030  27.979  1.00  0.00    -0.744 OA
ENDBRANCH  76  77
ENDBRANCH  48  71
BRANCH  60  81
ATOM     81  C   UNL A   1      43.093  35.027  32.297  1.00  0.00    -0.014 A 
ATOM     82  C   UNL A   1      43.722  36.041  31.552  1.00  0.00     0.010 A 
ATOM     83  C   UNL A   1      42.776  35.266  33.647  1.00  0.00     0.010 A 
ATOM     84  C   UNL A   1      44.049  37.259  32.152  1.00  0.00     0.020 A 
ATOM     85  C   UNL A   1      43.075  36.494  34.243  1.00  0.00     0.020 A 
ATOM     86  C   UNL A   1      43.720  37.480  33.494  1.00  0.00     0.054 A 
BRANCH  86  87
ATOM     87  S   UNL A   1      44.102  39.093  34.231  1.00  0.00     0.124 S 
ATOM     88  O   UNL A   1      44.130  38.778  35.657  1.00  0.00    -0.237 OA
ATOM     89  O   UNL A   1      45.395  39.419  33.634  1.00  0.00    -0.237 OA
ATOM     90  O   UNL A   1      42.994  39.942  33.802  1.00  0.00    -0.744 OA
ENDBRANCH  86  87
ENDBRANCH  60  81
ENDBRANCH  34  35
ENDBRANCH  26  29
ENDBRANCH  24  25
ENDBRANCH   1  24
TORSDOF 17
ENDMDL
MODEL 3
REMARK VINA RESULT:      -9.4      4.286     10.934
REMARK SMILES Cc1cc(C(=O)N[C@](C)(C(=O)NCCCCNC(=O)c2ccc(-c3c4nc(c(-c5ccc(S(=O)(=O)[O-])cc5)c5ccc([nH]5)c(-c5ccc(S(=O)(=O)[O-])cc5)c5nc(c(-c6ccc(S(=O)(=O)[O-])cc6)c6ccc3[nH]6)C=C5)C=C4)cc2)C(F)(F)F)no1
REMARK SMILES IDX 15 1 14 2 13 3 12 4 10 5 11 6 8 8 9 9 7 10 5 11 6 12 4 14
REMARK SMILES IDX 1 15 2 16 3 17 85 18 84 19 80 20 81 21 82 22 83 23 16 24
REMARK SMILES IDX 17 25 18 26 19 28 20 29 21 30 79 31 22 32 78 33 23 34 24 35
REMARK SMILES IDX 25 36 72 37 26 38 77 39 71 40 73 41 27 42 76 43 70 44 69 45
REMARK SMILES IDX 28 47 58 48 39 49 57 50 40 51 43 52 56 53 74 54 41 55 42 56
REMARK SMILES IDX 55 58 75 59 44 60 29 61 30 62 38 63 31 64 37 65 32 66 33 67
REMARK SMILES IDX 34 68 35 69 36 70 59 71 60 72 68 73 61 74 67 75 62 76 63 77
REMARK SMILES IDX 64 78 65 79 66 80 45 81 46 82 54 83 47 84 53 85 48 86 49 87
REMARK SMILES IDX 50 88 51 89 52 90
REMARK H PARENT 12 7 7 13 17 27 73 46 43 57
REMARK Flexibility Score: inf
ROOT
ATOM      1  C   UNL A   1      33.168  26.992  25.569  1.00  0.00     0.023 C 
ENDROOT
BRANCH   1   2
ATOM      2  C   UNL A   1      32.496  25.819  26.289  1.00  0.00     0.023 C 
BRANCH   2   3
ATOM      3  C   UNL A   1      32.700  24.465  25.613  1.00  0.00     0.116 C 
BRANCH   3   4
ATOM      4  N   UNL A   1      33.198  23.473  26.552  1.00  0.00    -0.354 N 
ATOM      5  C   UNL A   1      34.216  22.570  26.429  1.00  0.00     0.254 C 
ATOM      6  O   UNL A   1      34.396  21.816  27.388  1.00  0.00    -0.272 OA
ATOM      7  H   UNL A   1      32.725  23.447  27.415  1.00  0.00     0.163 HD
BRANCH   5   8
ATOM      8  C   UNL A   1      35.006  22.431  25.118  1.00  0.00     0.212 C 
ATOM      9  C   UNL A   1      36.026  21.281  25.338  1.00  0.00     0.056 C 
BRANCH   8  10
ATOM     10  N   UNL A   1      34.172  22.092  23.913  1.00  0.00    -0.329 N 
ATOM     11  C   UNL A   1      33.048  21.291  23.798  1.00  0.00     0.274 C 
ATOM     12  O   UNL A   1      32.181  21.675  23.014  1.00  0.00    -0.267 OA
ATOM     13  H   UNL A   1      34.473  22.506  23.072  1.00  0.00     0.165 HD
BRANCH  11  14
ATOM     14  C   UNL A   1      33.032  19.960  24.404  1.00  0.00     0.171 A 
ATOM     15  C   UNL A   1      33.134  16.313  24.682  1.00  0.00     0.091 C 
ATOM     16  C   UNL A   1      33.100  17.786  24.753  1.00  0.00     0.134 A 
ATOM     17  C   UNL A   1      33.788  18.795  24.123  1.00  0.00     0.082 A 
ATOM     18  O   UNL A   1      32.144  18.330  25.546  1.00  0.00    -0.361 OA
ATOM     19  N   UNL A   1      32.105  19.693  25.342  1.00  0.00    -0.074 NA
ENDBRANCH  11  14
ENDBRANCH   8  10
BRANCH   8  20
ATOM     20  C   UNL A   1      35.808  23.732  24.885  1.00  0.00     0.420 C 
ATOM     21  F   UNL A   1      36.999  23.535  24.284  1.00  0.00    -0.168 F 
ATOM     22  F   UNL A   1      35.097  24.551  24.060  1.00  0.00    -0.168 F 
ATOM     23  F   UNL A   1      36.011  24.425  26.027  1.00  0.00    -0.168 F 
ENDBRANCH   8  20
ENDBRANCH   5   8
ENDBRANCH   3   4
ENDBRANCH   2   3
ENDBRANCH   1   2
BRANCH   1  24
ATOM     24  C   UNL A   1      34.199  27.748  26.403  1.00  0.00     0.116 C 
BRANCH  24  25
ATOM     25  N   UNL A   1      33.740  29.071  26.792  1.00  0.00    -0.352 N 
ATOM     26  C   UNL A   1      34.367  30.027  27.552  1.00  0.00     0.251 C 
ATOM     27  H   UNL A   1      32.847  29.319  26.461  1.00  0.00     0.163 HD
ATOM     28  O   UNL A   1      33.749  31.023  27.916  1.00  0.00    -0.269 OA
BRANCH  26  29
ATOM     29  C   UNL A   1      35.776  29.836  27.961  1.00  0.00     0.039 A 
ATOM     30  C   UNL A   1      36.045  29.399  29.259  1.00  0.00     0.014 A 
ATOM     31  C   UNL A   1      36.822  30.077  27.067  1.00  0.00     0.014 A 
ATOM     32  C   UNL A   1      37.361  29.127  29.637  1.00  0.00     0.010 A 
ATOM     33  C   UNL A   1      38.126  29.737  27.422  1.00  0.00     0.010 A 
ATOM     34  C   UNL A   1      38.408  29.254  28.710  1.00  0.00    -0.014 A 
BRANCH  34  35
ATOM     35  C   UNL A   1      39.798  28.867  29.065  1.00  0.00     0.031 A 
ATOM     36  C   UNL A   1      40.697  29.835  29.783  1.00  0.00     0.074 A 
ATOM     37  C   UNL A   1      40.266  27.658  28.699  1.00  0.00     0.049 A 
ATOM     38  N   UNL A   1      41.944  29.683  30.153  1.00  0.00    -0.248 NA
ATOM     39  C   UNL A   1      40.128  31.151  30.113  1.00  0.00     0.031 C 
ATOM     40  C   UNL A   1      39.501  26.635  27.982  1.00  0.00     0.029 A 
ATOM     41  N   UNL A   1      41.499  27.082  28.881  1.00  0.00    -0.354 N 
ATOM     42  C   UNL A   1      42.309  30.882  30.752  1.00  0.00     0.074 A 
ATOM     43  C   UNL A   1      41.171  31.770  30.644  1.00  0.00     0.031 C 
ATOM     44  C   UNL A   1      40.268  25.544  27.823  1.00  0.00     0.029 A 
ATOM     45  C   UNL A   1      41.591  25.805  28.382  1.00  0.00     0.049 A 
ATOM     46  H   UNL A   1      42.248  27.541  29.327  1.00  0.00     0.167 HD
ATOM     47  C   UNL A   1      43.478  31.211  31.354  1.00  0.00     0.031 A 
ATOM     48  C   UNL A   1      42.623  24.939  28.373  1.00  0.00     0.031 A 
ATOM     49  C   UNL A   1      44.614  30.333  31.447  1.00  0.00     0.049 A 
ATOM     50  C   UNL A   1      43.933  25.348  28.988  1.00  0.00     0.074 A 
ATOM     51  C   UNL A   1      45.829  30.557  32.071  1.00  0.00     0.029 A 
ATOM     52  N   UNL A   1      44.681  29.065  30.887  1.00  0.00    -0.354 N 
ATOM     53  N   UNL A   1      44.240  26.465  29.603  1.00  0.00    -0.248 NA
ATOM     54  C   UNL A   1      45.034  24.380  28.905  1.00  0.00     0.031 C 
ATOM     55  C   UNL A   1      46.652  29.450  31.836  1.00  0.00     0.029 A 
ATOM     56  C   UNL A   1      45.929  28.510  31.119  1.00  0.00     0.049 A 
ATOM     57  H   UNL A   1      43.950  28.625  30.398  1.00  0.00     0.167 HD
ATOM     58  C   UNL A   1      45.564  26.325  30.002  1.00  0.00     0.074 A 
ATOM     59  C   UNL A   1      45.994  25.010  29.571  1.00  0.00     0.031 C 
ATOM     60  C   UNL A   1      46.351  27.204  30.671  1.00  0.00     0.031 A 
BRANCH  47  61
ATOM     61  C   UNL A   1      43.582  32.597  31.938  1.00  0.00    -0.014 A 
ATOM     62  C   UNL A   1      44.041  33.680  31.164  1.00  0.00     0.010 A 
ATOM     63  C   UNL A   1      43.224  32.822  33.279  1.00  0.00     0.010 A 
ATOM     64  C   UNL A   1      44.206  34.943  31.739  1.00  0.00     0.020 A 
ATOM     65  C   UNL A   1      43.356  34.091  33.849  1.00  0.00     0.020 A 
ATOM     66  C   UNL A   1      43.873  35.138  33.082  1.00  0.00     0.054 A 
BRANCH  66  67
ATOM     67  S   UNL A   1      44.121  36.780  33.811  1.00  0.00     0.124 S 
ATOM     68  O   UNL A   1      44.850  37.472  32.751  1.00  0.00    -0.237 OA
ATOM     69  O   UNL A   1      42.752  37.241  34.034  1.00  0.00    -0.237 OA
ATOM     70  O   UNL A   1      44.889  36.509  35.023  1.00  0.00    -0.744 OA
ENDBRANCH  66  67
ENDBRANCH  47  61
BRANCH  48  71
ATOM     71  C   UNL A   1      42.446  23.583  27.783  1.00  0.00    -0.014 A 
ATOM     72  C   UNL A   1      42.915  23.311  26.486  1.00  0.00     0.010 A 
ATOM     73  C   UNL A   1      41.839  22.551  28.521  1.00  0.00     0.010 A 
ATOM     74  C   UNL A   1      42.779  22.034  25.937  1.00  0.00     0.020 A 
ATOM     75  C   UNL A   1      41.725  21.266  27.985  1.00  0.00     0.020 A 
ATOM     76  C   UNL A   1      42.191  21.017  26.693  1.00  0.00     0.054 A 
BRANCH  76  77
ATOM     77  S   UNL A   1      42.092  19.349  25.985  1.00  0.00     0.124 S 
ATOM     78  O   UNL A   1      42.939  19.468  24.804  1.00  0.00    -0.237 OA
ATOM     79  O   UNL A   1      42.623  18.518  27.064  1.00  0.00    -0.237 OA
ATOM     80  O   UNL A   1      40.665  19.174  25.720  1.00  0.00    -0.744 OA
ENDBRANCH  76  77
ENDBRANCH  48  71
BRANCH  60  81
ATOM     81  C   UNL A   1      47.758  26.772  30.990  1.00  0.00    -0.014 A 
ATOM     82  C   UNL A   1      48.832  27.117  30.150  1.00  0.00     0.010 A 
ATOM     83  C   UNL A   1      48.016  26.065  32.178  1.00  0.00     0.010 A 
ATOM     84  C   UNL A   1      50.136  26.741  30.483  1.00  0.00     0.020 A 
ATOM     85  C   UNL A   1      49.323  25.712  32.527  1.00  0.00     0.020 A 
ATOM     86  C   UNL A   1      50.375  26.044  31.671  1.00  0.00     0.054 A 
BRANCH  86  87
ATOM     87  S   UNL A   1      52.084  25.621  32.107  1.00  0.00     0.124 S 
ATOM     88  O   UNL A   1      51.982  24.192  32.391  1.00  0.00    -0.237 OA
ATOM     89  O   UNL A   1      52.818  25.970  30.893  1.00  0.00    -0.237 OA
ATOM     90  O   UNL A   1      52.367  26.468  33.262  1.00  0.00    -0.744 OA
ENDBRANCH  86  87
ENDBRANCH  60  81
ENDBRANCH  34  35
ENDBRANCH  26  29
ENDBRANCH  24  25
ENDBRANCH   1  24
TORSDOF 17
ENDMDL
