MODEL 1
REMARK VINA RESULT:     -12.8      0.000      0.000
REMARK SMILES O=C(NCCCCNC(=O)c1cncc(NC(=O)c2cn(C3C[NH2+]C3)nn2)c1)c1ccc(-c2c3nc(c(-c4ccc(S(=O)(=O)[O-])cc4)c4ccc([nH]4)c(-c4ccc(S(=O)(=O)[O-])cc4)c4nc(c(-c5ccc(S(=O)(=O)[O-])cc5)c5ccc2[nH]5)C=C4)C=C3)cc1
REMARK SMILES IDX 5 1 4 2 3 3 1 4 2 5 29 7 30 8 88 9 31 10 87 11 32 12 33 13
REMARK SMILES IDX 34 14 81 15 35 16 86 17 80 18 82 19 36 20 85 21 79 22 78 23
REMARK SMILES IDX 37 25 67 26 48 27 66 28 49 29 52 30 65 31 83 32 50 33 51 34
REMARK SMILES IDX 64 36 84 37 53 38 38 39 39 40 47 41 40 42 46 43 41 44 42 45
REMARK SMILES IDX 43 46 44 47 45 48 68 49 69 50 77 51 70 52 76 53 71 54 72 55
REMARK SMILES IDX 73 56 74 57 75 58 54 59 55 60 63 61 56 62 62 63 57 64 58 65
REMARK SMILES IDX 59 66 60 67 61 68 6 69 7 70 8 71 9 72 10 74 11 75 12 76
REMARK SMILES IDX 28 77 13 78 15 79 14 80 16 81 17 82 18 84 19 85 20 86 27 87
REMARK SMILES IDX 21 88 26 89 22 90 23 91 25 92 24 93
REMARK H PARENT 3 6 82 24 52 35 8 73 16 83 24 94 24 95
REMARK Flexibility Score: inf
ROOT
ATOM      1  C   UNL A   1      36.019  21.545  24.905  1.00  0.00     0.023 C 
ENDROOT
BRANCH   1   2
ATOM      2  C   UNL A   1      37.351  22.282  24.773  1.00  0.00     0.116 C 
BRANCH   2   3
ATOM      3  N   UNL A   1      38.489  21.558  25.301  1.00  0.00    -0.352 N 
ATOM      4  O   UNL A   1      40.194  20.876  26.511  1.00  0.00    -0.269 OA
ATOM      5  C   UNL A   1      39.456  21.825  26.229  1.00  0.00     0.251 C 
ATOM      6  H   UNL A   1      38.588  20.666  24.898  1.00  0.00     0.163 HD
BRANCH   5   7
ATOM      7  C   UNL A   1      39.703  23.146  26.877  1.00  0.00     0.039 A 
ATOM      8  C   UNL A   1      38.907  24.284  26.749  1.00  0.00     0.014 A 
ATOM      9  C   UNL A   1      40.867  23.234  27.667  1.00  0.00     0.014 A 
ATOM     10  C   UNL A   1      39.291  25.490  27.338  1.00  0.00     0.010 A 
ATOM     11  C   UNL A   1      41.247  24.431  28.270  1.00  0.00     0.010 A 
ATOM     12  C   UNL A   1      40.472  25.571  28.081  1.00  0.00    -0.014 A 
BRANCH  12  13
ATOM     13  C   UNL A   1      40.800  26.844  28.721  1.00  0.00     0.031 A 
ATOM     14  C   UNL A   1      41.957  27.591  28.143  1.00  0.00     0.074 A 
ATOM     15  C   UNL A   1      40.041  27.426  29.671  1.00  0.00     0.049 A 
ATOM     16  N   UNL A   1      43.058  27.952  28.721  1.00  0.00    -0.248 NA
ATOM     17  C   UNL A   1      41.897  27.927  26.712  1.00  0.00     0.031 C 
ATOM     18  C   UNL A   1      38.710  27.024  30.132  1.00  0.00     0.029 A 
ATOM     19  N   UNL A   1      40.266  28.590  30.347  1.00  0.00    -0.354 N 
ATOM     20  C   UNL A   1      43.764  28.705  27.783  1.00  0.00     0.074 A 
ATOM     21  C   UNL A   1      43.054  28.564  26.536  1.00  0.00     0.031 C 
ATOM     22  C   UNL A   1      38.157  28.043  30.827  1.00  0.00     0.029 A 
ATOM     23  C   UNL A   1      39.142  29.101  30.981  1.00  0.00     0.049 A 
ATOM     24  H   UNL A   1      41.147  29.029  30.383  1.00  0.00     0.167 HD
ATOM     25  C   UNL A   1      44.791  29.535  28.120  1.00  0.00     0.031 A 
ATOM     26  C   UNL A   1      39.006  30.332  31.531  1.00  0.00     0.031 A 
ATOM     27  C   UNL A   1      45.289  29.282  29.443  1.00  0.00     0.049 A 
ATOM     28  C   UNL A   1      40.364  30.865  31.790  1.00  0.00     0.074 A 
ATOM     29  C   UNL A   1      45.884  28.212  30.078  1.00  0.00     0.029 A 
ATOM     30  N   UNL A   1      44.908  30.147  30.440  1.00  0.00    -0.354 N 
ATOM     31  N   UNL A   1      41.186  30.365  32.669  1.00  0.00    -0.248 NA
ATOM     32  C   UNL A   1      40.969  31.739  30.798  1.00  0.00     0.031 C 
ATOM     33  C   UNL A   1      45.404  28.265  31.419  1.00  0.00     0.029 A 
ATOM     34  C   UNL A   1      44.573  29.383  31.526  1.00  0.00     0.049 A 
ATOM     35  H   UNL A   1      44.879  31.130  30.384  1.00  0.00     0.167 HD
ATOM     36  C   UNL A   1      42.446  30.523  32.112  1.00  0.00     0.074 A 
ATOM     37  C   UNL A   1      42.258  31.471  31.018  1.00  0.00     0.031 C 
ATOM     38  C   UNL A   1      43.469  29.672  32.418  1.00  0.00     0.031 A 
BRANCH  25  39
ATOM     39  C   UNL A   1      45.132  30.808  27.381  1.00  0.00    -0.014 A 
ATOM     40  C   UNL A   1      46.471  31.045  27.004  1.00  0.00     0.010 A 
ATOM     41  C   UNL A   1      44.243  31.899  27.302  1.00  0.00     0.010 A 
ATOM     42  C   UNL A   1      46.912  32.327  26.645  1.00  0.00     0.020 A 
ATOM     43  C   UNL A   1      44.663  33.171  26.903  1.00  0.00     0.020 A 
ATOM     44  C   UNL A   1      46.005  33.386  26.618  1.00  0.00     0.054 A 
BRANCH  44  45
ATOM     45  S   UNL A   1      46.608  35.064  26.298  1.00  0.00     0.124 S 
ATOM     46  O   UNL A   1      47.299  34.893  25.024  1.00  0.00    -0.237 OA
ATOM     47  O   UNL A   1      45.370  35.836  26.249  1.00  0.00    -0.237 OA
ATOM     48  O   UNL A   1      47.468  35.343  27.446  1.00  0.00    -0.744 OA
ENDBRANCH  44  45
ENDBRANCH  25  39
BRANCH  26  49
ATOM     49  C   UNL A   1      37.792  31.186  31.542  1.00  0.00    -0.014 A 
ATOM     50  C   UNL A   1      36.876  31.140  32.610  1.00  0.00     0.010 A 
ATOM     51  C   UNL A   1      37.677  32.252  30.625  1.00  0.00     0.010 A 
ATOM     52  C   UNL A   1      35.915  32.152  32.781  1.00  0.00     0.020 A 
ATOM     53  C   UNL A   1      36.718  33.257  30.784  1.00  0.00     0.020 A 
ATOM     54  C   UNL A   1      35.856  33.215  31.875  1.00  0.00     0.054 A 
BRANCH  54  55
ATOM     55  S   UNL A   1      34.731  34.605  32.197  1.00  0.00     0.124 S 
ATOM     56  O   UNL A   1      35.570  35.511  32.974  1.00  0.00    -0.237 OA
ATOM     57  O   UNL A   1      34.390  35.058  30.850  1.00  0.00    -0.237 OA
ATOM     58  O   UNL A   1      33.629  33.992  32.936  1.00  0.00    -0.744 OA
ENDBRANCH  54  55
ENDBRANCH  26  49
BRANCH  38  59
ATOM     59  C   UNL A   1      43.319  28.750  33.603  1.00  0.00    -0.014 A 
ATOM     60  C   UNL A   1      43.762  29.080  34.898  1.00  0.00     0.010 A 
ATOM     61  C   UNL A   1      42.531  27.596  33.436  1.00  0.00     0.010 A 
ATOM     62  C   UNL A   1      43.427  28.274  35.996  1.00  0.00     0.020 A 
ATOM     63  C   UNL A   1      42.180  26.800  34.528  1.00  0.00     0.020 A 
ATOM     64  C   UNL A   1      42.629  27.142  35.805  1.00  0.00     0.054 A 
BRANCH  64  65
ATOM     65  S   UNL A   1      42.109  26.165  37.243  1.00  0.00     0.124 S 
ATOM     66  O   UNL A   1      43.143  26.475  38.227  1.00  0.00    -0.237 OA
ATOM     67  O   UNL A   1      40.781  26.699  37.536  1.00  0.00    -0.237 OA
ATOM     68  O   UNL A   1      42.118  24.788  36.751  1.00  0.00    -0.744 OA
ENDBRANCH  64  65
ENDBRANCH  38  59
ENDBRANCH  12  13
ENDBRANCH   5   7
ENDBRANCH   2   3
ENDBRANCH   1   2
BRANCH   1  69
ATOM     69  C   UNL A   1      35.177  21.906  26.133  1.00  0.00     0.023 C 
BRANCH  69  70
ATOM     70  C   UNL A   1      33.735  21.402  26.135  1.00  0.00     0.116 C 
BRANCH  70  71
ATOM     71  N   UNL A   1      32.855  22.212  26.958  1.00  0.00    -0.352 N 
ATOM     72  C   UNL A   1      32.101  23.315  26.660  1.00  0.00     0.252 C 
ATOM     73  H   UNL A   1      32.790  21.916  27.895  1.00  0.00     0.163 HD
ATOM     74  O   UNL A   1      31.535  23.917  27.570  1.00  0.00    -0.269 OA
BRANCH  72  75
ATOM     75  C   UNL A   1      31.938  23.808  25.282  1.00  0.00     0.060 A 
ATOM     76  C   UNL A   1      30.869  23.317  24.546  1.00  0.00     0.125 A 
ATOM     77  C   UNL A   1      32.845  24.661  24.646  1.00  0.00     0.043 A 
ATOM     78  N   UNL A   1      30.666  23.606  23.239  1.00  0.00    -0.262 NA
ATOM     79  C   UNL A   1      32.619  25.057  23.325  1.00  0.00     0.060 A 
ATOM     80  C   UNL A   1      31.562  24.439  22.660  1.00  0.00     0.137 A 
BRANCH  79  81
ATOM     81  N   UNL A   1      33.480  26.030  22.775  1.00  0.00    -0.319 N 
ATOM     82  C   UNL A   1      33.320  27.392  22.560  1.00  0.00     0.277 C 
ATOM     83  H   UNL A   1      34.355  25.678  22.492  1.00  0.00     0.170 HD
ATOM     84  O   UNL A   1      34.174  27.988  21.918  1.00  0.00    -0.267 OA
BRANCH  82  85
ATOM     85  C   UNL A   1      32.177  28.073  23.144  1.00  0.00     0.170 A 
ATOM     86  C   UNL A   1      30.874  28.114  22.683  1.00  0.00     0.145 A 
ATOM     87  N   UNL A   1      32.286  28.887  24.243  1.00  0.00    -0.125 NA
ATOM     88  N   UNL A   1      30.304  29.125  23.412  1.00  0.00    -0.237 N 
ATOM     89  N   UNL A   1      31.133  29.526  24.396  1.00  0.00    -0.066 NA
BRANCH  88  90
ATOM     90  C   UNL A   1      29.104  29.850  23.121  1.00  0.00     0.218 C 
ATOM     91  C   UNL A   1      29.155  30.667  21.807  1.00  0.00     0.294 C 
ATOM     92  C   UNL A   1      28.036  29.026  22.376  1.00  0.00     0.294 C 
ATOM     93  N   UNL A   1      27.787  30.194  21.504  1.00  0.00    -0.342 N 
ATOM     94  H   UNL A   1      27.629  29.963  20.523  1.00  0.00     0.346 HD
ATOM     95  H   UNL A   1      26.977  30.797  21.647  1.00  0.00     0.346 HD
ENDBRANCH  88  90
ENDBRANCH  82  85
ENDBRANCH  79  81
ENDBRANCH  72  75
ENDBRANCH  70  71
ENDBRANCH  69  70
ENDBRANCH   1  69
TORSDOF 17
ENDMDL
MODEL 2
REMARK VINA RESULT:     -12.6      1.417      2.109
REMARK SMILES O=C(NCCCCNC(=O)c1cncc(NC(=O)c2cn(C3C[NH2+]C3)nn2)c1)c1ccc(-c2c3nc(c(-c4ccc(S(=O)(=O)[O-])cc4)c4ccc([nH]4)c(-c4ccc(S(=O)(=O)[O-])cc4)c4nc(c(-c5ccc(S(=O)(=O)[O-])cc5)c5ccc2[nH]5)C=C4)C=C3)cc1
REMARK SMILES IDX 5 1 4 2 3 3 1 4 2 5 29 7 30 8 88 9 31 10 87 11 32 12 33 13
REMARK SMILES IDX 34 14 81 15 35 16 86 17 80 18 82 19 36 20 85 21 79 22 78 23
REMARK SMILES IDX 37 25 67 26 48 27 66 28 49 29 52 30 65 31 83 32 50 33 51 34
REMARK SMILES IDX 64 36 84 37 53 38 38 39 39 40 47 41 40 42 46 43 41 44 42 45
REMARK SMILES IDX 43 46 44 47 45 48 68 49 69 50 77 51 70 52 76 53 71 54 72 55
REMARK SMILES IDX 73 56 74 57 75 58 54 59 55 60 63 61 56 62 62 63 57 64 58 65
REMARK SMILES IDX 59 66 60 67 61 68 6 69 7 70 8 71 9 72 10 74 11 75 12 76
REMARK SMILES IDX 28 77 13 78 15 79 14 80 16 81 17 82 18 84 19 85 20 86 27 87
REMARK SMILES IDX 21 88 26 89 22 90 23 91 25 92 24 93
REMARK H PARENT 3 6 82 24 52 35 8 73 16 83 24 94 24 95
REMARK Flexibility Score: inf
ROOT
ATOM      1  C   UNL A   1      36.888  22.380  23.670  1.00  0.00     0.023 C 
ENDROOT
BRANCH   1   2
ATOM      2  C   UNL A   1      37.192  22.240  25.161  1.00  0.00     0.116 C 
BRANCH   2   3
ATOM      3  N   UNL A   1      38.462  21.611  25.455  1.00  0.00    -0.352 N 
ATOM      4  O   UNL A   1      40.405  21.057  26.324  1.00  0.00    -0.269 OA
ATOM      5  C   UNL A   1      39.550  21.941  26.215  1.00  0.00     0.251 C 
ATOM      6  H   UNL A   1      38.567  20.743  25.002  1.00  0.00     0.163 HD
BRANCH   5   7
ATOM      7  C   UNL A   1      39.791  23.260  26.867  1.00  0.00     0.039 A 
ATOM      8  C   UNL A   1      38.965  24.381  26.782  1.00  0.00     0.014 A 
ATOM      9  C   UNL A   1      40.982  23.368  27.612  1.00  0.00     0.014 A 
ATOM     10  C   UNL A   1      39.343  25.589  27.369  1.00  0.00     0.010 A 
ATOM     11  C   UNL A   1      41.357  24.567  28.214  1.00  0.00     0.010 A 
ATOM     12  C   UNL A   1      40.549  25.690  28.067  1.00  0.00    -0.014 A 
BRANCH  12  13
ATOM     13  C   UNL A   1      40.872  26.965  28.708  1.00  0.00     0.031 A 
ATOM     14  C   UNL A   1      42.046  27.701  28.152  1.00  0.00     0.074 A 
ATOM     15  C   UNL A   1      40.096  27.556  29.638  1.00  0.00     0.049 A 
ATOM     16  N   UNL A   1      43.137  28.057  28.752  1.00  0.00    -0.248 NA
ATOM     17  C   UNL A   1      42.019  28.030  26.719  1.00  0.00     0.031 C 
ATOM     18  C   UNL A   1      38.753  27.165  30.073  1.00  0.00     0.029 A 
ATOM     19  N   UNL A   1      40.315  28.722  30.314  1.00  0.00    -0.354 N 
ATOM     20  C   UNL A   1      43.868  28.801  27.826  1.00  0.00     0.074 A 
ATOM     21  C   UNL A   1      43.184  28.659  26.564  1.00  0.00     0.031 C 
ATOM     22  C   UNL A   1      38.192  28.191  30.751  1.00  0.00     0.029 A 
ATOM     23  C   UNL A   1      39.181  29.243  30.921  1.00  0.00     0.049 A 
ATOM     24  H   UNL A   1      41.198  29.154  30.367  1.00  0.00     0.167 HD
ATOM     25  C   UNL A   1      44.893  29.626  28.181  1.00  0.00     0.031 A 
ATOM     26  C   UNL A   1      39.041  30.478  31.463  1.00  0.00     0.031 A 
ATOM     27  C   UNL A   1      45.361  29.376  29.516  1.00  0.00     0.049 A 
ATOM     28  C   UNL A   1      40.397  31.003  31.749  1.00  0.00     0.074 A 
ATOM     29  C   UNL A   1      45.934  28.305  30.168  1.00  0.00     0.029 A 
ATOM     30  N   UNL A   1      44.964  30.248  30.500  1.00  0.00    -0.354 N 
ATOM     31  N   UNL A   1      41.197  30.501  32.647  1.00  0.00    -0.248 NA
ATOM     32  C   UNL A   1      41.029  31.868  30.765  1.00  0.00     0.031 C 
ATOM     33  C   UNL A   1      45.426  28.367  31.498  1.00  0.00     0.029 A 
ATOM     34  C   UNL A   1      44.601  29.492  31.582  1.00  0.00     0.049 A 
ATOM     35  H   UNL A   1      44.944  31.231  30.439  1.00  0.00     0.167 HD
ATOM     36  C   UNL A   1      42.470  30.649  32.117  1.00  0.00     0.074 A 
ATOM     37  C   UNL A   1      42.312  31.592  31.015  1.00  0.00     0.031 C 
ATOM     38  C   UNL A   1      43.480  29.792  32.449  1.00  0.00     0.031 A 
BRANCH  25  39
ATOM     39  C   UNL A   1      45.259  30.892  27.444  1.00  0.00    -0.014 A 
ATOM     40  C   UNL A   1      46.577  31.052  26.964  1.00  0.00     0.010 A 
ATOM     41  C   UNL A   1      44.441  32.041  27.461  1.00  0.00     0.010 A 
ATOM     42  C   UNL A   1      47.072  32.312  26.598  1.00  0.00     0.020 A 
ATOM     43  C   UNL A   1      44.912  33.293  27.055  1.00  0.00     0.020 A 
ATOM     44  C   UNL A   1      46.238  33.428  26.667  1.00  0.00     0.054 A 
BRANCH  44  45
ATOM     45  S   UNL A   1      46.925  35.070  26.334  1.00  0.00     0.124 S 
ATOM     46  O   UNL A   1      47.828  35.252  27.466  1.00  0.00    -0.237 OA
ATOM     47  O   UNL A   1      47.567  34.883  25.036  1.00  0.00    -0.237 OA
ATOM     48  O   UNL A   1      45.749  35.937  26.324  1.00  0.00    -0.744 OA
ENDBRANCH  44  45
ENDBRANCH  25  39
BRANCH  26  49
ATOM     49  C   UNL A   1      37.833  31.340  31.443  1.00  0.00    -0.014 A 
ATOM     50  C   UNL A   1      36.762  31.115  32.328  1.00  0.00     0.010 A 
ATOM     51  C   UNL A   1      37.855  32.560  30.735  1.00  0.00     0.010 A 
ATOM     52  C   UNL A   1      35.777  32.097  32.532  1.00  0.00     0.020 A 
ATOM     53  C   UNL A   1      36.874  33.538  30.928  1.00  0.00     0.020 A 
ATOM     54  C   UNL A   1      35.851  33.312  31.843  1.00  0.00     0.054 A 
BRANCH  54  55
ATOM     55  S   UNL A   1      34.677  34.641  32.240  1.00  0.00     0.124 S 
ATOM     56  O   UNL A   1      35.511  35.580  32.982  1.00  0.00    -0.237 OA
ATOM     57  O   UNL A   1      34.243  35.087  30.918  1.00  0.00    -0.237 OA
ATOM     58  O   UNL A   1      33.648  33.966  33.029  1.00  0.00    -0.744 OA
ENDBRANCH  54  55
ENDBRANCH  26  49
BRANCH  38  59
ATOM     59  C   UNL A   1      43.298  28.877  33.635  1.00  0.00    -0.014 A 
ATOM     60  C   UNL A   1      43.523  29.282  34.964  1.00  0.00     0.010 A 
ATOM     61  C   UNL A   1      42.694  27.627  33.407  1.00  0.00     0.010 A 
ATOM     62  C   UNL A   1      43.156  28.456  36.036  1.00  0.00     0.020 A 
ATOM     63  C   UNL A   1      42.310  26.807  34.471  1.00  0.00     0.020 A 
ATOM     64  C   UNL A   1      42.542  27.226  35.782  1.00  0.00     0.054 A 
BRANCH  64  65
ATOM     65  S   UNL A   1      41.971  26.211  37.174  1.00  0.00     0.124 S 
ATOM     66  O   UNL A   1      43.004  26.444  38.181  1.00  0.00    -0.237 OA
ATOM     67  O   UNL A   1      40.660  26.780  37.475  1.00  0.00    -0.237 OA
ATOM     68  O   UNL A   1      41.936  24.855  36.626  1.00  0.00    -0.744 OA
ENDBRANCH  64  65
ENDBRANCH  38  59
ENDBRANCH  12  13
ENDBRANCH   5   7
ENDBRANCH   2   3
ENDBRANCH   1   2
BRANCH   1  69
ATOM     69  C   UNL A   1      35.453  22.783  23.317  1.00  0.00     0.023 C 
BRANCH  69  70
ATOM     70  C   UNL A   1      34.493  22.959  24.491  1.00  0.00     0.116 C 
BRANCH  70  71
ATOM     71  N   UNL A   1      33.556  21.857  24.624  1.00  0.00    -0.352 N 
ATOM     72  C   UNL A   1      32.251  21.825  25.036  1.00  0.00     0.252 C 
ATOM     73  H   UNL A   1      33.925  20.979  24.375  1.00  0.00     0.163 HD
ATOM     74  O   UNL A   1      31.701  20.738  25.195  1.00  0.00    -0.269 OA
BRANCH  72  75
ATOM     75  C   UNL A   1      31.476  23.051  25.291  1.00  0.00     0.060 A 
ATOM     76  C   UNL A   1      31.094  23.309  26.600  1.00  0.00     0.125 A 
ATOM     77  C   UNL A   1      31.026  23.912  24.286  1.00  0.00     0.043 A 
ATOM     78  N   UNL A   1      30.294  24.341  26.955  1.00  0.00    -0.262 NA
ATOM     79  C   UNL A   1      30.275  25.042  24.623  1.00  0.00     0.060 A 
ATOM     80  C   UNL A   1      29.883  25.156  25.955  1.00  0.00     0.137 A 
BRANCH  79  81
ATOM     81  N   UNL A   1      29.968  25.956  23.594  1.00  0.00    -0.319 N 
ATOM     82  C   UNL A   1      30.465  27.219  23.298  1.00  0.00     0.277 C 
ATOM     83  H   UNL A   1      29.273  25.642  22.971  1.00  0.00     0.170 HD
ATOM     84  O   UNL A   1      29.913  27.876  22.426  1.00  0.00    -0.267 OA
BRANCH  82  85
ATOM     85  C   UNL A   1      31.649  27.695  23.992  1.00  0.00     0.170 A 
ATOM     86  C   UNL A   1      31.723  28.393  25.184  1.00  0.00     0.145 A 
ATOM     87  N   UNL A   1      32.909  27.583  23.464  1.00  0.00    -0.125 NA
ATOM     88  N   UNL A   1      33.013  28.853  25.211  1.00  0.00    -0.237 N 
ATOM     89  N   UNL A   1      33.736  28.298  24.218  1.00  0.00    -0.066 NA
BRANCH  88  90
ATOM     90  C   UNL A   1      33.551  29.916  26.004  1.00  0.00     0.218 C 
ATOM     91  C   UNL A   1      32.624  30.390  27.150  1.00  0.00     0.294 C 
ATOM     92  C   UNL A   1      34.460  29.444  27.156  1.00  0.00     0.294 C 
ATOM     93  N   UNL A   1      33.805  30.434  28.038  1.00  0.00    -0.342 N 
ATOM     94  H   UNL A   1      33.630  30.103  28.988  1.00  0.00     0.346 HD
ATOM     95  H   UNL A   1      34.259  31.317  28.270  1.00  0.00     0.346 HD
ENDBRANCH  88  90
ENDBRANCH  82  85
ENDBRANCH  79  81
ENDBRANCH  72  75
ENDBRANCH  70  71
ENDBRANCH  69  70
ENDBRANCH   1  69
TORSDOF 17
ENDMDL
MODEL 3
REMARK VINA RESULT:     -12.6      2.706      9.477
REMARK SMILES O=C(NCCCCNC(=O)c1cncc(NC(=O)c2cn(C3C[NH2+]C3)nn2)c1)c1ccc(-c2c3nc(c(-c4ccc(S(=O)(=O)[O-])cc4)c4ccc([nH]4)c(-c4ccc(S(=O)(=O)[O-])cc4)c4nc(c(-c5ccc(S(=O)(=O)[O-])cc5)c5ccc2[nH]5)C=C4)C=C3)cc1
REMARK SMILES IDX 5 1 4 2 3 3 1 4 2 5 29 7 30 8 88 9 31 10 87 11 32 12 33 13
REMARK SMILES IDX 34 14 81 15 35 16 86 17 80 18 82 19 36 20 85 21 79 22 78 23
REMARK SMILES IDX 37 25 67 26 48 27 66 28 49 29 52 30 65 31 83 32 50 33 51 34
REMARK SMILES IDX 64 36 84 37 53 38 38 39 39 40 47 41 40 42 46 43 41 44 42 45
REMARK SMILES IDX 43 46 44 47 45 48 68 49 69 50 77 51 70 52 76 53 71 54 72 55
REMARK SMILES IDX 73 56 74 57 75 58 54 59 55 60 63 61 56 62 62 63 57 64 58 65
REMARK SMILES IDX 59 66 60 67 61 68 6 69 7 70 8 71 9 72 10 74 11 75 12 76
REMARK SMILES IDX 28 77 13 78 15 79 14 80 16 81 17 82 18 84 19 85 20 86 27 87
REMARK SMILES IDX 21 88 26 89 22 90 23 91 25 92 24 93
REMARK H PARENT 3 6 82 24 52 35 8 73 16 83 24 94 24 95
REMARK Flexibility Score: inf
ROOT
ATOM      1  C   UNL A   1      32.637  29.627  25.462  1.00  0.00     0.023 C 
ENDROOT
BRANCH   1   2
ATOM      2  C   UNL A   1      32.976  29.605  26.952  1.00  0.00     0.116 C 
BRANCH   2   3
ATOM      3  N   UNL A   1      33.208  30.913  27.530  1.00  0.00    -0.352 N 
ATOM      4  O   UNL A   1      34.117  32.767  28.287  1.00  0.00    -0.269 OA
ATOM      5  C   UNL A   1      34.308  31.585  27.985  1.00  0.00     0.251 C 
ATOM      6  H   UNL A   1      32.382  31.440  27.614  1.00  0.00     0.163 HD
BRANCH   5   7
ATOM      7  C   UNL A   1      35.669  31.004  28.175  1.00  0.00     0.039 A 
ATOM      8  C   UNL A   1      36.064  29.711  27.834  1.00  0.00     0.014 A 
ATOM      9  C   UNL A   1      36.619  31.852  28.779  1.00  0.00     0.014 A 
ATOM     10  C   UNL A   1      37.347  29.255  28.142  1.00  0.00     0.010 A 
ATOM     11  C   UNL A   1      37.905  31.408  29.075  1.00  0.00     0.010 A 
ATOM     12  C   UNL A   1      38.262  30.095  28.782  1.00  0.00    -0.014 A 
BRANCH  12  13
ATOM     13  C   UNL A   1      39.610  29.585  29.033  1.00  0.00     0.031 A 
ATOM     14  C   UNL A   1      39.966  29.347  30.463  1.00  0.00     0.074 A 
ATOM     15  C   UNL A   1      40.457  29.189  28.062  1.00  0.00     0.049 A 
ATOM     16  N   UNL A   1      40.921  29.877  31.159  1.00  0.00    -0.248 NA
ATOM     17  C   UNL A   1      39.102  28.438  31.232  1.00  0.00     0.031 C 
ATOM     18  C   UNL A   1      40.179  29.031  26.633  1.00  0.00     0.029 A 
ATOM     19  N   UNL A   1      41.736  28.726  28.183  1.00  0.00    -0.354 N 
ATOM     20  C   UNL A   1      40.890  29.253  32.405  1.00  0.00     0.074 A 
ATOM     21  C   UNL A   1      39.686  28.458  32.430  1.00  0.00     0.031 C 
ATOM     22  C   UNL A   1      41.165  28.299  26.069  1.00  0.00     0.029 A 
ATOM     23  C   UNL A   1      42.204  28.063  27.057  1.00  0.00     0.049 A 
ATOM     24  H   UNL A   1      42.277  28.851  28.996  1.00  0.00     0.167 HD
ATOM     25  C   UNL A   1      41.936  29.289  33.279  1.00  0.00     0.031 A 
ATOM     26  C   UNL A   1      43.331  27.314  26.963  1.00  0.00     0.031 A 
ATOM     27  C   UNL A   1      42.893  30.306  32.946  1.00  0.00     0.049 A 
ATOM     28  C   UNL A   1      44.228  27.703  28.076  1.00  0.00     0.074 A 
ATOM     29  C   UNL A   1      42.867  31.681  32.848  1.00  0.00     0.029 A 
ATOM     30  N   UNL A   1      44.055  29.906  32.331  1.00  0.00    -0.354 N 
ATOM     31  N   UNL A   1      44.796  28.872  28.178  1.00  0.00    -0.248 NA
ATOM     32  C   UNL A   1      44.203  26.914  29.297  1.00  0.00     0.031 C 
ATOM     33  C   UNL A   1      43.754  31.991  31.776  1.00  0.00     0.029 A 
ATOM     34  C   UNL A   1      44.291  30.788  31.311  1.00  0.00     0.049 A 
ATOM     35  H   UNL A   1      44.611  29.131  32.577  1.00  0.00     0.167 HD
ATOM     36  C   UNL A   1      44.833  29.135  29.539  1.00  0.00     0.074 A 
ATOM     37  C   UNL A   1      44.559  27.852  30.179  1.00  0.00     0.031 C 
ATOM     38  C   UNL A   1      44.819  30.415  30.015  1.00  0.00     0.031 A 
BRANCH  25  39
ATOM     39  C   UNL A   1      42.270  28.181  34.250  1.00  0.00    -0.014 A 
ATOM     40  C   UNL A   1      42.341  28.474  35.629  1.00  0.00     0.010 A 
ATOM     41  C   UNL A   1      42.796  26.941  33.833  1.00  0.00     0.010 A 
ATOM     42  C   UNL A   1      42.979  27.606  36.527  1.00  0.00     0.020 A 
ATOM     43  C   UNL A   1      43.393  26.049  34.727  1.00  0.00     0.020 A 
ATOM     44  C   UNL A   1      43.519  26.408  36.063  1.00  0.00     0.054 A 
BRANCH  44  45
ATOM     45  S   UNL A   1      44.467  25.363  37.199  1.00  0.00     0.124 S 
ATOM     46  O   UNL A   1      44.187  24.028  36.681  1.00  0.00    -0.237 OA
ATOM     47  O   UNL A   1      45.831  25.846  37.002  1.00  0.00    -0.237 OA
ATOM     48  O   UNL A   1      43.886  25.664  38.505  1.00  0.00    -0.744 OA
ENDBRANCH  44  45
ENDBRANCH  25  39
BRANCH  26  49
ATOM     49  C   UNL A   1      43.527  26.077  26.168  1.00  0.00    -0.014 A 
ATOM     50  C   UNL A   1      44.723  25.843  25.464  1.00  0.00     0.010 A 
ATOM     51  C   UNL A   1      42.636  24.994  26.327  1.00  0.00     0.010 A 
ATOM     52  C   UNL A   1      45.038  24.560  24.982  1.00  0.00     0.020 A 
ATOM     53  C   UNL A   1      42.940  23.717  25.843  1.00  0.00     0.020 A 
ATOM     54  C   UNL A   1      44.150  23.500  25.192  1.00  0.00     0.054 A 
BRANCH  54  55
ATOM     55  S   UNL A   1      44.639  21.815  24.722  1.00  0.00     0.124 S 
ATOM     56  O   UNL A   1      44.603  21.876  23.265  1.00  0.00    -0.237 OA
ATOM     57  O   UNL A   1      45.967  21.690  25.318  1.00  0.00    -0.237 OA
ATOM     58  O   UNL A   1      43.610  20.975  25.334  1.00  0.00    -0.744 OA
ENDBRANCH  54  55
ENDBRANCH  26  49
BRANCH  38  59
ATOM     59  C   UNL A   1      45.083  31.551  29.057  1.00  0.00    -0.014 A 
ATOM     60  C   UNL A   1      46.374  31.919  28.634  1.00  0.00     0.010 A 
ATOM     61  C   UNL A   1      43.974  32.135  28.418  1.00  0.00     0.010 A 
ATOM     62  C   UNL A   1      46.549  32.851  27.600  1.00  0.00     0.020 A 
ATOM     63  C   UNL A   1      44.142  33.050  27.376  1.00  0.00     0.020 A 
ATOM     64  C   UNL A   1      45.430  33.404  26.971  1.00  0.00     0.054 A 
BRANCH  64  65
ATOM     65  S   UNL A   1      45.664  34.524  25.562  1.00  0.00     0.124 S 
ATOM     66  O   UNL A   1      45.162  35.794  26.081  1.00  0.00    -0.237 OA
ATOM     67  O   UNL A   1      47.106  34.464  25.334  1.00  0.00    -0.237 OA
ATOM     68  O   UNL A   1      44.854  33.925  24.502  1.00  0.00    -0.744 OA
ENDBRANCH  64  65
ENDBRANCH  38  59
ENDBRANCH  12  13
ENDBRANCH   5   7
ENDBRANCH   2   3
ENDBRANCH   1   2
BRANCH   1  69
ATOM     69  C   UNL A   1      33.555  28.798  24.558  1.00  0.00     0.023 C 
BRANCH  69  70
ATOM     70  C   UNL A   1      33.413  29.033  23.055  1.00  0.00     0.116 C 
BRANCH  70  71
ATOM     71  N   UNL A   1      32.050  29.342  22.659  1.00  0.00    -0.352 N 
ATOM     72  C   UNL A   1      30.959  28.536  22.472  1.00  0.00     0.252 C 
ATOM     73  H   UNL A   1      31.882  30.298  22.496  1.00  0.00     0.163 HD
ATOM     74  O   UNL A   1      29.933  29.019  21.998  1.00  0.00    -0.269 OA
BRANCH  72  75
ATOM     75  C   UNL A   1      30.967  27.107  22.824  1.00  0.00     0.060 A 
ATOM     76  C   UNL A   1      31.485  26.218  21.892  1.00  0.00     0.125 A 
ATOM     77  C   UNL A   1      30.400  26.588  23.992  1.00  0.00     0.043 A 
ATOM     78  N   UNL A   1      31.457  24.873  22.046  1.00  0.00    -0.262 NA
ATOM     79  C   UNL A   1      30.435  25.211  24.230  1.00  0.00     0.060 A 
ATOM     80  C   UNL A   1      30.905  24.410  23.192  1.00  0.00     0.137 A 
BRANCH  79  81
ATOM     81  N   UNL A   1      29.982  24.751  25.484  1.00  0.00    -0.319 N 
ATOM     82  C   UNL A   1      30.530  23.858  26.396  1.00  0.00     0.277 C 
ATOM     83  H   UNL A   1      29.118  25.132  25.764  1.00  0.00     0.170 HD
ATOM     84  O   UNL A   1      29.853  23.509  27.353  1.00  0.00    -0.267 OA
BRANCH  82  85
ATOM     85  C   UNL A   1      31.900  23.411  26.214  1.00  0.00     0.170 A 
ATOM     86  C   UNL A   1      32.350  22.175  25.789  1.00  0.00     0.145 A 
ATOM     87  N   UNL A   1      32.980  24.183  26.557  1.00  0.00    -0.125 NA
ATOM     88  N   UNL A   1      33.685  22.192  26.096  1.00  0.00    -0.237 N 
ATOM     89  N   UNL A   1      34.067  23.425  26.482  1.00  0.00    -0.066 NA
BRANCH  88  90
ATOM     90  C   UNL A   1      34.574  21.076  26.219  1.00  0.00     0.218 C 
ATOM     91  C   UNL A   1      34.502  20.071  25.043  1.00  0.00     0.294 C 
ATOM     92  C   UNL A   1      35.996  21.344  25.689  1.00  0.00     0.294 C 
ATOM     93  N   UNL A   1      35.979  20.006  25.057  1.00  0.00    -0.342 N 
ATOM     94  H   UNL A   1      36.409  19.971  24.132  1.00  0.00     0.346 HD
ATOM     95  H   UNL A   1      36.469  19.217  25.479  1.00  0.00     0.346 HD
ENDBRANCH  88  90
ENDBRANCH  82  85
ENDBRANCH  79  81
ENDBRANCH  72  75
ENDBRANCH  70  71
ENDBRANCH  69  70
ENDBRANCH   1  69
TORSDOF 17
ENDMDL
