MODEL 1
REMARK VINA RESULT:      -9.2      0.000      0.000
REMARK SMILES COCC[C@H](NC(=O)N1CC[C@H](C(=O)OC)C1)C(=O)NCCCCNC(=O)c1ccc(-c2c3nc(c(-c4ccc(S(=O)(=O)[O-])cc4)c4ccc([nH]4)c(-c4ccc(S(=O)(=O)[O-])cc4)c4nc(c(-c5ccc(S(=O)(=O)[O-])cc5)c5ccc2[nH]5)C=C4)C=C3)cc1
REMARK SMILES IDX 22 1 21 2 20 3 18 4 19 5 5 7 4 8 3 9 2 10 1 11 6 12 7 13
REMARK SMILES IDX 8 15 9 16 10 17 17 18 11 19 12 20 13 21 14 22 15 23 16 24
REMARK SMILES IDX 23 25 24 26 25 27 26 28 27 30 28 31 29 32 87 33 30 34 86 35
REMARK SMILES IDX 31 36 32 37 33 38 80 39 34 40 85 41 79 42 81 43 35 44 84 45
REMARK SMILES IDX 78 46 77 47 36 49 66 50 47 51 65 52 48 53 51 54 64 55 82 56
REMARK SMILES IDX 49 57 50 58 63 60 83 61 52 62 37 63 38 64 46 65 39 66 45 67
REMARK SMILES IDX 40 68 41 69 42 70 43 71 44 72 67 73 68 74 76 75 69 76 75 77
REMARK SMILES IDX 70 78 71 79 72 80 73 81 74 82 53 83 54 84 62 85 55 86 61 87
REMARK SMILES IDX 56 88 57 89 58 90 59 91 60 92
REMARK H PARENT 20 6 6 14 25 29 81 48 51 59
REMARK Flexibility Score: inf
ROOT
ATOM      1  C   UNL A   1      31.956  27.210  26.485  1.00  0.00     0.023 C 
ENDROOT
BRANCH   1   2
ATOM      2  C   UNL A   1      30.859  26.511  25.691  1.00  0.00     0.116 C 
BRANCH   2   3
ATOM      3  N   UNL A   1      30.238  25.443  26.459  1.00  0.00    -0.354 N 
ATOM      4  C   UNL A   1      30.553  24.116  26.539  1.00  0.00     0.242 C 
ATOM      5  O   UNL A   1      29.986  23.439  27.400  1.00  0.00    -0.273 OA
ATOM      6  H   UNL A   1      29.468  25.720  27.007  1.00  0.00     0.163 HD
BRANCH   4   7
ATOM      7  C   UNL A   1      31.699  23.522  25.698  1.00  0.00     0.175 C 
BRANCH   7   8
ATOM      8  C   UNL A   1      31.167  23.271  24.277  1.00  0.00     0.063 C 
BRANCH   8   9
ATOM      9  C   UNL A   1      31.880  24.093  23.205  1.00  0.00     0.162 C 
BRANCH   9  10
ATOM     10  O   UNL A   1      32.812  25.009  23.778  1.00  0.00    -0.385 OA
ATOM     11  C   UNL A   1      33.791  25.486  22.862  1.00  0.00     0.194 C 
ENDBRANCH   9  10
ENDBRANCH   8   9
ENDBRANCH   7   8
BRANCH   7  12
ATOM     12  N   UNL A   1      32.254  22.344  26.373  1.00  0.00    -0.326 N 
ATOM     13  C   UNL A   1      33.433  21.706  26.216  1.00  0.00     0.318 C 
ATOM     14  H   UNL A   1      31.666  21.953  27.059  1.00  0.00     0.166 HD
ATOM     15  O   UNL A   1      33.508  20.538  26.600  1.00  0.00    -0.249 OA
BRANCH  13  16
ATOM     16  N   UNL A   1      34.446  22.315  25.551  1.00  0.00    -0.324 N 
ATOM     17  C   UNL A   1      34.801  22.200  24.151  1.00  0.00     0.122 C 
ATOM     18  C   UNL A   1      35.153  23.428  26.148  1.00  0.00     0.136 C 
ATOM     19  C   UNL A   1      36.259  22.621  24.119  1.00  0.00     0.039 C 
ATOM     20  C   UNL A   1      36.382  23.637  25.263  1.00  0.00     0.120 C 
BRANCH  20  21
ATOM     21  C   UNL A   1      37.672  23.468  26.032  1.00  0.00     0.310 C 
ATOM     22  O   UNL A   1      38.288  24.409  26.518  1.00  0.00    -0.252 OA
BRANCH  21  23
ATOM     23  O   UNL A   1      38.072  22.169  26.085  1.00  0.00    -0.469 OA
ATOM     24  C   UNL A   1      39.487  21.982  26.035  1.00  0.00     0.282 C 
ENDBRANCH  21  23
ENDBRANCH  20  21
ENDBRANCH  13  16
ENDBRANCH   7  12
ENDBRANCH   4   7
ENDBRANCH   2   3
ENDBRANCH   1   2
BRANCH   1  25
ATOM     25  C   UNL A   1      32.796  28.194  25.668  1.00  0.00     0.023 C 
BRANCH  25  26
ATOM     26  C   UNL A   1      34.004  28.776  26.397  1.00  0.00     0.116 C 
BRANCH  26  27
ATOM     27  N   UNL A   1      33.808  30.160  26.800  1.00  0.00    -0.352 N 
ATOM     28  C   UNL A   1      34.552  30.929  27.667  1.00  0.00     0.251 C 
ATOM     29  H   UNL A   1      33.031  30.611  26.396  1.00  0.00     0.163 HD
ATOM     30  O   UNL A   1      34.157  32.029  28.011  1.00  0.00    -0.269 OA
BRANCH  28  31
ATOM     31  C   UNL A   1      35.822  30.387  28.198  1.00  0.00     0.039 A 
ATOM     32  C   UNL A   1      37.018  30.732  27.564  1.00  0.00     0.014 A 
ATOM     33  C   UNL A   1      35.830  29.581  29.339  1.00  0.00     0.014 A 
ATOM     34  C   UNL A   1      38.232  30.338  28.129  1.00  0.00     0.010 A 
ATOM     35  C   UNL A   1      37.042  29.249  29.937  1.00  0.00     0.010 A 
ATOM     36  C   UNL A   1      38.254  29.636  29.346  1.00  0.00    -0.014 A 
BRANCH  36  37
ATOM     37  C   UNL A   1      39.534  29.340  30.040  1.00  0.00     0.031 A 
ATOM     38  C   UNL A   1      40.425  28.230  29.556  1.00  0.00     0.074 A 
ATOM     39  C   UNL A   1      39.854  30.028  31.155  1.00  0.00     0.049 A 
ATOM     40  N   UNL A   1      41.544  27.791  30.072  1.00  0.00    -0.248 NA
ATOM     41  C   UNL A   1      39.991  27.503  28.352  1.00  0.00     0.031 C 
ATOM     42  C   UNL A   1      39.049  31.097  31.751  1.00  0.00     0.029 A 
ATOM     43  N   UNL A   1      40.936  29.924  31.992  1.00  0.00    -0.354 N 
ATOM     44  C   UNL A   1      41.943  26.732  29.265  1.00  0.00     0.074 A 
ATOM     45  C   UNL A   1      40.920  26.564  28.254  1.00  0.00     0.031 C 
ATOM     46  C   UNL A   1      39.677  31.566  32.841  1.00  0.00     0.029 A 
ATOM     47  C   UNL A   1      40.905  30.805  33.047  1.00  0.00     0.049 A 
ATOM     48  H   UNL A   1      41.666  29.280  31.851  1.00  0.00     0.167 HD
ATOM     49  C   UNL A   1      43.065  25.978  29.349  1.00  0.00     0.031 A 
ATOM     50  C   UNL A   1      41.760  30.978  34.074  1.00  0.00     0.031 A 
ATOM     51  C   UNL A   1      44.081  26.151  30.354  1.00  0.00     0.049 A 
ATOM     52  C   UNL A   1      42.990  30.116  34.154  1.00  0.00     0.074 A 
ATOM     53  C   UNL A   1      45.283  25.477  30.485  1.00  0.00     0.029 A 
ATOM     54  N   UNL A   1      44.013  27.056  31.403  1.00  0.00    -0.354 N 
ATOM     55  N   UNL A   1      43.386  29.168  33.339  1.00  0.00    -0.248 NA
ATOM     56  C   UNL A   1      43.892  30.352  35.289  1.00  0.00     0.031 C 
ATOM     57  C   UNL A   1      45.916  25.936  31.646  1.00  0.00     0.029 A 
ATOM     58  C   UNL A   1      45.136  26.935  32.204  1.00  0.00     0.049 A 
ATOM     59  H   UNL A   1      43.275  27.689  31.556  1.00  0.00     0.167 HD
ATOM     60  C   UNL A   1      44.591  28.706  33.853  1.00  0.00     0.074 A 
ATOM     61  C   UNL A   1      44.871  29.494  35.037  1.00  0.00     0.031 C 
ATOM     62  C   UNL A   1      45.395  27.718  33.387  1.00  0.00     0.031 A 
BRANCH  49  63
ATOM     63  C   UNL A   1      43.249  24.889  28.325  1.00  0.00    -0.014 A 
ATOM     64  C   UNL A   1      43.893  25.145  27.101  1.00  0.00     0.010 A 
ATOM     65  C   UNL A   1      42.812  23.582  28.608  1.00  0.00     0.010 A 
ATOM     66  C   UNL A   1      44.058  24.124  26.160  1.00  0.00     0.020 A 
ATOM     67  C   UNL A   1      43.000  22.552  27.681  1.00  0.00     0.020 A 
ATOM     68  C   UNL A   1      43.606  22.834  26.456  1.00  0.00     0.054 A 
BRANCH  68  69
ATOM     69  S   UNL A   1      43.852  21.525  25.224  1.00  0.00     0.124 S 
ATOM     70  O   UNL A   1      42.746  20.620  25.524  1.00  0.00    -0.237 OA
ATOM     71  O   UNL A   1      43.746  22.250  23.961  1.00  0.00    -0.237 OA
ATOM     72  O   UNL A   1      45.183  21.006  25.531  1.00  0.00    -0.744 OA
ENDBRANCH  68  69
ENDBRANCH  49  63
BRANCH  50  73
ATOM     73  C   UNL A   1      41.484  32.015  35.105  1.00  0.00    -0.014 A 
ATOM     74  C   UNL A   1      41.756  33.369  34.846  1.00  0.00     0.010 A 
ATOM     75  C   UNL A   1      40.930  31.653  36.347  1.00  0.00     0.010 A 
ATOM     76  C   UNL A   1      41.493  34.342  35.814  1.00  0.00     0.020 A 
ATOM     77  C   UNL A   1      40.640  32.626  37.307  1.00  0.00     0.020 A 
ATOM     78  C   UNL A   1      40.933  33.964  37.038  1.00  0.00     0.054 A 
BRANCH  78  79
ATOM     79  S   UNL A   1      40.547  35.250  38.258  1.00  0.00     0.124 S 
ATOM     80  O   UNL A   1      41.278  36.398  37.730  1.00  0.00    -0.237 OA
ATOM     81  O   UNL A   1      39.091  35.335  38.178  1.00  0.00    -0.237 OA
ATOM     82  O   UNL A   1      41.063  34.699  39.510  1.00  0.00    -0.744 OA
ENDBRANCH  78  79
ENDBRANCH  50  73
BRANCH  62  83
ATOM     83  C   UNL A   1      46.662  27.441  34.151  1.00  0.00    -0.014 A 
ATOM     84  C   UNL A   1      47.852  28.129  33.859  1.00  0.00     0.010 A 
ATOM     85  C   UNL A   1      46.647  26.513  35.208  1.00  0.00     0.010 A 
ATOM     86  C   UNL A   1      49.014  27.873  34.591  1.00  0.00     0.020 A 
ATOM     87  C   UNL A   1      47.801  26.274  35.961  1.00  0.00     0.020 A 
ATOM     88  C   UNL A   1      48.981  26.947  35.638  1.00  0.00     0.054 A 
BRANCH  88  89
ATOM     89  S   UNL A   1      50.492  26.664  36.601  1.00  0.00     0.124 S 
ATOM     90  O   UNL A   1      51.438  27.571  35.956  1.00  0.00    -0.237 OA
ATOM     91  O   UNL A   1      50.085  27.037  37.953  1.00  0.00    -0.237 OA
ATOM     92  O   UNL A   1      50.763  25.242  36.409  1.00  0.00    -0.744 OA
ENDBRANCH  88  89
ENDBRANCH  62  83
ENDBRANCH  36  37
ENDBRANCH  28  31
ENDBRANCH  26  27
ENDBRANCH  25  26
ENDBRANCH   1  25
TORSDOF 21
ENDMDL
MODEL 2
REMARK VINA RESULT:      -9.2      1.730      2.882
REMARK SMILES COCC[C@H](NC(=O)N1CC[C@H](C(=O)OC)C1)C(=O)NCCCCNC(=O)c1ccc(-c2c3nc(c(-c4ccc(S(=O)(=O)[O-])cc4)c4ccc([nH]4)c(-c4ccc(S(=O)(=O)[O-])cc4)c4nc(c(-c5ccc(S(=O)(=O)[O-])cc5)c5ccc2[nH]5)C=C4)C=C3)cc1
REMARK SMILES IDX 22 1 21 2 20 3 18 4 19 5 5 7 4 8 3 9 2 10 1 11 6 12 7 13
REMARK SMILES IDX 8 15 9 16 10 17 17 18 11 19 12 20 13 21 14 22 15 23 16 24
REMARK SMILES IDX 23 25 24 26 25 27 26 28 27 30 28 31 29 32 87 33 30 34 86 35
REMARK SMILES IDX 31 36 32 37 33 38 80 39 34 40 85 41 79 42 81 43 35 44 84 45
REMARK SMILES IDX 78 46 77 47 36 49 66 50 47 51 65 52 48 53 51 54 64 55 82 56
REMARK SMILES IDX 49 57 50 58 63 60 83 61 52 62 37 63 38 64 46 65 39 66 45 67
REMARK SMILES IDX 40 68 41 69 42 70 43 71 44 72 67 73 68 74 76 75 69 76 75 77
REMARK SMILES IDX 70 78 71 79 72 80 73 81 74 82 53 83 54 84 62 85 55 86 61 87
REMARK SMILES IDX 56 88 57 89 58 90 59 91 60 92
REMARK H PARENT 20 6 6 14 25 29 81 48 51 59
REMARK Flexibility Score: inf
ROOT
ATOM      1  C   UNL A   1      31.754  27.815  26.717  1.00  0.00     0.023 C 
ENDROOT
BRANCH   1   2
ATOM      2  C   UNL A   1      31.343  26.468  26.134  1.00  0.00     0.116 C 
BRANCH   2   3
ATOM      3  N   UNL A   1      30.258  26.607  25.174  1.00  0.00    -0.354 N 
ATOM      4  C   UNL A   1      30.260  27.123  23.909  1.00  0.00     0.242 C 
ATOM      5  O   UNL A   1      29.247  26.969  23.222  1.00  0.00    -0.273 OA
ATOM      6  H   UNL A   1      29.384  26.277  25.486  1.00  0.00     0.163 HD
BRANCH   4   7
ATOM      7  C   UNL A   1      31.541  27.728  23.303  1.00  0.00     0.175 C 
BRANCH   7   8
ATOM      8  C   UNL A   1      31.347  29.251  23.201  1.00  0.00     0.063 C 
BRANCH   8   9
ATOM      9  C   UNL A   1      30.454  29.674  22.036  1.00  0.00     0.162 C 
BRANCH   9  10
ATOM     10  O   UNL A   1      29.314  30.405  22.485  1.00  0.00    -0.385 OA
ATOM     11  C   UNL A   1      28.191  30.317  21.615  1.00  0.00     0.194 C 
ENDBRANCH   9  10
ENDBRANCH   8   9
ENDBRANCH   7   8
BRANCH   7  12
ATOM     12  N   UNL A   1      31.859  27.054  22.039  1.00  0.00    -0.326 N 
ATOM     13  C   UNL A   1      32.599  25.955  21.783  1.00  0.00     0.318 C 
ATOM     14  H   UNL A   1      31.465  27.475  21.242  1.00  0.00     0.166 HD
ATOM     15  O   UNL A   1      33.042  25.815  20.643  1.00  0.00    -0.249 OA
BRANCH  13  16
ATOM     16  N   UNL A   1      32.925  25.111  22.794  1.00  0.00    -0.324 N 
ATOM     17  C   UNL A   1      34.019  25.218  23.739  1.00  0.00     0.122 C 
ATOM     18  C   UNL A   1      31.991  24.097  23.236  1.00  0.00     0.136 C 
ATOM     19  C   UNL A   1      34.209  23.792  24.223  1.00  0.00     0.039 C 
ATOM     20  C   UNL A   1      32.805  23.177  24.145  1.00  0.00     0.120 C 
BRANCH  20  21
ATOM     21  C   UNL A   1      32.839  21.755  23.633  1.00  0.00     0.310 C 
ATOM     22  O   UNL A   1      32.502  21.447  22.496  1.00  0.00    -0.252 OA
BRANCH  21  23
ATOM     23  O   UNL A   1      33.250  20.876  24.585  1.00  0.00    -0.469 OA
ATOM     24  C   UNL A   1      32.429  19.713  24.711  1.00  0.00     0.282 C 
ENDBRANCH  21  23
ENDBRANCH  20  21
ENDBRANCH  13  16
ENDBRANCH   7  12
ENDBRANCH   4   7
ENDBRANCH   2   3
ENDBRANCH   1   2
BRANCH   1  25
ATOM     25  C   UNL A   1      33.257  27.966  26.957  1.00  0.00     0.023 C 
BRANCH  25  26
ATOM     26  C   UNL A   1      33.926  29.098  26.182  1.00  0.00     0.116 C 
BRANCH  26  27
ATOM     27  N   UNL A   1      33.603  30.413  26.714  1.00  0.00    -0.352 N 
ATOM     28  C   UNL A   1      34.266  31.155  27.666  1.00  0.00     0.251 C 
ATOM     29  H   UNL A   1      32.794  30.832  26.340  1.00  0.00     0.163 HD
ATOM     30  O   UNL A   1      33.770  32.178  28.107  1.00  0.00    -0.269 OA
BRANCH  28  31
ATOM     31  C   UNL A   1      35.573  30.677  28.167  1.00  0.00     0.039 A 
ATOM     32  C   UNL A   1      36.729  31.369  27.798  1.00  0.00     0.014 A 
ATOM     33  C   UNL A   1      35.646  29.581  29.030  1.00  0.00     0.014 A 
ATOM     34  C   UNL A   1      37.953  31.011  28.366  1.00  0.00     0.010 A 
ATOM     35  C   UNL A   1      36.855  29.272  29.648  1.00  0.00     0.010 A 
ATOM     36  C   UNL A   1      38.017  29.993  29.332  1.00  0.00    -0.014 A 
BRANCH  36  37
ATOM     37  C   UNL A   1      39.279  29.700  30.059  1.00  0.00     0.031 A 
ATOM     38  C   UNL A   1      40.190  28.599  29.592  1.00  0.00     0.074 A 
ATOM     39  C   UNL A   1      39.564  30.382  31.187  1.00  0.00     0.049 A 
ATOM     40  N   UNL A   1      41.297  28.163  30.134  1.00  0.00    -0.248 NA
ATOM     41  C   UNL A   1      39.793  27.877  28.372  1.00  0.00     0.031 C 
ATOM     42  C   UNL A   1      38.736  31.442  31.768  1.00  0.00     0.029 A 
ATOM     43  N   UNL A   1      40.624  30.278  32.052  1.00  0.00    -0.354 N 
ATOM     44  C   UNL A   1      41.724  27.112  29.332  1.00  0.00     0.074 A 
ATOM     45  C   UNL A   1      40.731  26.945  28.292  1.00  0.00     0.031 C 
ATOM     46  C   UNL A   1      39.331  31.907  32.878  1.00  0.00     0.029 A 
ATOM     47  C   UNL A   1      40.558  31.152  33.112  1.00  0.00     0.049 A 
ATOM     48  H   UNL A   1      41.362  29.640  31.926  1.00  0.00     0.167 HD
ATOM     49  C   UNL A   1      42.848  26.364  29.441  1.00  0.00     0.031 A 
ATOM     50  C   UNL A   1      41.384  31.322  34.163  1.00  0.00     0.031 A 
ATOM     51  C   UNL A   1      43.835  26.536  30.475  1.00  0.00     0.049 A 
ATOM     52  C   UNL A   1      42.617  30.468  34.271  1.00  0.00     0.074 A 
ATOM     53  C   UNL A   1      45.037  25.868  30.634  1.00  0.00     0.029 A 
ATOM     54  N   UNL A   1      43.733  27.433  31.528  1.00  0.00    -0.354 N 
ATOM     55  N   UNL A   1      43.040  29.527  33.460  1.00  0.00    -0.248 NA
ATOM     56  C   UNL A   1      43.486  30.701  35.432  1.00  0.00     0.031 C 
ATOM     57  C   UNL A   1      45.636  26.323  31.814  1.00  0.00     0.029 A 
ATOM     58  C   UNL A   1      44.835  27.314  32.358  1.00  0.00     0.049 A 
ATOM     59  H   UNL A   1      42.988  28.061  31.664  1.00  0.00     0.167 HD
ATOM     60  C   UNL A   1      44.234  29.070  34.004  1.00  0.00     0.074 A 
ATOM     61  C   UNL A   1      44.477  29.851  35.200  1.00  0.00     0.031 C 
ATOM     62  C   UNL A   1      45.056  28.090  33.553  1.00  0.00     0.031 A 
BRANCH  49  63
ATOM     63  C   UNL A   1      43.067  25.283  28.415  1.00  0.00    -0.014 A 
ATOM     64  C   UNL A   1      43.882  25.504  27.290  1.00  0.00     0.010 A 
ATOM     65  C   UNL A   1      42.485  24.016  28.599  1.00  0.00     0.010 A 
ATOM     66  C   UNL A   1      44.078  24.492  26.347  1.00  0.00     0.020 A 
ATOM     67  C   UNL A   1      42.700  22.992  27.672  1.00  0.00     0.020 A 
ATOM     68  C   UNL A   1      43.482  23.243  26.542  1.00  0.00     0.054 A 
BRANCH  68  69
ATOM     69  S   UNL A   1      43.769  21.942  25.311  1.00  0.00     0.124 S 
ATOM     70  O   UNL A   1      43.721  22.696  24.061  1.00  0.00    -0.237 OA
ATOM     71  O   UNL A   1      45.085  21.431  25.686  1.00  0.00    -0.237 OA
ATOM     72  O   UNL A   1      42.660  21.014  25.523  1.00  0.00    -0.744 OA
ENDBRANCH  68  69
ENDBRANCH  49  63
BRANCH  50  73
ATOM     73  C   UNL A   1      41.073  32.350  35.193  1.00  0.00    -0.014 A 
ATOM     74  C   UNL A   1      41.472  33.686  35.011  1.00  0.00     0.010 A 
ATOM     75  C   UNL A   1      40.361  32.000  36.356  1.00  0.00     0.010 A 
ATOM     76  C   UNL A   1      41.176  34.651  35.979  1.00  0.00     0.020 A 
ATOM     77  C   UNL A   1      40.040  32.967  37.311  1.00  0.00     0.020 A 
ATOM     78  C   UNL A   1      40.459  34.285  37.122  1.00  0.00     0.054 A 
BRANCH  78  79
ATOM     79  S   UNL A   1      40.037  35.565  38.336  1.00  0.00     0.124 S 
ATOM     80  O   UNL A   1      41.215  35.568  39.196  1.00  0.00    -0.237 OA
ATOM     81  O   UNL A   1      39.860  36.749  37.499  1.00  0.00    -0.237 OA
ATOM     82  O   UNL A   1      38.811  35.059  38.953  1.00  0.00    -0.744 OA
ENDBRANCH  78  79
ENDBRANCH  50  73
BRANCH  62  83
ATOM     83  C   UNL A   1      46.304  27.815  34.349  1.00  0.00    -0.014 A 
ATOM     84  C   UNL A   1      46.315  26.848  35.370  1.00  0.00     0.010 A 
ATOM     85  C   UNL A   1      47.493  28.499  34.039  1.00  0.00     0.010 A 
ATOM     86  C   UNL A   1      47.487  26.592  36.087  1.00  0.00     0.020 A 
ATOM     87  C   UNL A   1      48.674  28.226  34.736  1.00  0.00     0.020 A 
ATOM     88  C   UNL A   1      48.659  27.282  35.764  1.00  0.00     0.054 A 
BRANCH  88  89
ATOM     89  S   UNL A   1      50.177  26.899  36.681  1.00  0.00     0.124 S 
ATOM     90  O   UNL A   1      49.674  26.062  37.767  1.00  0.00    -0.237 OA
ATOM     91  O   UNL A   1      50.990  26.211  35.682  1.00  0.00    -0.237 OA
ATOM     92  O   UNL A   1      50.676  28.211  37.086  1.00  0.00    -0.744 OA
ENDBRANCH  88  89
ENDBRANCH  62  83
ENDBRANCH  36  37
ENDBRANCH  28  31
ENDBRANCH  26  27
ENDBRANCH  25  26
ENDBRANCH   1  25
TORSDOF 21
ENDMDL
MODEL 3
REMARK VINA RESULT:      -9.2      5.235     10.224
REMARK SMILES COCC[C@H](NC(=O)N1CC[C@H](C(=O)OC)C1)C(=O)NCCCCNC(=O)c1ccc(-c2c3nc(c(-c4ccc(S(=O)(=O)[O-])cc4)c4ccc([nH]4)c(-c4ccc(S(=O)(=O)[O-])cc4)c4nc(c(-c5ccc(S(=O)(=O)[O-])cc5)c5ccc2[nH]5)C=C4)C=C3)cc1
REMARK SMILES IDX 22 1 21 2 20 3 18 4 19 5 5 7 4 8 3 9 2 10 1 11 6 12 7 13
REMARK SMILES IDX 8 15 9 16 10 17 17 18 11 19 12 20 13 21 14 22 15 23 16 24
REMARK SMILES IDX 23 25 24 26 25 27 26 28 27 30 28 31 29 32 87 33 30 34 86 35
REMARK SMILES IDX 31 36 32 37 33 38 80 39 34 40 85 41 79 42 81 43 35 44 84 45
REMARK SMILES IDX 78 46 77 47 36 49 66 50 47 51 65 52 48 53 51 54 64 55 82 56
REMARK SMILES IDX 49 57 50 58 63 60 83 61 52 62 37 63 38 64 46 65 39 66 45 67
REMARK SMILES IDX 40 68 41 69 42 70 43 71 44 72 67 73 68 74 76 75 69 76 75 77
REMARK SMILES IDX 70 78 71 79 72 80 73 81 74 82 53 83 54 84 62 85 55 86 61 87
REMARK SMILES IDX 56 88 57 89 58 90 59 91 60 92
REMARK H PARENT 20 6 6 14 25 29 81 48 51 59
REMARK Flexibility Score: inf
ROOT
ATOM      1  C   UNL A   1      37.246  21.878  24.535  1.00  0.00     0.023 C 
ENDROOT
BRANCH   1   2
ATOM      2  C   UNL A   1      35.738  21.876  24.755  1.00  0.00     0.116 C 
BRANCH   2   3
ATOM      3  N   UNL A   1      35.402  21.730  26.164  1.00  0.00    -0.354 N 
ATOM      4  C   UNL A   1      34.312  22.171  26.860  1.00  0.00     0.242 C 
ATOM      5  O   UNL A   1      34.166  21.769  28.018  1.00  0.00    -0.273 OA
ATOM      6  H   UNL A   1      36.065  21.237  26.700  1.00  0.00     0.163 HD
BRANCH   4   7
ATOM      7  C   UNL A   1      33.215  23.003  26.171  1.00  0.00     0.175 C 
BRANCH   7   8
ATOM      8  C   UNL A   1      33.593  24.489  26.300  1.00  0.00     0.063 C 
BRANCH   8   9
ATOM      9  C   UNL A   1      34.102  25.103  24.997  1.00  0.00     0.162 C 
BRANCH   9  10
ATOM     10  O   UNL A   1      33.819  24.268  23.876  1.00  0.00    -0.385 OA
ATOM     11  C   UNL A   1      33.980  24.914  22.618  1.00  0.00     0.194 C 
ENDBRANCH   9  10
ENDBRANCH   8   9
ENDBRANCH   7   8
BRANCH   7  12
ATOM     12  N   UNL A   1      31.901  22.645  26.715  1.00  0.00    -0.326 N 
ATOM     13  C   UNL A   1      30.707  23.267  26.629  1.00  0.00     0.318 C 
ATOM     14  H   UNL A   1      31.888  21.806  27.231  1.00  0.00     0.166 HD
ATOM     15  O   UNL A   1      29.856  22.996  27.478  1.00  0.00    -0.249 OA
BRANCH  13  16
ATOM     16  N   UNL A   1      30.517  24.238  25.702  1.00  0.00    -0.324 N 
ATOM     17  C   UNL A   1      30.425  24.102  24.261  1.00  0.00     0.122 C 
ATOM     18  C   UNL A   1      30.083  25.561  26.099  1.00  0.00     0.136 C 
ATOM     19  C   UNL A   1      30.771  25.489  23.752  1.00  0.00     0.039 C 
ATOM     20  C   UNL A   1      30.276  26.431  24.858  1.00  0.00     0.120 C 
BRANCH  20  21
ATOM     21  C   UNL A   1      31.241  27.568  25.105  1.00  0.00     0.310 C 
ATOM     22  O   UNL A   1      31.668  27.852  26.217  1.00  0.00    -0.252 OA
BRANCH  21  23
ATOM     23  O   UNL A   1      31.541  28.244  23.963  1.00  0.00    -0.469 OA
ATOM     24  C   UNL A   1      30.483  29.066  23.465  1.00  0.00     0.282 C 
ENDBRANCH  21  23
ENDBRANCH  20  21
ENDBRANCH  13  16
ENDBRANCH   7  12
ENDBRANCH   4   7
ENDBRANCH   2   3
ENDBRANCH   1   2
BRANCH   1  25
ATOM     25  C   UNL A   1      37.955  20.610  25.016  1.00  0.00     0.023 C 
BRANCH  25  26
ATOM     26  C   UNL A   1      39.241  20.846  25.804  1.00  0.00     0.116 C 
BRANCH  26  27
ATOM     27  N   UNL A   1      40.062  19.650  25.914  1.00  0.00    -0.352 N 
ATOM     28  C   UNL A   1      41.421  19.542  26.109  1.00  0.00     0.251 C 
ATOM     29  H   UNL A   1      39.576  18.797  25.837  1.00  0.00     0.163 HD
ATOM     30  O   UNL A   1      41.972  18.458  26.025  1.00  0.00    -0.269 OA
BRANCH  28  31
ATOM     31  C   UNL A   1      42.206  20.764  26.391  1.00  0.00     0.039 A 
ATOM     32  C   UNL A   1      42.748  21.477  25.320  1.00  0.00     0.014 A 
ATOM     33  C   UNL A   1      42.364  21.221  27.702  1.00  0.00     0.014 A 
ATOM     34  C   UNL A   1      43.377  22.700  25.559  1.00  0.00     0.010 A 
ATOM     35  C   UNL A   1      42.929  22.472  27.930  1.00  0.00     0.010 A 
ATOM     36  C   UNL A   1      43.429  23.230  26.859  1.00  0.00    -0.014 A 
BRANCH  36  37
ATOM     37  C   UNL A   1      43.956  24.595  27.114  1.00  0.00     0.031 A 
ATOM     38  C   UNL A   1      43.031  25.704  27.533  1.00  0.00     0.074 A 
ATOM     39  C   UNL A   1      45.261  24.850  26.893  1.00  0.00     0.049 A 
ATOM     40  N   UNL A   1      43.302  26.967  27.739  1.00  0.00    -0.248 NA
ATOM     41  C   UNL A   1      41.613  25.354  27.722  1.00  0.00     0.031 C 
ATOM     42  C   UNL A   1      46.251  23.870  26.439  1.00  0.00     0.029 A 
ATOM     43  N   UNL A   1      45.979  26.015  27.009  1.00  0.00    -0.354 N 
ATOM     44  C   UNL A   1      42.092  27.565  28.070  1.00  0.00     0.074 A 
ATOM     45  C   UNL A   1      41.077  26.535  27.990  1.00  0.00     0.031 C 
ATOM     46  C   UNL A   1      47.450  24.467  26.341  1.00  0.00     0.029 A 
ATOM     47  C   UNL A   1      47.307  25.879  26.680  1.00  0.00     0.049 A 
ATOM     48  H   UNL A   1      45.581  26.866  27.300  1.00  0.00     0.167 HD
ATOM     49  C   UNL A   1      41.850  28.850  28.423  1.00  0.00     0.031 A 
ATOM     50  C   UNL A   1      48.301  26.789  26.644  1.00  0.00     0.031 A 
ATOM     51  C   UNL A   1      42.863  29.869  28.505  1.00  0.00     0.049 A 
ATOM     52  C   UNL A   1      48.003  28.213  27.024  1.00  0.00     0.074 A 
ATOM     53  C   UNL A   1      42.726  31.185  28.912  1.00  0.00     0.029 A 
ATOM     54  N   UNL A   1      44.196  29.692  28.166  1.00  0.00    -0.354 N 
ATOM     55  N   UNL A   1      46.865  28.743  27.404  1.00  0.00    -0.248 NA
ATOM     56  C   UNL A   1      49.124  29.161  26.975  1.00  0.00     0.031 C 
ATOM     57  C   UNL A   1      43.966  31.818  28.767  1.00  0.00     0.029 A 
ATOM     58  C   UNL A   1      44.887  30.882  28.325  1.00  0.00     0.049 A 
ATOM     59  H   UNL A   1      44.593  28.845  27.858  1.00  0.00     0.167 HD
ATOM     60  C   UNL A   1      47.138  30.081  27.657  1.00  0.00     0.074 A 
ATOM     61  C   UNL A   1      48.552  30.276  27.408  1.00  0.00     0.031 C 
ATOM     62  C   UNL A   1      46.292  31.062  28.060  1.00  0.00     0.031 A 
BRANCH  49  63
ATOM     63  C   UNL A   1      40.427  29.227  28.743  1.00  0.00    -0.014 A 
ATOM     64  C   UNL A   1      40.015  29.445  30.070  1.00  0.00     0.010 A 
ATOM     65  C   UNL A   1      39.501  29.409  27.700  1.00  0.00     0.010 A 
ATOM     66  C   UNL A   1      38.692  29.795  30.352  1.00  0.00     0.020 A 
ATOM     67  C   UNL A   1      38.183  29.788  27.976  1.00  0.00     0.020 A 
ATOM     68  C   UNL A   1      37.783  29.961  29.303  1.00  0.00     0.054 A 
BRANCH  68  69
ATOM     69  S   UNL A   1      36.078  30.436  29.697  1.00  0.00     0.124 S 
ATOM     70  O   UNL A   1      35.933  29.931  31.060  1.00  0.00    -0.237 OA
ATOM     71  O   UNL A   1      36.112  31.890  29.568  1.00  0.00    -0.237 OA
ATOM     72  O   UNL A   1      35.282  29.742  28.688  1.00  0.00    -0.744 OA
ENDBRANCH  68  69
ENDBRANCH  49  63
BRANCH  50  73
ATOM     73  C   UNL A   1      49.672  26.376  26.239  1.00  0.00    -0.014 A 
ATOM     74  C   UNL A   1      50.145  26.650  24.944  1.00  0.00     0.010 A 
ATOM     75  C   UNL A   1      50.517  25.720  27.153  1.00  0.00     0.010 A 
ATOM     76  C   UNL A   1      51.435  26.264  24.566  1.00  0.00     0.020 A 
ATOM     77  C   UNL A   1      51.816  25.358  26.787  1.00  0.00     0.020 A 
ATOM     78  C   UNL A   1      52.263  25.623  25.492  1.00  0.00     0.054 A 
BRANCH  78  79
ATOM     79  S   UNL A   1      53.952  25.183  24.996  1.00  0.00     0.124 S 
ATOM     80  O   UNL A   1      53.891  23.725  24.969  1.00  0.00    -0.237 OA
ATOM     81  O   UNL A   1      54.081  25.836  23.696  1.00  0.00    -0.237 OA
ATOM     82  O   UNL A   1      54.779  25.756  26.057  1.00  0.00    -0.744 OA
ENDBRANCH  78  79
ENDBRANCH  50  73
BRANCH  62  83
ATOM     83  C   UNL A   1      46.877  32.434  28.269  1.00  0.00    -0.014 A 
ATOM     84  C   UNL A   1      47.417  32.812  29.511  1.00  0.00     0.010 A 
ATOM     85  C   UNL A   1      46.929  33.339  27.193  1.00  0.00     0.010 A 
ATOM     86  C   UNL A   1      47.972  34.083  29.682  1.00  0.00     0.020 A 
ATOM     87  C   UNL A   1      47.509  34.601  27.353  1.00  0.00     0.020 A 
ATOM     88  C   UNL A   1      48.016  34.969  28.601  1.00  0.00     0.054 A 
BRANCH  88  89
ATOM     89  S   UNL A   1      48.781  36.596  28.838  1.00  0.00     0.124 S 
ATOM     90  O   UNL A   1      49.876  36.561  27.872  1.00  0.00    -0.237 OA
ATOM     91  O   UNL A   1      47.691  37.513  28.518  1.00  0.00    -0.237 OA
ATOM     92  O   UNL A   1      49.188  36.587  30.241  1.00  0.00    -0.744 OA
ENDBRANCH  88  89
ENDBRANCH  62  83
ENDBRANCH  36  37
ENDBRANCH  28  31
ENDBRANCH  26  27
ENDBRANCH  25  26
ENDBRANCH   1  25
TORSDOF 21
ENDMDL
