MODEL 1
REMARK VINA RESULT:      -9.6      0.000      0.000
REMARK SMILES CC(C)N1C[C@@H](C(=O)N2CCC(C(=O)NCCCCNC(=O)c3ccc(-c4c5nc(c(-c6ccc(S(=O)(=O)[O-])cc6)c6ccc([nH]6)c(-c6ccc(S(=O)(=O)[O-])cc6)c6nc(c(-c7ccc(S(=O)(=O)[O-])cc7)c7ccc4[nH]7)C=C6)C=C5)cc3)CC2)CC1=O
REMARK SMILES IDX 18 1 17 2 16 3 15 4 13 5 14 6 12 8 7 9 8 10 9 11 10 12 84 13
REMARK SMILES IDX 11 14 83 15 6 16 4 17 5 18 86 19 85 20 87 21 2 22 1 23 3 24
REMARK SMILES IDX 19 25 20 26 21 27 22 29 23 30 24 31 82 32 25 33 81 34 26 35
REMARK SMILES IDX 27 36 28 37 75 38 29 39 80 40 74 41 76 42 30 43 79 44 73 45
REMARK SMILES IDX 72 46 31 48 61 49 42 50 60 51 43 52 46 53 59 54 77 55 44 56
REMARK SMILES IDX 45 57 58 59 78 60 47 61 32 62 33 63 41 64 34 65 40 66 35 67
REMARK SMILES IDX 36 68 37 69 38 70 39 71 62 72 63 73 71 74 64 75 70 76 65 77
REMARK SMILES IDX 66 78 67 79 68 80 69 81 48 82 49 83 57 84 50 85 56 86 51 87
REMARK SMILES IDX 52 88 53 89 54 90 55 91
REMARK H PARENT 15 7 20 28 76 47 46 58
REMARK Flexibility Score: inf
ROOT
ATOM      1  C   UNL A   1      41.870  21.849  27.559  1.00  0.00     0.023 C 
ENDROOT
BRANCH   1   2
ATOM      2  C   UNL A   1      42.482  22.998  28.358  1.00  0.00     0.023 C 
BRANCH   2   3
ATOM      3  C   UNL A   1      43.837  23.473  27.839  1.00  0.00     0.116 C 
BRANCH   3   4
ATOM      4  N   UNL A   1      44.556  22.409  27.155  1.00  0.00    -0.356 N 
ATOM      5  C   UNL A   1      45.625  22.456  26.312  1.00  0.00     0.223 C 
ATOM      6  O   UNL A   1      46.044  21.397  25.840  1.00  0.00    -0.275 OA
ATOM      7  H   UNL A   1      44.214  21.504  27.333  1.00  0.00     0.163 HD
BRANCH   5   8
ATOM      8  C   UNL A   1      46.320  23.769  25.982  1.00  0.00     0.082 C 
ATOM      9  C   UNL A   1      45.204  27.594  26.438  1.00  0.00     0.227 C 
ATOM     10  O   UNL A   1      44.028  27.465  26.083  1.00  0.00    -0.274 OA
ATOM     11  N   UNL A   1      46.149  26.644  26.096  1.00  0.00    -0.342 N 
ATOM     12  C   UNL A   1      46.046  25.994  24.797  1.00  0.00     0.120 C 
ATOM     13  C   UNL A   1      47.041  25.989  27.038  1.00  0.00     0.120 C 
ATOM     14  C   UNL A   1      45.567  24.559  24.905  1.00  0.00     0.035 C 
ATOM     15  C   UNL A   1      46.642  24.537  27.271  1.00  0.00     0.035 C 
BRANCH   9  16
ATOM     16  C   UNL A   1      45.668  28.944  26.980  1.00  0.00     0.107 C 
ATOM     17  N   UNL A   1      45.069  31.215  26.949  1.00  0.00    -0.339 N 
ATOM     18  C   UNL A   1      44.481  29.899  27.001  1.00  0.00     0.133 C 
ATOM     19  C   UNL A   1      46.390  31.178  26.538  1.00  0.00     0.223 C 
ATOM     20  C   UNL A   1      46.789  29.739  26.329  1.00  0.00     0.115 C 
ATOM     21  O   UNL A   1      47.109  32.139  26.312  1.00  0.00    -0.275 OA
BRANCH  17  22
ATOM     22  C   UNL A   1      44.293  32.449  27.067  1.00  0.00     0.078 C 
ATOM     23  C   UNL A   1      44.854  33.346  28.172  1.00  0.00     0.031 C 
ATOM     24  C   UNL A   1      44.208  33.201  25.741  1.00  0.00     0.031 C 
ENDBRANCH  17  22
ENDBRANCH   9  16
ENDBRANCH   5   8
ENDBRANCH   3   4
ENDBRANCH   2   3
ENDBRANCH   1   2
BRANCH   1  25
ATOM     25  C   UNL A   1      41.479  22.201  26.130  1.00  0.00     0.116 C 
BRANCH  25  26
ATOM     26  N   UNL A   1      40.056  22.032  25.874  1.00  0.00    -0.352 N 
ATOM     27  C   UNL A   1      39.016  22.863  26.216  1.00  0.00     0.251 C 
ATOM     28  H   UNL A   1      39.804  21.211  25.392  1.00  0.00     0.163 HD
ATOM     29  O   UNL A   1      37.855  22.505  26.050  1.00  0.00    -0.269 OA
BRANCH  27  30
ATOM     30  C   UNL A   1      39.313  24.180  26.815  1.00  0.00     0.039 A 
ATOM     31  C   UNL A   1      38.956  24.414  28.144  1.00  0.00     0.014 A 
ATOM     32  C   UNL A   1      39.985  25.161  26.080  1.00  0.00     0.014 A 
ATOM     33  C   UNL A   1      39.337  25.610  28.758  1.00  0.00     0.010 A 
ATOM     34  C   UNL A   1      40.437  26.311  26.718  1.00  0.00     0.010 A 
ATOM     35  C   UNL A   1      40.116  26.550  28.062  1.00  0.00    -0.014 A 
BRANCH  35  36
ATOM     36  C   UNL A   1      40.607  27.785  28.724  1.00  0.00     0.031 A 
ATOM     37  C   UNL A   1      42.003  27.839  29.283  1.00  0.00     0.074 A 
ATOM     38  C   UNL A   1      39.775  28.835  28.879  1.00  0.00     0.049 A 
ATOM     39  N   UNL A   1      42.592  28.808  29.937  1.00  0.00    -0.248 NA
ATOM     40  C   UNL A   1      42.839  26.639  29.108  1.00  0.00     0.031 C 
ATOM     41  C   UNL A   1      38.384  28.890  28.422  1.00  0.00     0.029 A 
ATOM     42  N   UNL A   1      39.976  30.059  29.469  1.00  0.00    -0.354 N 
ATOM     43  C   UNL A   1      43.855  28.330  30.264  1.00  0.00     0.074 A 
ATOM     44  C   UNL A   1      43.929  26.968  29.786  1.00  0.00     0.031 C 
ATOM     45  C   UNL A   1      37.870  30.094  28.720  1.00  0.00     0.029 A 
ATOM     46  C   UNL A   1      38.874  30.880  29.430  1.00  0.00     0.049 A 
ATOM     47  H   UNL A   1      40.830  30.323  29.881  1.00  0.00     0.167 HD
ATOM     48  C   UNL A   1      44.870  28.974  30.889  1.00  0.00     0.031 A 
ATOM     49  C   UNL A   1      38.687  32.122  29.917  1.00  0.00     0.031 A 
ATOM     50  C   UNL A   1      44.793  30.333  31.356  1.00  0.00     0.049 A 
ATOM     51  C   UNL A   1      39.824  32.812  30.619  1.00  0.00     0.074 A 
ATOM     52  C   UNL A   1      45.786  31.094  31.947  1.00  0.00     0.029 A 
ATOM     53  N   UNL A   1      43.661  31.131  31.292  1.00  0.00    -0.354 N 
ATOM     54  N   UNL A   1      41.036  32.369  30.855  1.00  0.00    -0.248 NA
ATOM     55  C   UNL A   1      39.574  34.174  31.109  1.00  0.00     0.031 C 
ATOM     56  C   UNL A   1      45.236  32.331  32.299  1.00  0.00     0.029 A 
ATOM     57  C   UNL A   1      43.922  32.367  31.860  1.00  0.00     0.049 A 
ATOM     58  H   UNL A   1      42.800  30.860  30.899  1.00  0.00     0.167 HD
ATOM     59  C   UNL A   1      41.702  33.409  31.495  1.00  0.00     0.074 A 
ATOM     60  C   UNL A   1      40.762  34.507  31.595  1.00  0.00     0.031 C 
ATOM     61  C   UNL A   1      42.976  33.451  31.957  1.00  0.00     0.031 A 
BRANCH  48  62
ATOM     62  C   UNL A   1      46.149  28.209  31.115  1.00  0.00    -0.014 A 
ATOM     63  C   UNL A   1      46.338  27.427  32.269  1.00  0.00     0.010 A 
ATOM     64  C   UNL A   1      47.160  28.237  30.137  1.00  0.00     0.010 A 
ATOM     65  C   UNL A   1      47.528  26.720  32.460  1.00  0.00     0.020 A 
ATOM     66  C   UNL A   1      48.339  27.506  30.308  1.00  0.00     0.020 A 
ATOM     67  C   UNL A   1      48.522  26.764  31.477  1.00  0.00     0.054 A 
BRANCH  67  68
ATOM     68  S   UNL A   1      50.044  25.815  31.740  1.00  0.00     0.124 S 
ATOM     69  O   UNL A   1      51.020  26.873  31.986  1.00  0.00    -0.237 OA
ATOM     70  O   UNL A   1      49.709  24.988  32.897  1.00  0.00    -0.237 OA
ATOM     71  O   UNL A   1      50.221  25.086  30.486  1.00  0.00    -0.744 OA
ENDBRANCH  67  68
ENDBRANCH  48  62
BRANCH  49  72
ATOM     72  C   UNL A   1      37.369  32.797  29.747  1.00  0.00    -0.014 A 
ATOM     73  C   UNL A   1      36.442  32.837  30.803  1.00  0.00     0.010 A 
ATOM     74  C   UNL A   1      37.041  33.419  28.528  1.00  0.00     0.010 A 
ATOM     75  C   UNL A   1      35.207  33.471  30.639  1.00  0.00     0.020 A 
ATOM     76  C   UNL A   1      35.820  34.082  28.371  1.00  0.00     0.020 A 
ATOM     77  C   UNL A   1      34.906  34.094  29.425  1.00  0.00     0.054 A 
BRANCH  77  78
ATOM     78  S   UNL A   1      33.320  34.960  29.255  1.00  0.00     0.124 S 
ATOM     79  O   UNL A   1      32.776  34.867  30.606  1.00  0.00    -0.237 OA
ATOM     80  O   UNL A   1      33.735  36.294  28.827  1.00  0.00    -0.237 OA
ATOM     81  O   UNL A   1      32.613  34.180  28.241  1.00  0.00    -0.744 OA
ENDBRANCH  77  78
ENDBRANCH  49  72
BRANCH  61  82
ATOM     82  C   UNL A   1      43.449  34.739  32.580  1.00  0.00    -0.014 A 
ATOM     83  C   UNL A   1      43.916  35.806  31.793  1.00  0.00     0.010 A 
ATOM     84  C   UNL A   1      43.368  34.901  33.975  1.00  0.00     0.010 A 
ATOM     85  C   UNL A   1      44.324  37.001  32.394  1.00  0.00     0.020 A 
ATOM     86  C   UNL A   1      43.743  36.105  34.577  1.00  0.00     0.020 A 
ATOM     87  C   UNL A   1      44.233  37.143  33.782  1.00  0.00     0.054 A 
BRANCH  87  88
ATOM     88  S   UNL A   1      44.727  38.718  34.532  1.00  0.00     0.124 S 
ATOM     89  O   UNL A   1      43.988  38.702  35.791  1.00  0.00    -0.237 OA
ATOM     90  O   UNL A   1      46.176  38.575  34.651  1.00  0.00    -0.237 OA
ATOM     91  O   UNL A   1      44.285  39.719  33.564  1.00  0.00    -0.744 OA
ENDBRANCH  87  88
ENDBRANCH  61  82
ENDBRANCH  35  36
ENDBRANCH  27  30
ENDBRANCH  25  26
ENDBRANCH   1  25
TORSDOF 16
ENDMDL
MODEL 2
REMARK VINA RESULT:      -9.6      4.833      7.836
REMARK SMILES CC(C)N1C[C@@H](C(=O)N2CCC(C(=O)NCCCCNC(=O)c3ccc(-c4c5nc(c(-c6ccc(S(=O)(=O)[O-])cc6)c6ccc([nH]6)c(-c6ccc(S(=O)(=O)[O-])cc6)c6nc(c(-c7ccc(S(=O)(=O)[O-])cc7)c7ccc4[nH]7)C=C6)C=C5)cc3)CC2)CC1=O
REMARK SMILES IDX 18 1 17 2 16 3 15 4 13 5 14 6 12 8 7 9 8 10 9 11 10 12 84 13
REMARK SMILES IDX 11 14 83 15 6 16 4 17 5 18 86 19 85 20 87 21 2 22 1 23 3 24
REMARK SMILES IDX 19 25 20 26 21 27 22 29 23 30 24 31 82 32 25 33 81 34 26 35
REMARK SMILES IDX 27 36 28 37 75 38 29 39 80 40 74 41 76 42 30 43 79 44 73 45
REMARK SMILES IDX 72 46 31 48 61 49 42 50 60 51 43 52 46 53 59 54 77 55 44 56
REMARK SMILES IDX 45 57 58 59 78 60 47 61 32 62 33 63 41 64 34 65 40 66 35 67
REMARK SMILES IDX 36 68 37 69 38 70 39 71 62 72 63 73 71 74 64 75 70 76 65 77
REMARK SMILES IDX 66 78 67 79 68 80 69 81 48 82 49 83 57 84 50 85 56 86 51 87
REMARK SMILES IDX 52 88 53 89 54 90 55 91
REMARK H PARENT 15 7 20 28 76 47 46 58
REMARK Flexibility Score: inf
ROOT
ATOM      1  C   UNL A   1      37.572  23.025  26.434  1.00  0.00     0.023 C 
ENDROOT
BRANCH   1   2
ATOM      2  C   UNL A   1      37.945  21.945  25.420  1.00  0.00     0.023 C 
BRANCH   2   3
ATOM      3  C   UNL A   1      36.752  21.316  24.704  1.00  0.00     0.116 C 
BRANCH   3   4
ATOM      4  N   UNL A   1      35.750  20.837  25.644  1.00  0.00    -0.356 N 
ATOM      5  C   UNL A   1      34.489  21.280  25.903  1.00  0.00     0.223 C 
ATOM      6  O   UNL A   1      33.836  20.706  26.777  1.00  0.00    -0.275 OA
ATOM      7  H   UNL A   1      36.031  20.062  26.182  1.00  0.00     0.163 HD
BRANCH   5   8
ATOM      8  C   UNL A   1      33.872  22.427  25.116  1.00  0.00     0.082 C 
ATOM      9  C   UNL A   1      31.127  25.185  26.086  1.00  0.00     0.227 C 
ATOM     10  O   UNL A   1      30.361  24.442  26.709  1.00  0.00    -0.274 OA
ATOM     11  N   UNL A   1      32.050  24.659  25.202  1.00  0.00    -0.342 N 
ATOM     12  C   UNL A   1      31.678  23.489  24.418  1.00  0.00     0.120 C 
ATOM     13  C   UNL A   1      33.473  24.955  25.218  1.00  0.00     0.120 C 
ATOM     14  C   UNL A   1      32.368  22.227  24.901  1.00  0.00     0.035 C 
ATOM     15  C   UNL A   1      34.287  23.772  25.727  1.00  0.00     0.035 C 
BRANCH   9  16
ATOM     16  C   UNL A   1      30.843  26.685  26.061  1.00  0.00     0.107 C 
ATOM     17  N   UNL A   1      30.817  28.502  24.572  1.00  0.00    -0.339 N 
ATOM     18  C   UNL A   1      30.502  27.096  24.634  1.00  0.00     0.133 C 
ATOM     19  C   UNL A   1      31.624  28.900  25.624  1.00  0.00     0.223 C 
ATOM     20  C   UNL A   1      31.862  27.714  26.523  1.00  0.00     0.115 C 
ATOM     21  O   UNL A   1      32.123  30.004  25.781  1.00  0.00    -0.275 OA
BRANCH  17  22
ATOM     22  C   UNL A   1      30.532  29.342  23.409  1.00  0.00     0.078 C 
ATOM     23  C   UNL A   1      30.160  28.489  22.195  1.00  0.00     0.031 C 
ATOM     24  C   UNL A   1      29.452  30.379  23.703  1.00  0.00     0.031 C 
ENDBRANCH  17  22
ENDBRANCH   9  16
ENDBRANCH   5   8
ENDBRANCH   3   4
ENDBRANCH   2   3
ENDBRANCH   1   2
BRANCH   1  25
ATOM     25  C   UNL A   1      38.374  24.315  26.318  1.00  0.00     0.116 C 
BRANCH  25  26
ATOM     26  N   UNL A   1      39.794  24.082  26.097  1.00  0.00    -0.352 N 
ATOM     27  C   UNL A   1      40.867  24.797  26.574  1.00  0.00     0.251 C 
ATOM     28  H   UNL A   1      40.017  23.309  25.530  1.00  0.00     0.163 HD
ATOM     29  O   UNL A   1      42.001  24.551  26.178  1.00  0.00    -0.269 OA
BRANCH  27  30
ATOM     30  C   UNL A   1      40.633  25.885  27.546  1.00  0.00     0.039 A 
ATOM     31  C   UNL A   1      39.688  25.700  28.555  1.00  0.00     0.014 A 
ATOM     32  C   UNL A   1      41.382  27.064  27.485  1.00  0.00     0.014 A 
ATOM     33  C   UNL A   1      39.542  26.671  29.548  1.00  0.00     0.010 A 
ATOM     34  C   UNL A   1      41.296  27.988  28.521  1.00  0.00     0.010 A 
ATOM     35  C   UNL A   1      40.374  27.804  29.562  1.00  0.00    -0.014 A 
BRANCH  35  36
ATOM     36  C   UNL A   1      40.297  28.803  30.658  1.00  0.00     0.031 A 
ATOM     37  C   UNL A   1      41.190  28.674  31.862  1.00  0.00     0.074 A 
ATOM     38  C   UNL A   1      39.379  29.789  30.599  1.00  0.00     0.049 A 
ATOM     39  N   UNL A   1      41.234  29.417  32.938  1.00  0.00    -0.248 NA
ATOM     40  C   UNL A   1      42.141  27.549  31.871  1.00  0.00     0.031 C 
ATOM     41  C   UNL A   1      38.424  29.995  29.506  1.00  0.00     0.029 A 
ATOM     42  N   UNL A   1      39.095  30.802  31.480  1.00  0.00    -0.354 N 
ATOM     43  C   UNL A   1      42.199  28.842  33.756  1.00  0.00     0.074 A 
ATOM     44  C   UNL A   1      42.678  27.658  33.077  1.00  0.00     0.031 C 
ATOM     45  C   UNL A   1      37.684  31.084  29.769  1.00  0.00     0.029 A 
ATOM     46  C   UNL A   1      38.075  31.627  31.065  1.00  0.00     0.049 A 
ATOM     47  H   UNL A   1      39.576  30.928  32.330  1.00  0.00     0.167 HD
ATOM     48  C   UNL A   1      42.661  29.270  34.955  1.00  0.00     0.031 A 
ATOM     49  C   UNL A   1      37.510  32.695  31.663  1.00  0.00     0.031 A 
ATOM     50  C   UNL A   1      42.186  30.453  35.622  1.00  0.00     0.049 A 
ATOM     51  C   UNL A   1      38.031  33.144  33.001  1.00  0.00     0.074 A 
ATOM     52  C   UNL A   1      42.632  31.005  36.811  1.00  0.00     0.029 A 
ATOM     53  N   UNL A   1      41.157  31.263  35.166  1.00  0.00    -0.354 N 
ATOM     54  N   UNL A   1      38.996  32.628  33.725  1.00  0.00    -0.248 NA
ATOM     55  C   UNL A   1      37.396  34.328  33.597  1.00  0.00     0.031 C 
ATOM     56  C   UNL A   1      41.829  32.112  37.106  1.00  0.00     0.029 A 
ATOM     57  C   UNL A   1      40.933  32.293  36.065  1.00  0.00     0.049 A 
ATOM     58  H   UNL A   1      40.661  31.127  34.327  1.00  0.00     0.167 HD
ATOM     59  C   UNL A   1      39.103  33.442  34.848  1.00  0.00     0.074 A 
ATOM     60  C   UNL A   1      38.115  34.491  34.698  1.00  0.00     0.031 C 
ATOM     61  C   UNL A   1      39.944  33.330  35.906  1.00  0.00     0.031 A 
BRANCH  48  62
ATOM     62  C   UNL A   1      43.728  28.447  35.629  1.00  0.00    -0.014 A 
ATOM     63  C   UNL A   1      43.395  27.385  36.491  1.00  0.00     0.010 A 
ATOM     64  C   UNL A   1      45.084  28.707  35.361  1.00  0.00     0.010 A 
ATOM     65  C   UNL A   1      44.398  26.628  37.103  1.00  0.00     0.020 A 
ATOM     66  C   UNL A   1      46.090  27.932  35.946  1.00  0.00     0.020 A 
ATOM     67  C   UNL A   1      45.739  26.907  36.826  1.00  0.00     0.054 A 
BRANCH  67  68
ATOM     68  S   UNL A   1      47.018  25.890  37.614  1.00  0.00     0.124 S 
ATOM     69  O   UNL A   1      48.215  26.701  37.411  1.00  0.00    -0.237 OA
ATOM     70  O   UNL A   1      46.547  25.799  38.994  1.00  0.00    -0.237 OA
ATOM     71  O   UNL A   1      46.979  24.638  36.862  1.00  0.00    -0.744 OA
ENDBRANCH  67  68
ENDBRANCH  48  62
BRANCH  49  72
ATOM     72  C   UNL A   1      36.393  33.418  30.992  1.00  0.00    -0.014 A 
ATOM     73  C   UNL A   1      35.254  33.809  31.718  1.00  0.00     0.010 A 
ATOM     74  C   UNL A   1      36.472  33.735  29.624  1.00  0.00     0.010 A 
ATOM     75  C   UNL A   1      34.209  34.488  31.085  1.00  0.00     0.020 A 
ATOM     76  C   UNL A   1      35.443  34.442  28.994  1.00  0.00     0.020 A 
ATOM     77  C   UNL A   1      34.312  34.804  29.727  1.00  0.00     0.054 A 
BRANCH  77  78
ATOM     78  S   UNL A   1      32.968  35.735  28.941  1.00  0.00     0.124 S 
ATOM     79  O   UNL A   1      32.412  34.748  28.020  1.00  0.00    -0.237 OA
ATOM     80  O   UNL A   1      32.123  36.088  30.080  1.00  0.00    -0.237 OA
ATOM     81  O   UNL A   1      33.655  36.862  28.312  1.00  0.00    -0.744 OA
ENDBRANCH  77  78
ENDBRANCH  49  72
BRANCH  61  82
ATOM     82  C   UNL A   1      39.865  34.391  36.973  1.00  0.00    -0.014 A 
ATOM     83  C   UNL A   1      40.567  35.603  36.856  1.00  0.00     0.010 A 
ATOM     84  C   UNL A   1      39.025  34.192  38.084  1.00  0.00     0.010 A 
ATOM     85  C   UNL A   1      40.456  36.583  37.847  1.00  0.00     0.020 A 
ATOM     86  C   UNL A   1      38.885  35.180  39.061  1.00  0.00     0.020 A 
ATOM     87  C   UNL A   1      39.614  36.365  38.942  1.00  0.00     0.054 A 
BRANCH  87  88
ATOM     88  S   UNL A   1      39.454  37.670  40.192  1.00  0.00     0.124 S 
ATOM     89  O   UNL A   1      38.350  38.466  39.662  1.00  0.00    -0.237 OA
ATOM     90  O   UNL A   1      39.158  36.915  41.406  1.00  0.00    -0.237 OA
ATOM     91  O   UNL A   1      40.758  38.328  40.177  1.00  0.00    -0.744 OA
ENDBRANCH  87  88
ENDBRANCH  61  82
ENDBRANCH  35  36
ENDBRANCH  27  30
ENDBRANCH  25  26
ENDBRANCH   1  25
TORSDOF 16
ENDMDL
MODEL 3
REMARK VINA RESULT:      -9.5      3.445      6.817
REMARK SMILES CC(C)N1C[C@@H](C(=O)N2CCC(C(=O)NCCCCNC(=O)c3ccc(-c4c5nc(c(-c6ccc(S(=O)(=O)[O-])cc6)c6ccc([nH]6)c(-c6ccc(S(=O)(=O)[O-])cc6)c6nc(c(-c7ccc(S(=O)(=O)[O-])cc7)c7ccc4[nH]7)C=C6)C=C5)cc3)CC2)CC1=O
REMARK SMILES IDX 18 1 17 2 16 3 15 4 13 5 14 6 12 8 7 9 8 10 9 11 10 12 84 13
REMARK SMILES IDX 11 14 83 15 6 16 4 17 5 18 86 19 85 20 87 21 2 22 1 23 3 24
REMARK SMILES IDX 19 25 20 26 21 27 22 29 23 30 24 31 82 32 25 33 81 34 26 35
REMARK SMILES IDX 27 36 28 37 75 38 29 39 80 40 74 41 76 42 30 43 79 44 73 45
REMARK SMILES IDX 72 46 31 48 61 49 42 50 60 51 43 52 46 53 59 54 77 55 44 56
REMARK SMILES IDX 45 57 58 59 78 60 47 61 32 62 33 63 41 64 34 65 40 66 35 67
REMARK SMILES IDX 36 68 37 69 38 70 39 71 62 72 63 73 71 74 64 75 70 76 65 77
REMARK SMILES IDX 66 78 67 79 68 80 69 81 48 82 49 83 57 84 50 85 56 86 51 87
REMARK SMILES IDX 52 88 53 89 54 90 55 91
REMARK H PARENT 15 7 20 28 76 47 46 58
REMARK Flexibility Score: inf
ROOT
ATOM      1  C   UNL A   1      35.792  23.315  26.137  1.00  0.00     0.023 C 
ENDROOT
BRANCH   1   2
ATOM      2  C   UNL A   1      35.411  21.840  26.241  1.00  0.00     0.023 C 
BRANCH   2   3
ATOM      3  C   UNL A   1      35.184  21.152  24.898  1.00  0.00     0.116 C 
BRANCH   3   4
ATOM      4  N   UNL A   1      34.259  20.035  25.014  1.00  0.00    -0.356 N 
ATOM      5  C   UNL A   1      32.904  19.984  24.888  1.00  0.00     0.223 C 
ATOM      6  O   UNL A   1      32.342  18.899  25.056  1.00  0.00    -0.275 OA
ATOM      7  H   UNL A   1      34.685  19.170  25.216  1.00  0.00     0.163 HD
BRANCH   5   8
ATOM      8  C   UNL A   1      32.094  21.216  24.512  1.00  0.00     0.082 C 
ATOM      9  C   UNL A   1      32.533  25.101  25.404  1.00  0.00     0.227 C 
ATOM     10  O   UNL A   1      32.844  24.962  26.592  1.00  0.00    -0.274 OA
ATOM     11  N   UNL A   1      31.890  24.082  24.724  1.00  0.00    -0.342 N 
ATOM     12  C   UNL A   1      30.924  23.264  25.443  1.00  0.00     0.120 C 
ATOM     13  C   UNL A   1      32.328  23.535  23.451  1.00  0.00     0.120 C 
ATOM     14  C   UNL A   1      31.453  21.873  25.739  1.00  0.00     0.035 C 
ATOM     15  C   UNL A   1      32.924  22.142  23.614  1.00  0.00     0.035 C 
BRANCH   9  16
ATOM     16  C   UNL A   1      32.576  26.496  24.788  1.00  0.00     0.107 C 
ATOM     17  N   UNL A   1      32.642  28.758  25.419  1.00  0.00    -0.339 N 
ATOM     18  C   UNL A   1      33.153  27.468  25.811  1.00  0.00     0.133 C 
ATOM     19  C   UNL A   1      31.572  28.651  24.548  1.00  0.00     0.223 C 
ATOM     20  C   UNL A   1      31.332  27.191  24.259  1.00  0.00     0.115 C 
ATOM     21  O   UNL A   1      30.883  29.566  24.124  1.00  0.00    -0.275 OA
BRANCH  17  22
ATOM     22  C   UNL A   1      33.039  30.011  26.060  1.00  0.00     0.078 C 
ATOM     23  C   UNL A   1      31.886  30.599  26.876  1.00  0.00     0.031 C 
ATOM     24  C   UNL A   1      34.289  29.843  26.920  1.00  0.00     0.031 C 
ENDBRANCH  17  22
ENDBRANCH   9  16
ENDBRANCH   5   8
ENDBRANCH   3   4
ENDBRANCH   2   3
ENDBRANCH   1   2
BRANCH   1  25
ATOM     25  C   UNL A   1      37.023  23.599  25.285  1.00  0.00     0.116 C 
BRANCH  25  26
ATOM     26  N   UNL A   1      38.111  22.664  25.533  1.00  0.00    -0.352 N 
ATOM     27  C   UNL A   1      39.315  22.892  26.156  1.00  0.00     0.251 C 
ATOM     28  H   UNL A   1      37.967  21.746  25.210  1.00  0.00     0.163 HD
ATOM     29  O   UNL A   1      40.185  22.029  26.159  1.00  0.00    -0.269 OA
BRANCH  27  30
ATOM     30  C   UNL A   1      39.559  24.202  26.795  1.00  0.00     0.039 A 
ATOM     31  C   UNL A   1      39.107  24.414  28.098  1.00  0.00     0.014 A 
ATOM     32  C   UNL A   1      40.275  25.198  26.124  1.00  0.00     0.014 A 
ATOM     33  C   UNL A   1      39.434  25.602  28.755  1.00  0.00     0.010 A 
ATOM     34  C   UNL A   1      40.672  26.341  26.809  1.00  0.00     0.010 A 
ATOM     35  C   UNL A   1      40.253  26.557  28.130  1.00  0.00    -0.014 A 
BRANCH  35  36
ATOM     36  C   UNL A   1      40.687  27.785  28.844  1.00  0.00     0.031 A 
ATOM     37  C   UNL A   1      42.048  27.847  29.483  1.00  0.00     0.074 A 
ATOM     38  C   UNL A   1      39.832  28.820  28.972  1.00  0.00     0.049 A 
ATOM     39  N   UNL A   1      42.584  28.811  30.188  1.00  0.00    -0.248 NA
ATOM     40  C   UNL A   1      42.911  26.663  29.333  1.00  0.00     0.031 C 
ATOM     41  C   UNL A   1      38.469  28.865  28.436  1.00  0.00     0.029 A 
ATOM     42  N   UNL A   1      39.981  30.034  29.596  1.00  0.00    -0.354 N 
ATOM     43  C   UNL A   1      43.833  28.344  30.579  1.00  0.00     0.074 A 
ATOM     44  C   UNL A   1      43.955  26.993  30.079  1.00  0.00     0.031 C 
ATOM     45  C   UNL A   1      37.921  30.056  28.728  1.00  0.00     0.029 A 
ATOM     46  C   UNL A   1      38.871  30.840  29.510  1.00  0.00     0.049 A 
ATOM     47  H   UNL A   1      40.806  30.302  30.062  1.00  0.00     0.167 HD
ATOM     48  C   UNL A   1      44.801  28.988  31.273  1.00  0.00     0.031 A 
ATOM     49  C   UNL A   1      38.637  32.070  30.010  1.00  0.00     0.031 A 
ATOM     50  C   UNL A   1      44.677  30.336  31.762  1.00  0.00     0.049 A 
ATOM     51  C   UNL A   1      39.722  32.761  30.790  1.00  0.00     0.074 A 
ATOM     52  C   UNL A   1      45.623  31.099  32.424  1.00  0.00     0.029 A 
ATOM     53  N   UNL A   1      43.539  31.120  31.648  1.00  0.00    -0.354 N 
ATOM     54  N   UNL A   1      40.925  32.330  31.085  1.00  0.00    -0.248 NA
ATOM     55  C   UNL A   1      39.423  34.109  31.291  1.00  0.00     0.031 C 
ATOM     56  C   UNL A   1      45.036  32.321  32.768  1.00  0.00     0.029 A 
ATOM     57  C   UNL A   1      43.749  32.347  32.255  1.00  0.00     0.049 A 
ATOM     58  H   UNL A   1      42.706  30.845  31.202  1.00  0.00     0.167 HD
ATOM     59  C   UNL A   1      41.537  33.366  31.783  1.00  0.00     0.074 A 
ATOM     60  C   UNL A   1      40.576  34.448  31.851  1.00  0.00     0.031 C 
ATOM     61  C   UNL A   1      42.782  33.416  32.318  1.00  0.00     0.031 A 
BRANCH  48  62
ATOM     62  C   UNL A   1      46.076  28.238  31.557  1.00  0.00    -0.014 A 
ATOM     63  C   UNL A   1      47.188  28.335  30.700  1.00  0.00     0.010 A 
ATOM     64  C   UNL A   1      46.182  27.458  32.724  1.00  0.00     0.010 A 
ATOM     65  C   UNL A   1      48.365  27.636  30.981  1.00  0.00     0.020 A 
ATOM     66  C   UNL A   1      47.368  26.783  33.027  1.00  0.00     0.020 A 
ATOM     67  C   UNL A   1      48.447  26.864  32.144  1.00  0.00     0.054 A 
BRANCH  67  68
ATOM     68  S   UNL A   1      49.996  25.990  32.497  1.00  0.00     0.124 S 
ATOM     69  O   UNL A   1      50.988  26.888  31.915  1.00  0.00    -0.237 OA
ATOM     70  O   UNL A   1      49.995  25.917  33.957  1.00  0.00    -0.237 OA
ATOM     71  O   UNL A   1      49.838  24.709  31.812  1.00  0.00    -0.744 OA
ENDBRANCH  67  68
ENDBRANCH  48  62
BRANCH  49  72
ATOM     72  C   UNL A   1      37.321  32.729  29.777  1.00  0.00    -0.014 A 
ATOM     73  C   UNL A   1      36.274  32.590  30.706  1.00  0.00     0.010 A 
ATOM     74  C   UNL A   1      37.113  33.517  28.630  1.00  0.00     0.010 A 
ATOM     75  C   UNL A   1      35.041  33.210  30.484  1.00  0.00     0.020 A 
ATOM     76  C   UNL A   1      35.893  34.166  28.420  1.00  0.00     0.020 A 
ATOM     77  C   UNL A   1      34.860  33.999  29.345  1.00  0.00     0.054 A 
BRANCH  77  78
ATOM     78  S   UNL A   1      33.270  34.840  29.107  1.00  0.00     0.124 S 
ATOM     79  O   UNL A   1      32.702  34.802  30.451  1.00  0.00    -0.237 OA
ATOM     80  O   UNL A   1      33.681  36.158  28.628  1.00  0.00    -0.237 OA
ATOM     81  O   UNL A   1      32.589  34.010  28.115  1.00  0.00    -0.744 OA
ENDBRANCH  77  78
ENDBRANCH  49  72
BRANCH  61  82
ATOM     82  C   UNL A   1      43.199  34.697  32.993  1.00  0.00    -0.014 A 
ATOM     83  C   UNL A   1      43.161  34.834  34.392  1.00  0.00     0.010 A 
ATOM     84  C   UNL A   1      43.692  35.760  32.214  1.00  0.00     0.010 A 
ATOM     85  C   UNL A   1      43.579  36.024  34.996  1.00  0.00     0.020 A 
ATOM     86  C   UNL A   1      44.141  36.938  32.816  1.00  0.00     0.020 A 
ATOM     87  C   UNL A   1      44.068  37.067  34.204  1.00  0.00     0.054 A 
BRANCH  87  88
ATOM     88  S   UNL A   1      44.644  38.583  35.016  1.00  0.00     0.124 S 
ATOM     89  O   UNL A   1      46.091  38.394  35.023  1.00  0.00    -0.237 OA
ATOM     90  O   UNL A   1      44.151  39.630  34.125  1.00  0.00    -0.237 OA
ATOM     91  O   UNL A   1      44.004  38.539  36.328  1.00  0.00    -0.744 OA
ENDBRANCH  87  88
ENDBRANCH  61  82
ENDBRANCH  35  36
ENDBRANCH  27  30
ENDBRANCH  25  26
ENDBRANCH   1  25
TORSDOF 16
ENDMDL
