MODEL 1
REMARK VINA RESULT:     -11.2      0.000      0.000
REMARK SMILES Cc1cc(CNS(=O)(=O)c2ccc(C(=O)NCCCCNC(=O)c3ccc(-c4c5nc(c(-c6ccc(S(=O)(=O)[O-])cc6)c6ccc([nH]6)c(-c6ccc(S(=O)(=O)[O-])cc6)c6nc(c(-c7ccc(S(=O)(=O)[O-])cc7)c7ccc4[nH]7)C=C6)C=C5)cc3)cc2F)no1
REMARK SMILES IDX 18 1 17 2 16 3 14 4 15 5 13 7 10 8 11 9 85 10 12 11 84 12
REMARK SMILES IDX 86 13 7 14 8 15 9 16 6 17 5 19 4 20 1 21 2 22 3 23 88 24
REMARK SMILES IDX 87 25 19 26 20 27 21 28 22 29 23 31 24 32 25 33 83 34 26 35
REMARK SMILES IDX 82 36 27 37 28 38 29 39 76 40 30 41 81 42 75 43 77 44 31 45
REMARK SMILES IDX 80 46 74 47 73 48 32 50 62 51 43 52 61 53 44 54 47 55 60 56
REMARK SMILES IDX 78 57 45 58 46 59 59 61 79 62 48 63 33 64 34 65 42 66 35 67
REMARK SMILES IDX 41 68 36 69 37 70 38 71 39 72 40 73 63 74 64 75 72 76 65 77
REMARK SMILES IDX 71 78 66 79 67 80 68 81 69 82 70 83 49 84 50 85 58 86 51 87
REMARK SMILES IDX 57 88 52 89 53 90 54 91 55 92 56 93
REMARK H PARENT 16 6 6 18 21 30 77 49 47 60
REMARK Flexibility Score: inf
ROOT
ATOM      1  C   UNL A   1      32.655  29.788  25.079  1.00  0.00     0.023 C 
ENDROOT
BRANCH   1   2
ATOM      2  C   UNL A   1      31.132  29.824  24.939  1.00  0.00     0.116 C 
BRANCH   2   3
ATOM      3  N   UNL A   1      30.723  29.376  23.622  1.00  0.00    -0.352 N 
ATOM      4  C   UNL A   1      30.670  28.143  23.029  1.00  0.00     0.251 C 
ATOM      5  O   UNL A   1      30.235  28.089  21.878  1.00  0.00    -0.269 OA
ATOM      6  H   UNL A   1      30.423  30.107  23.034  1.00  0.00     0.163 HD
BRANCH   4   7
ATOM      7  C   UNL A   1      31.082  26.866  23.688  1.00  0.00     0.042 A 
ATOM      8  C   UNL A   1      31.630  24.434  24.990  1.00  0.00     0.118 A 
ATOM      9  C   UNL A   1      30.467  25.134  25.305  1.00  0.00     0.026 A 
ATOM     10  C   UNL A   1      32.507  24.940  24.046  1.00  0.00     0.144 A 
ATOM     11  C   UNL A   1      30.206  26.349  24.664  1.00  0.00     0.015 A 
ATOM     12  C   UNL A   1      32.224  26.128  23.373  1.00  0.00     0.054 A 
ATOM     13  F   UNL A   1      33.627  24.280  23.720  1.00  0.00    -0.205 F 
BRANCH   8  14
ATOM     14  S   UNL A   1      31.950  22.867  25.729  1.00  0.00     0.243 S 
ATOM     15  O   UNL A   1      30.753  22.483  26.453  1.00  0.00    -0.207 OA
ATOM     16  O   UNL A   1      33.233  22.956  26.377  1.00  0.00    -0.207 OA
BRANCH  14  17
ATOM     17  N   UNL A   1      32.096  21.796  24.449  1.00  0.00    -0.205 NA
ATOM     18  H   UNL A   1      31.378  21.081  24.569  1.00  0.00     0.141 HD
BRANCH  17  19
ATOM     19  C   UNL A   1      33.377  21.104  24.277  1.00  0.00     0.158 C 
BRANCH  19  20
ATOM     20  C   UNL A   1      33.187  19.662  24.613  1.00  0.00     0.099 A 
ATOM     21  C   UNL A   1      33.758  16.069  25.062  1.00  0.00     0.091 C 
ATOM     22  C   UNL A   1      33.426  17.497  24.921  1.00  0.00     0.133 A 
ATOM     23  C   UNL A   1      34.094  18.593  24.435  1.00  0.00     0.073 A 
ATOM     24  O   UNL A   1      32.198  17.878  25.359  1.00  0.00    -0.361 OA
ATOM     25  N   UNL A   1      32.042  19.241  25.170  1.00  0.00    -0.083 NA
ENDBRANCH  19  20
ENDBRANCH  17  19
ENDBRANCH  14  17
ENDBRANCH   8  14
ENDBRANCH   4   7
ENDBRANCH   2   3
ENDBRANCH   1   2
BRANCH   1  26
ATOM     26  C   UNL A   1      33.198  28.525  25.757  1.00  0.00     0.023 C 
BRANCH  26  27
ATOM     27  C   UNL A   1      33.658  28.714  27.200  1.00  0.00     0.116 C 
BRANCH  27  28
ATOM     28  N   UNL A   1      33.578  30.094  27.654  1.00  0.00    -0.352 N 
ATOM     29  C   UNL A   1      34.548  30.842  28.277  1.00  0.00     0.251 C 
ATOM     30  H   UNL A   1      32.720  30.549  27.496  1.00  0.00     0.163 HD
ATOM     31  O   UNL A   1      34.291  31.970  28.686  1.00  0.00    -0.269 OA
BRANCH  29  32
ATOM     32  C   UNL A   1      35.887  30.256  28.489  1.00  0.00     0.039 A 
ATOM     33  C   UNL A   1      36.819  30.320  27.450  1.00  0.00     0.014 A 
ATOM     34  C   UNL A   1      36.232  29.688  29.718  1.00  0.00     0.014 A 
ATOM     35  C   UNL A   1      38.125  29.879  27.669  1.00  0.00     0.010 A 
ATOM     36  C   UNL A   1      37.548  29.300  29.951  1.00  0.00     0.010 A 
ATOM     37  C   UNL A   1      38.508  29.402  28.933  1.00  0.00    -0.014 A 
BRANCH  37  38
ATOM     38  C   UNL A   1      39.915  29.026  29.220  1.00  0.00     0.031 A 
ATOM     39  C   UNL A   1      40.855  30.029  29.825  1.00  0.00     0.074 A 
ATOM     40  C   UNL A   1      40.361  27.807  28.862  1.00  0.00     0.049 A 
ATOM     41  N   UNL A   1      42.134  29.911  30.075  1.00  0.00    -0.248 NA
ATOM     42  C   UNL A   1      40.291  31.342  30.173  1.00  0.00     0.031 C 
ATOM     43  C   UNL A   1      39.554  26.760  28.229  1.00  0.00     0.029 A 
ATOM     44  N   UNL A   1      41.608  27.245  28.969  1.00  0.00    -0.354 N 
ATOM     45  C   UNL A   1      42.532  31.138  30.591  1.00  0.00     0.074 A 
ATOM     46  C   UNL A   1      41.368  31.998  30.581  1.00  0.00     0.031 C 
ATOM     47  C   UNL A   1      40.322  25.676  28.025  1.00  0.00     0.029 A 
ATOM     48  C   UNL A   1      41.680  25.963  28.478  1.00  0.00     0.049 A 
ATOM     49  H   UNL A   1      42.379  27.716  29.360  1.00  0.00     0.167 HD
ATOM     50  C   UNL A   1      43.752  31.510  31.046  1.00  0.00     0.031 A 
ATOM     51  C   UNL A   1      42.721  25.114  28.395  1.00  0.00     0.031 A 
ATOM     52  C   UNL A   1      44.905  30.651  31.065  1.00  0.00     0.049 A 
ATOM     53  C   UNL A   1      44.066  25.549  28.907  1.00  0.00     0.074 A 
ATOM     54  C   UNL A   1      46.171  30.920  31.553  1.00  0.00     0.029 A 
ATOM     55  N   UNL A   1      44.931  29.355  30.574  1.00  0.00    -0.354 N 
ATOM     56  N   UNL A   1      44.410  26.696  29.441  1.00  0.00    -0.248 NA
ATOM     57  C   UNL A   1      45.160  24.573  28.811  1.00  0.00     0.031 C 
ATOM     58  C   UNL A   1      46.974  29.796  31.324  1.00  0.00     0.029 A 
ATOM     59  C   UNL A   1      46.196  28.815  30.732  1.00  0.00     0.049 A 
ATOM     60  H   UNL A   1      44.164  28.887  30.172  1.00  0.00     0.167 HD
ATOM     61  C   UNL A   1      45.756  26.572  29.766  1.00  0.00     0.074 A 
ATOM     62  C   UNL A   1      46.159  25.236  29.378  1.00  0.00     0.031 C 
ATOM     63  C   UNL A   1      46.581  27.484  30.337  1.00  0.00     0.031 A 
BRANCH  50  64
ATOM     64  C   UNL A   1      43.894  32.920  31.555  1.00  0.00    -0.014 A 
ATOM     65  C   UNL A   1      43.666  33.226  32.908  1.00  0.00     0.010 A 
ATOM     66  C   UNL A   1      44.269  33.949  30.672  1.00  0.00     0.010 A 
ATOM     67  C   UNL A   1      43.758  34.545  33.360  1.00  0.00     0.020 A 
ATOM     68  C   UNL A   1      44.388  35.265  31.126  1.00  0.00     0.020 A 
ATOM     69  C   UNL A   1      44.109  35.559  32.464  1.00  0.00     0.054 A 
BRANCH  69  70
ATOM     70  S   UNL A   1      44.219  37.263  33.072  1.00  0.00     0.124 S 
ATOM     71  O   UNL A   1      44.212  38.026  31.827  1.00  0.00    -0.237 OA
ATOM     72  O   UNL A   1      43.019  37.391  33.894  1.00  0.00    -0.237 OA
ATOM     73  O   UNL A   1      45.480  37.286  33.810  1.00  0.00    -0.744 OA
ENDBRANCH  69  70
ENDBRANCH  50  64
BRANCH  51  74
ATOM     74  C   UNL A   1      42.524  23.756  27.826  1.00  0.00    -0.014 A 
ATOM     75  C   UNL A   1      42.720  23.528  26.452  1.00  0.00     0.010 A 
ATOM     76  C   UNL A   1      42.170  22.677  28.656  1.00  0.00     0.010 A 
ATOM     77  C   UNL A   1      42.557  22.248  25.917  1.00  0.00     0.020 A 
ATOM     78  C   UNL A   1      42.027  21.391  28.128  1.00  0.00     0.020 A 
ATOM     79  C   UNL A   1      42.214  21.186  26.759  1.00  0.00     0.054 A 
BRANCH  79  80
ATOM     80  S   UNL A   1      42.073  19.519  26.055  1.00  0.00     0.124 S 
ATOM     81  O   UNL A   1      42.654  18.694  27.110  1.00  0.00    -0.237 OA
ATOM     82  O   UNL A   1      40.631  19.377  25.862  1.00  0.00    -0.237 OA
ATOM     83  O   UNL A   1      42.852  19.603  24.822  1.00  0.00    -0.744 OA
ENDBRANCH  79  80
ENDBRANCH  51  74
BRANCH  63  84
ATOM     84  C   UNL A   1      47.999  27.059  30.600  1.00  0.00    -0.014 A 
ATOM     85  C   UNL A   1      49.024  27.344  29.681  1.00  0.00     0.010 A 
ATOM     86  C   UNL A   1      48.319  26.419  31.811  1.00  0.00     0.010 A 
ATOM     87  C   UNL A   1      50.342  26.975  29.959  1.00  0.00     0.020 A 
ATOM     88  C   UNL A   1      49.639  26.067  32.102  1.00  0.00     0.020 A 
ATOM     89  C   UNL A   1      50.642  26.337  31.167  1.00  0.00     0.054 A 
BRANCH  89  90
ATOM     90  S   UNL A   1      52.368  25.915  31.531  1.00  0.00     0.124 S 
ATOM     91  O   UNL A   1      52.972  25.934  30.202  1.00  0.00    -0.237 OA
ATOM     92  O   UNL A   1      52.783  26.994  32.425  1.00  0.00    -0.237 OA
ATOM     93  O   UNL A   1      52.276  24.597  32.158  1.00  0.00    -0.744 OA
ENDBRANCH  89  90
ENDBRANCH  63  84
ENDBRANCH  37  38
ENDBRANCH  29  32
ENDBRANCH  27  28
ENDBRANCH  26  27
ENDBRANCH   1  26
TORSDOF 18
ENDMDL
MODEL 2
REMARK VINA RESULT:     -11.0      4.772      9.907
REMARK SMILES Cc1cc(CNS(=O)(=O)c2ccc(C(=O)NCCCCNC(=O)c3ccc(-c4c5nc(c(-c6ccc(S(=O)(=O)[O-])cc6)c6ccc([nH]6)c(-c6ccc(S(=O)(=O)[O-])cc6)c6nc(c(-c7ccc(S(=O)(=O)[O-])cc7)c7ccc4[nH]7)C=C6)C=C5)cc3)cc2F)no1
REMARK SMILES IDX 18 1 17 2 16 3 14 4 15 5 13 7 10 8 11 9 85 10 12 11 84 12
REMARK SMILES IDX 86 13 7 14 8 15 9 16 6 17 5 19 4 20 1 21 2 22 3 23 88 24
REMARK SMILES IDX 87 25 19 26 20 27 21 28 22 29 23 31 24 32 25 33 83 34 26 35
REMARK SMILES IDX 82 36 27 37 28 38 29 39 76 40 30 41 81 42 75 43 77 44 31 45
REMARK SMILES IDX 80 46 74 47 73 48 32 50 62 51 43 52 61 53 44 54 47 55 60 56
REMARK SMILES IDX 78 57 45 58 46 59 59 61 79 62 48 63 33 64 34 65 42 66 35 67
REMARK SMILES IDX 41 68 36 69 37 70 38 71 39 72 40 73 63 74 64 75 72 76 65 77
REMARK SMILES IDX 71 78 66 79 67 80 68 81 69 82 70 83 49 84 50 85 58 86 51 87
REMARK SMILES IDX 57 88 52 89 53 90 54 91 55 92 56 93
REMARK H PARENT 16 6 6 18 21 30 77 49 47 60
REMARK Flexibility Score: inf
ROOT
ATOM      1  C   UNL A   1      39.298  21.675  26.069  1.00  0.00     0.023 C 
ENDROOT
BRANCH   1   2
ATOM      2  C   UNL A   1      37.805  21.649  25.735  1.00  0.00     0.116 C 
BRANCH   2   3
ATOM      3  N   UNL A   1      37.568  22.123  24.387  1.00  0.00    -0.352 N 
ATOM      4  C   UNL A   1      36.503  22.741  23.787  1.00  0.00     0.251 C 
ATOM      5  O   UNL A   1      36.627  23.054  22.601  1.00  0.00    -0.269 OA
ATOM      6  H   UNL A   1      38.327  21.971  23.777  1.00  0.00     0.163 HD
BRANCH   4   7
ATOM      7  C   UNL A   1      35.219  23.075  24.474  1.00  0.00     0.042 A 
ATOM      8  C   UNL A   1      32.871  23.933  25.764  1.00  0.00     0.118 A 
ATOM      9  C   UNL A   1      34.000  24.748  25.782  1.00  0.00     0.026 A 
ATOM     10  C   UNL A   1      32.912  22.708  25.118  1.00  0.00     0.144 A 
ATOM     11  C   UNL A   1      35.169  24.311  25.149  1.00  0.00     0.015 A 
ATOM     12  C   UNL A   1      34.062  22.293  24.449  1.00  0.00     0.054 A 
ATOM     13  F   UNL A   1      31.836  21.911  25.080  1.00  0.00    -0.205 F 
BRANCH   8  14
ATOM     14  S   UNL A   1      31.365  24.487  26.490  1.00  0.00     0.243 S 
ATOM     15  O   UNL A   1      31.579  25.852  26.929  1.00  0.00    -0.207 OA
ATOM     16  O   UNL A   1      30.924  23.457  27.396  1.00  0.00    -0.207 OA
BRANCH  14  17
ATOM     17  N   UNL A   1      30.266  24.561  25.227  1.00  0.00    -0.205 NA
ATOM     18  H   UNL A   1      30.672  24.052  24.441  1.00  0.00     0.141 HD
BRANCH  17  19
ATOM     19  C   UNL A   1      29.876  25.886  24.734  1.00  0.00     0.158 C 
BRANCH  19  20
ATOM     20  C   UNL A   1      30.553  26.124  23.425  1.00  0.00     0.099 A 
ATOM     21  C   UNL A   1      32.583  25.684  20.405  1.00  0.00     0.091 C 
ATOM     22  C   UNL A   1      31.742  25.963  21.581  1.00  0.00     0.133 A 
ATOM     23  C   UNL A   1      31.428  25.266  22.721  1.00  0.00     0.073 A 
ATOM     24  O   UNL A   1      31.103  27.162  21.598  1.00  0.00    -0.361 OA
ATOM     25  N   UNL A   1      30.351  27.268  22.755  1.00  0.00    -0.083 NA
ENDBRANCH  19  20
ENDBRANCH  17  19
ENDBRANCH  14  17
ENDBRANCH   8  14
ENDBRANCH   4   7
ENDBRANCH   2   3
ENDBRANCH   1   2
BRANCH   1  26
ATOM     26  C   UNL A   1      39.691  22.708  27.132  1.00  0.00     0.023 C 
BRANCH  26  27
ATOM     27  C   UNL A   1      39.306  24.148  26.806  1.00  0.00     0.116 C 
BRANCH  27  28
ATOM     28  N   UNL A   1      40.190  24.774  25.835  1.00  0.00    -0.352 N 
ATOM     29  C   UNL A   1      40.943  25.915  25.983  1.00  0.00     0.251 C 
ATOM     30  H   UNL A   1      40.256  24.326  24.961  1.00  0.00     0.163 HD
ATOM     31  O   UNL A   1      41.567  26.370  25.030  1.00  0.00    -0.269 OA
BRANCH  29  32
ATOM     32  C   UNL A   1      40.952  26.611  27.285  1.00  0.00     0.039 A 
ATOM     33  C   UNL A   1      41.790  27.717  27.448  1.00  0.00     0.014 A 
ATOM     34  C   UNL A   1      40.108  26.201  28.320  1.00  0.00     0.014 A 
ATOM     35  C   UNL A   1      41.727  28.460  28.629  1.00  0.00     0.010 A 
ATOM     36  C   UNL A   1      40.008  26.974  29.473  1.00  0.00     0.010 A 
ATOM     37  C   UNL A   1      40.808  28.116  29.633  1.00  0.00    -0.014 A 
BRANCH  37  38
ATOM     38  C   UNL A   1      40.650  28.950  30.849  1.00  0.00     0.031 A 
ATOM     39  C   UNL A   1      39.593  30.016  30.901  1.00  0.00     0.074 A 
ATOM     40  C   UNL A   1      41.511  28.798  31.874  1.00  0.00     0.049 A 
ATOM     41  N   UNL A   1      39.354  30.893  31.843  1.00  0.00    -0.248 NA
ATOM     42  C   UNL A   1      38.704  30.126  29.735  1.00  0.00     0.031 C 
ATOM     43  C   UNL A   1      42.605  27.825  31.925  1.00  0.00     0.029 A 
ATOM     44  N   UNL A   1      41.607  29.468  33.067  1.00  0.00    -0.354 N 
ATOM     45  C   UNL A   1      38.302  31.671  31.375  1.00  0.00     0.074 A 
ATOM     46  C   UNL A   1      37.975  31.187  30.051  1.00  0.00     0.031 C 
ATOM     47  C   UNL A   1      43.248  27.947  33.099  1.00  0.00     0.029 A 
ATOM     48  C   UNL A   1      42.637  29.029  33.866  1.00  0.00     0.049 A 
ATOM     49  H   UNL A   1      40.998  30.196  33.327  1.00  0.00     0.167 HD
ATOM     50  C   UNL A   1      37.656  32.685  31.998  1.00  0.00     0.031 A 
ATOM     51  C   UNL A   1      43.046  29.450  35.077  1.00  0.00     0.031 A 
ATOM     52  C   UNL A   1      37.974  33.157  33.319  1.00  0.00     0.049 A 
ATOM     53  C   UNL A   1      42.314  30.577  35.749  1.00  0.00     0.074 A 
ATOM     54  C   UNL A   1      37.345  34.144  34.056  1.00  0.00     0.029 A 
ATOM     55  N   UNL A   1      39.013  32.673  34.100  1.00  0.00    -0.354 N 
ATOM     56  N   UNL A   1      41.286  31.265  35.313  1.00  0.00    -0.248 NA
ATOM     57  C   UNL A   1      42.792  30.980  37.079  1.00  0.00     0.031 C 
ATOM     58  C   UNL A   1      38.027  34.283  35.270  1.00  0.00     0.029 A 
ATOM     59  C   UNL A   1      39.053  33.353  35.306  1.00  0.00     0.049 A 
ATOM     60  H   UNL A   1      39.631  31.953  33.837  1.00  0.00     0.167 HD
ATOM     61  C   UNL A   1      40.981  32.168  36.324  1.00  0.00     0.074 A 
ATOM     62  C   UNL A   1      41.925  31.931  37.397  1.00  0.00     0.031 C 
ATOM     63  C   UNL A   1      40.002  33.106  36.361  1.00  0.00     0.031 A 
BRANCH  50  64
ATOM     64  C   UNL A   1      36.539  33.354  31.243  1.00  0.00    -0.014 A 
ATOM     65  C   UNL A   1      36.719  33.782  29.915  1.00  0.00     0.010 A 
ATOM     66  C   UNL A   1      35.292  33.549  31.863  1.00  0.00     0.010 A 
ATOM     67  C   UNL A   1      35.690  34.441  29.239  1.00  0.00     0.020 A 
ATOM     68  C   UNL A   1      34.251  34.185  31.181  1.00  0.00     0.020 A 
ATOM     69  C   UNL A   1      34.464  34.647  29.880  1.00  0.00     0.054 A 
BRANCH  69  70
ATOM     70  S   UNL A   1      33.144  35.508  28.983  1.00  0.00     0.124 S 
ATOM     71  O   UNL A   1      32.295  35.974  30.076  1.00  0.00    -0.237 OA
ATOM     72  O   UNL A   1      33.869  36.551  28.264  1.00  0.00    -0.237 OA
ATOM     73  O   UNL A   1      32.561  34.465  28.141  1.00  0.00    -0.744 OA
ENDBRANCH  69  70
ENDBRANCH  50  64
BRANCH  51  74
ATOM     74  C   UNL A   1      44.196  28.782  35.741  1.00  0.00    -0.014 A 
ATOM     75  C   UNL A   1      45.511  29.203  35.475  1.00  0.00     0.010 A 
ATOM     76  C   UNL A   1      43.982  27.744  36.666  1.00  0.00     0.010 A 
ATOM     77  C   UNL A   1      46.592  28.593  36.114  1.00  0.00     0.020 A 
ATOM     78  C   UNL A   1      45.061  27.146  37.324  1.00  0.00     0.020 A 
ATOM     79  C   UNL A   1      46.361  27.569  37.037  1.00  0.00     0.054 A 
BRANCH  79  80
ATOM     80  S   UNL A   1      47.775  26.835  37.907  1.00  0.00     0.124 S 
ATOM     81  O   UNL A   1      47.590  27.337  39.265  1.00  0.00    -0.237 OA
ATOM     82  O   UNL A   1      47.550  25.402  37.724  1.00  0.00    -0.237 OA
ATOM     83  O   UNL A   1      48.930  27.371  37.190  1.00  0.00    -0.744 OA
ENDBRANCH  79  80
ENDBRANCH  51  74
BRANCH  63  84
ATOM     84  C   UNL A   1      39.887  33.932  37.613  1.00  0.00    -0.014 A 
ATOM     85  C   UNL A   1      40.598  35.137  37.753  1.00  0.00     0.010 A 
ATOM     86  C   UNL A   1      39.011  33.526  38.634  1.00  0.00     0.010 A 
ATOM     87  C   UNL A   1      40.450  35.912  38.906  1.00  0.00     0.020 A 
ATOM     88  C   UNL A   1      38.845  34.308  39.780  1.00  0.00     0.020 A 
ATOM     89  C   UNL A   1      39.575  35.491  39.914  1.00  0.00     0.054 A 
BRANCH  89  90
ATOM     90  S   UNL A   1      39.359  36.538  41.379  1.00  0.00     0.124 S 
ATOM     91  O   UNL A   1      40.692  36.508  41.974  1.00  0.00    -0.237 OA
ATOM     92  O   UNL A   1      38.956  37.820  40.804  1.00  0.00    -0.237 OA
ATOM     93  O   UNL A   1      38.318  35.852  42.143  1.00  0.00    -0.744 OA
ENDBRANCH  89  90
ENDBRANCH  63  84
ENDBRANCH  37  38
ENDBRANCH  29  32
ENDBRANCH  27  28
ENDBRANCH  26  27
ENDBRANCH   1  26
TORSDOF 18
ENDMDL
MODEL 3
REMARK VINA RESULT:     -10.4      3.630      9.789
REMARK SMILES Cc1cc(CNS(=O)(=O)c2ccc(C(=O)NCCCCNC(=O)c3ccc(-c4c5nc(c(-c6ccc(S(=O)(=O)[O-])cc6)c6ccc([nH]6)c(-c6ccc(S(=O)(=O)[O-])cc6)c6nc(c(-c7ccc(S(=O)(=O)[O-])cc7)c7ccc4[nH]7)C=C6)C=C5)cc3)cc2F)no1
REMARK SMILES IDX 18 1 17 2 16 3 14 4 15 5 13 7 10 8 11 9 85 10 12 11 84 12
REMARK SMILES IDX 86 13 7 14 8 15 9 16 6 17 5 19 4 20 1 21 2 22 3 23 88 24
REMARK SMILES IDX 87 25 19 26 20 27 21 28 22 29 23 31 24 32 25 33 83 34 26 35
REMARK SMILES IDX 82 36 27 37 28 38 29 39 76 40 30 41 81 42 75 43 77 44 31 45
REMARK SMILES IDX 80 46 74 47 73 48 32 50 62 51 43 52 61 53 44 54 47 55 60 56
REMARK SMILES IDX 78 57 45 58 46 59 59 61 79 62 48 63 33 64 34 65 42 66 35 67
REMARK SMILES IDX 41 68 36 69 37 70 38 71 39 72 40 73 63 74 64 75 72 76 65 77
REMARK SMILES IDX 71 78 66 79 67 80 68 81 69 82 70 83 49 84 50 85 58 86 51 87
REMARK SMILES IDX 57 88 52 89 53 90 54 91 55 92 56 93
REMARK H PARENT 16 6 6 18 21 30 77 49 47 60
REMARK Flexibility Score: inf
ROOT
ATOM      1  C   UNL A   1      37.601  20.624  24.720  1.00  0.00     0.023 C 
ENDROOT
BRANCH   1   2
ATOM      2  C   UNL A   1      36.665  21.251  25.755  1.00  0.00     0.116 C 
BRANCH   2   3
ATOM      3  N   UNL A   1      37.109  22.583  26.115  1.00  0.00    -0.352 N 
ATOM      4  C   UNL A   1      36.591  23.831  25.897  1.00  0.00     0.251 C 
ATOM      5  O   UNL A   1      37.207  24.788  26.370  1.00  0.00    -0.269 OA
ATOM      6  H   UNL A   1      37.956  22.592  26.618  1.00  0.00     0.163 HD
BRANCH   4   7
ATOM      7  C   UNL A   1      35.327  24.107  25.148  1.00  0.00     0.042 A 
ATOM      8  C   UNL A   1      32.950  24.843  23.837  1.00  0.00     0.118 A 
ATOM      9  C   UNL A   1      33.351  25.542  24.974  1.00  0.00     0.026 A 
ATOM     10  C   UNL A   1      33.717  23.792  23.365  1.00  0.00     0.144 A 
ATOM     11  C   UNL A   1      34.528  25.164  25.629  1.00  0.00     0.015 A 
ATOM     12  C   UNL A   1      34.914  23.444  23.991  1.00  0.00     0.054 A 
ATOM     13  F   UNL A   1      33.356  23.111  22.269  1.00  0.00    -0.205 F 
BRANCH   8  14
ATOM     14  S   UNL A   1      31.512  25.342  22.951  1.00  0.00     0.243 S 
ATOM     15  O   UNL A   1      30.533  24.280  23.092  1.00  0.00    -0.207 OA
ATOM     16  O   UNL A   1      31.947  25.805  21.658  1.00  0.00    -0.207 OA
BRANCH  14  17
ATOM     17  N   UNL A   1      30.909  26.659  23.791  1.00  0.00    -0.205 NA
ATOM     18  H   UNL A   1      29.892  26.574  23.800  1.00  0.00     0.141 HD
BRANCH  17  19
ATOM     19  C   UNL A   1      31.231  27.999  23.288  1.00  0.00     0.158 C 
BRANCH  19  20
ATOM     20  C   UNL A   1      29.971  28.797  23.224  1.00  0.00     0.099 A 
ATOM     21  C   UNL A   1      27.564  31.556  23.405  1.00  0.00     0.091 C 
ATOM     22  C   UNL A   1      28.447  30.382  23.300  1.00  0.00     0.133 A 
ATOM     23  C   UNL A   1      29.777  30.158  23.554  1.00  0.00     0.073 A 
ATOM     24  O   UNL A   1      27.876  29.234  22.852  1.00  0.00    -0.361 OA
ATOM     25  N   UNL A   1      28.830  28.233  22.800  1.00  0.00    -0.083 NA
ENDBRANCH  19  20
ENDBRANCH  17  19
ENDBRANCH  14  17
ENDBRANCH   8  14
ENDBRANCH   4   7
ENDBRANCH   2   3
ENDBRANCH   1   2
BRANCH   1  26
ATOM     26  C   UNL A   1      38.529  19.540  25.281  1.00  0.00     0.023 C 
BRANCH  26  27
ATOM     27  C   UNL A   1      39.896  20.037  25.742  1.00  0.00     0.116 C 
BRANCH  27  28
ATOM     28  N   UNL A   1      40.862  18.966  25.938  1.00  0.00    -0.352 N 
ATOM     29  C   UNL A   1      42.201  19.072  26.229  1.00  0.00     0.251 C 
ATOM     30  H   UNL A   1      40.512  18.051  25.849  1.00  0.00     0.163 HD
ATOM     31  O   UNL A   1      42.906  18.069  26.268  1.00  0.00    -0.269 OA
BRANCH  29  32
ATOM     32  C   UNL A   1      42.789  20.409  26.446  1.00  0.00     0.039 A 
ATOM     33  C   UNL A   1      43.441  21.035  25.379  1.00  0.00     0.014 A 
ATOM     34  C   UNL A   1      42.660  21.057  27.677  1.00  0.00     0.014 A 
ATOM     35  C   UNL A   1      43.899  22.346  25.527  1.00  0.00     0.010 A 
ATOM     36  C   UNL A   1      43.068  22.381  27.803  1.00  0.00     0.010 A 
ATOM     37  C   UNL A   1      43.682  23.040  26.727  1.00  0.00    -0.014 A 
BRANCH  37  38
ATOM     38  C   UNL A   1      44.065  24.466  26.871  1.00  0.00     0.031 A 
ATOM     39  C   UNL A   1      45.497  24.884  26.692  1.00  0.00     0.074 A 
ATOM     40  C   UNL A   1      43.136  25.368  27.239  1.00  0.00     0.049 A 
ATOM     41  N   UNL A   1      46.035  26.066  26.854  1.00  0.00    -0.248 NA
ATOM     42  C   UNL A   1      46.451  23.834  26.305  1.00  0.00     0.031 C 
ATOM     43  C   UNL A   1      41.720  25.078  27.482  1.00  0.00     0.029 A 
ATOM     44  N   UNL A   1      43.245  26.714  27.484  1.00  0.00    -0.354 N 
ATOM     45  C   UNL A   1      47.393  25.898  26.607  1.00  0.00     0.074 A 
ATOM     46  C   UNL A   1      47.601  24.495  26.324  1.00  0.00     0.031 C 
ATOM     47  C   UNL A   1      41.089  26.215  27.819  1.00  0.00     0.029 A 
ATOM     48  C   UNL A   1      42.059  27.306  27.852  1.00  0.00     0.049 A 
ATOM     49  H   UNL A   1      44.091  27.209  27.404  1.00  0.00     0.167 HD
ATOM     50  C   UNL A   1      48.374  26.832  26.601  1.00  0.00     0.031 A 
ATOM     51  C   UNL A   1      41.783  28.581  28.184  1.00  0.00     0.031 A 
ATOM     52  C   UNL A   1      48.163  28.229  26.872  1.00  0.00     0.049 A 
ATOM     53  C   UNL A   1      42.888  29.599  28.170  1.00  0.00     0.074 A 
ATOM     54  C   UNL A   1      49.085  29.261  26.840  1.00  0.00     0.029 A 
ATOM     55  N   UNL A   1      46.945  28.789  27.225  1.00  0.00    -0.354 N 
ATOM     56  N   UNL A   1      44.157  29.432  27.882  1.00  0.00    -0.248 NA
ATOM     57  C   UNL A   1      42.523  30.979  28.520  1.00  0.00     0.031 C 
ATOM     58  C   UNL A   1      48.430  30.441  27.209  1.00  0.00     0.029 A 
ATOM     59  C   UNL A   1      47.093  30.151  27.429  1.00  0.00     0.049 A 
ATOM     60  H   UNL A   1      46.100  28.293  27.316  1.00  0.00     0.167 HD
ATOM     61  C   UNL A   1      44.737  30.689  27.994  1.00  0.00     0.074 A 
ATOM     62  C   UNL A   1      43.681  31.608  28.365  1.00  0.00     0.031 C 
ATOM     63  C   UNL A   1      46.031  31.050  27.802  1.00  0.00     0.031 A 
BRANCH  50  64
ATOM     64  C   UNL A   1      49.770  26.359  26.296  1.00  0.00    -0.014 A 
ATOM     65  C   UNL A   1      50.292  26.439  24.993  1.00  0.00     0.010 A 
ATOM     66  C   UNL A   1      50.572  25.836  27.326  1.00  0.00     0.010 A 
ATOM     67  C   UNL A   1      51.572  25.957  24.713  1.00  0.00     0.020 A 
ATOM     68  C   UNL A   1      51.864  25.375  27.055  1.00  0.00     0.020 A 
ATOM     69  C   UNL A   1      52.348  25.418  25.745  1.00  0.00     0.054 A 
BRANCH  69  70
ATOM     70  S   UNL A   1      54.006  24.794  25.357  1.00  0.00     0.124 S 
ATOM     71  O   UNL A   1      53.723  23.416  24.967  1.00  0.00    -0.237 OA
ATOM     72  O   UNL A   1      54.438  25.676  24.276  1.00  0.00    -0.237 OA
ATOM     73  O   UNL A   1      54.736  24.950  26.613  1.00  0.00    -0.744 OA
ENDBRANCH  69  70
ENDBRANCH  50  64
BRANCH  51  74
ATOM     74  C   UNL A   1      40.391  28.968  28.533  1.00  0.00    -0.014 A 
ATOM     75  C   UNL A   1      39.494  29.370  27.528  1.00  0.00     0.010 A 
ATOM     76  C   UNL A   1      39.946  28.909  29.866  1.00  0.00     0.010 A 
ATOM     77  C   UNL A   1      38.179  29.714  27.850  1.00  0.00     0.020 A 
ATOM     78  C   UNL A   1      38.625  29.232  30.189  1.00  0.00     0.020 A 
ATOM     79  C   UNL A   1      37.751  29.641  29.178  1.00  0.00     0.054 A 
BRANCH  79  80
ATOM     80  S   UNL A   1      36.021  30.027  29.566  1.00  0.00     0.124 S 
ATOM     81  O   UNL A   1      35.858  29.407  30.877  1.00  0.00    -0.237 OA
ATOM     82  O   UNL A   1      36.011  31.489  29.550  1.00  0.00    -0.237 OA
ATOM     83  O   UNL A   1      35.280  29.397  28.476  1.00  0.00    -0.744 OA
ENDBRANCH  79  80
ENDBRANCH  51  74
BRANCH  63  84
ATOM     84  C   UNL A   1      46.371  32.505  27.967  1.00  0.00    -0.014 A 
ATOM     85  C   UNL A   1      46.642  33.046  29.236  1.00  0.00     0.010 A 
ATOM     86  C   UNL A   1      46.480  33.326  26.830  1.00  0.00     0.010 A 
ATOM     87  C   UNL A   1      46.995  34.392  29.366  1.00  0.00     0.020 A 
ATOM     88  C   UNL A   1      46.851  34.667  26.955  1.00  0.00     0.020 A 
ATOM     89  C   UNL A   1      47.096  35.194  28.225  1.00  0.00     0.054 A 
BRANCH  89  90
ATOM     90  S   UNL A   1      47.606  36.925  28.413  1.00  0.00     0.124 S 
ATOM     91  O   UNL A   1      47.105  37.246  29.746  1.00  0.00    -0.237 OA
ATOM     92  O   UNL A   1      49.060  36.849  28.289  1.00  0.00    -0.237 OA
ATOM     93  O   UNL A   1      46.928  37.606  27.311  1.00  0.00    -0.744 OA
ENDBRANCH  89  90
ENDBRANCH  63  84
ENDBRANCH  37  38
ENDBRANCH  29  32
ENDBRANCH  27  28
ENDBRANCH  26  27
ENDBRANCH   1  26
TORSDOF 18
ENDMDL
