MODEL 1
REMARK VINA RESULT:     -11.3      0.000      0.000
REMARK SMILES COc1cc(OC)cc(-c2ccc([C@@H](C)C(=O)NCCCCNC(=O)c3ccc(-c4c5nc(c(-c6ccc(S(=O)(=O)[O-])cc6)c6ccc([nH]6)c(-c6ccc(S(=O)(=O)[O-])cc6)c6nc(c(-c7ccc(S(=O)(=O)[O-])cc7)c7ccc4[nH]7)C=C6)C=C5)cc3)cc2F)c1
REMARK SMILES IDX 20 1 19 2 18 3 16 4 17 5 14 7 15 8 13 9 10 10 11 11 87 12
REMARK SMILES IDX 12 13 86 14 88 15 9 16 3 17 4 18 89 19 5 20 8 21 2 22 1 23
REMARK SMILES IDX 6 24 7 25 21 26 22 27 23 28 24 29 25 31 26 32 27 33 85 34
REMARK SMILES IDX 28 35 84 36 29 37 30 38 31 39 78 40 32 41 83 42 77 43 79 44
REMARK SMILES IDX 33 45 82 46 76 47 75 48 34 50 64 51 45 52 63 53 46 54 49 55
REMARK SMILES IDX 62 56 80 57 47 58 48 59 61 61 81 62 50 63 35 64 36 65 44 66
REMARK SMILES IDX 37 67 43 68 38 69 39 70 40 71 41 72 42 73 65 74 66 75 74 76
REMARK SMILES IDX 67 77 73 78 68 79 69 80 70 81 71 82 72 83 51 84 52 85 60 86
REMARK SMILES IDX 53 87 59 88 54 89 55 90 56 91 57 92 58 93
REMARK H PARENT 18 6 23 30 79 49 49 60
REMARK Flexibility Score: inf
ROOT
ATOM      1  C   UNL A   1      32.654  29.423  24.976  1.00  0.00     0.023 C 
ENDROOT
BRANCH   1   2
ATOM      2  C   UNL A   1      31.137  29.573  24.853  1.00  0.00     0.116 C 
BRANCH   2   3
ATOM      3  N   UNL A   1      30.730  29.997  23.529  1.00  0.00    -0.356 N 
ATOM      4  C   UNL A   1      30.003  29.371  22.563  1.00  0.00     0.227 C 
ATOM      5  O   UNL A   1      29.853  29.981  21.497  1.00  0.00    -0.274 OA
ATOM      6  H   UNL A   1      31.034  30.901  23.283  1.00  0.00     0.163 HD
BRANCH   4   7
ATOM      7  C   UNL A   1      29.370  27.981  22.737  1.00  0.00     0.105 C 
ATOM      8  C   UNL A   1      27.981  28.005  23.377  1.00  0.00     0.023 C 
BRANCH   7   9
ATOM      9  C   UNL A   1      30.342  26.942  23.276  1.00  0.00    -0.033 A 
ATOM     10  C   UNL A   1      32.302  25.121  24.305  1.00  0.00     0.018 A 
ATOM     11  C   UNL A   1      31.091  25.369  24.974  1.00  0.00     0.012 A 
ATOM     12  C   UNL A   1      32.491  25.801  23.093  1.00  0.00     0.131 A 
ATOM     13  C   UNL A   1      30.115  26.228  24.454  1.00  0.00     0.005 A 
ATOM     14  C   UNL A   1      31.546  26.705  22.596  1.00  0.00     0.044 A 
ATOM     15  F   UNL A   1      33.594  25.593  22.357  1.00  0.00    -0.206 F 
BRANCH  10  16
ATOM     16  C   UNL A   1      33.299  24.177  24.869  1.00  0.00    -0.008 A 
ATOM     17  C   UNL A   1      33.948  21.957  25.667  1.00  0.00     0.123 A 
ATOM     18  C   UNL A   1      35.237  22.427  25.925  1.00  0.00     0.092 A 
ATOM     19  C   UNL A   1      32.991  22.827  25.136  1.00  0.00     0.055 A 
ATOM     20  C   UNL A   1      35.581  23.749  25.658  1.00  0.00     0.123 A 
ATOM     21  C   UNL A   1      34.611  24.613  25.149  1.00  0.00     0.055 A 
BRANCH  17  22
ATOM     22  O   UNL A   1      33.751  20.642  25.992  1.00  0.00    -0.497 OA
ATOM     23  C   UNL A   1      33.713  19.712  24.917  1.00  0.00     0.278 C 
ENDBRANCH  17  22
BRANCH  20  24
ATOM     24  O   UNL A   1      36.879  24.082  25.939  1.00  0.00    -0.497 OA
ATOM     25  C   UNL A   1      37.850  23.050  25.801  1.00  0.00     0.278 C 
ENDBRANCH  20  24
ENDBRANCH  10  16
ENDBRANCH   7   9
ENDBRANCH   4   7
ENDBRANCH   2   3
ENDBRANCH   1   2
BRANCH   1  26
ATOM     26  C   UNL A   1      33.122  28.297  25.896  1.00  0.00     0.023 C 
BRANCH  26  27
ATOM     27  C   UNL A   1      33.364  28.696  27.348  1.00  0.00     0.116 C 
BRANCH  27  28
ATOM     28  N   UNL A   1      33.454  30.133  27.566  1.00  0.00    -0.352 N 
ATOM     29  C   UNL A   1      34.550  30.860  27.984  1.00  0.00     0.251 C 
ATOM     30  H   UNL A   1      32.633  30.649  27.394  1.00  0.00     0.163 HD
ATOM     31  O   UNL A   1      34.463  32.061  28.187  1.00  0.00    -0.269 OA
BRANCH  29  32
ATOM     32  C   UNL A   1      35.818  30.139  28.233  1.00  0.00     0.039 A 
ATOM     33  C   UNL A   1      36.813  30.167  27.252  1.00  0.00     0.014 A 
ATOM     34  C   UNL A   1      36.053  29.535  29.470  1.00  0.00     0.014 A 
ATOM     35  C   UNL A   1      38.084  29.673  27.553  1.00  0.00     0.010 A 
ATOM     36  C   UNL A   1      37.337  29.107  29.789  1.00  0.00     0.010 A 
ATOM     37  C   UNL A   1      38.369  29.190  28.840  1.00  0.00    -0.014 A 
BRANCH  37  38
ATOM     38  C   UNL A   1      39.744  28.796  29.238  1.00  0.00     0.031 A 
ATOM     39  C   UNL A   1      40.631  29.779  29.950  1.00  0.00     0.074 A 
ATOM     40  C   UNL A   1      40.225  27.591  28.873  1.00  0.00     0.049 A 
ATOM     41  N   UNL A   1      41.892  29.665  30.276  1.00  0.00    -0.248 NA
ATOM     42  C   UNL A   1      40.026  31.069  30.319  1.00  0.00     0.031 C 
ATOM     43  C   UNL A   1      39.479  26.562  28.144  1.00  0.00     0.029 A 
ATOM     44  N   UNL A   1      41.465  27.031  29.057  1.00  0.00    -0.354 N 
ATOM     45  C   UNL A   1      42.239  30.874  30.864  1.00  0.00     0.074 A 
ATOM     46  C   UNL A   1      41.067  31.722  30.812  1.00  0.00     0.031 C 
ATOM     47  C   UNL A   1      40.266  25.488  27.967  1.00  0.00     0.029 A 
ATOM     48  C   UNL A   1      41.583  25.767  28.530  1.00  0.00     0.049 A 
ATOM     49  H   UNL A   1      42.200  27.492  29.522  1.00  0.00     0.167 HD
ATOM     50  C   UNL A   1      43.420  31.242  31.415  1.00  0.00     0.031 A 
ATOM     51  C   UNL A   1      42.636  24.927  28.497  1.00  0.00     0.031 A 
ATOM     52  C   UNL A   1      44.579  30.394  31.481  1.00  0.00     0.049 A 
ATOM     53  C   UNL A   1      43.939  25.358  29.109  1.00  0.00     0.074 A 
ATOM     54  C   UNL A   1      45.806  30.656  32.064  1.00  0.00     0.029 A 
ATOM     55  N   UNL A   1      44.654  29.116  30.948  1.00  0.00    -0.354 N 
ATOM     56  N   UNL A   1      44.235  26.490  29.703  1.00  0.00    -0.248 NA
ATOM     57  C   UNL A   1      45.051  24.399  29.049  1.00  0.00     0.031 C 
ATOM     58  C   UNL A   1      46.635  29.548  31.853  1.00  0.00     0.029 A 
ATOM     59  C   UNL A   1      45.909  28.581  31.176  1.00  0.00     0.049 A 
ATOM     60  H   UNL A   1      43.920  28.657  30.478  1.00  0.00     0.167 HD
ATOM     61  C   UNL A   1      45.558  26.369  30.109  1.00  0.00     0.074 A 
ATOM     62  C   UNL A   1      46.004  25.052  29.701  1.00  0.00     0.031 C 
ATOM     63  C   UNL A   1      46.334  27.268  30.762  1.00  0.00     0.031 A 
BRANCH  50  64
ATOM     64  C   UNL A   1      43.507  32.631  31.985  1.00  0.00    -0.014 A 
ATOM     65  C   UNL A   1      43.236  32.872  33.344  1.00  0.00     0.010 A 
ATOM     66  C   UNL A   1      43.864  33.709  31.155  1.00  0.00     0.010 A 
ATOM     67  C   UNL A   1      43.266  34.173  33.852  1.00  0.00     0.020 A 
ATOM     68  C   UNL A   1      43.921  35.009  31.665  1.00  0.00     0.020 A 
ATOM     69  C   UNL A   1      43.598  35.235  33.006  1.00  0.00     0.054 A 
BRANCH  69  70
ATOM     70  S   UNL A   1      43.621  36.917  33.685  1.00  0.00     0.124 S 
ATOM     71  O   UNL A   1      43.777  37.724  32.476  1.00  0.00    -0.237 OA
ATOM     72  O   UNL A   1      42.320  37.019  34.342  1.00  0.00    -0.237 OA
ATOM     73  O   UNL A   1      44.771  36.912  34.585  1.00  0.00    -0.744 OA
ENDBRANCH  69  70
ENDBRANCH  50  64
BRANCH  51  74
ATOM     74  C   UNL A   1      42.493  23.581  27.881  1.00  0.00    -0.014 A 
ATOM     75  C   UNL A   1      43.018  23.333  26.600  1.00  0.00     0.010 A 
ATOM     76  C   UNL A   1      41.850  22.538  28.572  1.00  0.00     0.010 A 
ATOM     77  C   UNL A   1      42.895  22.070  26.017  1.00  0.00     0.020 A 
ATOM     78  C   UNL A   1      41.744  21.268  28.000  1.00  0.00     0.020 A 
ATOM     79  C   UNL A   1      42.258  21.043  26.721  1.00  0.00     0.054 A 
BRANCH  79  80
ATOM     80  S   UNL A   1      42.161  19.394  25.970  1.00  0.00     0.124 S 
ATOM     81  O   UNL A   1      43.010  19.547  24.793  1.00  0.00    -0.237 OA
ATOM     82  O   UNL A   1      42.690  18.533  27.025  1.00  0.00    -0.237 OA
ATOM     83  O   UNL A   1      40.735  19.228  25.700  1.00  0.00    -0.744 OA
ENDBRANCH  79  80
ENDBRANCH  51  74
BRANCH  63  84
ATOM     84  C   UNL A   1      47.738  26.850  31.103  1.00  0.00    -0.014 A 
ATOM     85  C   UNL A   1      48.006  26.086  32.252  1.00  0.00     0.010 A 
ATOM     86  C   UNL A   1      48.789  27.169  30.225  1.00  0.00     0.010 A 
ATOM     87  C   UNL A   1      49.309  25.664  32.527  1.00  0.00     0.020 A 
ATOM     88  C   UNL A   1      50.090  26.730  30.487  1.00  0.00     0.020 A 
ATOM     89  C   UNL A   1      50.343  25.989  31.643  1.00  0.00     0.054 A 
BRANCH  89  90
ATOM     90  S   UNL A   1      52.015  25.378  31.989  1.00  0.00     0.124 S 
ATOM     91  O   UNL A   1      52.386  26.158  33.168  1.00  0.00    -0.237 OA
ATOM     92  O   UNL A   1      51.797  23.953  32.221  1.00  0.00    -0.237 OA
ATOM     93  O   UNL A   1      52.758  25.698  30.772  1.00  0.00    -0.744 OA
ENDBRANCH  89  90
ENDBRANCH  63  84
ENDBRANCH  37  38
ENDBRANCH  29  32
ENDBRANCH  27  28
ENDBRANCH  26  27
ENDBRANCH   1  26
TORSDOF 18
ENDMDL
MODEL 2
REMARK VINA RESULT:     -11.0      3.945      6.877
REMARK SMILES COc1cc(OC)cc(-c2ccc([C@@H](C)C(=O)NCCCCNC(=O)c3ccc(-c4c5nc(c(-c6ccc(S(=O)(=O)[O-])cc6)c6ccc([nH]6)c(-c6ccc(S(=O)(=O)[O-])cc6)c6nc(c(-c7ccc(S(=O)(=O)[O-])cc7)c7ccc4[nH]7)C=C6)C=C5)cc3)cc2F)c1
REMARK SMILES IDX 20 1 19 2 18 3 16 4 17 5 14 7 15 8 13 9 10 10 11 11 87 12
REMARK SMILES IDX 12 13 86 14 88 15 9 16 3 17 4 18 89 19 5 20 8 21 2 22 1 23
REMARK SMILES IDX 6 24 7 25 21 26 22 27 23 28 24 29 25 31 26 32 27 33 85 34
REMARK SMILES IDX 28 35 84 36 29 37 30 38 31 39 78 40 32 41 83 42 77 43 79 44
REMARK SMILES IDX 33 45 82 46 76 47 75 48 34 50 64 51 45 52 63 53 46 54 49 55
REMARK SMILES IDX 62 56 80 57 47 58 48 59 61 61 81 62 50 63 35 64 36 65 44 66
REMARK SMILES IDX 37 67 43 68 38 69 39 70 40 71 41 72 42 73 65 74 66 75 74 76
REMARK SMILES IDX 67 77 73 78 68 79 69 80 70 81 71 82 72 83 51 84 52 85 60 86
REMARK SMILES IDX 53 87 59 88 54 89 55 90 56 91 57 92 58 93
REMARK H PARENT 18 6 23 30 79 49 49 60
REMARK Flexibility Score: inf
ROOT
ATOM      1  C   UNL A   1      33.545  35.097  28.658  1.00  0.00     0.023 C 
ENDROOT
BRANCH   1   2
ATOM      2  C   UNL A   1      33.289  36.154  29.732  1.00  0.00     0.116 C 
BRANCH   2   3
ATOM      3  N   UNL A   1      32.360  35.698  30.745  1.00  0.00    -0.356 N 
ATOM      4  C   UNL A   1      32.427  35.709  32.105  1.00  0.00     0.227 C 
ATOM      5  O   UNL A   1      31.478  35.199  32.712  1.00  0.00    -0.274 OA
ATOM      6  H   UNL A   1      31.529  35.310  30.386  1.00  0.00     0.163 HD
BRANCH   4   7
ATOM      7  C   UNL A   1      33.595  36.317  32.897  1.00  0.00     0.105 C 
ATOM      8  C   UNL A   1      34.017  37.707  32.415  1.00  0.00     0.023 C 
BRANCH   7   9
ATOM      9  C   UNL A   1      34.720  35.329  33.165  1.00  0.00    -0.033 A 
ATOM     10  C   UNL A   1      36.709  33.346  33.741  1.00  0.00     0.018 A 
ATOM     11  C   UNL A   1      36.463  33.798  32.432  1.00  0.00     0.012 A 
ATOM     12  C   UNL A   1      35.938  33.934  34.754  1.00  0.00     0.131 A 
ATOM     13  C   UNL A   1      35.519  34.794  32.153  1.00  0.00     0.005 A 
ATOM     14  C   UNL A   1      34.953  34.888  34.476  1.00  0.00     0.044 A 
ATOM     15  F   UNL A   1      36.134  33.604  36.040  1.00  0.00    -0.206 F 
BRANCH  10  16
ATOM     16  C   UNL A   1      37.742  32.313  34.003  1.00  0.00    -0.008 A 
ATOM     17  C   UNL A   1      39.779  31.541  35.116  1.00  0.00     0.123 A 
ATOM     18  C   UNL A   1      39.662  30.307  34.474  1.00  0.00     0.092 A 
ATOM     19  C   UNL A   1      38.819  32.531  34.885  1.00  0.00     0.055 A 
ATOM     20  C   UNL A   1      38.602  30.050  33.610  1.00  0.00     0.123 A 
ATOM     21  C   UNL A   1      37.663  31.054  33.371  1.00  0.00     0.055 A 
BRANCH  17  22
ATOM     22  O   UNL A   1      40.877  31.655  35.925  1.00  0.00    -0.497 OA
ATOM     23  C   UNL A   1      41.104  32.922  36.528  1.00  0.00     0.278 C 
ENDBRANCH  17  22
BRANCH  20  24
ATOM     24  O   UNL A   1      38.591  28.798  33.057  1.00  0.00    -0.497 OA
ATOM     25  C   UNL A   1      39.854  28.172  32.863  1.00  0.00     0.278 C 
ENDBRANCH  20  24
ENDBRANCH  10  16
ENDBRANCH   7   9
ENDBRANCH   4   7
ENDBRANCH   2   3
ENDBRANCH   1   2
BRANCH   1  26
ATOM     26  C   UNL A   1      34.982  34.586  28.580  1.00  0.00     0.023 C 
BRANCH  26  27
ATOM     27  C   UNL A   1      35.169  33.107  28.899  1.00  0.00     0.116 C 
BRANCH  27  28
ATOM     28  N   UNL A   1      34.162  32.236  28.309  1.00  0.00    -0.352 N 
ATOM     29  C   UNL A   1      34.286  30.904  27.969  1.00  0.00     0.251 C 
ATOM     30  H   UNL A   1      33.285  32.648  28.129  1.00  0.00     0.163 HD
ATOM     31  O   UNL A   1      33.371  30.311  27.418  1.00  0.00    -0.269 OA
BRANCH  29  32
ATOM     32  C   UNL A   1      35.573  30.227  28.240  1.00  0.00     0.039 A 
ATOM     33  C   UNL A   1      36.549  30.208  27.240  1.00  0.00     0.014 A 
ATOM     34  C   UNL A   1      35.845  29.713  29.510  1.00  0.00     0.014 A 
ATOM     35  C   UNL A   1      37.836  29.760  27.547  1.00  0.00     0.010 A 
ATOM     36  C   UNL A   1      37.142  29.334  29.831  1.00  0.00     0.010 A 
ATOM     37  C   UNL A   1      38.154  29.372  28.858  1.00  0.00    -0.014 A 
BRANCH  37  38
ATOM     38  C   UNL A   1      39.545  29.033  29.253  1.00  0.00     0.031 A 
ATOM     39  C   UNL A   1      40.399  30.056  29.949  1.00  0.00     0.074 A 
ATOM     40  C   UNL A   1      40.068  27.842  28.900  1.00  0.00     0.049 A 
ATOM     41  N   UNL A   1      41.664  29.992  30.270  1.00  0.00    -0.248 NA
ATOM     42  C   UNL A   1      39.749  31.328  30.306  1.00  0.00     0.031 C 
ATOM     43  C   UNL A   1      39.356  26.778  28.187  1.00  0.00     0.029 A 
ATOM     44  N   UNL A   1      41.328  27.330  29.085  1.00  0.00    -0.354 N 
ATOM     45  C   UNL A   1      41.970  31.220  30.843  1.00  0.00     0.074 A 
ATOM     46  C   UNL A   1      40.768  32.024  30.787  1.00  0.00     0.031 C 
ATOM     47  C   UNL A   1      40.182  25.732  28.019  1.00  0.00     0.029 A 
ATOM     48  C   UNL A   1      41.490  26.065  28.571  1.00  0.00     0.049 A 
ATOM     49  H   UNL A   1      42.048  27.823  29.540  1.00  0.00     0.167 HD
ATOM     50  C   UNL A   1      43.140  31.637  31.384  1.00  0.00     0.031 A 
ATOM     51  C   UNL A   1      42.573  25.263  28.543  1.00  0.00     0.031 A 
ATOM     52  C   UNL A   1      44.329  30.833  31.453  1.00  0.00     0.049 A 
ATOM     53  C   UNL A   1      43.862  25.749  29.144  1.00  0.00     0.074 A 
ATOM     54  C   UNL A   1      45.548  31.146  32.027  1.00  0.00     0.029 A 
ATOM     55  N   UNL A   1      44.447  29.552  30.935  1.00  0.00    -0.354 N 
ATOM     56  N   UNL A   1      44.119  26.897  29.723  1.00  0.00    -0.248 NA
ATOM     57  C   UNL A   1      45.008  24.830  29.089  1.00  0.00     0.031 C 
ATOM     58  C   UNL A   1      46.416  30.066  31.825  1.00  0.00     0.029 A 
ATOM     59  C   UNL A   1      45.723  29.066  31.163  1.00  0.00     0.049 A 
ATOM     60  H   UNL A   1      43.729  29.061  30.474  1.00  0.00     0.167 HD
ATOM     61  C   UNL A   1      45.448  26.830  30.123  1.00  0.00     0.074 A 
ATOM     62  C   UNL A   1      45.940  25.525  29.728  1.00  0.00     0.031 C 
ATOM     63  C   UNL A   1      46.194  27.765  30.762  1.00  0.00     0.031 A 
BRANCH  50  64
ATOM     64  C   UNL A   1      43.178  33.035  31.937  1.00  0.00    -0.014 A 
ATOM     65  C   UNL A   1      43.466  34.132  31.106  1.00  0.00     0.010 A 
ATOM     66  C   UNL A   1      42.921  33.257  33.302  1.00  0.00     0.010 A 
ATOM     67  C   UNL A   1      43.553  35.420  31.639  1.00  0.00     0.020 A 
ATOM     68  C   UNL A   1      42.981  34.547  33.835  1.00  0.00     0.020 A 
ATOM     69  C   UNL A   1      43.320  35.618  33.003  1.00  0.00     0.054 A 
BRANCH  69  70
ATOM     70  S   UNL A   1      43.447  37.298  33.676  1.00  0.00     0.124 S 
ATOM     71  O   UNL A   1      43.540  38.101  32.458  1.00  0.00    -0.237 OA
ATOM     72  O   UNL A   1      42.203  37.441  34.427  1.00  0.00    -0.237 OA
ATOM     73  O   UNL A   1      44.660  37.254  34.489  1.00  0.00    -0.744 OA
ENDBRANCH  69  70
ENDBRANCH  50  64
BRANCH  51  74
ATOM     74  C   UNL A   1      42.476  23.906  27.943  1.00  0.00    -0.014 A 
ATOM     75  C   UNL A   1      42.731  23.722  26.573  1.00  0.00     0.010 A 
ATOM     76  C   UNL A   1      42.148  22.791  28.735  1.00  0.00     0.010 A 
ATOM     77  C   UNL A   1      42.650  22.449  26.003  1.00  0.00     0.020 A 
ATOM     78  C   UNL A   1      42.087  21.514  28.173  1.00  0.00     0.020 A 
ATOM     79  C   UNL A   1      42.328  21.351  26.807  1.00  0.00     0.054 A 
BRANCH  79  80
ATOM     80  S   UNL A   1      42.286  19.698  26.059  1.00  0.00     0.124 S 
ATOM     81  O   UNL A   1      40.881  19.570  25.687  1.00  0.00    -0.237 OA
ATOM     82  O   UNL A   1      43.226  19.828  24.949  1.00  0.00    -0.237 OA
ATOM     83  O   UNL A   1      42.733  18.825  27.142  1.00  0.00    -0.744 OA
ENDBRANCH  79  80
ENDBRANCH  51  74
BRANCH  63  84
ATOM     84  C   UNL A   1      47.613  27.402  31.101  1.00  0.00    -0.014 A 
ATOM     85  C   UNL A   1      47.914  26.655  32.254  1.00  0.00     0.010 A 
ATOM     86  C   UNL A   1      48.649  27.755  30.218  1.00  0.00     0.010 A 
ATOM     87  C   UNL A   1      49.232  26.284  32.526  1.00  0.00     0.020 A 
ATOM     88  C   UNL A   1      49.966  27.368  30.478  1.00  0.00     0.020 A 
ATOM     89  C   UNL A   1      50.251  26.644  31.638  1.00  0.00     0.054 A 
BRANCH  89  90
ATOM     90  S   UNL A   1      51.946  26.098  31.981  1.00  0.00     0.124 S 
ATOM     91  O   UNL A   1      51.727  25.005  32.925  1.00  0.00    -0.237 OA
ATOM     92  O   UNL A   1      52.432  25.702  30.662  1.00  0.00    -0.237 OA
ATOM     93  O   UNL A   1      52.584  27.288  32.541  1.00  0.00    -0.744 OA
ENDBRANCH  89  90
ENDBRANCH  63  84
ENDBRANCH  37  38
ENDBRANCH  29  32
ENDBRANCH  27  28
ENDBRANCH  26  27
ENDBRANCH   1  26
TORSDOF 18
ENDMDL
MODEL 3
REMARK VINA RESULT:     -10.6      2.746      9.502
REMARK SMILES COc1cc(OC)cc(-c2ccc([C@@H](C)C(=O)NCCCCNC(=O)c3ccc(-c4c5nc(c(-c6ccc(S(=O)(=O)[O-])cc6)c6ccc([nH]6)c(-c6ccc(S(=O)(=O)[O-])cc6)c6nc(c(-c7ccc(S(=O)(=O)[O-])cc7)c7ccc4[nH]7)C=C6)C=C5)cc3)cc2F)c1
REMARK SMILES IDX 20 1 19 2 18 3 16 4 17 5 14 7 15 8 13 9 10 10 11 11 87 12
REMARK SMILES IDX 12 13 86 14 88 15 9 16 3 17 4 18 89 19 5 20 8 21 2 22 1 23
REMARK SMILES IDX 6 24 7 25 21 26 22 27 23 28 24 29 25 31 26 32 27 33 85 34
REMARK SMILES IDX 28 35 84 36 29 37 30 38 31 39 78 40 32 41 83 42 77 43 79 44
REMARK SMILES IDX 33 45 82 46 76 47 75 48 34 50 64 51 45 52 63 53 46 54 49 55
REMARK SMILES IDX 62 56 80 57 47 58 48 59 61 61 81 62 50 63 35 64 36 65 44 66
REMARK SMILES IDX 37 67 43 68 38 69 39 70 40 71 41 72 42 73 65 74 66 75 74 76
REMARK SMILES IDX 67 77 73 78 68 79 69 80 70 81 71 82 72 83 51 84 52 85 60 86
REMARK SMILES IDX 53 87 59 88 54 89 55 90 56 91 57 92 58 93
REMARK H PARENT 18 6 23 30 79 49 49 60
REMARK Flexibility Score: inf
ROOT
ATOM      1  C   UNL A   1      34.871  22.719  26.522  1.00  0.00     0.023 C 
ENDROOT
BRANCH   1   2
ATOM      2  C   UNL A   1      34.083  21.425  26.726  1.00  0.00     0.116 C 
BRANCH   2   3
ATOM      3  N   UNL A   1      34.573  20.343  25.897  1.00  0.00    -0.356 N 
ATOM      4  C   UNL A   1      33.991  19.644  24.885  1.00  0.00     0.227 C 
ATOM      5  O   UNL A   1      34.657  18.729  24.386  1.00  0.00    -0.274 OA
ATOM      6  H   UNL A   1      35.495  20.063  26.103  1.00  0.00     0.163 HD
BRANCH   4   7
ATOM      7  C   UNL A   1      32.583  19.938  24.344  1.00  0.00     0.105 C 
ATOM      8  C   UNL A   1      32.191  19.090  23.133  1.00  0.00     0.023 C 
BRANCH   7   9
ATOM      9  C   UNL A   1      32.272  21.424  24.253  1.00  0.00    -0.033 A 
ATOM     10  C   UNL A   1      31.759  24.245  24.256  1.00  0.00     0.018 A 
ATOM     11  C   UNL A   1      32.612  23.643  23.314  1.00  0.00     0.012 A 
ATOM     12  C   UNL A   1      31.157  23.385  25.186  1.00  0.00     0.131 A 
ATOM     13  C   UNL A   1      32.833  22.260  23.286  1.00  0.00     0.005 A 
ATOM     14  C   UNL A   1      31.419  22.010  25.200  1.00  0.00     0.044 A 
ATOM     15  F   UNL A   1      30.290  23.859  26.093  1.00  0.00    -0.206 F 
BRANCH  10  16
ATOM     16  C   UNL A   1      31.521  25.710  24.234  1.00  0.00    -0.008 A 
ATOM     17  C   UNL A   1      31.845  27.956  25.147  1.00  0.00     0.123 A 
ATOM     18  C   UNL A   1      31.050  28.484  24.129  1.00  0.00     0.092 A 
ATOM     19  C   UNL A   1      32.082  26.579  25.191  1.00  0.00     0.055 A 
ATOM     20  C   UNL A   1      30.494  27.659  23.156  1.00  0.00     0.123 A 
ATOM     21  C   UNL A   1      30.720  26.284  23.224  1.00  0.00     0.055 A 
BRANCH  17  22
ATOM     22  O   UNL A   1      32.311  28.884  26.039  1.00  0.00    -0.497 OA
ATOM     23  C   UNL A   1      31.751  28.861  27.345  1.00  0.00     0.278 C 
ENDBRANCH  17  22
BRANCH  20  24
ATOM     24  O   UNL A   1      29.749  28.300  22.204  1.00  0.00    -0.497 OA
ATOM     25  C   UNL A   1      30.069  29.663  21.949  1.00  0.00     0.278 C 
ENDBRANCH  20  24
ENDBRANCH  10  16
ENDBRANCH   7   9
ENDBRANCH   4   7
ENDBRANCH   2   3
ENDBRANCH   1   2
BRANCH   1  26
ATOM     26  C   UNL A   1      35.633  22.813  25.202  1.00  0.00     0.023 C 
BRANCH  26  27
ATOM     27  C   UNL A   1      37.001  23.482  25.282  1.00  0.00     0.116 C 
BRANCH  27  28
ATOM     28  N   UNL A   1      38.091  22.576  25.618  1.00  0.00    -0.352 N 
ATOM     29  C   UNL A   1      39.238  22.858  26.331  1.00  0.00     0.251 C 
ATOM     30  H   UNL A   1      37.998  21.650  25.296  1.00  0.00     0.163 HD
ATOM     31  O   UNL A   1      40.103  22.009  26.484  1.00  0.00    -0.269 OA
BRANCH  29  32
ATOM     32  C   UNL A   1      39.418  24.226  26.861  1.00  0.00     0.039 A 
ATOM     33  C   UNL A   1      39.015  24.502  28.170  1.00  0.00     0.014 A 
ATOM     34  C   UNL A   1      40.078  25.195  26.100  1.00  0.00     0.014 A 
ATOM     35  C   UNL A   1      39.366  25.723  28.752  1.00  0.00     0.010 A 
ATOM     36  C   UNL A   1      40.484  26.378  26.704  1.00  0.00     0.010 A 
ATOM     37  C   UNL A   1      40.149  26.645  28.041  1.00  0.00    -0.014 A 
BRANCH  37  38
ATOM     38  C   UNL A   1      40.663  27.884  28.678  1.00  0.00     0.031 A 
ATOM     39  C   UNL A   1      42.079  27.939  29.179  1.00  0.00     0.074 A 
ATOM     40  C   UNL A   1      39.829  28.921  28.891  1.00  0.00     0.049 A 
ATOM     41  N   UNL A   1      42.676  28.880  29.862  1.00  0.00    -0.248 NA
ATOM     42  C   UNL A   1      42.926  26.767  28.900  1.00  0.00     0.031 C 
ATOM     43  C   UNL A   1      38.421  28.978  28.488  1.00  0.00     0.029 A 
ATOM     44  N   UNL A   1      40.044  30.127  29.511  1.00  0.00    -0.354 N 
ATOM     45  C   UNL A   1      43.957  28.408  30.115  1.00  0.00     0.074 A 
ATOM     46  C   UNL A   1      44.037  27.079  29.549  1.00  0.00     0.031 C 
ATOM     47  C   UNL A   1      37.908  30.165  28.848  1.00  0.00     0.029 A 
ATOM     48  C   UNL A   1      38.933  30.937  29.543  1.00  0.00     0.049 A 
ATOM     49  H   UNL A   1      40.911  30.387  29.898  1.00  0.00     0.167 HD
ATOM     50  C   UNL A   1      44.982  29.030  30.745  1.00  0.00     0.031 A 
ATOM     51  C   UNL A   1      38.757  32.161  30.076  1.00  0.00     0.031 A 
ATOM     52  C   UNL A   1      44.907  30.356  31.293  1.00  0.00     0.049 A 
ATOM     53  C   UNL A   1      39.906  32.830  30.777  1.00  0.00     0.074 A 
ATOM     54  C   UNL A   1      45.906  31.093  31.905  1.00  0.00     0.029 A 
ATOM     55  N   UNL A   1      43.769  31.148  31.291  1.00  0.00    -0.354 N 
ATOM     56  N   UNL A   1      41.125  32.385  30.966  1.00  0.00    -0.248 NA
ATOM     57  C   UNL A   1      39.657  34.166  31.334  1.00  0.00     0.031 C 
ATOM     58  C   UNL A   1      45.361  32.319  32.305  1.00  0.00     0.029 A 
ATOM     59  C   UNL A   1      44.035  32.360  31.904  1.00  0.00     0.049 A 
ATOM     60  H   UNL A   1      42.900  30.886  30.910  1.00  0.00     0.167 HD
ATOM     61  C   UNL A   1      41.796  33.396  31.642  1.00  0.00     0.074 A 
ATOM     62  C   UNL A   1      40.850  34.480  31.823  1.00  0.00     0.031 C 
ATOM     63  C   UNL A   1      43.081  33.426  32.074  1.00  0.00     0.031 A 
BRANCH  50  64
ATOM     64  C   UNL A   1      46.271  28.265  30.874  1.00  0.00    -0.014 A 
ATOM     65  C   UNL A   1      47.246  28.319  29.862  1.00  0.00     0.010 A 
ATOM     66  C   UNL A   1      46.513  27.486  32.020  1.00  0.00     0.010 A 
ATOM     67  C   UNL A   1      48.415  27.562  29.966  1.00  0.00     0.020 A 
ATOM     68  C   UNL A   1      47.694  26.748  32.140  1.00  0.00     0.020 A 
ATOM     69  C   UNL A   1      48.627  26.773  31.100  1.00  0.00     0.054 A 
BRANCH  69  70
ATOM     70  S   UNL A   1      50.149  25.792  31.209  1.00  0.00     0.124 S 
ATOM     71  O   UNL A   1      49.761  24.743  32.151  1.00  0.00    -0.237 OA
ATOM     72  O   UNL A   1      50.350  25.351  29.831  1.00  0.00    -0.237 OA
ATOM     73  O   UNL A   1      51.139  26.743  31.707  1.00  0.00    -0.744 OA
ENDBRANCH  69  70
ENDBRANCH  50  64
BRANCH  51  74
ATOM     74  C   UNL A   1      37.442  32.844  29.948  1.00  0.00    -0.014 A 
ATOM     75  C   UNL A   1      37.116  33.527  28.763  1.00  0.00     0.010 A 
ATOM     76  C   UNL A   1      36.505  32.803  30.996  1.00  0.00     0.010 A 
ATOM     77  C   UNL A   1      35.880  34.166  28.632  1.00  0.00     0.020 A 
ATOM     78  C   UNL A   1      35.259  33.422  30.859  1.00  0.00     0.020 A 
ATOM     79  C   UNL A   1      34.958  34.109  29.681  1.00  0.00     0.054 A 
BRANCH  79  80
ATOM     80  S   UNL A   1      33.335  34.893  29.467  1.00  0.00     0.124 S 
ATOM     81  O   UNL A   1      33.699  36.191  28.906  1.00  0.00    -0.237 OA
ATOM     82  O   UNL A   1      32.657  33.976  28.556  1.00  0.00    -0.237 OA
ATOM     83  O   UNL A   1      32.793  34.924  30.824  1.00  0.00    -0.744 OA
ENDBRANCH  79  80
ENDBRANCH  51  74
BRANCH  63  84
ATOM     84  C   UNL A   1      43.550  34.680  32.759  1.00  0.00    -0.014 A 
ATOM     85  C   UNL A   1      44.124  35.733  32.027  1.00  0.00     0.010 A 
ATOM     86  C   UNL A   1      43.351  34.829  34.143  1.00  0.00     0.010 A 
ATOM     87  C   UNL A   1      44.508  36.911  32.672  1.00  0.00     0.020 A 
ATOM     88  C   UNL A   1      43.716  36.014  34.788  1.00  0.00     0.020 A 
ATOM     89  C   UNL A   1      44.303  37.043  34.050  1.00  0.00     0.054 A 
BRANCH  89  90
ATOM     90  S   UNL A   1      44.753  38.605  34.856  1.00  0.00     0.124 S 
ATOM     91  O   UNL A   1      44.365  39.589  33.849  1.00  0.00    -0.237 OA
ATOM     92  O   UNL A   1      43.939  38.590  36.068  1.00  0.00    -0.237 OA
ATOM     93  O   UNL A   1      46.192  38.475  35.079  1.00  0.00    -0.744 OA
ENDBRANCH  89  90
ENDBRANCH  63  84
ENDBRANCH  37  38
ENDBRANCH  29  32
ENDBRANCH  27  28
ENDBRANCH  26  27
ENDBRANCH   1  26
TORSDOF 18
ENDMDL
