MODEL 1
REMARK VINA RESULT:      -8.8      0.000      0.000
REMARK SMILES O=C(COCCNC(=O)C1CCCC1)NCCCCNC(=O)c1ccc(-c2c3nc(c(-c4ccc(S(=O)(=O)[O-])cc4)c4ccc([nH]4)c(-c4ccc(S(=O)(=O)[O-])cc4)c4nc(c(-c5ccc(S(=O)(=O)[O-])cc5)c5ccc2[nH]5)C=C4)C=C3)cc1
REMARK SMILES IDX 16 1 15 2 1 3 2 4 3 6 4 7 5 8 6 9 7 10 8 11 9 13 10 14 11 15
REMARK SMILES IDX 14 16 12 17 13 18 17 19 18 20 19 21 20 22 21 23 22 25 23 26
REMARK SMILES IDX 24 27 82 28 25 29 81 30 26 31 27 32 28 33 75 34 29 35 80 36
REMARK SMILES IDX 74 37 76 38 30 39 79 40 73 41 72 42 31 44 61 45 42 46 60 47
REMARK SMILES IDX 43 48 46 49 59 50 77 51 44 52 45 53 58 55 78 56 47 57 32 58
REMARK SMILES IDX 33 59 41 60 34 61 40 62 35 63 36 64 37 65 38 66 39 67 62 68
REMARK SMILES IDX 63 69 71 70 64 71 70 72 65 73 66 74 67 75 68 76 69 77 48 78
REMARK SMILES IDX 49 79 57 80 50 81 56 82 51 83 52 84 53 85 54 86 55 87
REMARK H PARENT 15 5 7 12 20 24 76 43 46 54
REMARK Flexibility Score: inf
ROOT
ATOM      1  C   UNL A   1      42.534  19.159  25.753  1.00  0.00     0.116 C 
ENDROOT
BRANCH   1   2
ATOM      2  N   UNL A   1      43.185  20.292  25.134  1.00  0.00    -0.354 N 
ATOM      3  O   UNL A   1      45.322  19.451  25.269  1.00  0.00    -0.272 OA
ATOM      4  C   UNL A   1      44.549  20.344  24.942  1.00  0.00     0.245 C 
ATOM      5  H   UNL A   1      42.635  21.054  24.840  1.00  0.00     0.163 HD
BRANCH   4   6
ATOM      6  C   UNL A   1      45.021  21.649  24.290  1.00  0.00     0.260 C 
BRANCH   6   7
ATOM      7  O   UNL A   1      44.379  22.848  24.696  1.00  0.00    -0.370 OA
BRANCH   7   8
ATOM      8  C   UNL A   1      45.205  24.015  24.742  1.00  0.00     0.182 C 
BRANCH   8   9
ATOM      9  C   UNL A   1      44.675  25.157  25.623  1.00  0.00     0.144 C 
BRANCH   9  10
ATOM     10  N   UNL A   1      43.792  26.082  24.925  1.00  0.00    -0.354 N 
ATOM     11  C   UNL A   1      43.346  27.328  25.220  1.00  0.00     0.223 C 
ATOM     12  H   UNL A   1      43.452  25.733  24.070  1.00  0.00     0.163 HD
ATOM     13  O   UNL A   1      42.654  27.896  24.369  1.00  0.00    -0.275 OA
BRANCH  11  14
ATOM     14  C   UNL A   1      43.710  28.062  26.497  1.00  0.00     0.078 C 
ATOM     15  C   UNL A   1      45.179  28.426  26.670  1.00  0.00     0.013 C 
ATOM     16  C   UNL A   1      42.918  29.351  26.718  1.00  0.00     0.013 C 
ATOM     17  C   UNL A   1      45.146  29.560  27.682  1.00  0.00     0.001 C 
ATOM     18  C   UNL A   1      43.895  30.351  27.331  1.00  0.00     0.001 C 
ENDBRANCH  11  14
ENDBRANCH   9  10
ENDBRANCH   8   9
ENDBRANCH   7   8
ENDBRANCH   6   7
ENDBRANCH   4   6
ENDBRANCH   1   2
BRANCH   1  19
ATOM     19  C   UNL A   1      41.146  19.510  26.284  1.00  0.00     0.023 C 
BRANCH  19  20
ATOM     20  C   UNL A   1      41.133  20.583  27.375  1.00  0.00     0.023 C 
BRANCH  20  21
ATOM     21  C   UNL A   1      40.937  22.014  26.883  1.00  0.00     0.116 C 
BRANCH  21  22
ATOM     22  N   UNL A   1      39.683  22.201  26.174  1.00  0.00    -0.352 N 
ATOM     23  C   UNL A   1      38.813  23.266  26.212  1.00  0.00     0.251 C 
ATOM     24  H   UNL A   1      39.417  21.460  25.584  1.00  0.00     0.163 HD
ATOM     25  O   UNL A   1      37.721  23.182  25.660  1.00  0.00    -0.269 OA
BRANCH  23  26
ATOM     26  C   UNL A   1      39.181  24.500  26.943  1.00  0.00     0.039 A 
ATOM     27  C   UNL A   1      38.781  24.641  28.274  1.00  0.00     0.014 A 
ATOM     28  C   UNL A   1      39.921  25.513  26.325  1.00  0.00     0.014 A 
ATOM     29  C   UNL A   1      39.181  25.764  29.004  1.00  0.00     0.010 A 
ATOM     30  C   UNL A   1      40.382  26.593  27.075  1.00  0.00     0.010 A 
ATOM     31  C   UNL A   1      40.018  26.731  28.424  1.00  0.00    -0.014 A 
BRANCH  31  32
ATOM     32  C   UNL A   1      40.531  27.882  29.214  1.00  0.00     0.031 A 
ATOM     33  C   UNL A   1      39.671  29.100  29.433  1.00  0.00     0.074 A 
ATOM     34  C   UNL A   1      41.795  27.859  29.684  1.00  0.00     0.049 A 
ATOM     35  N   UNL A   1      39.965  30.215  30.050  1.00  0.00    -0.248 NA
ATOM     36  C   UNL A   1      38.312  29.068  28.867  1.00  0.00     0.031 C 
ATOM     37  C   UNL A   1      42.744  26.756  29.511  1.00  0.00     0.029 A 
ATOM     38  N   UNL A   1      42.503  28.792  30.401  1.00  0.00    -0.354 N 
ATOM     39  C   UNL A   1      38.839  31.023  29.933  1.00  0.00     0.074 A 
ATOM     40  C   UNL A   1      37.874  30.288  29.144  1.00  0.00     0.031 C 
ATOM     41  C   UNL A   1      43.894  27.062  30.131  1.00  0.00     0.029 A 
ATOM     42  C   UNL A   1      43.786  28.400  30.704  1.00  0.00     0.049 A 
ATOM     43  H   UNL A   1      42.127  29.661  30.672  1.00  0.00     0.167 HD
ATOM     44  C   UNL A   1      38.620  32.257  30.448  1.00  0.00     0.031 A 
ATOM     45  C   UNL A   1      44.770  29.045  31.363  1.00  0.00     0.031 A 
ATOM     46  C   UNL A   1      39.578  32.982  31.240  1.00  0.00     0.049 A 
ATOM     47  C   UNL A   1      44.510  30.425  31.904  1.00  0.00     0.074 A 
ATOM     48  C   UNL A   1      39.427  34.213  31.856  1.00  0.00     0.029 A 
ATOM     49  N   UNL A   1      40.866  32.551  31.521  1.00  0.00    -0.354 N 
ATOM     50  N   UNL A   1      43.413  31.142  31.841  1.00  0.00    -0.248 NA
ATOM     51  C   UNL A   1      45.618  31.079  32.615  1.00  0.00     0.031 C 
ATOM     52  C   UNL A   1      40.644  34.556  32.454  1.00  0.00     0.029 A 
ATOM     53  C   UNL A   1      41.530  33.506  32.273  1.00  0.00     0.049 A 
ATOM     54  H   UNL A   1      41.251  31.694  31.228  1.00  0.00     0.167 HD
ATOM     55  C   UNL A   1      43.689  32.317  32.533  1.00  0.00     0.074 A 
ATOM     56  C   UNL A   1      45.050  32.207  33.016  1.00  0.00     0.031 C 
ATOM     57  C   UNL A   1      42.886  33.387  32.750  1.00  0.00     0.031 A 
BRANCH  44  58
ATOM     58  C   UNL A   1      37.292  32.911  30.160  1.00  0.00    -0.014 A 
ATOM     59  C   UNL A   1      36.250  32.896  31.104  1.00  0.00     0.010 A 
ATOM     60  C   UNL A   1      37.102  33.597  28.946  1.00  0.00     0.010 A 
ATOM     61  C   UNL A   1      35.030  33.517  30.824  1.00  0.00     0.020 A 
ATOM     62  C   UNL A   1      35.895  34.247  28.674  1.00  0.00     0.020 A 
ATOM     63  C   UNL A   1      34.860  34.187  29.609  1.00  0.00     0.054 A 
BRANCH  63  64
ATOM     64  S   UNL A   1      33.273  35.005  29.284  1.00  0.00     0.124 S 
ATOM     65  O   UNL A   1      32.672  34.111  28.296  1.00  0.00    -0.237 OA
ATOM     66  O   UNL A   1      32.639  35.006  30.599  1.00  0.00    -0.237 OA
ATOM     67  O   UNL A   1      33.658  36.321  28.778  1.00  0.00    -0.744 OA
ENDBRANCH  63  64
ENDBRANCH  44  58
BRANCH  45  68
ATOM     68  C   UNL A   1      46.093  28.388  31.557  1.00  0.00    -0.014 A 
ATOM     69  C   UNL A   1      47.073  28.440  30.550  1.00  0.00     0.010 A 
ATOM     70  C   UNL A   1      46.382  27.705  32.754  1.00  0.00     0.010 A 
ATOM     71  C   UNL A   1      48.306  27.803  30.724  1.00  0.00     0.020 A 
ATOM     72  C   UNL A   1      47.625  27.096  32.945  1.00  0.00     0.020 A 
ATOM     73  C   UNL A   1      48.574  27.138  31.924  1.00  0.00     0.054 A 
BRANCH  73  74
ATOM     74  S   UNL A   1      50.197  26.358  32.144  1.00  0.00     0.124 S 
ATOM     75  O   UNL A   1      50.082  25.171  31.304  1.00  0.00    -0.237 OA
ATOM     76  O   UNL A   1      51.110  27.391  31.662  1.00  0.00    -0.237 OA
ATOM     77  O   UNL A   1      50.261  26.103  33.582  1.00  0.00    -0.744 OA
ENDBRANCH  73  74
ENDBRANCH  45  68
BRANCH  57  78
ATOM     78  C   UNL A   1      43.439  34.517  33.581  1.00  0.00    -0.014 A 
ATOM     79  C   UNL A   1      43.336  34.514  34.984  1.00  0.00     0.010 A 
ATOM     80  C   UNL A   1      44.121  35.572  32.947  1.00  0.00     0.010 A 
ATOM     81  C   UNL A   1      43.878  35.562  35.734  1.00  0.00     0.020 A 
ATOM     82  C   UNL A   1      44.691  36.605  33.694  1.00  0.00     0.020 A 
ATOM     83  C   UNL A   1      44.554  36.600  35.083  1.00  0.00     0.054 A 
BRANCH  83  84
ATOM     84  S   UNL A   1      45.287  37.924  36.083  1.00  0.00     0.124 S 
ATOM     85  O   UNL A   1      46.351  38.412  35.209  1.00  0.00    -0.237 OA
ATOM     86  O   UNL A   1      44.164  38.839  36.276  1.00  0.00    -0.237 OA
ATOM     87  O   UNL A   1      45.739  37.238  37.290  1.00  0.00    -0.744 OA
ENDBRANCH  83  84
ENDBRANCH  57  78
ENDBRANCH  31  32
ENDBRANCH  23  26
ENDBRANCH  21  22
ENDBRANCH  20  21
ENDBRANCH  19  20
ENDBRANCH   1  19
TORSDOF 19
ENDMDL
MODEL 2
REMARK VINA RESULT:      -8.3      1.600      8.720
REMARK SMILES O=C(COCCNC(=O)C1CCCC1)NCCCCNC(=O)c1ccc(-c2c3nc(c(-c4ccc(S(=O)(=O)[O-])cc4)c4ccc([nH]4)c(-c4ccc(S(=O)(=O)[O-])cc4)c4nc(c(-c5ccc(S(=O)(=O)[O-])cc5)c5ccc2[nH]5)C=C4)C=C3)cc1
REMARK SMILES IDX 16 1 15 2 1 3 2 4 3 6 4 7 5 8 6 9 7 10 8 11 9 13 10 14 11 15
REMARK SMILES IDX 14 16 12 17 13 18 17 19 18 20 19 21 20 22 21 23 22 25 23 26
REMARK SMILES IDX 24 27 82 28 25 29 81 30 26 31 27 32 28 33 75 34 29 35 80 36
REMARK SMILES IDX 74 37 76 38 30 39 79 40 73 41 72 42 31 44 61 45 42 46 60 47
REMARK SMILES IDX 43 48 46 49 59 50 77 51 44 52 45 53 58 55 78 56 47 57 32 58
REMARK SMILES IDX 33 59 41 60 34 61 40 62 35 63 36 64 37 65 38 66 39 67 62 68
REMARK SMILES IDX 63 69 71 70 64 71 70 72 65 73 66 74 67 75 68 76 69 77 48 78
REMARK SMILES IDX 49 79 57 80 50 81 56 82 51 83 52 84 53 85 54 86 55 87
REMARK H PARENT 15 5 7 12 20 24 76 43 46 54
REMARK Flexibility Score: inf
ROOT
ATOM      1  C   UNL A   1      44.558  23.336  25.530  1.00  0.00     0.116 C 
ENDROOT
BRANCH   1   2
ATOM      2  N   UNL A   1      45.095  24.591  26.007  1.00  0.00    -0.354 N 
ATOM      3  O   UNL A   1      47.147  23.757  26.629  1.00  0.00    -0.272 OA
ATOM      4  C   UNL A   1      46.368  24.697  26.527  1.00  0.00     0.245 C 
ATOM      5  H   UNL A   1      44.533  25.397  25.959  1.00  0.00     0.163 HD
BRANCH   4   6
ATOM      6  C   UNL A   1      46.716  26.116  26.992  1.00  0.00     0.260 C 
BRANCH   6   7
ATOM      7  O   UNL A   1      45.971  27.186  26.432  1.00  0.00    -0.370 OA
BRANCH   7   8
ATOM      8  C   UNL A   1      46.451  28.502  26.722  1.00  0.00     0.182 C 
BRANCH   8   9
ATOM      9  C   UNL A   1      45.378  29.505  27.172  1.00  0.00     0.144 C 
BRANCH   9  10
ATOM     10  N   UNL A   1      45.165  30.603  26.239  1.00  0.00    -0.354 N 
ATOM     11  C   UNL A   1      45.067  31.945  26.403  1.00  0.00     0.223 C 
ATOM     12  H   UNL A   1      45.074  30.313  25.303  1.00  0.00     0.163 HD
ATOM     13  O   UNL A   1      44.962  32.633  25.383  1.00  0.00    -0.275 OA
BRANCH  11  14
ATOM     14  C   UNL A   1      45.144  32.625  27.757  1.00  0.00     0.078 C 
ATOM     15  C   UNL A   1      46.160  33.753  27.888  1.00  0.00     0.013 C 
ATOM     16  C   UNL A   1      43.809  33.190  28.244  1.00  0.00     0.013 C 
ATOM     17  C   UNL A   1      45.650  34.555  29.074  1.00  0.00     0.001 C 
ATOM     18  C   UNL A   1      44.135  34.506  28.946  1.00  0.00     0.001 C 
ENDBRANCH  11  14
ENDBRANCH   9  10
ENDBRANCH   8   9
ENDBRANCH   7   8
ENDBRANCH   6   7
ENDBRANCH   4   6
ENDBRANCH   1   2
BRANCH   1  19
ATOM     19  C   UNL A   1      43.519  22.753  26.485  1.00  0.00     0.023 C 
BRANCH  19  20
ATOM     20  C   UNL A   1      42.279  22.172  25.801  1.00  0.00     0.023 C 
BRANCH  20  21
ATOM     21  C   UNL A   1      41.115  21.841  26.729  1.00  0.00     0.116 C 
BRANCH  21  22
ATOM     22  N   UNL A   1      39.823  21.933  26.071  1.00  0.00    -0.352 N 
ATOM     23  C   UNL A   1      38.910  22.962  26.084  1.00  0.00     0.251 C 
ATOM     24  H   UNL A   1      39.563  21.146  25.540  1.00  0.00     0.163 HD
ATOM     25  O   UNL A   1      37.800  22.799  25.591  1.00  0.00    -0.269 OA
BRANCH  23  26
ATOM     26  C   UNL A   1      39.258  24.254  26.720  1.00  0.00     0.039 A 
ATOM     27  C   UNL A   1      38.848  24.491  28.034  1.00  0.00     0.014 A 
ATOM     28  C   UNL A   1      39.987  25.226  26.029  1.00  0.00     0.014 A 
ATOM     29  C   UNL A   1      39.229  25.672  28.677  1.00  0.00     0.010 A 
ATOM     30  C   UNL A   1      40.429  26.367  26.696  1.00  0.00     0.010 A 
ATOM     31  C   UNL A   1      40.056  26.603  28.029  1.00  0.00    -0.014 A 
BRANCH  31  32
ATOM     32  C   UNL A   1      40.549  27.819  28.730  1.00  0.00     0.031 A 
ATOM     33  C   UNL A   1      41.940  27.855  29.306  1.00  0.00     0.074 A 
ATOM     34  C   UNL A   1      39.723  28.871  28.902  1.00  0.00     0.049 A 
ATOM     35  N   UNL A   1      42.524  28.805  29.991  1.00  0.00    -0.248 NA
ATOM     36  C   UNL A   1      42.778  26.661  29.106  1.00  0.00     0.031 C 
ATOM     37  C   UNL A   1      38.340  28.950  28.424  1.00  0.00     0.029 A 
ATOM     38  N   UNL A   1      39.923  30.075  29.531  1.00  0.00    -0.354 N 
ATOM     39  C   UNL A   1      43.785  28.319  30.317  1.00  0.00     0.074 A 
ATOM     40  C   UNL A   1      43.864  26.972  29.797  1.00  0.00     0.031 C 
ATOM     41  C   UNL A   1      37.830  30.149  28.748  1.00  0.00     0.029 A 
ATOM     42  C   UNL A   1      38.827  30.906  29.498  1.00  0.00     0.049 A 
ATOM     43  H   UNL A   1      40.772  30.322  29.965  1.00  0.00     0.167 HD
ATOM     44  C   UNL A   1      44.793  28.942  30.975  1.00  0.00     0.031 A 
ATOM     45  C   UNL A   1      38.639  32.136  30.018  1.00  0.00     0.031 A 
ATOM     46  C   UNL A   1      44.714  30.286  31.485  1.00  0.00     0.049 A 
ATOM     47  C   UNL A   1      39.766  32.797  30.766  1.00  0.00     0.074 A 
ATOM     48  C   UNL A   1      45.702  31.026  32.113  1.00  0.00     0.029 A 
ATOM     49  N   UNL A   1      43.586  31.091  31.433  1.00  0.00    -0.354 N 
ATOM     50  N   UNL A   1      40.975  32.346  31.002  1.00  0.00    -0.248 NA
ATOM     51  C   UNL A   1      39.506  34.138  31.308  1.00  0.00     0.031 C 
ATOM     52  C   UNL A   1      45.152  32.252  32.499  1.00  0.00     0.029 A 
ATOM     53  C   UNL A   1      43.843  32.306  32.046  1.00  0.00     0.049 A 
ATOM     54  H   UNL A   1      42.729  30.836  31.021  1.00  0.00     0.167 HD
ATOM     55  C   UNL A   1      41.629  33.362  31.691  1.00  0.00     0.074 A 
ATOM     56  C   UNL A   1      40.687  34.453  31.820  1.00  0.00     0.031 C 
ATOM     57  C   UNL A   1      42.897  33.387  32.170  1.00  0.00     0.031 A 
BRANCH  44  58
ATOM     58  C   UNL A   1      46.069  28.170  31.195  1.00  0.00    -0.014 A 
ATOM     59  C   UNL A   1      47.131  28.236  30.275  1.00  0.00     0.010 A 
ATOM     60  C   UNL A   1      46.229  27.408  32.368  1.00  0.00     0.010 A 
ATOM     61  C   UNL A   1      48.310  27.522  30.502  1.00  0.00     0.020 A 
ATOM     62  C   UNL A   1      47.419  26.718  32.614  1.00  0.00     0.020 A 
ATOM     63  C   UNL A   1      48.446  26.766  31.669  1.00  0.00     0.054 A 
BRANCH  63  64
ATOM     64  S   UNL A   1      49.998  25.869  31.948  1.00  0.00     0.124 S 
ATOM     65  O   UNL A   1      49.532  24.664  32.630  1.00  0.00    -0.237 OA
ATOM     66  O   UNL A   1      50.499  25.669  30.591  1.00  0.00    -0.237 OA
ATOM     67  O   UNL A   1      50.785  26.784  32.772  1.00  0.00    -0.744 OA
ENDBRANCH  63  64
ENDBRANCH  44  58
BRANCH  45  68
ATOM     68  C   UNL A   1      37.333  32.830  29.840  1.00  0.00    -0.014 A 
ATOM     69  C   UNL A   1      36.370  32.815  30.864  1.00  0.00     0.010 A 
ATOM     70  C   UNL A   1      37.045  33.512  28.643  1.00  0.00     0.010 A 
ATOM     71  C   UNL A   1      35.135  33.448  30.687  1.00  0.00     0.020 A 
ATOM     72  C   UNL A   1      35.825  34.173  28.474  1.00  0.00     0.020 A 
ATOM     73  C   UNL A   1      34.873  34.126  29.494  1.00  0.00     0.054 A 
BRANCH  73  74
ATOM     74  S   UNL A   1      33.281  34.976  29.305  1.00  0.00     0.124 S 
ATOM     75  O   UNL A   1      32.751  34.935  30.663  1.00  0.00    -0.237 OA
ATOM     76  O   UNL A   1      33.686  36.294  28.821  1.00  0.00    -0.237 OA
ATOM     77  O   UNL A   1      32.569  34.155  28.328  1.00  0.00    -0.744 OA
ENDBRANCH  73  74
ENDBRANCH  45  68
BRANCH  57  78
ATOM     78  C   UNL A   1      43.362  34.652  32.847  1.00  0.00    -0.014 A 
ATOM     79  C   UNL A   1      43.877  35.732  32.108  1.00  0.00     0.010 A 
ATOM     80  C   UNL A   1      43.228  34.778  34.242  1.00  0.00     0.010 A 
ATOM     81  C   UNL A   1      44.279  36.903  32.758  1.00  0.00     0.020 A 
ATOM     82  C   UNL A   1      43.599  35.958  34.891  1.00  0.00     0.020 A 
ATOM     83  C   UNL A   1      44.135  37.009  34.145  1.00  0.00     0.054 A 
BRANCH  83  84
ATOM     84  S   UNL A   1      44.622  38.556  34.957  1.00  0.00     0.124 S 
ATOM     85  O   UNL A   1      46.077  38.511  34.850  1.00  0.00    -0.237 OA
ATOM     86  O   UNL A   1      43.962  39.569  34.137  1.00  0.00    -0.237 OA
ATOM     87  O   UNL A   1      44.093  38.419  36.311  1.00  0.00    -0.744 OA
ENDBRANCH  83  84
ENDBRANCH  57  78
ENDBRANCH  31  32
ENDBRANCH  23  26
ENDBRANCH  21  22
ENDBRANCH  20  21
ENDBRANCH  19  20
ENDBRANCH   1  19
TORSDOF 19
ENDMDL
MODEL 3
REMARK VINA RESULT:      -8.1      4.012     10.312
REMARK SMILES O=C(COCCNC(=O)C1CCCC1)NCCCCNC(=O)c1ccc(-c2c3nc(c(-c4ccc(S(=O)(=O)[O-])cc4)c4ccc([nH]4)c(-c4ccc(S(=O)(=O)[O-])cc4)c4nc(c(-c5ccc(S(=O)(=O)[O-])cc5)c5ccc2[nH]5)C=C4)C=C3)cc1
REMARK SMILES IDX 16 1 15 2 1 3 2 4 3 6 4 7 5 8 6 9 7 10 8 11 9 13 10 14 11 15
REMARK SMILES IDX 14 16 12 17 13 18 17 19 18 20 19 21 20 22 21 23 22 25 23 26
REMARK SMILES IDX 24 27 82 28 25 29 81 30 26 31 27 32 28 33 75 34 29 35 80 36
REMARK SMILES IDX 74 37 76 38 30 39 79 40 73 41 72 42 31 44 61 45 42 46 60 47
REMARK SMILES IDX 43 48 46 49 59 50 77 51 44 52 45 53 58 55 78 56 47 57 32 58
REMARK SMILES IDX 33 59 41 60 34 61 40 62 35 63 36 64 37 65 38 66 39 67 62 68
REMARK SMILES IDX 63 69 71 70 64 71 70 72 65 73 66 74 67 75 68 76 69 77 48 78
REMARK SMILES IDX 49 79 57 80 50 81 56 82 51 83 52 84 53 85 54 86 55 87
REMARK H PARENT 15 5 7 12 20 24 76 43 46 54
REMARK Flexibility Score: inf
ROOT
ATOM      1  C   UNL A   1      41.659  21.545  27.453  1.00  0.00     0.116 C 
ENDROOT
BRANCH   1   2
ATOM      2  N   UNL A   1      40.395  22.050  26.966  1.00  0.00    -0.354 N 
ATOM      3  O   UNL A   1      39.804  20.152  25.809  1.00  0.00    -0.272 OA
ATOM      4  C   UNL A   1      39.559  21.297  26.169  1.00  0.00     0.245 C 
ATOM      5  H   UNL A   1      40.122  22.963  27.211  1.00  0.00     0.163 HD
BRANCH   4   6
ATOM      6  C   UNL A   1      38.286  22.042  25.751  1.00  0.00     0.260 C 
BRANCH   6   7
ATOM      7  O   UNL A   1      37.184  21.257  25.323  1.00  0.00    -0.370 OA
BRANCH   7   8
ATOM      8  C   UNL A   1      35.902  21.887  25.395  1.00  0.00     0.182 C 
BRANCH   8   9
ATOM      9  C   UNL A   1      34.882  21.417  24.346  1.00  0.00     0.144 C 
BRANCH   9  10
ATOM     10  N   UNL A   1      33.495  21.539  24.772  1.00  0.00    -0.354 N 
ATOM     11  C   UNL A   1      32.494  20.636  24.919  1.00  0.00     0.223 C 
ATOM     12  H   UNL A   1      33.231  22.459  25.000  1.00  0.00     0.163 HD
ATOM     13  O   UNL A   1      31.427  21.046  25.386  1.00  0.00    -0.275 OA
BRANCH  11  14
ATOM     14  C   UNL A   1      32.652  19.160  24.600  1.00  0.00     0.078 C 
ATOM     15  C   UNL A   1      32.433  18.758  23.147  1.00  0.00     0.013 C 
ATOM     16  C   UNL A   1      34.006  18.579  25.008  1.00  0.00     0.013 C 
ATOM     17  C   UNL A   1      33.160  17.428  23.034  1.00  0.00     0.001 C 
ATOM     18  C   UNL A   1      34.392  17.589  23.912  1.00  0.00     0.001 C 
ENDBRANCH  11  14
ENDBRANCH   9  10
ENDBRANCH   8   9
ENDBRANCH   7   8
ENDBRANCH   6   7
ENDBRANCH   4   6
ENDBRANCH   1   2
BRANCH   1  19
ATOM     19  C   UNL A   1      42.402  22.573  28.303  1.00  0.00     0.023 C 
BRANCH  19  20
ATOM     20  C   UNL A   1      43.790  22.951  27.779  1.00  0.00     0.023 C 
BRANCH  20  21
ATOM     21  C   UNL A   1      43.911  24.360  27.207  1.00  0.00     0.116 C 
BRANCH  21  22
ATOM     22  N   UNL A   1      43.041  24.584  26.065  1.00  0.00    -0.352 N 
ATOM     23  C   UNL A   1      41.957  25.423  25.947  1.00  0.00     0.251 C 
ATOM     24  H   UNL A   1      43.258  24.059  25.261  1.00  0.00     0.163 HD
ATOM     25  O   UNL A   1      41.247  25.366  24.950  1.00  0.00    -0.269 OA
BRANCH  23  26
ATOM     26  C   UNL A   1      41.632  26.372  27.037  1.00  0.00     0.039 A 
ATOM     27  C   UNL A   1      40.717  25.983  28.019  1.00  0.00     0.014 A 
ATOM     28  C   UNL A   1      42.226  27.636  27.096  1.00  0.00     0.014 A 
ATOM     29  C   UNL A   1      40.452  26.835  29.095  1.00  0.00     0.010 A 
ATOM     30  C   UNL A   1      42.018  28.450  28.208  1.00  0.00     0.010 A 
ATOM     31  C   UNL A   1      41.129  28.058  29.221  1.00  0.00    -0.014 A 
BRANCH  31  32
ATOM     32  C   UNL A   1      40.930  28.933  30.409  1.00  0.00     0.031 A 
ATOM     33  C   UNL A   1      41.782  28.754  31.638  1.00  0.00     0.074 A 
ATOM     34  C   UNL A   1      39.942  29.850  30.404  1.00  0.00     0.049 A 
ATOM     35  N   UNL A   1      41.720  29.386  32.782  1.00  0.00    -0.248 NA
ATOM     36  C   UNL A   1      42.824  27.714  31.584  1.00  0.00     0.031 C 
ATOM     37  C   UNL A   1      39.023  30.100  29.290  1.00  0.00     0.029 A 
ATOM     38  N   UNL A   1      39.540  30.740  31.369  1.00  0.00    -0.354 N 
ATOM     39  C   UNL A   1      42.699  28.813  33.587  1.00  0.00     0.074 A 
ATOM     40  C   UNL A   1      43.306  27.749  32.817  1.00  0.00     0.031 C 
ATOM     41  C   UNL A   1      38.189  31.098  29.623  1.00  0.00     0.029 A 
ATOM     42  C   UNL A   1      38.477  31.527  30.987  1.00  0.00     0.049 A 
ATOM     43  H   UNL A   1      39.971  30.810  32.251  1.00  0.00     0.167 HD
ATOM     44  C   UNL A   1      43.071  29.151  34.845  1.00  0.00     0.031 A 
ATOM     45  C   UNL A   1      37.804  32.482  31.660  1.00  0.00     0.031 A 
ATOM     46  C   UNL A   1      42.470  30.215  35.605  1.00  0.00     0.049 A 
ATOM     47  C   UNL A   1      38.220  32.822  33.066  1.00  0.00     0.074 A 
ATOM     48  C   UNL A   1      42.817  30.672  36.866  1.00  0.00     0.029 A 
ATOM     49  N   UNL A   1      41.396  30.985  35.184  1.00  0.00    -0.354 N 
ATOM     50  N   UNL A   1      39.195  32.314  33.783  1.00  0.00    -0.248 NA
ATOM     51  C   UNL A   1      37.452  33.873  33.750  1.00  0.00     0.031 C 
ATOM     52  C   UNL A   1      41.912  31.673  37.233  1.00  0.00     0.029 A 
ATOM     53  C   UNL A   1      41.047  31.891  36.172  1.00  0.00     0.049 A 
ATOM     54  H   UNL A   1      40.948  30.899  34.312  1.00  0.00     0.167 HD
ATOM     55  C   UNL A   1      39.177  33.007  34.989  1.00  0.00     0.074 A 
ATOM     56  C   UNL A   1      38.105  33.976  34.899  1.00  0.00     0.031 C 
ATOM     57  C   UNL A   1      39.978  32.853  36.072  1.00  0.00     0.031 A 
BRANCH  44  58
ATOM     58  C   UNL A   1      44.174  28.350  35.489  1.00  0.00    -0.014 A 
ATOM     59  C   UNL A   1      43.894  27.198  36.246  1.00  0.00     0.010 A 
ATOM     60  C   UNL A   1      45.516  28.726  35.289  1.00  0.00     0.010 A 
ATOM     61  C   UNL A   1      44.931  26.462  36.827  1.00  0.00     0.020 A 
ATOM     62  C   UNL A   1      46.557  27.975  35.842  1.00  0.00     0.020 A 
ATOM     63  C   UNL A   1      46.256  26.857  36.622  1.00  0.00     0.054 A 
BRANCH  63  64
ATOM     64  S   UNL A   1      47.582  25.868  37.367  1.00  0.00     0.124 S 
ATOM     65  O   UNL A   1      47.141  25.774  38.757  1.00  0.00    -0.237 OA
ATOM     66  O   UNL A   1      47.521  24.625  36.603  1.00  0.00    -0.237 OA
ATOM     67  O   UNL A   1      48.781  26.673  37.148  1.00  0.00    -0.744 OA
ENDBRANCH  63  64
ENDBRANCH  44  58
BRANCH  45  68
ATOM     68  C   UNL A   1      36.670  33.195  31.009  1.00  0.00    -0.014 A 
ATOM     69  C   UNL A   1      35.351  33.001  31.456  1.00  0.00     0.010 A 
ATOM     70  C   UNL A   1      36.902  34.074  29.934  1.00  0.00     0.010 A 
ATOM     71  C   UNL A   1      34.284  33.654  30.829  1.00  0.00     0.020 A 
ATOM     72  C   UNL A   1      35.843  34.753  29.326  1.00  0.00     0.020 A 
ATOM     73  C   UNL A   1      34.539  34.529  29.770  1.00  0.00     0.054 A 
BRANCH  73  74
ATOM     74  S   UNL A   1      33.144  35.398  29.001  1.00  0.00     0.124 S 
ATOM     75  O   UNL A   1      32.471  34.319  28.286  1.00  0.00    -0.237 OA
ATOM     76  O   UNL A   1      32.432  35.933  30.158  1.00  0.00    -0.237 OA
ATOM     77  O   UNL A   1      33.790  36.401  28.158  1.00  0.00    -0.744 OA
ENDBRANCH  73  74
ENDBRANCH  45  68
BRANCH  57  78
ATOM     78  C   UNL A   1      39.758  33.782  37.239  1.00  0.00    -0.014 A 
ATOM     79  C   UNL A   1      40.219  35.111  37.216  1.00  0.00     0.010 A 
ATOM     80  C   UNL A   1      39.030  33.329  38.355  1.00  0.00     0.010 A 
ATOM     81  C   UNL A   1      39.982  35.959  38.302  1.00  0.00     0.020 A 
ATOM     82  C   UNL A   1      38.763  34.183  39.428  1.00  0.00     0.020 A 
ATOM     83  C   UNL A   1      39.253  35.489  39.400  1.00  0.00     0.054 A 
BRANCH  83  84
ATOM     84  S   UNL A   1      38.921  36.624  40.775  1.00  0.00     0.124 S 
ATOM     85  O   UNL A   1      40.218  36.682  41.443  1.00  0.00    -0.237 OA
ATOM     86  O   UNL A   1      38.513  37.848  40.089  1.00  0.00    -0.237 OA
ATOM     87  O   UNL A   1      37.862  35.957  41.528  1.00  0.00    -0.744 OA
ENDBRANCH  83  84
ENDBRANCH  57  78
ENDBRANCH  31  32
ENDBRANCH  23  26
ENDBRANCH  21  22
ENDBRANCH  20  21
ENDBRANCH  19  20
ENDBRANCH   1  19
TORSDOF 19
ENDMDL
