MODEL 1
REMARK VINA RESULT:     -12.4      0.000      0.000
REMARK SMILES CC(C)(C)n1cc([C@@H]2[C@@H](C(=O)NCCCCNC(=O)c3ccc(-c4c5nc(c(-c6ccc(S(=O)(=O)[O-])cc6)c6ccc([nH]6)c(-c6ccc(S(=O)(=O)[O-])cc6)c6nc(c(-c7ccc(S(=O)(=O)[O-])cc7)c7ccc4[nH]7)C=C6)C=C5)cc3)CC(=O)N2Cc2cccnc2)cn1
REMARK SMILES IDX 15 1 14 2 13 3 12 4 10 5 11 6 9 8 8 9 83 10 80 11 81 12
REMARK SMILES IDX 82 13 7 14 5 15 6 16 92 17 91 18 2 19 1 20 3 21 4 22 84 23
REMARK SMILES IDX 85 24 86 25 90 26 87 27 89 28 88 29 16 30 17 31 18 32 19 34
REMARK SMILES IDX 20 35 21 36 79 37 22 38 78 39 23 40 24 41 25 42 72 43 26 44
REMARK SMILES IDX 77 45 71 46 73 47 27 48 76 49 70 50 69 51 28 53 58 54 39 55
REMARK SMILES IDX 57 56 40 57 43 58 56 59 74 60 41 61 42 62 55 64 75 65 44 66
REMARK SMILES IDX 29 67 30 68 38 69 31 70 37 71 32 72 33 73 34 74 35 75 36 76
REMARK SMILES IDX 59 77 60 78 68 79 61 80 67 81 62 82 63 83 64 84 65 85 66 86
REMARK SMILES IDX 45 87 46 88 54 89 47 90 53 91 48 92 49 93 50 94 51 95 52 96
REMARK H PARENT 12 7 17 33 73 52 43 63
REMARK Flexibility Score: inf
ROOT
ATOM      1  C   UNL A   1      39.293  21.254  26.195  1.00  0.00     0.023 C 
ENDROOT
BRANCH   1   2
ATOM      2  C   UNL A   1      38.145  21.617  25.248  1.00  0.00     0.023 C 
BRANCH   2   3
ATOM      3  C   UNL A   1      37.208  22.728  25.721  1.00  0.00     0.116 C 
BRANCH   3   4
ATOM      4  N   UNL A   1      36.126  22.222  26.549  1.00  0.00    -0.356 N 
ATOM      5  C   UNL A   1      34.776  22.235  26.388  1.00  0.00     0.226 C 
ATOM      6  O   UNL A   1      34.094  21.837  27.336  1.00  0.00    -0.275 OA
ATOM      7  H   UNL A   1      36.425  21.788  27.382  1.00  0.00     0.163 HD
BRANCH   5   8
ATOM      8  C   UNL A   1      34.097  22.741  25.133  1.00  0.00     0.115 C 
ATOM      9  C   UNL A   1      32.701  23.287  25.384  1.00  0.00     0.132 C 
ATOM     10  N   UNL A   1      32.000  23.051  24.134  1.00  0.00    -0.330 N 
ATOM     11  C   UNL A   1      33.916  21.673  24.059  1.00  0.00     0.116 C 
ATOM     12  C   UNL A   1      32.607  22.043  23.399  1.00  0.00     0.224 C 
ATOM     13  O   UNL A   1      32.165  21.506  22.401  1.00  0.00    -0.275 OA
BRANCH   9  14
ATOM     14  C   UNL A   1      32.645  24.684  25.877  1.00  0.00     0.013 A 
ATOM     15  N   UNL A   1      32.755  26.873  26.130  1.00  0.00    -0.267 N 
ATOM     16  C   UNL A   1      33.406  25.795  25.577  1.00  0.00     0.115 A 
ATOM     17  N   UNL A   1      31.713  26.495  26.897  1.00  0.00    -0.181 NA
ATOM     18  C   UNL A   1      31.670  25.175  26.774  1.00  0.00     0.141 A 
BRANCH  15  19
ATOM     19  C   UNL A   1      33.052  28.306  25.942  1.00  0.00     0.054 C 
ATOM     20  C   UNL A   1      34.034  28.745  27.034  1.00  0.00     0.036 C 
ATOM     21  C   UNL A   1      31.768  29.162  26.016  1.00  0.00     0.036 C 
ATOM     22  C   UNL A   1      33.674  28.562  24.551  1.00  0.00     0.036 C 
ENDBRANCH  15  19
ENDBRANCH   9  14
BRANCH  10  23
ATOM     23  C   UNL A   1      30.685  23.594  23.796  1.00  0.00     0.157 C 
BRANCH  23  24
ATOM     24  C   UNL A   1      30.710  25.026  23.337  1.00  0.00    -0.010 A 
ATOM     25  C   UNL A   1      29.819  25.976  23.846  1.00  0.00     0.009 A 
ATOM     26  C   UNL A   1      31.611  25.465  22.375  1.00  0.00     0.116 A 
ATOM     27  C   UNL A   1      29.807  27.272  23.345  1.00  0.00     0.020 A 
ATOM     28  N   UNL A   1      31.648  26.728  21.889  1.00  0.00    -0.264 NA
ATOM     29  C   UNL A   1      30.736  27.599  22.377  1.00  0.00     0.111 A 
ENDBRANCH  23  24
ENDBRANCH  10  23
ENDBRANCH   5   8
ENDBRANCH   3   4
ENDBRANCH   2   3
ENDBRANCH   1   2
BRANCH   1  30
ATOM     30  C   UNL A   1      40.225  22.413  26.506  1.00  0.00     0.116 C 
BRANCH  30  31
ATOM     31  N   UNL A   1      41.554  22.280  25.894  1.00  0.00    -0.352 N 
ATOM     32  C   UNL A   1      42.423  23.296  25.506  1.00  0.00     0.251 C 
ATOM     33  H   UNL A   1      41.869  21.360  25.739  1.00  0.00     0.163 HD
ATOM     34  O   UNL A   1      43.331  23.094  24.717  1.00  0.00    -0.269 OA
BRANCH  32  35
ATOM     35  C   UNL A   1      42.227  24.622  26.118  1.00  0.00     0.039 A 
ATOM     36  C   UNL A   1      41.318  25.582  25.659  1.00  0.00     0.014 A 
ATOM     37  C   UNL A   1      42.978  24.847  27.260  1.00  0.00     0.014 A 
ATOM     38  C   UNL A   1      41.164  26.757  26.399  1.00  0.00     0.010 A 
ATOM     39  C   UNL A   1      42.581  25.807  28.130  1.00  0.00     0.010 A 
ATOM     40  C   UNL A   1      41.816  26.851  27.634  1.00  0.00    -0.014 A 
BRANCH  40  41
ATOM     41  C   UNL A   1      41.812  28.018  28.500  1.00  0.00     0.031 A 
ATOM     42  C   UNL A   1      42.894  29.002  28.226  1.00  0.00     0.074 A 
ATOM     43  C   UNL A   1      40.664  28.333  29.151  1.00  0.00     0.049 A 
ATOM     44  N   UNL A   1      43.858  29.367  29.002  1.00  0.00    -0.248 NA
ATOM     45  C   UNL A   1      43.010  29.534  26.854  1.00  0.00     0.031 C 
ATOM     46  C   UNL A   1      39.371  27.617  29.128  1.00  0.00     0.029 A 
ATOM     47  N   UNL A   1      40.344  29.460  29.831  1.00  0.00    -0.354 N 
ATOM     48  C   UNL A   1      44.573  30.332  28.294  1.00  0.00     0.074 A 
ATOM     49  C   UNL A   1      44.158  30.209  26.923  1.00  0.00     0.031 C 
ATOM     50  C   UNL A   1      38.382  28.444  29.538  1.00  0.00     0.029 A 
ATOM     51  C   UNL A   1      38.979  29.680  30.008  1.00  0.00     0.049 A 
ATOM     52  H   UNL A   1      41.027  30.079  30.176  1.00  0.00     0.167 HD
ATOM     53  C   UNL A   1      45.246  31.340  28.919  1.00  0.00     0.031 A 
ATOM     54  C   UNL A   1      38.394  30.819  30.466  1.00  0.00     0.031 A 
ATOM     55  C   UNL A   1      45.309  31.118  30.341  1.00  0.00     0.049 A 
ATOM     56  C   UNL A   1      39.473  31.613  31.113  1.00  0.00     0.074 A 
ATOM     57  C   UNL A   1      45.868  30.150  31.150  1.00  0.00     0.029 A 
ATOM     58  N   UNL A   1      44.352  31.749  31.104  1.00  0.00    -0.354 N 
ATOM     59  N   UNL A   1      40.124  31.208  32.171  1.00  0.00    -0.248 NA
ATOM     60  C   UNL A   1      40.166  32.599  30.298  1.00  0.00     0.031 C 
ATOM     61  C   UNL A   1      44.897  29.926  32.171  1.00  0.00     0.029 A 
ATOM     62  C   UNL A   1      43.844  30.827  31.984  1.00  0.00     0.049 A 
ATOM     63  H   UNL A   1      44.080  32.693  31.029  1.00  0.00     0.167 HD
ATOM     64  C   UNL A   1      41.450  31.550  31.930  1.00  0.00     0.074 A 
ATOM     65  C   UNL A   1      41.400  32.480  30.802  1.00  0.00     0.031 C 
ATOM     66  C   UNL A   1      42.477  30.823  32.467  1.00  0.00     0.031 A 
BRANCH  53  67
ATOM     67  C   UNL A   1      45.501  32.705  28.322  1.00  0.00    -0.014 A 
ATOM     68  C   UNL A   1      46.830  33.168  28.240  1.00  0.00     0.010 A 
ATOM     69  C   UNL A   1      44.486  33.651  28.071  1.00  0.00     0.010 A 
ATOM     70  C   UNL A   1      47.122  34.518  28.001  1.00  0.00     0.020 A 
ATOM     71  C   UNL A   1      44.765  34.991  27.788  1.00  0.00     0.020 A 
ATOM     72  C   UNL A   1      46.083  35.424  27.793  1.00  0.00     0.054 A 
BRANCH  72  73
ATOM     73  S   UNL A   1      46.461  37.183  27.607  1.00  0.00     0.124 S 
ATOM     74  O   UNL A   1      45.290  37.807  28.214  1.00  0.00    -0.237 OA
ATOM     75  O   UNL A   1      47.708  37.312  28.354  1.00  0.00    -0.237 OA
ATOM     76  O   UNL A   1      46.585  37.356  26.162  1.00  0.00    -0.744 OA
ENDBRANCH  72  73
ENDBRANCH  53  67
BRANCH  54  77
ATOM     77  C   UNL A   1      37.081  31.414  30.089  1.00  0.00    -0.014 A 
ATOM     78  C   UNL A   1      36.229  31.988  31.053  1.00  0.00     0.010 A 
ATOM     79  C   UNL A   1      36.790  31.674  28.733  1.00  0.00     0.010 A 
ATOM     80  C   UNL A   1      35.164  32.832  30.677  1.00  0.00     0.020 A 
ATOM     81  C   UNL A   1      35.734  32.516  28.351  1.00  0.00     0.020 A 
ATOM     82  C   UNL A   1      34.934  33.107  29.326  1.00  0.00     0.054 A 
BRANCH  82  83
ATOM     83  S   UNL A   1      33.674  34.338  28.859  1.00  0.00     0.124 S 
ATOM     84  O   UNL A   1      34.482  35.419  28.300  1.00  0.00    -0.237 OA
ATOM     85  O   UNL A   1      32.848  33.609  27.900  1.00  0.00    -0.237 OA
ATOM     86  O   UNL A   1      33.009  34.656  30.120  1.00  0.00    -0.744 OA
ENDBRANCH  82  83
ENDBRANCH  54  77
BRANCH  66  87
ATOM     87  C   UNL A   1      42.143  29.770  33.505  1.00  0.00    -0.014 A 
ATOM     88  C   UNL A   1      41.663  28.480  33.195  1.00  0.00     0.010 A 
ATOM     89  C   UNL A   1      42.494  30.045  34.837  1.00  0.00     0.010 A 
ATOM     90  C   UNL A   1      41.517  27.504  34.197  1.00  0.00     0.020 A 
ATOM     91  C   UNL A   1      42.368  29.075  35.834  1.00  0.00     0.020 A 
ATOM     92  C   UNL A   1      41.868  27.813  35.513  1.00  0.00     0.054 A 
BRANCH  92  93
ATOM     93  S   UNL A   1      41.710  26.546  36.805  1.00  0.00     0.124 S 
ATOM     94  O   UNL A   1      41.685  25.308  36.032  1.00  0.00    -0.237 OA
ATOM     95  O   UNL A   1      42.905  26.757  37.617  1.00  0.00    -0.237 OA
ATOM     96  O   UNL A   1      40.452  26.884  37.470  1.00  0.00    -0.744 OA
ENDBRANCH  92  93
ENDBRANCH  66  87
ENDBRANCH  40  41
ENDBRANCH  32  35
ENDBRANCH  30  31
ENDBRANCH   1  30
TORSDOF 18
ENDMDL
MODEL 2
REMARK VINA RESULT:     -12.2      2.876      8.234
REMARK SMILES CC(C)(C)n1cc([C@@H]2[C@@H](C(=O)NCCCCNC(=O)c3ccc(-c4c5nc(c(-c6ccc(S(=O)(=O)[O-])cc6)c6ccc([nH]6)c(-c6ccc(S(=O)(=O)[O-])cc6)c6nc(c(-c7ccc(S(=O)(=O)[O-])cc7)c7ccc4[nH]7)C=C6)C=C5)cc3)CC(=O)N2Cc2cccnc2)cn1
REMARK SMILES IDX 15 1 14 2 13 3 12 4 10 5 11 6 9 8 8 9 83 10 80 11 81 12
REMARK SMILES IDX 82 13 7 14 5 15 6 16 92 17 91 18 2 19 1 20 3 21 4 22 84 23
REMARK SMILES IDX 85 24 86 25 90 26 87 27 89 28 88 29 16 30 17 31 18 32 19 34
REMARK SMILES IDX 20 35 21 36 79 37 22 38 78 39 23 40 24 41 25 42 72 43 26 44
REMARK SMILES IDX 77 45 71 46 73 47 27 48 76 49 70 50 69 51 28 53 58 54 39 55
REMARK SMILES IDX 57 56 40 57 43 58 56 59 74 60 41 61 42 62 55 64 75 65 44 66
REMARK SMILES IDX 29 67 30 68 38 69 31 70 37 71 32 72 33 73 34 74 35 75 36 76
REMARK SMILES IDX 59 77 60 78 68 79 61 80 67 81 62 82 63 83 64 84 65 85 66 86
REMARK SMILES IDX 45 87 46 88 54 89 47 90 53 91 48 92 49 93 50 94 51 95 52 96
REMARK H PARENT 12 7 17 33 73 52 43 63
REMARK Flexibility Score: inf
ROOT
ATOM      1  C   UNL A   1      31.367  32.089  26.549  1.00  0.00     0.023 C 
ENDROOT
BRANCH   1   2
ATOM      2  C   UNL A   1      31.450  30.590  26.244  1.00  0.00     0.023 C 
BRANCH   2   3
ATOM      3  C   UNL A   1      32.853  30.022  26.038  1.00  0.00     0.116 C 
BRANCH   3   4
ATOM      4  N   UNL A   1      33.149  29.778  24.635  1.00  0.00    -0.356 N 
ATOM      5  C   UNL A   1      32.881  28.724  23.820  1.00  0.00     0.226 C 
ATOM      6  O   UNL A   1      33.377  28.748  22.691  1.00  0.00    -0.275 OA
ATOM      7  H   UNL A   1      33.634  30.514  24.193  1.00  0.00     0.163 HD
BRANCH   5   8
ATOM      8  C   UNL A   1      32.046  27.537  24.250  1.00  0.00     0.115 C 
ATOM      9  C   UNL A   1      32.206  26.329  23.341  1.00  0.00     0.132 C 
ATOM     10  N   UNL A   1      30.931  25.640  23.441  1.00  0.00    -0.330 N 
ATOM     11  C   UNL A   1      30.546  27.816  24.274  1.00  0.00     0.116 C 
ATOM     12  C   UNL A   1      29.927  26.499  23.863  1.00  0.00     0.224 C 
ATOM     13  O   UNL A   1      28.733  26.267  23.881  1.00  0.00    -0.275 OA
BRANCH   9  14
ATOM     14  C   UNL A   1      33.395  25.485  23.612  1.00  0.00     0.013 A 
ATOM     15  N   UNL A   1      34.897  24.107  24.455  1.00  0.00    -0.267 N 
ATOM     16  C   UNL A   1      33.984  25.079  24.792  1.00  0.00     0.115 A 
ATOM     17  N   UNL A   1      35.036  23.985  23.120  1.00  0.00    -0.181 NA
ATOM     18  C   UNL A   1      34.159  24.841  22.613  1.00  0.00     0.141 A 
BRANCH  15  19
ATOM     19  C   UNL A   1      35.656  23.223  25.361  1.00  0.00     0.054 C 
ATOM     20  C   UNL A   1      35.915  21.896  24.638  1.00  0.00     0.036 C 
ATOM     21  C   UNL A   1      34.883  22.964  26.673  1.00  0.00     0.036 C 
ATOM     22  C   UNL A   1      37.002  23.868  25.759  1.00  0.00     0.036 C 
ENDBRANCH  15  19
ENDBRANCH   9  14
BRANCH  10  23
ATOM     23  C   UNL A   1      30.659  24.302  22.919  1.00  0.00     0.157 C 
BRANCH  23  24
ATOM     24  C   UNL A   1      31.188  23.187  23.778  1.00  0.00    -0.010 A 
ATOM     25  C   UNL A   1      31.939  22.138  23.240  1.00  0.00     0.009 A 
ATOM     26  C   UNL A   1      30.939  23.142  25.144  1.00  0.00     0.116 A 
ATOM     27  C   UNL A   1      32.345  21.077  24.040  1.00  0.00     0.020 A 
ATOM     28  N   UNL A   1      31.347  22.140  25.959  1.00  0.00    -0.264 NA
ATOM     29  C   UNL A   1      32.030  21.125  25.384  1.00  0.00     0.111 A 
ENDBRANCH  23  24
ENDBRANCH  10  23
ENDBRANCH   5   8
ENDBRANCH   3   4
ENDBRANCH   2   3
ENDBRANCH   1   2
BRANCH   1  30
ATOM     30  C   UNL A   1      32.583  32.639  27.272  1.00  0.00     0.116 C 
BRANCH  30  31
ATOM     31  N   UNL A   1      32.468  34.062  27.621  1.00  0.00    -0.352 N 
ATOM     32  C   UNL A   1      33.097  34.742  28.659  1.00  0.00     0.251 C 
ATOM     33  H   UNL A   1      31.872  34.600  27.050  1.00  0.00     0.163 HD
ATOM     34  O   UNL A   1      32.683  35.816  29.063  1.00  0.00    -0.269 OA
BRANCH  32  35
ATOM     35  C   UNL A   1      34.311  34.131  29.228  1.00  0.00     0.039 A 
ATOM     36  C   UNL A   1      34.372  33.494  30.473  1.00  0.00     0.014 A 
ATOM     37  C   UNL A   1      35.420  34.168  28.397  1.00  0.00     0.014 A 
ATOM     38  C   UNL A   1      35.565  32.869  30.840  1.00  0.00     0.010 A 
ATOM     39  C   UNL A   1      36.430  33.290  28.609  1.00  0.00     0.010 A 
ATOM     40  C   UNL A   1      36.589  32.787  29.890  1.00  0.00    -0.014 A 
BRANCH  40  41
ATOM     41  C   UNL A   1      37.910  32.226  30.123  1.00  0.00     0.031 A 
ATOM     42  C   UNL A   1      38.082  30.823  29.655  1.00  0.00     0.074 A 
ATOM     43  C   UNL A   1      38.946  33.078  30.324  1.00  0.00     0.049 A 
ATOM     44  N   UNL A   1      38.341  29.772  30.359  1.00  0.00    -0.248 NA
ATOM     45  C   UNL A   1      37.774  30.525  28.243  1.00  0.00     0.031 C 
ATOM     46  C   UNL A   1      38.922  34.555  30.371  1.00  0.00     0.029 A 
ATOM     47  N   UNL A   1      40.276  32.822  30.350  1.00  0.00    -0.354 N 
ATOM     48  C   UNL A   1      38.441  28.721  29.449  1.00  0.00     0.074 A 
ATOM     49  C   UNL A   1      37.850  29.194  28.227  1.00  0.00     0.031 C 
ATOM     50  C   UNL A   1      40.168  35.041  30.164  1.00  0.00     0.029 A 
ATOM     51  C   UNL A   1      41.098  33.928  30.138  1.00  0.00     0.049 A 
ATOM     52  H   UNL A   1      40.636  31.920  30.507  1.00  0.00     0.167 HD
ATOM     53  C   UNL A   1      39.239  27.639  29.676  1.00  0.00     0.031 A 
ATOM     54  C   UNL A   1      42.439  33.910  29.912  1.00  0.00     0.031 A 
ATOM     55  C   UNL A   1      39.736  27.635  31.028  1.00  0.00     0.049 A 
ATOM     56  C   UNL A   1      42.916  32.566  30.334  1.00  0.00     0.074 A 
ATOM     57  C   UNL A   1      39.155  27.553  32.277  1.00  0.00     0.029 A 
ATOM     58  N   UNL A   1      40.990  28.169  31.222  1.00  0.00    -0.354 N 
ATOM     59  N   UNL A   1      42.851  32.135  31.565  1.00  0.00    -0.248 NA
ATOM     60  C   UNL A   1      42.988  31.527  29.317  1.00  0.00     0.031 C 
ATOM     61  C   UNL A   1      39.885  28.483  33.076  1.00  0.00     0.029 A 
ATOM     62  C   UNL A   1      40.923  29.012  32.304  1.00  0.00     0.049 A 
ATOM     63  H   UNL A   1      41.792  27.982  30.682  1.00  0.00     0.167 HD
ATOM     64  C   UNL A   1      42.445  30.810  31.463  1.00  0.00     0.074 A 
ATOM     65  C   UNL A   1      42.631  30.468  30.052  1.00  0.00     0.031 C 
ATOM     66  C   UNL A   1      41.723  30.211  32.458  1.00  0.00     0.031 A 
BRANCH  53  67
ATOM     67  C   UNL A   1      39.891  26.809  28.593  1.00  0.00    -0.014 A 
ATOM     68  C   UNL A   1      39.495  25.463  28.445  1.00  0.00     0.010 A 
ATOM     69  C   UNL A   1      41.044  27.209  27.886  1.00  0.00     0.010 A 
ATOM     70  C   UNL A   1      40.256  24.554  27.698  1.00  0.00     0.020 A 
ATOM     71  C   UNL A   1      41.786  26.323  27.101  1.00  0.00     0.020 A 
ATOM     72  C   UNL A   1      41.408  24.990  27.044  1.00  0.00     0.054 A 
BRANCH  72  73
ATOM     73  S   UNL A   1      42.449  23.787  26.183  1.00  0.00     0.124 S 
ATOM     74  O   UNL A   1      43.525  23.579  27.146  1.00  0.00    -0.237 OA
ATOM     75  O   UNL A   1      41.536  22.664  25.998  1.00  0.00    -0.237 OA
ATOM     76  O   UNL A   1      42.833  24.482  24.956  1.00  0.00    -0.744 OA
ENDBRANCH  72  73
ENDBRANCH  53  67
BRANCH  54  77
ATOM     77  C   UNL A   1      43.257  34.817  29.059  1.00  0.00    -0.014 A 
ATOM     78  C   UNL A   1      42.780  35.296  27.824  1.00  0.00     0.010 A 
ATOM     79  C   UNL A   1      44.401  35.445  29.597  1.00  0.00     0.010 A 
ATOM     80  C   UNL A   1      43.388  36.393  27.181  1.00  0.00     0.020 A 
ATOM     81  C   UNL A   1      45.010  36.540  28.964  1.00  0.00     0.020 A 
ATOM     82  C   UNL A   1      44.491  37.022  27.766  1.00  0.00     0.054 A 
BRANCH  82  83
ATOM     83  S   UNL A   1      45.158  38.547  27.022  1.00  0.00     0.124 S 
ATOM     84  O   UNL A   1      45.675  39.263  28.185  1.00  0.00    -0.237 OA
ATOM     85  O   UNL A   1      46.165  38.041  26.094  1.00  0.00    -0.237 OA
ATOM     86  O   UNL A   1      43.996  39.164  26.386  1.00  0.00    -0.744 OA
ENDBRANCH  82  83
ENDBRANCH  54  77
BRANCH  66  87
ATOM     87  C   UNL A   1      41.559  30.954  33.770  1.00  0.00    -0.014 A 
ATOM     88  C   UNL A   1      40.677  32.040  33.958  1.00  0.00     0.010 A 
ATOM     89  C   UNL A   1      42.198  30.415  34.898  1.00  0.00     0.010 A 
ATOM     90  C   UNL A   1      40.466  32.584  35.236  1.00  0.00     0.020 A 
ATOM     91  C   UNL A   1      41.979  30.941  36.174  1.00  0.00     0.020 A 
ATOM     92  C   UNL A   1      41.124  32.030  36.337  1.00  0.00     0.054 A 
BRANCH  92  93
ATOM     93  S   UNL A   1      40.829  32.711  37.995  1.00  0.00     0.124 S 
ATOM     94  O   UNL A   1      39.409  32.441  38.199  1.00  0.00    -0.237 OA
ATOM     95  O   UNL A   1      41.743  31.939  38.832  1.00  0.00    -0.237 OA
ATOM     96  O   UNL A   1      41.175  34.125  37.856  1.00  0.00    -0.744 OA
ENDBRANCH  92  93
ENDBRANCH  66  87
ENDBRANCH  40  41
ENDBRANCH  32  35
ENDBRANCH  30  31
ENDBRANCH   1  30
TORSDOF 18
ENDMDL
MODEL 3
REMARK VINA RESULT:     -11.9      2.569      9.306
REMARK SMILES CC(C)(C)n1cc([C@@H]2[C@@H](C(=O)NCCCCNC(=O)c3ccc(-c4c5nc(c(-c6ccc(S(=O)(=O)[O-])cc6)c6ccc([nH]6)c(-c6ccc(S(=O)(=O)[O-])cc6)c6nc(c(-c7ccc(S(=O)(=O)[O-])cc7)c7ccc4[nH]7)C=C6)C=C5)cc3)CC(=O)N2Cc2cccnc2)cn1
REMARK SMILES IDX 15 1 14 2 13 3 12 4 10 5 11 6 9 8 8 9 83 10 80 11 81 12
REMARK SMILES IDX 82 13 7 14 5 15 6 16 92 17 91 18 2 19 1 20 3 21 4 22 84 23
REMARK SMILES IDX 85 24 86 25 90 26 87 27 89 28 88 29 16 30 17 31 18 32 19 34
REMARK SMILES IDX 20 35 21 36 79 37 22 38 78 39 23 40 24 41 25 42 72 43 26 44
REMARK SMILES IDX 77 45 71 46 73 47 27 48 76 49 70 50 69 51 28 53 58 54 39 55
REMARK SMILES IDX 57 56 40 57 43 58 56 59 74 60 41 61 42 62 55 64 75 65 44 66
REMARK SMILES IDX 29 67 30 68 38 69 31 70 37 71 32 72 33 73 34 74 35 75 36 76
REMARK SMILES IDX 59 77 60 78 68 79 61 80 67 81 62 82 63 83 64 84 65 85 66 86
REMARK SMILES IDX 45 87 46 88 54 89 47 90 53 91 48 92 49 93 50 94 51 95 52 96
REMARK H PARENT 12 7 17 33 73 52 43 63
REMARK Flexibility Score: inf
ROOT
ATOM      1  C   UNL A   1      32.391  29.032  26.609  1.00  0.00     0.023 C 
ENDROOT
BRANCH   1   2
ATOM      2  C   UNL A   1      31.848  27.707  27.152  1.00  0.00     0.023 C 
BRANCH   2   3
ATOM      3  C   UNL A   1      32.298  26.444  26.418  1.00  0.00     0.116 C 
BRANCH   3   4
ATOM      4  N   UNL A   1      31.424  25.312  26.680  1.00  0.00    -0.356 N 
ATOM      5  C   UNL A   1      31.095  24.226  25.931  1.00  0.00     0.226 C 
ATOM      6  O   UNL A   1      30.213  23.486  26.374  1.00  0.00    -0.275 OA
ATOM      7  H   UNL A   1      30.990  25.335  27.564  1.00  0.00     0.163 HD
BRANCH   5   8
ATOM      8  C   UNL A   1      31.730  23.921  24.591  1.00  0.00     0.115 C 
ATOM      9  C   UNL A   1      33.066  23.207  24.709  1.00  0.00     0.132 C 
ATOM     10  N   UNL A   1      33.793  23.621  23.522  1.00  0.00    -0.330 N 
ATOM     11  C   UNL A   1      32.018  25.161  23.750  1.00  0.00     0.116 C 
ATOM     12  C   UNL A   1      33.289  24.809  23.012  1.00  0.00     0.224 C 
ATOM     13  O   UNL A   1      33.785  25.491  22.135  1.00  0.00    -0.275 OA
BRANCH   9  14
ATOM     14  C   UNL A   1      32.985  21.740  24.911  1.00  0.00     0.013 A 
ATOM     15  N   UNL A   1      33.015  19.544  24.705  1.00  0.00    -0.267 N 
ATOM     16  C   UNL A   1      32.698  20.707  24.043  1.00  0.00     0.115 A 
ATOM     17  N   UNL A   1      33.336  19.768  25.994  1.00  0.00    -0.181 NA
ATOM     18  C   UNL A   1      33.283  21.086  26.128  1.00  0.00     0.141 A 
BRANCH  15  19
ATOM     19  C   UNL A   1      33.067  18.175  24.157  1.00  0.00     0.054 C 
ATOM     20  C   UNL A   1      32.269  17.252  25.085  1.00  0.00     0.036 C 
ATOM     21  C   UNL A   1      34.522  17.670  24.040  1.00  0.00     0.036 C 
ATOM     22  C   UNL A   1      32.465  18.127  22.735  1.00  0.00     0.036 C 
ENDBRANCH  15  19
ENDBRANCH   9  14
BRANCH  10  23
ATOM     23  C   UNL A   1      35.052  23.036  23.064  1.00  0.00     0.157 C 
BRANCH  23  24
ATOM     24  C   UNL A   1      36.086  22.880  24.144  1.00  0.00    -0.010 A 
ATOM     25  C   UNL A   1      36.450  23.946  24.972  1.00  0.00     0.009 A 
ATOM     26  C   UNL A   1      36.737  21.671  24.357  1.00  0.00     0.116 A 
ATOM     27  C   UNL A   1      37.467  23.799  25.907  1.00  0.00     0.020 A 
ATOM     28  N   UNL A   1      37.709  21.484  25.281  1.00  0.00    -0.264 NA
ATOM     29  C   UNL A   1      38.060  22.557  26.026  1.00  0.00     0.111 A 
ENDBRANCH  23  24
ENDBRANCH  10  23
ENDBRANCH   5   8
ENDBRANCH   3   4
ENDBRANCH   2   3
ENDBRANCH   1   2
BRANCH   1  30
ATOM     30  C   UNL A   1      33.724  29.444  27.209  1.00  0.00     0.116 C 
BRANCH  30  31
ATOM     31  N   UNL A   1      33.760  30.842  27.661  1.00  0.00    -0.352 N 
ATOM     32  C   UNL A   1      34.686  31.443  28.508  1.00  0.00     0.251 C 
ATOM     33  H   UNL A   1      33.041  31.424  27.324  1.00  0.00     0.163 HD
ATOM     34  O   UNL A   1      34.442  32.493  29.080  1.00  0.00    -0.269 OA
BRANCH  32  35
ATOM     35  C   UNL A   1      35.994  30.781  28.658  1.00  0.00     0.039 A 
ATOM     36  C   UNL A   1      36.320  29.535  28.112  1.00  0.00     0.014 A 
ATOM     37  C   UNL A   1      36.941  31.524  29.344  1.00  0.00     0.014 A 
ATOM     38  C   UNL A   1      37.632  29.075  28.248  1.00  0.00     0.010 A 
ATOM     39  C   UNL A   1      38.254  31.233  29.173  1.00  0.00     0.010 A 
ATOM     40  C   UNL A   1      38.585  29.943  28.793  1.00  0.00    -0.014 A 
BRANCH  40  41
ATOM     41  C   UNL A   1      39.974  29.608  29.057  1.00  0.00     0.031 A 
ATOM     42  C   UNL A   1      40.310  29.436  30.497  1.00  0.00     0.074 A 
ATOM     43  C   UNL A   1      40.712  29.077  28.050  1.00  0.00     0.049 A 
ATOM     44  N   UNL A   1      41.129  30.130  31.215  1.00  0.00    -0.248 NA
ATOM     45  C   UNL A   1      39.518  28.466  31.278  1.00  0.00     0.031 C 
ATOM     46  C   UNL A   1      40.301  28.806  26.657  1.00  0.00     0.029 A 
ATOM     47  N   UNL A   1      41.935  28.497  28.096  1.00  0.00    -0.354 N 
ATOM     48  C   UNL A   1      41.114  29.546  32.481  1.00  0.00     0.074 A 
ATOM     49  C   UNL A   1      39.947  28.707  32.518  1.00  0.00     0.031 C 
ATOM     50  C   UNL A   1      41.145  27.909  26.096  1.00  0.00     0.029 A 
ATOM     51  C   UNL A   1      42.241  27.670  27.016  1.00  0.00     0.049 A 
ATOM     52  H   UNL A   1      42.564  28.649  28.838  1.00  0.00     0.167 HD
ATOM     53  C   UNL A   1      42.198  29.578  33.307  1.00  0.00     0.031 A 
ATOM     54  C   UNL A   1      43.299  26.821  26.919  1.00  0.00     0.031 A 
ATOM     55  C   UNL A   1      43.209  30.470  32.802  1.00  0.00     0.049 A 
ATOM     56  C   UNL A   1      44.265  27.233  27.973  1.00  0.00     0.074 A 
ATOM     57  C   UNL A   1      43.274  31.825  32.553  1.00  0.00     0.029 A 
ATOM     58  N   UNL A   1      44.220  29.896  32.064  1.00  0.00    -0.354 N 
ATOM     59  N   UNL A   1      44.861  28.396  27.984  1.00  0.00    -0.248 NA
ATOM     60  C   UNL A   1      44.176  26.570  29.265  1.00  0.00     0.031 C 
ATOM     61  C   UNL A   1      43.986  31.934  31.321  1.00  0.00     0.029 A 
ATOM     62  C   UNL A   1      44.395  30.654  30.933  1.00  0.00     0.049 A 
ATOM     63  H   UNL A   1      44.726  29.086  32.303  1.00  0.00     0.167 HD
ATOM     64  C   UNL A   1      44.837  28.800  29.313  1.00  0.00     0.074 A 
ATOM     65  C   UNL A   1      44.482  27.597  30.066  1.00  0.00     0.031 C 
ATOM     66  C   UNL A   1      44.815  30.126  29.650  1.00  0.00     0.031 A 
BRANCH  53  67
ATOM     67  C   UNL A   1      42.520  28.526  34.345  1.00  0.00    -0.014 A 
ATOM     68  C   UNL A   1      43.042  28.943  35.587  1.00  0.00     0.010 A 
ATOM     69  C   UNL A   1      42.573  27.145  34.069  1.00  0.00     0.010 A 
ATOM     70  C   UNL A   1      43.653  28.038  36.466  1.00  0.00     0.020 A 
ATOM     71  C   UNL A   1      43.139  26.226  34.957  1.00  0.00     0.020 A 
ATOM     72  C   UNL A   1      43.711  26.685  36.134  1.00  0.00     0.054 A 
BRANCH  72  73
ATOM     73  S   UNL A   1      44.608  25.544  37.213  1.00  0.00     0.124 S 
ATOM     74  O   UNL A   1      44.295  24.252  36.609  1.00  0.00    -0.237 OA
ATOM     75  O   UNL A   1      45.987  25.997  37.066  1.00  0.00    -0.237 OA
ATOM     76  O   UNL A   1      44.016  25.780  38.528  1.00  0.00    -0.744 OA
ENDBRANCH  72  73
ENDBRANCH  53  67
BRANCH  54  77
ATOM     77  C   UNL A   1      43.380  25.500  26.234  1.00  0.00    -0.014 A 
ATOM     78  C   UNL A   1      44.298  25.267  25.192  1.00  0.00     0.010 A 
ATOM     79  C   UNL A   1      42.745  24.375  26.801  1.00  0.00     0.010 A 
ATOM     80  C   UNL A   1      44.609  23.957  24.772  1.00  0.00     0.020 A 
ATOM     81  C   UNL A   1      43.053  23.067  26.391  1.00  0.00     0.020 A 
ATOM     82  C   UNL A   1      43.998  22.862  25.389  1.00  0.00     0.054 A 
BRANCH  82  83
ATOM     83  S   UNL A   1      44.538  21.173  24.967  1.00  0.00     0.124 S 
ATOM     84  O   UNL A   1      44.590  21.214  23.509  1.00  0.00    -0.237 OA
ATOM     85  O   UNL A   1      45.830  21.068  25.641  1.00  0.00    -0.237 OA
ATOM     86  O   UNL A   1      43.488  20.321  25.521  1.00  0.00    -0.744 OA
ENDBRANCH  82  83
ENDBRANCH  54  77
BRANCH  66  87
ATOM     87  C   UNL A   1      45.034  31.148  28.551  1.00  0.00    -0.014 A 
ATOM     88  C   UNL A   1      44.001  31.684  27.754  1.00  0.00     0.010 A 
ATOM     89  C   UNL A   1      46.316  31.710  28.443  1.00  0.00     0.010 A 
ATOM     90  C   UNL A   1      44.255  32.736  26.857  1.00  0.00     0.020 A 
ATOM     91  C   UNL A   1      46.571  32.767  27.566  1.00  0.00     0.020 A 
ATOM     92  C   UNL A   1      45.543  33.268  26.768  1.00  0.00     0.054 A 
BRANCH  92  93
ATOM     93  S   UNL A   1      45.868  34.648  25.632  1.00  0.00     0.124 S 
ATOM     94  O   UNL A   1      47.309  34.550  25.420  1.00  0.00    -0.237 OA
ATOM     95  O   UNL A   1      45.038  34.323  24.476  1.00  0.00    -0.237 OA
ATOM     96  O   UNL A   1      45.434  35.825  26.384  1.00  0.00    -0.744 OA
ENDBRANCH  92  93
ENDBRANCH  66  87
ENDBRANCH  40  41
ENDBRANCH  32  35
ENDBRANCH  30  31
ENDBRANCH   1  30
TORSDOF 18
ENDMDL
