MODEL 1
REMARK VINA RESULT:     -10.3      0.000      0.000
REMARK SMILES C[C@H]1[C@H](C(=O)NCCCCNC(=O)c2ccc(-c3c4nc(c(-c5ccc(S(=O)(=O)[O-])cc5)c5ccc([nH]5)c(-c5ccc(S(=O)(=O)[O-])cc5)c5nc(c(-c6ccc(S(=O)(=O)[O-])cc6)c6ccc3[nH]6)C=C5)C=C4)cc2)CCN1C(=O)COc1ccccc1F
REMARK SMILES IDX 8 1 7 2 6 3 4 4 5 5 3 7 1 8 2 9 76 10 74 11 75 12 77 13
REMARK SMILES IDX 78 14 79 15 80 16 81 17 82 18 86 19 83 20 85 21 87 22 84 23
REMARK SMILES IDX 9 24 10 25 11 26 12 27 13 29 14 30 15 31 73 32 16 33 72 34
REMARK SMILES IDX 17 35 18 36 19 37 66 38 20 39 71 40 65 41 67 42 21 43 70 44
REMARK SMILES IDX 64 45 63 46 22 48 52 49 33 50 51 51 34 52 37 53 50 54 68 55
REMARK SMILES IDX 35 56 36 57 49 59 69 60 38 61 23 62 24 63 32 64 25 65 31 66
REMARK SMILES IDX 26 67 27 68 28 69 29 70 30 71 53 72 54 73 62 74 55 75 61 76
REMARK SMILES IDX 56 77 57 78 58 79 59 80 60 81 39 82 40 83 48 84 41 85 47 86
REMARK SMILES IDX 42 87 43 88 44 89 45 90 46 91
REMARK H PARENT 6 6 11 28 67 47 37 58
REMARK Flexibility Score: inf
ROOT
ATOM      1  C   UNL A   1      32.423  27.810  26.838  1.00  0.00     0.023 C 
ENDROOT
BRANCH   1   2
ATOM      2  C   UNL A   1      31.302  26.997  26.197  1.00  0.00     0.116 C 
BRANCH   2   3
ATOM      3  N   UNL A   1      31.096  25.731  26.876  1.00  0.00    -0.356 N 
ATOM      4  C   UNL A   1      31.294  24.452  26.462  1.00  0.00     0.225 C 
ATOM      5  O   UNL A   1      31.007  23.546  27.251  1.00  0.00    -0.275 OA
ATOM      6  H   UNL A   1      30.755  25.813  27.796  1.00  0.00     0.163 HD
BRANCH   4   7
ATOM      7  C   UNL A   1      31.853  24.109  25.094  1.00  0.00     0.102 C 
ATOM      8  C   UNL A   1      34.028  24.982  24.212  1.00  0.00     0.032 C 
ATOM      9  C   UNL A   1      33.384  23.911  25.094  1.00  0.00     0.094 C 
ATOM     10  N   UNL A   1      33.570  22.545  24.598  1.00  0.00    -0.336 N 
ATOM     11  C   UNL A   1      31.229  22.861  24.468  1.00  0.00     0.037 C 
ATOM     12  C   UNL A   1      32.391  22.080  23.892  1.00  0.00     0.121 C 
BRANCH  10  13
ATOM     13  C   UNL A   1      34.591  21.655  24.864  1.00  0.00     0.260 C 
ATOM     14  O   UNL A   1      34.425  20.702  25.635  1.00  0.00    -0.271 OA
BRANCH  13  15
ATOM     15  C   UNL A   1      35.969  21.855  24.220  1.00  0.00     0.329 C 
BRANCH  15  16
ATOM     16  O   UNL A   1      37.147  21.278  24.742  1.00  0.00    -0.481 OA
BRANCH  16  17
ATOM     17  C   UNL A   1      37.957  22.002  25.571  1.00  0.00     0.155 A 
ATOM     18  C   UNL A   1      37.531  23.322  25.770  1.00  0.00     0.049 A 
ATOM     19  C   UNL A   1      39.178  21.618  26.126  1.00  0.00     0.165 A 
ATOM     20  C   UNL A   1      38.306  24.229  26.500  1.00  0.00     0.004 A 
ATOM     21  C   UNL A   1      39.964  22.523  26.844  1.00  0.00     0.043 A 
ATOM     22  F   UNL A   1      39.687  20.396  25.959  1.00  0.00    -0.203 F 
ATOM     23  C   UNL A   1      39.530  23.831  27.031  1.00  0.00     0.003 A 
ENDBRANCH  16  17
ENDBRANCH  15  16
ENDBRANCH  13  15
ENDBRANCH  10  13
ENDBRANCH   4   7
ENDBRANCH   2   3
ENDBRANCH   1   2
BRANCH   1  24
ATOM     24  C   UNL A   1      33.660  27.989  25.958  1.00  0.00     0.023 C 
BRANCH  24  25
ATOM     25  C   UNL A   1      34.702  28.964  26.497  1.00  0.00     0.116 C 
BRANCH  25  26
ATOM     26  N   UNL A   1      34.166  30.289  26.763  1.00  0.00    -0.352 N 
ATOM     27  C   UNL A   1      34.579  31.205  27.702  1.00  0.00     0.251 C 
ATOM     28  H   UNL A   1      33.408  30.567  26.200  1.00  0.00     0.163 HD
ATOM     29  O   UNL A   1      33.943  32.240  27.880  1.00  0.00    -0.269 OA
BRANCH  27  30
ATOM     30  C   UNL A   1      35.773  30.912  28.519  1.00  0.00     0.039 A 
ATOM     31  C   UNL A   1      35.723  29.856  29.432  1.00  0.00     0.014 A 
ATOM     32  C   UNL A   1      36.950  31.648  28.351  1.00  0.00     0.014 A 
ATOM     33  C   UNL A   1      36.878  29.491  30.126  1.00  0.00     0.010 A 
ATOM     34  C   UNL A   1      38.115  31.239  28.991  1.00  0.00     0.010 A 
ATOM     35  C   UNL A   1      38.093  30.156  29.882  1.00  0.00    -0.014 A 
BRANCH  35  36
ATOM     36  C   UNL A   1      39.351  29.725  30.540  1.00  0.00     0.031 A 
ATOM     37  C   UNL A   1      39.862  30.461  31.748  1.00  0.00     0.074 A 
ATOM     38  C   UNL A   1      40.070  28.717  30.007  1.00  0.00     0.049 A 
ATOM     39  N   UNL A   1      40.969  30.274  32.419  1.00  0.00    -0.248 NA
ATOM     40  C   UNL A   1      39.033  31.569  32.252  1.00  0.00     0.031 C 
ATOM     41  C   UNL A   1      39.705  27.954  28.809  1.00  0.00     0.029 A 
ATOM     42  N   UNL A   1      41.262  28.163  30.400  1.00  0.00    -0.354 N 
ATOM     43  C   UNL A   1      40.980  31.249  33.409  1.00  0.00     0.074 A 
ATOM     44  C   UNL A   1      39.793  32.054  33.222  1.00  0.00     0.031 C 
ATOM     45  C   UNL A   1      40.642  27.019  28.581  1.00  0.00     0.029 A 
ATOM     46  C   UNL A   1      41.689  27.136  29.591  1.00  0.00     0.049 A 
ATOM     47  H   UNL A   1      41.767  28.473  31.187  1.00  0.00     0.167 HD
ATOM     48  C   UNL A   1      41.886  31.446  34.396  1.00  0.00     0.031 A 
ATOM     49  C   UNL A   1      42.799  26.376  29.651  1.00  0.00     0.031 A 
ATOM     50  C   UNL A   1      43.057  30.633  34.590  1.00  0.00     0.049 A 
ATOM     51  C   UNL A   1      43.787  26.608  30.762  1.00  0.00     0.074 A 
ATOM     52  C   UNL A   1      44.004  30.714  35.595  1.00  0.00     0.029 A 
ATOM     53  N   UNL A   1      43.442  29.589  33.762  1.00  0.00    -0.354 N 
ATOM     54  N   UNL A   1      43.747  27.495  31.727  1.00  0.00    -0.248 NA
ATOM     55  C   UNL A   1      44.964  25.729  30.797  1.00  0.00     0.031 C 
ATOM     56  C   UNL A   1      44.984  29.746  35.352  1.00  0.00     0.029 A 
ATOM     57  C   UNL A   1      44.620  29.030  34.222  1.00  0.00     0.049 A 
ATOM     58  H   UNL A   1      42.948  29.290  32.963  1.00  0.00     0.167 HD
ATOM     59  C   UNL A   1      44.879  27.265  32.500  1.00  0.00     0.074 A 
ATOM     60  C   UNL A   1      45.576  26.147  31.896  1.00  0.00     0.031 C 
ATOM     61  C   UNL A   1      45.303  27.918  33.609  1.00  0.00     0.031 A 
BRANCH  48  62
ATOM     62  C   UNL A   1      41.642  32.591  35.342  1.00  0.00    -0.014 A 
ATOM     63  C   UNL A   1      42.161  33.872  35.077  1.00  0.00     0.010 A 
ATOM     64  C   UNL A   1      40.862  32.393  36.494  1.00  0.00     0.010 A 
ATOM     65  C   UNL A   1      41.942  34.923  35.971  1.00  0.00     0.020 A 
ATOM     66  C   UNL A   1      40.617  33.449  37.378  1.00  0.00     0.020 A 
ATOM     67  C   UNL A   1      41.175  34.702  37.119  1.00  0.00     0.054 A 
BRANCH  67  68
ATOM     68  S   UNL A   1      40.894  36.088  38.256  1.00  0.00     0.124 S 
ATOM     69  O   UNL A   1      40.579  35.394  39.502  1.00  0.00    -0.237 OA
ATOM     70  O   UNL A   1      42.174  36.789  38.233  1.00  0.00    -0.237 OA
ATOM     71  O   UNL A   1      39.780  36.813  37.648  1.00  0.00    -0.744 OA
ENDBRANCH  67  68
ENDBRANCH  48  62
BRANCH  49  72
ATOM     72  C   UNL A   1      43.024  25.309  28.640  1.00  0.00    -0.014 A 
ATOM     73  C   UNL A   1      43.447  25.639  27.341  1.00  0.00     0.010 A 
ATOM     74  C   UNL A   1      42.833  23.956  28.975  1.00  0.00     0.010 A 
ATOM     75  C   UNL A   1      43.661  24.637  26.390  1.00  0.00     0.020 A 
ATOM     76  C   UNL A   1      43.069  22.951  28.034  1.00  0.00     0.020 A 
ATOM     77  C   UNL A   1      43.471  23.299  26.743  1.00  0.00     0.054 A 
BRANCH  77  78
ATOM     78  S   UNL A   1      43.808  22.010  25.510  1.00  0.00     0.124 S 
ATOM     79  O   UNL A   1      42.950  20.922  25.967  1.00  0.00    -0.237 OA
ATOM     80  O   UNL A   1      43.405  22.653  24.261  1.00  0.00    -0.237 OA
ATOM     81  O   UNL A   1      45.244  21.777  25.644  1.00  0.00    -0.744 OA
ENDBRANCH  77  78
ENDBRANCH  49  72
BRANCH  61  82
ATOM     82  C   UNL A   1      46.565  27.426  34.262  1.00  0.00    -0.014 A 
ATOM     83  C   UNL A   1      46.531  26.413  35.236  1.00  0.00     0.010 A 
ATOM     84  C   UNL A   1      47.807  27.948  33.855  1.00  0.00     0.010 A 
ATOM     85  C   UNL A   1      47.718  25.949  35.812  1.00  0.00     0.020 A 
ATOM     86  C   UNL A   1      48.995  27.470  34.411  1.00  0.00     0.020 A 
ATOM     87  C   UNL A   1      48.942  26.483  35.397  1.00  0.00     0.054 A 
BRANCH  87  88
ATOM     88  S   UNL A   1      50.471  25.834  36.127  1.00  0.00     0.124 S 
ATOM     89  O   UNL A   1      50.235  24.394  36.095  1.00  0.00    -0.237 OA
ATOM     90  O   UNL A   1      51.498  26.324  35.211  1.00  0.00    -0.237 OA
ATOM     91  O   UNL A   1      50.498  26.433  37.460  1.00  0.00    -0.744 OA
ENDBRANCH  87  88
ENDBRANCH  61  82
ENDBRANCH  35  36
ENDBRANCH  27  30
ENDBRANCH  25  26
ENDBRANCH  24  25
ENDBRANCH   1  24
TORSDOF 18
ENDMDL
MODEL 2
REMARK VINA RESULT:     -10.3      3.949      6.840
REMARK SMILES C[C@H]1[C@H](C(=O)NCCCCNC(=O)c2ccc(-c3c4nc(c(-c5ccc(S(=O)(=O)[O-])cc5)c5ccc([nH]5)c(-c5ccc(S(=O)(=O)[O-])cc5)c5nc(c(-c6ccc(S(=O)(=O)[O-])cc6)c6ccc3[nH]6)C=C5)C=C4)cc2)CCN1C(=O)COc1ccccc1F
REMARK SMILES IDX 8 1 7 2 6 3 4 4 5 5 3 7 1 8 2 9 76 10 74 11 75 12 77 13
REMARK SMILES IDX 78 14 79 15 80 16 81 17 82 18 86 19 83 20 85 21 87 22 84 23
REMARK SMILES IDX 9 24 10 25 11 26 12 27 13 29 14 30 15 31 73 32 16 33 72 34
REMARK SMILES IDX 17 35 18 36 19 37 66 38 20 39 71 40 65 41 67 42 21 43 70 44
REMARK SMILES IDX 64 45 63 46 22 48 52 49 33 50 51 51 34 52 37 53 50 54 68 55
REMARK SMILES IDX 35 56 36 57 49 59 69 60 38 61 23 62 24 63 32 64 25 65 31 66
REMARK SMILES IDX 26 67 27 68 28 69 29 70 30 71 53 72 54 73 62 74 55 75 61 76
REMARK SMILES IDX 56 77 57 78 58 79 59 80 60 81 39 82 40 83 48 84 41 85 47 86
REMARK SMILES IDX 42 87 43 88 44 89 45 90 46 91
REMARK H PARENT 6 6 11 28 67 47 37 58
REMARK Flexibility Score: inf
ROOT
ATOM      1  C   UNL A   1      34.264  34.549  30.481  1.00  0.00     0.023 C 
ENDROOT
BRANCH   1   2
ATOM      2  C   UNL A   1      34.594  33.265  31.236  1.00  0.00     0.116 C 
BRANCH   2   3
ATOM      3  N   UNL A   1      34.686  33.488  32.668  1.00  0.00    -0.356 N 
ATOM      4  C   UNL A   1      35.661  33.179  33.560  1.00  0.00     0.225 C 
ATOM      5  O   UNL A   1      35.465  33.467  34.745  1.00  0.00    -0.275 OA
ATOM      6  H   UNL A   1      33.905  33.944  33.059  1.00  0.00     0.163 HD
BRANCH   4   7
ATOM      7  C   UNL A   1      36.963  32.512  33.156  1.00  0.00     0.102 C 
ATOM      8  C   UNL A   1      39.230  33.445  33.664  1.00  0.00     0.032 C 
ATOM      9  C   UNL A   1      38.066  32.628  34.229  1.00  0.00     0.094 C 
ATOM     10  N   UNL A   1      38.413  31.239  34.540  1.00  0.00    -0.336 N 
ATOM     11  C   UNL A   1      36.815  31.030  32.809  1.00  0.00     0.037 C 
ATOM     12  C   UNL A   1      37.984  30.344  33.483  1.00  0.00     0.121 C 
BRANCH  10  13
ATOM     13  C   UNL A   1      38.901  30.708  35.717  1.00  0.00     0.260 C 
ATOM     14  O   UNL A   1      38.168  30.553  36.701  1.00  0.00    -0.271 OA
BRANCH  13  15
ATOM     15  C   UNL A   1      40.382  30.324  35.829  1.00  0.00     0.329 C 
BRANCH  15  16
ATOM     16  O   UNL A   1      40.809  29.026  36.183  1.00  0.00    -0.481 OA
BRANCH  16  17
ATOM     17  C   UNL A   1      41.617  28.315  35.340  1.00  0.00     0.155 A 
ATOM     18  C   UNL A   1      42.572  27.530  35.999  1.00  0.00     0.049 A 
ATOM     19  C   UNL A   1      41.666  28.374  33.947  1.00  0.00     0.165 A 
ATOM     20  C   UNL A   1      43.547  26.827  35.284  1.00  0.00     0.004 A 
ATOM     21  C   UNL A   1      42.646  27.687  33.228  1.00  0.00     0.043 A 
ATOM     22  F   UNL A   1      40.825  29.124  33.233  1.00  0.00    -0.203 F 
ATOM     23  C   UNL A   1      43.590  26.914  33.895  1.00  0.00     0.003 A 
ENDBRANCH  16  17
ENDBRANCH  15  16
ENDBRANCH  13  15
ENDBRANCH  10  13
ENDBRANCH   4   7
ENDBRANCH   2   3
ENDBRANCH   1   2
BRANCH   1  24
ATOM     24  C   UNL A   1      34.327  34.423  28.959  1.00  0.00     0.023 C 
BRANCH  24  25
ATOM     25  C   UNL A   1      35.013  33.163  28.441  1.00  0.00     0.116 C 
BRANCH  25  26
ATOM     26  N   UNL A   1      34.078  32.148  27.982  1.00  0.00    -0.352 N 
ATOM     27  C   UNL A   1      34.309  30.811  27.760  1.00  0.00     0.251 C 
ATOM     28  H   UNL A   1      33.160  32.458  27.806  1.00  0.00     0.163 HD
ATOM     29  O   UNL A   1      33.439  30.106  27.258  1.00  0.00    -0.269 OA
BRANCH  27  30
ATOM     30  C   UNL A   1      35.630  30.242  28.096  1.00  0.00     0.039 A 
ATOM     31  C   UNL A   1      36.649  30.293  27.142  1.00  0.00     0.014 A 
ATOM     32  C   UNL A   1      35.871  29.702  29.363  1.00  0.00     0.014 A 
ATOM     33  C   UNL A   1      37.933  29.867  27.485  1.00  0.00     0.010 A 
ATOM     34  C   UNL A   1      37.165  29.343  29.723  1.00  0.00     0.010 A 
ATOM     35  C   UNL A   1      38.210  29.425  28.790  1.00  0.00    -0.014 A 
BRANCH  35  36
ATOM     36  C   UNL A   1      39.587  29.055  29.201  1.00  0.00     0.031 A 
ATOM     37  C   UNL A   1      40.456  30.054  29.914  1.00  0.00     0.074 A 
ATOM     38  C   UNL A   1      40.079  27.845  28.867  1.00  0.00     0.049 A 
ATOM     39  N   UNL A   1      41.702  29.939  30.294  1.00  0.00    -0.248 NA
ATOM     40  C   UNL A   1      39.853  31.364  30.215  1.00  0.00     0.031 C 
ATOM     41  C   UNL A   1      39.352  26.805  28.134  1.00  0.00     0.029 A 
ATOM     42  N   UNL A   1      41.312  27.287  29.097  1.00  0.00    -0.354 N 
ATOM     43  C   UNL A   1      42.039  31.162  30.861  1.00  0.00     0.074 A 
ATOM     44  C   UNL A   1      40.881  32.020  30.732  1.00  0.00     0.031 C 
ATOM     45  C   UNL A   1      40.145  25.729  27.996  1.00  0.00     0.029 A 
ATOM     46  C   UNL A   1      41.444  26.013  28.597  1.00  0.00     0.049 A 
ATOM     47  H   UNL A   1      42.035  27.756  29.574  1.00  0.00     0.167 HD
ATOM     48  C   UNL A   1      43.200  31.533  31.451  1.00  0.00     0.031 A 
ATOM     49  C   UNL A   1      42.493  25.168  28.616  1.00  0.00     0.031 A 
ATOM     50  C   UNL A   1      44.344  30.672  31.592  1.00  0.00     0.049 A 
ATOM     51  C   UNL A   1      43.770  25.599  29.285  1.00  0.00     0.074 A 
ATOM     52  C   UNL A   1      45.545  30.934  32.227  1.00  0.00     0.029 A 
ATOM     53  N   UNL A   1      44.429  29.381  31.092  1.00  0.00    -0.354 N 
ATOM     54  N   UNL A   1      44.047  26.738  29.873  1.00  0.00    -0.248 NA
ATOM     55  C   UNL A   1      44.870  24.626  29.304  1.00  0.00     0.031 C 
ATOM     56  C   UNL A   1      46.372  29.817  32.075  1.00  0.00     0.029 A 
ATOM     57  C   UNL A   1      45.668  28.841  31.388  1.00  0.00     0.049 A 
ATOM     58  H   UNL A   1      43.713  28.918  30.599  1.00  0.00     0.167 HD
ATOM     59  C   UNL A   1      45.345  26.611  30.353  1.00  0.00     0.074 A 
ATOM     60  C   UNL A   1      45.792  25.279  29.998  1.00  0.00     0.031 C 
ATOM     61  C   UNL A   1      46.098  27.513  31.026  1.00  0.00     0.031 A 
BRANCH  48  62
ATOM     62  C   UNL A   1      43.287  32.937  31.987  1.00  0.00    -0.014 A 
ATOM     63  C   UNL A   1      42.814  33.250  33.275  1.00  0.00     0.010 A 
ATOM     64  C   UNL A   1      43.872  33.949  31.207  1.00  0.00     0.010 A 
ATOM     65  C   UNL A   1      42.885  34.561  33.755  1.00  0.00     0.020 A 
ATOM     66  C   UNL A   1      43.970  35.256  31.695  1.00  0.00     0.020 A 
ATOM     67  C   UNL A   1      43.457  35.556  32.958  1.00  0.00     0.054 A 
BRANCH  67  68
ATOM     68  S   UNL A   1      43.550  37.246  33.612  1.00  0.00     0.124 S 
ATOM     69  O   UNL A   1      43.417  38.046  32.396  1.00  0.00    -0.237 OA
ATOM     70  O   UNL A   1      42.414  37.301  34.527  1.00  0.00    -0.237 OA
ATOM     71  O   UNL A   1      44.863  37.298  34.251  1.00  0.00    -0.744 OA
ENDBRANCH  67  68
ENDBRANCH  48  62
BRANCH  49  72
ATOM     72  C   UNL A   1      42.372  23.820  27.999  1.00  0.00    -0.014 A 
ATOM     73  C   UNL A   1      42.326  23.679  26.601  1.00  0.00     0.010 A 
ATOM     74  C   UNL A   1      42.319  22.668  28.805  1.00  0.00     0.010 A 
ATOM     75  C   UNL A   1      42.214  22.414  26.020  1.00  0.00     0.020 A 
ATOM     76  C   UNL A   1      42.232  21.399  28.227  1.00  0.00     0.020 A 
ATOM     77  C   UNL A   1      42.168  21.280  26.837  1.00  0.00     0.054 A 
BRANCH  77  78
ATOM     78  S   UNL A   1      42.079  19.642  26.061  1.00  0.00     0.124 S 
ATOM     79  O   UNL A   1      40.670  19.557  25.695  1.00  0.00    -0.237 OA
ATOM     80  O   UNL A   1      43.017  19.768  24.947  1.00  0.00    -0.237 OA
ATOM     81  O   UNL A   1      42.509  18.738  27.124  1.00  0.00    -0.744 OA
ENDBRANCH  77  78
ENDBRANCH  49  72
BRANCH  61  82
ATOM     82  C   UNL A   1      47.475  27.084  31.452  1.00  0.00    -0.014 A 
ATOM     83  C   UNL A   1      47.696  26.491  32.708  1.00  0.00     0.010 A 
ATOM     84  C   UNL A   1      48.555  27.229  30.560  1.00  0.00     0.010 A 
ATOM     85  C   UNL A   1      48.978  26.074  33.075  1.00  0.00     0.020 A 
ATOM     86  C   UNL A   1      49.833  26.792  30.915  1.00  0.00     0.020 A 
ATOM     87  C   UNL A   1      50.039  26.229  32.177  1.00  0.00     0.054 A 
BRANCH  87  88
ATOM     88  S   UNL A   1      51.686  25.640  32.658  1.00  0.00     0.124 S 
ATOM     89  O   UNL A   1      52.555  26.422  31.785  1.00  0.00    -0.237 OA
ATOM     90  O   UNL A   1      51.747  25.981  34.077  1.00  0.00    -0.237 OA
ATOM     91  O   UNL A   1      51.638  24.207  32.371  1.00  0.00    -0.744 OA
ENDBRANCH  87  88
ENDBRANCH  61  82
ENDBRANCH  35  36
ENDBRANCH  27  30
ENDBRANCH  25  26
ENDBRANCH  24  25
ENDBRANCH   1  24
TORSDOF 18
ENDMDL
MODEL 3
REMARK VINA RESULT:     -10.1      5.031      6.461
REMARK SMILES C[C@H]1[C@H](C(=O)NCCCCNC(=O)c2ccc(-c3c4nc(c(-c5ccc(S(=O)(=O)[O-])cc5)c5ccc([nH]5)c(-c5ccc(S(=O)(=O)[O-])cc5)c5nc(c(-c6ccc(S(=O)(=O)[O-])cc6)c6ccc3[nH]6)C=C5)C=C4)cc2)CCN1C(=O)COc1ccccc1F
REMARK SMILES IDX 8 1 7 2 6 3 4 4 5 5 3 7 1 8 2 9 76 10 74 11 75 12 77 13
REMARK SMILES IDX 78 14 79 15 80 16 81 17 82 18 86 19 83 20 85 21 87 22 84 23
REMARK SMILES IDX 9 24 10 25 11 26 12 27 13 29 14 30 15 31 73 32 16 33 72 34
REMARK SMILES IDX 17 35 18 36 19 37 66 38 20 39 71 40 65 41 67 42 21 43 70 44
REMARK SMILES IDX 64 45 63 46 22 48 52 49 33 50 51 51 34 52 37 53 50 54 68 55
REMARK SMILES IDX 35 56 36 57 49 59 69 60 38 61 23 62 24 63 32 64 25 65 31 66
REMARK SMILES IDX 26 67 27 68 28 69 29 70 30 71 53 72 54 73 62 74 55 75 61 76
REMARK SMILES IDX 56 77 57 78 58 79 59 80 60 81 39 82 40 83 48 84 41 85 47 86
REMARK SMILES IDX 42 87 43 88 44 89 45 90 46 91
REMARK H PARENT 6 6 11 28 67 47 37 58
REMARK Flexibility Score: inf
ROOT
ATOM      1  C   UNL A   1      33.234  31.045  27.380  1.00  0.00     0.023 C 
ENDROOT
BRANCH   1   2
ATOM      2  C   UNL A   1      32.152  30.254  26.650  1.00  0.00     0.116 C 
BRANCH   2   3
ATOM      3  N   UNL A   1      32.500  30.017  25.261  1.00  0.00    -0.356 N 
ATOM      4  C   UNL A   1      32.700  28.863  24.574  1.00  0.00     0.225 C 
ATOM      5  O   UNL A   1      33.017  28.954  23.384  1.00  0.00    -0.275 OA
ATOM      6  H   UNL A   1      32.608  30.835  24.724  1.00  0.00     0.163 HD
BRANCH   4   7
ATOM      7  C   UNL A   1      32.542  27.492  25.207  1.00  0.00     0.102 C 
ATOM      8  C   UNL A   1      30.816  25.819  24.506  1.00  0.00     0.032 C 
ATOM      9  C   UNL A   1      32.200  26.386  24.186  1.00  0.00     0.094 C 
ATOM     10  N   UNL A   1      33.287  25.414  24.332  1.00  0.00    -0.336 N 
ATOM     11  C   UNL A   1      33.770  27.029  25.991  1.00  0.00     0.037 C 
ATOM     12  C   UNL A   1      33.969  25.580  25.600  1.00  0.00     0.121 C 
BRANCH  10  13
ATOM     13  C   UNL A   1      33.808  24.546  23.393  1.00  0.00     0.260 C 
ATOM     14  O   UNL A   1      33.985  24.903  22.222  1.00  0.00    -0.271 OA
BRANCH  13  15
ATOM     15  C   UNL A   1      34.154  23.105  23.790  1.00  0.00     0.329 C 
BRANCH  15  16
ATOM     16  O   UNL A   1      33.196  22.202  24.298  1.00  0.00    -0.481 OA
BRANCH  16  17
ATOM     17  C   UNL A   1      33.373  20.855  24.146  1.00  0.00     0.155 A 
ATOM     18  C   UNL A   1      32.360  20.231  23.407  1.00  0.00     0.049 A 
ATOM     19  C   UNL A   1      34.354  20.049  24.723  1.00  0.00     0.165 A 
ATOM     20  C   UNL A   1      32.329  18.841  23.253  1.00  0.00     0.004 A 
ATOM     21  C   UNL A   1      34.322  18.659  24.585  1.00  0.00     0.043 A 
ATOM     22  F   UNL A   1      35.337  20.546  25.475  1.00  0.00    -0.203 F 
ATOM     23  C   UNL A   1      33.308  18.053  23.852  1.00  0.00     0.003 A 
ENDBRANCH  16  17
ENDBRANCH  15  16
ENDBRANCH  13  15
ENDBRANCH  10  13
ENDBRANCH   4   7
ENDBRANCH   2   3
ENDBRANCH   1   2
BRANCH   1  24
ATOM     24  C   UNL A   1      34.597  30.355  27.431  1.00  0.00     0.023 C 
BRANCH  24  25
ATOM     25  C   UNL A   1      35.706  31.162  28.099  1.00  0.00     0.116 C 
BRANCH  25  26
ATOM     26  N   UNL A   1      35.563  31.249  29.544  1.00  0.00    -0.352 N 
ATOM     27  C   UNL A   1      36.414  30.781  30.517  1.00  0.00     0.251 C 
ATOM     28  H   UNL A   1      34.750  31.701  29.868  1.00  0.00     0.163 HD
ATOM     29  O   UNL A   1      36.090  30.831  31.700  1.00  0.00    -0.269 OA
BRANCH  27  30
ATOM     30  C   UNL A   1      37.703  30.182  30.120  1.00  0.00     0.039 A 
ATOM     31  C   UNL A   1      37.962  29.975  28.763  1.00  0.00     0.014 A 
ATOM     32  C   UNL A   1      38.669  29.869  31.082  1.00  0.00     0.014 A 
ATOM     33  C   UNL A   1      39.220  29.521  28.365  1.00  0.00     0.010 A 
ATOM     34  C   UNL A   1      39.942  29.482  30.678  1.00  0.00     0.010 A 
ATOM     35  C   UNL A   1      40.232  29.307  29.317  1.00  0.00    -0.014 A 
BRANCH  35  36
ATOM     36  C   UNL A   1      41.603  28.912  28.906  1.00  0.00     0.031 A 
ATOM     37  C   UNL A   1      42.703  29.937  28.868  1.00  0.00     0.074 A 
ATOM     38  C   UNL A   1      41.839  27.649  28.500  1.00  0.00     0.049 A 
ATOM     39  N   UNL A   1      43.944  29.798  28.476  1.00  0.00    -0.248 NA
ATOM     40  C   UNL A   1      42.357  31.301  29.298  1.00  0.00     0.031 C 
ATOM     41  C   UNL A   1      40.844  26.574  28.447  1.00  0.00     0.029 A 
ATOM     42  N   UNL A   1      42.991  27.055  28.048  1.00  0.00    -0.354 N 
ATOM     43  C   UNL A   1      44.520  31.057  28.596  1.00  0.00     0.074 A 
ATOM     44  C   UNL A   1      43.482  31.955  29.050  1.00  0.00     0.031 C 
ATOM     45  C   UNL A   1      41.435  25.449  28.011  1.00  0.00     0.029 A 
ATOM     46  C   UNL A   1      42.837  25.728  27.721  1.00  0.00     0.049 A 
ATOM     47  H   UNL A   1      43.847  27.534  27.965  1.00  0.00     0.167 HD
ATOM     48  C   UNL A   1      45.802  31.428  28.366  1.00  0.00     0.031 A 
ATOM     49  C   UNL A   1      43.724  24.836  27.238  1.00  0.00     0.031 A 
ATOM     50  C   UNL A   1      46.837  30.529  27.930  1.00  0.00     0.049 A 
ATOM     51  C   UNL A   1      45.144  25.271  26.999  1.00  0.00     0.074 A 
ATOM     52  C   UNL A   1      48.179  30.796  27.726  1.00  0.00     0.029 A 
ATOM     53  N   UNL A   1      46.645  29.189  27.630  1.00  0.00    -0.354 N 
ATOM     54  N   UNL A   1      45.685  26.451  27.179  1.00  0.00    -0.248 NA
ATOM     55  C   UNL A   1      46.075  24.248  26.501  1.00  0.00     0.031 C 
ATOM     56  C   UNL A   1      48.791  29.627  27.264  1.00  0.00     0.029 A 
ATOM     57  C   UNL A   1      47.840  28.619  27.227  1.00  0.00     0.049 A 
ATOM     58  H   UNL A   1      45.785  28.712  27.696  1.00  0.00     0.167 HD
ATOM     59  C   UNL A   1      47.026  26.309  26.841  1.00  0.00     0.074 A 
ATOM     60  C   UNL A   1      47.215  24.924  26.459  1.00  0.00     0.031 C 
ATOM     61  C   UNL A   1      48.011  27.239  26.847  1.00  0.00     0.031 A 
BRANCH  48  62
ATOM     62  C   UNL A   1      46.153  32.876  28.582  1.00  0.00    -0.014 A 
ATOM     63  C   UNL A   1      46.606  33.333  29.834  1.00  0.00     0.010 A 
ATOM     64  C   UNL A   1      46.056  33.787  27.515  1.00  0.00     0.010 A 
ATOM     65  C   UNL A   1      46.912  34.682  30.026  1.00  0.00     0.020 A 
ATOM     66  C   UNL A   1      46.388  35.133  27.696  1.00  0.00     0.020 A 
ATOM     67  C   UNL A   1      46.795  35.575  28.956  1.00  0.00     0.054 A 
BRANCH  67  68
ATOM     68  S   UNL A   1      47.213  37.319  29.231  1.00  0.00     0.124 S 
ATOM     69  O   UNL A   1      47.445  37.348  30.673  1.00  0.00    -0.237 OA
ATOM     70  O   UNL A   1      48.400  37.500  28.400  1.00  0.00    -0.237 OA
ATOM     71  O   UNL A   1      46.023  38.036  28.777  1.00  0.00    -0.744 OA
ENDBRANCH  67  68
ENDBRANCH  48  62
BRANCH  49  72
ATOM     72  C   UNL A   1      43.298  23.437  26.970  1.00  0.00    -0.014 A 
ATOM     73  C   UNL A   1      43.131  22.985  25.649  1.00  0.00     0.010 A 
ATOM     74  C   UNL A   1      43.072  22.543  28.032  1.00  0.00     0.010 A 
ATOM     75  C   UNL A   1      42.732  21.670  25.395  1.00  0.00     0.020 A 
ATOM     76  C   UNL A   1      42.697  21.221  27.782  1.00  0.00     0.020 A 
ATOM     77  C   UNL A   1      42.519  20.795  26.464  1.00  0.00     0.054 A 
BRANCH  77  78
ATOM     78  S   UNL A   1      42.056  19.076  26.110  1.00  0.00     0.124 S 
ATOM     79  O   UNL A   1      42.382  18.411  27.367  1.00  0.00    -0.237 OA
ATOM     80  O   UNL A   1      40.632  19.188  25.804  1.00  0.00    -0.237 OA
ATOM     81  O   UNL A   1      42.902  18.722  24.974  1.00  0.00    -0.744 OA
ENDBRANCH  77  78
ENDBRANCH  49  72
BRANCH  61  82
ATOM     82  C   UNL A   1      49.391  26.787  26.457  1.00  0.00    -0.014 A 
ATOM     83  C   UNL A   1      50.230  26.133  27.377  1.00  0.00     0.010 A 
ATOM     84  C   UNL A   1      49.835  26.973  25.134  1.00  0.00     0.010 A 
ATOM     85  C   UNL A   1      51.499  25.697  26.987  1.00  0.00     0.020 A 
ATOM     86  C   UNL A   1      51.093  26.517  24.736  1.00  0.00     0.020 A 
ATOM     87  C   UNL A   1      51.923  25.893  25.670  1.00  0.00     0.054 A 
BRANCH  87  88
ATOM     88  S   UNL A   1      53.557  25.278  25.176  1.00  0.00     0.124 S 
ATOM     89  O   UNL A   1      54.425  25.881  26.182  1.00  0.00    -0.237 OA
ATOM     90  O   UNL A   1      53.397  23.829  25.270  1.00  0.00    -0.237 OA
ATOM     91  O   UNL A   1      53.724  25.793  23.818  1.00  0.00    -0.744 OA
ENDBRANCH  87  88
ENDBRANCH  61  82
ENDBRANCH  35  36
ENDBRANCH  27  30
ENDBRANCH  25  26
ENDBRANCH  24  25
ENDBRANCH   1  24
TORSDOF 18
ENDMDL
