MODEL 1
REMARK VINA RESULT:     -10.6      0.000      0.000
REMARK SMILES CC[C@@H](CNC(=O)NCc1c(C)noc1C)C(=O)NCCCCNC(=O)c1ccc(-c2c3nc(c(-c4ccc(S(=O)(=O)[O-])cc4)c4ccc([nH]4)c(-c4ccc(S(=O)(=O)[O-])cc4)c4nc(c(-c5ccc(S(=O)(=O)[O-])cc5)c5ccc2[nH]5)C=C4)C=C3)cc1
REMARK SMILES IDX 21 1 20 2 19 3 17 4 18 5 3 7 2 8 1 9 4 10 5 11 6 12 7 14
REMARK SMILES IDX 8 15 9 17 10 18 11 19 15 20 12 21 13 22 14 23 16 24 22 25
REMARK SMILES IDX 23 26 24 27 25 28 26 30 27 31 28 32 86 33 29 34 85 35 30 36
REMARK SMILES IDX 31 37 32 38 79 39 33 40 84 41 78 42 80 43 34 44 83 45 77 46
REMARK SMILES IDX 76 47 35 49 65 50 46 51 64 52 47 53 50 54 63 55 81 56 48 57
REMARK SMILES IDX 49 58 62 60 82 61 51 62 36 63 37 64 45 65 38 66 44 67 39 68
REMARK SMILES IDX 40 69 41 70 42 71 43 72 66 73 67 74 75 75 68 76 74 77 69 78
REMARK SMILES IDX 70 79 71 80 72 81 73 82 52 83 53 84 61 85 54 86 60 87 55 88
REMARK SMILES IDX 56 89 57 90 58 91 59 92
REMARK H PARENT 19 6 5 13 8 16 24 29 80 48 50 59
REMARK Flexibility Score: inf
ROOT
ATOM      1  C   UNL A   1      31.544  29.021  25.593  1.00  0.00     0.023 C 
ENDROOT
BRANCH   1   2
ATOM      2  C   UNL A   1      31.517  28.527  24.152  1.00  0.00     0.116 C 
BRANCH   2   3
ATOM      3  N   UNL A   1      30.234  27.966  23.769  1.00  0.00    -0.356 N 
ATOM      4  C   UNL A   1      29.703  26.736  24.003  1.00  0.00     0.224 C 
ATOM      5  O   UNL A   1      28.495  26.585  23.794  1.00  0.00    -0.275 OA
ATOM      6  H   UNL A   1      29.655  28.576  23.258  1.00  0.00     0.163 HD
BRANCH   4   7
ATOM      7  C   UNL A   1      30.527  25.564  24.528  1.00  0.00     0.097 C 
BRANCH   7   8
ATOM      8  C   UNL A   1      30.273  25.229  26.009  1.00  0.00     0.012 C 
ATOM      9  C   UNL A   1      30.533  23.772  26.368  1.00  0.00     0.005 C 
ENDBRANCH   7   8
BRANCH   7  10
ATOM     10  C   UNL A   1      30.620  24.397  23.533  1.00  0.00     0.131 C 
BRANCH  10  11
ATOM     11  N   UNL A   1      31.594  24.504  22.471  1.00  0.00    -0.337 N 
ATOM     12  C   UNL A   1      32.901  24.236  22.371  1.00  0.00     0.315 C 
ATOM     13  H   UNL A   1      31.210  24.853  21.634  1.00  0.00     0.165 HD
ATOM     14  O   UNL A   1      33.494  24.692  21.391  1.00  0.00    -0.249 OA
ATOM     15  N   UNL A   1      33.613  23.547  23.262  1.00  0.00    -0.334 N 
ATOM     16  H   UNL A   1      34.581  23.695  23.164  1.00  0.00     0.165 HD
BRANCH  15  17
ATOM     17  C   UNL A   1      33.303  22.631  24.339  1.00  0.00     0.159 C 
BRANCH  17  18
ATOM     18  C   UNL A   1      34.555  21.934  24.734  1.00  0.00     0.037 A 
ATOM     19  C   UNL A   1      35.825  22.470  25.099  1.00  0.00     0.086 A 
ATOM     20  C   UNL A   1      34.751  20.569  24.838  1.00  0.00     0.138 A 
ATOM     21  C   UNL A   1      36.258  23.881  25.201  1.00  0.00     0.071 C 
ATOM     22  N   UNL A   1      36.703  21.502  25.392  1.00  0.00    -0.085 NA
ATOM     23  O   UNL A   1      36.024  20.314  25.228  1.00  0.00    -0.361 OA
ATOM     24  C   UNL A   1      33.885  19.393  24.629  1.00  0.00     0.091 C 
ENDBRANCH  17  18
ENDBRANCH  15  17
ENDBRANCH  10  11
ENDBRANCH   7  10
ENDBRANCH   4   7
ENDBRANCH   2   3
ENDBRANCH   1   2
BRANCH   1  25
ATOM     25  C   UNL A   1      32.196  28.056  26.582  1.00  0.00     0.023 C 
BRANCH  25  26
ATOM     26  C   UNL A   1      33.476  28.557  27.248  1.00  0.00     0.116 C 
BRANCH  26  27
ATOM     27  N   UNL A   1      33.432  29.966  27.609  1.00  0.00    -0.352 N 
ATOM     28  C   UNL A   1      34.413  30.743  28.184  1.00  0.00     0.251 C 
ATOM     29  H   UNL A   1      32.585  30.428  27.415  1.00  0.00     0.163 HD
ATOM     30  O   UNL A   1      34.174  31.892  28.526  1.00  0.00    -0.269 OA
BRANCH  28  31
ATOM     31  C   UNL A   1      35.750  30.157  28.416  1.00  0.00     0.039 A 
ATOM     32  C   UNL A   1      36.667  30.130  27.364  1.00  0.00     0.014 A 
ATOM     33  C   UNL A   1      36.108  29.683  29.681  1.00  0.00     0.014 A 
ATOM     34  C   UNL A   1      37.976  29.704  27.603  1.00  0.00     0.010 A 
ATOM     35  C   UNL A   1      37.430  29.330  29.934  1.00  0.00     0.010 A 
ATOM     36  C   UNL A   1      38.378  29.344  28.900  1.00  0.00    -0.014 A 
BRANCH  36  37
ATOM     37  C   UNL A   1      39.792  29.003  29.200  1.00  0.00     0.031 A 
ATOM     38  C   UNL A   1      40.707  30.033  29.803  1.00  0.00     0.074 A 
ATOM     39  C   UNL A   1      40.273  27.791  28.856  1.00  0.00     0.049 A 
ATOM     40  N   UNL A   1      41.985  29.944  30.069  1.00  0.00    -0.248 NA
ATOM     41  C   UNL A   1      40.116  31.343  30.123  1.00  0.00     0.031 C 
ATOM     42  C   UNL A   1      39.501  26.723  28.213  1.00  0.00     0.029 A 
ATOM     43  N   UNL A   1      41.530  27.257  28.988  1.00  0.00    -0.354 N 
ATOM     44  C   UNL A   1      42.356  31.189  30.562  1.00  0.00     0.074 A 
ATOM     45  C   UNL A   1      41.179  32.029  30.519  1.00  0.00     0.031 C 
ATOM     46  C   UNL A   1      40.295  25.656  28.029  1.00  0.00     0.029 A 
ATOM     47  C   UNL A   1      41.638  25.973  28.505  1.00  0.00     0.049 A 
ATOM     48  H   UNL A   1      42.284  27.746  29.390  1.00  0.00     0.167 HD
ATOM     49  C   UNL A   1      43.562  31.594  31.026  1.00  0.00     0.031 A 
ATOM     50  C   UNL A   1      42.698  25.145  28.446  1.00  0.00     0.031 A 
ATOM     51  C   UNL A   1      44.726  30.750  31.089  1.00  0.00     0.049 A 
ATOM     52  C   UNL A   1      44.022  25.606  28.990  1.00  0.00     0.074 A 
ATOM     53  C   UNL A   1      45.975  31.045  31.607  1.00  0.00     0.029 A 
ATOM     54  N   UNL A   1      44.785  29.446  30.622  1.00  0.00    -0.354 N 
ATOM     55  N   UNL A   1      44.335  26.766  29.517  1.00  0.00    -0.248 NA
ATOM     56  C   UNL A   1      45.132  24.645  28.943  1.00  0.00     0.031 C 
ATOM     57  C   UNL A   1      46.802  29.934  31.414  1.00  0.00     0.029 A 
ATOM     58  C   UNL A   1      46.054  28.929  30.822  1.00  0.00     0.049 A 
ATOM     59  H   UNL A   1      44.035  28.959  30.209  1.00  0.00     0.167 HD
ATOM     60  C   UNL A   1      45.671  26.665  29.887  1.00  0.00     0.074 A 
ATOM     61  C   UNL A   1      46.103  25.327  29.535  1.00  0.00     0.031 C 
ATOM     62  C   UNL A   1      46.468  27.596  30.466  1.00  0.00     0.031 A 
BRANCH  49  63
ATOM     63  C   UNL A   1      43.683  33.017  31.502  1.00  0.00    -0.014 A 
ATOM     64  C   UNL A   1      43.454  33.353  32.848  1.00  0.00     0.010 A 
ATOM     65  C   UNL A   1      44.067  34.024  30.599  1.00  0.00     0.010 A 
ATOM     66  C   UNL A   1      43.564  34.679  33.274  1.00  0.00     0.020 A 
ATOM     67  C   UNL A   1      44.205  35.348  31.028  1.00  0.00     0.020 A 
ATOM     68  C   UNL A   1      43.936  35.669  32.359  1.00  0.00     0.054 A 
BRANCH  68  69
ATOM     69  S   UNL A   1      44.094  37.378  32.944  1.00  0.00     0.124 S 
ATOM     70  O   UNL A   1      43.982  38.133  31.699  1.00  0.00    -0.237 OA
ATOM     71  O   UNL A   1      42.966  37.510  33.863  1.00  0.00    -0.237 OA
ATOM     72  O   UNL A   1      45.412  37.409  33.573  1.00  0.00    -0.744 OA
ENDBRANCH  68  69
ENDBRANCH  49  63
BRANCH  50  73
ATOM     73  C   UNL A   1      42.543  23.783  27.866  1.00  0.00    -0.014 A 
ATOM     74  C   UNL A   1      42.298  22.678  28.699  1.00  0.00     0.010 A 
ATOM     75  C   UNL A   1      42.616  23.589  26.475  1.00  0.00     0.010 A 
ATOM     76  C   UNL A   1      42.142  21.401  28.154  1.00  0.00     0.020 A 
ATOM     77  C   UNL A   1      42.437  22.318  25.923  1.00  0.00     0.020 A 
ATOM     78  C   UNL A   1      42.210  21.229  26.768  1.00  0.00     0.054 A 
BRANCH  78  79
ATOM     79  S   UNL A   1      41.943  19.572  26.075  1.00  0.00     0.124 S 
ATOM     80  O   UNL A   1      40.516  19.596  25.774  1.00  0.00    -0.237 OA
ATOM     81  O   UNL A   1      42.835  19.565  24.918  1.00  0.00    -0.237 OA
ATOM     82  O   UNL A   1      42.341  18.681  27.162  1.00  0.00    -0.744 OA
ENDBRANCH  78  79
ENDBRANCH  50  73
BRANCH  62  83
ATOM     83  C   UNL A   1      47.883  27.194  30.785  1.00  0.00    -0.014 A 
ATOM     84  C   UNL A   1      48.198  26.529  31.982  1.00  0.00     0.010 A 
ATOM     85  C   UNL A   1      48.900  27.436  29.844  1.00  0.00     0.010 A 
ATOM     86  C   UNL A   1      49.514  26.138  32.246  1.00  0.00     0.020 A 
ATOM     87  C   UNL A   1      50.212  27.025  30.093  1.00  0.00     0.020 A 
ATOM     88  C   UNL A   1      50.512  26.389  31.300  1.00  0.00     0.054 A 
BRANCH  88  89
ATOM     89  S   UNL A   1      52.203  25.831  31.644  1.00  0.00     0.124 S 
ATOM     90  O   UNL A   1      52.846  25.988  30.342  1.00  0.00    -0.237 OA
ATOM     91  O   UNL A   1      52.646  26.764  32.678  1.00  0.00    -0.237 OA
ATOM     92  O   UNL A   1      52.028  24.451  32.091  1.00  0.00    -0.744 OA
ENDBRANCH  88  89
ENDBRANCH  62  83
ENDBRANCH  36  37
ENDBRANCH  28  31
ENDBRANCH  26  27
ENDBRANCH  25  26
ENDBRANCH   1  25
TORSDOF 19
ENDMDL
MODEL 2
REMARK VINA RESULT:     -10.3      2.967      3.829
REMARK SMILES CC[C@@H](CNC(=O)NCc1c(C)noc1C)C(=O)NCCCCNC(=O)c1ccc(-c2c3nc(c(-c4ccc(S(=O)(=O)[O-])cc4)c4ccc([nH]4)c(-c4ccc(S(=O)(=O)[O-])cc4)c4nc(c(-c5ccc(S(=O)(=O)[O-])cc5)c5ccc2[nH]5)C=C4)C=C3)cc1
REMARK SMILES IDX 21 1 20 2 19 3 17 4 18 5 3 7 2 8 1 9 4 10 5 11 6 12 7 14
REMARK SMILES IDX 8 15 9 17 10 18 11 19 15 20 12 21 13 22 14 23 16 24 22 25
REMARK SMILES IDX 23 26 24 27 25 28 26 30 27 31 28 32 86 33 29 34 85 35 30 36
REMARK SMILES IDX 31 37 32 38 79 39 33 40 84 41 78 42 80 43 34 44 83 45 77 46
REMARK SMILES IDX 76 47 35 49 65 50 46 51 64 52 47 53 50 54 63 55 81 56 48 57
REMARK SMILES IDX 49 58 62 60 82 61 51 62 36 63 37 64 45 65 38 66 44 67 39 68
REMARK SMILES IDX 40 69 41 70 42 71 43 72 66 73 67 74 75 75 68 76 74 77 69 78
REMARK SMILES IDX 70 79 71 80 72 81 73 82 52 83 53 84 61 85 54 86 60 87 55 88
REMARK SMILES IDX 56 89 57 90 58 91 59 92
REMARK H PARENT 19 6 5 13 8 16 24 29 80 48 50 59
REMARK Flexibility Score: inf
ROOT
ATOM      1  C   UNL A   1      33.331  30.299  26.984  1.00  0.00     0.023 C 
ENDROOT
BRANCH   1   2
ATOM      2  C   UNL A   1      32.411  30.045  25.796  1.00  0.00     0.116 C 
BRANCH   2   3
ATOM      3  N   UNL A   1      33.124  29.597  24.613  1.00  0.00    -0.356 N 
ATOM      4  C   UNL A   1      32.670  28.978  23.490  1.00  0.00     0.224 C 
ATOM      5  O   UNL A   1      33.430  28.928  22.518  1.00  0.00    -0.275 OA
ATOM      6  H   UNL A   1      34.093  29.771  24.625  1.00  0.00     0.163 HD
BRANCH   4   7
ATOM      7  C   UNL A   1      31.272  28.377  23.383  1.00  0.00     0.097 C 
BRANCH   7   8
ATOM      8  C   UNL A   1      30.331  29.134  22.429  1.00  0.00     0.012 C 
ATOM      9  C   UNL A   1      28.861  29.059  22.819  1.00  0.00     0.005 C 
ENDBRANCH   7   8
BRANCH   7  10
ATOM     10  C   UNL A   1      31.279  26.841  23.316  1.00  0.00     0.131 C 
BRANCH  10  11
ATOM     11  N   UNL A   1      31.814  26.230  22.122  1.00  0.00    -0.337 N 
ATOM     12  C   UNL A   1      32.920  25.530  21.845  1.00  0.00     0.315 C 
ATOM     13  H   UNL A   1      31.235  26.358  21.335  1.00  0.00     0.165 HD
ATOM     14  O   UNL A   1      33.205  25.379  20.655  1.00  0.00    -0.249 OA
ATOM     15  N   UNL A   1      33.751  25.018  22.752  1.00  0.00    -0.334 N 
ATOM     16  H   UNL A   1      34.630  24.793  22.371  1.00  0.00     0.165 HD
BRANCH  15  17
ATOM     17  C   UNL A   1      33.668  24.711  24.164  1.00  0.00     0.159 C 
BRANCH  17  18
ATOM     18  C   UNL A   1      34.269  23.369  24.387  1.00  0.00     0.037 A 
ATOM     19  C   UNL A   1      35.481  23.008  25.044  1.00  0.00     0.086 A 
ATOM     20  C   UNL A   1      33.752  22.150  23.992  1.00  0.00     0.138 A 
ATOM     21  C   UNL A   1      36.488  23.868  25.705  1.00  0.00     0.071 C 
ATOM     22  N   UNL A   1      35.670  21.683  25.037  1.00  0.00    -0.085 NA
ATOM     23  O   UNL A   1      34.583  21.150  24.379  1.00  0.00    -0.361 OA
ATOM     24  C   UNL A   1      32.527  21.740  23.279  1.00  0.00     0.091 C 
ENDBRANCH  17  18
ENDBRANCH  15  17
ENDBRANCH  10  11
ENDBRANCH   7  10
ENDBRANCH   4   7
ENDBRANCH   2   3
ENDBRANCH   1   2
BRANCH   1  25
ATOM     25  C   UNL A   1      34.473  29.294  27.126  1.00  0.00     0.023 C 
BRANCH  25  26
ATOM     26  C   UNL A   1      35.707  29.798  27.872  1.00  0.00     0.116 C 
BRANCH  26  27
ATOM     27  N   UNL A   1      35.549  29.810  29.319  1.00  0.00    -0.352 N 
ATOM     28  C   UNL A   1      36.508  29.653  30.295  1.00  0.00     0.251 C 
ATOM     29  H   UNL A   1      34.631  29.950  29.644  1.00  0.00     0.163 HD
ATOM     30  O   UNL A   1      36.188  29.578  31.473  1.00  0.00    -0.269 OA
BRANCH  28  31
ATOM     31  C   UNL A   1      37.927  29.538  29.897  1.00  0.00     0.039 A 
ATOM     32  C   UNL A   1      38.890  29.330  30.887  1.00  0.00     0.014 A 
ATOM     33  C   UNL A   1      38.293  29.586  28.550  1.00  0.00     0.014 A 
ATOM     34  C   UNL A   1      40.214  29.085  30.516  1.00  0.00     0.010 A 
ATOM     35  C   UNL A   1      39.597  29.269  28.181  1.00  0.00     0.010 A 
ATOM     36  C   UNL A   1      40.568  29.008  29.159  1.00  0.00    -0.014 A 
BRANCH  36  37
ATOM     37  C   UNL A   1      41.942  28.631  28.742  1.00  0.00     0.031 A 
ATOM     38  C   UNL A   1      43.020  29.678  28.655  1.00  0.00     0.074 A 
ATOM     39  C   UNL A   1      42.201  27.363  28.364  1.00  0.00     0.049 A 
ATOM     40  N   UNL A   1      44.255  29.555  28.244  1.00  0.00    -0.248 NA
ATOM     41  C   UNL A   1      42.652  31.046  29.055  1.00  0.00     0.031 C 
ATOM     42  C   UNL A   1      41.228  26.267  28.348  1.00  0.00     0.029 A 
ATOM     43  N   UNL A   1      43.358  26.783  27.908  1.00  0.00    -0.354 N 
ATOM     44  C   UNL A   1      44.805  30.829  28.312  1.00  0.00     0.074 A 
ATOM     45  C   UNL A   1      43.757  31.718  28.763  1.00  0.00     0.031 C 
ATOM     46  C   UNL A   1      41.835  25.146  27.929  1.00  0.00     0.029 A 
ATOM     47  C   UNL A   1      43.226  25.447  27.611  1.00  0.00     0.049 A 
ATOM     48  H   UNL A   1      44.203  27.278  27.803  1.00  0.00     0.167 HD
ATOM     49  C   UNL A   1      46.072  31.223  28.042  1.00  0.00     0.031 A 
ATOM     50  C   UNL A   1      44.122  24.563  27.131  1.00  0.00     0.031 A 
ATOM     51  C   UNL A   1      47.120  30.333  27.616  1.00  0.00     0.049 A 
ATOM     52  C   UNL A   1      45.530  25.017  26.862  1.00  0.00     0.074 A 
ATOM     53  C   UNL A   1      48.453  30.623  27.384  1.00  0.00     0.029 A 
ATOM     54  N   UNL A   1      46.954  28.981  27.359  1.00  0.00    -0.354 N 
ATOM     55  N   UNL A   1      46.049  26.214  26.999  1.00  0.00    -0.248 NA
ATOM     56  C   UNL A   1      46.477  24.000  26.384  1.00  0.00     0.031 C 
ATOM     57  C   UNL A   1      49.084  29.455  26.946  1.00  0.00     0.029 A 
ATOM     58  C   UNL A   1      48.156  28.426  26.954  1.00  0.00     0.049 A 
ATOM     59  H   UNL A   1      46.107  28.488  27.453  1.00  0.00     0.167 HD
ATOM     60  C   UNL A   1      47.388  26.088  26.649  1.00  0.00     0.074 A 
ATOM     61  C   UNL A   1      47.602  24.696  26.306  1.00  0.00     0.031 C 
ATOM     62  C   UNL A   1      48.353  27.040  26.615  1.00  0.00     0.031 A 
BRANCH  49  63
ATOM     63  C   UNL A   1      46.395  32.685  28.198  1.00  0.00    -0.014 A 
ATOM     64  C   UNL A   1      46.762  33.217  29.447  1.00  0.00     0.010 A 
ATOM     65  C   UNL A   1      46.366  33.531  27.075  1.00  0.00     0.010 A 
ATOM     66  C   UNL A   1      47.053  34.577  29.579  1.00  0.00     0.020 A 
ATOM     67  C   UNL A   1      46.684  34.887  27.198  1.00  0.00     0.020 A 
ATOM     68  C   UNL A   1      47.008  35.404  28.453  1.00  0.00     0.054 A 
BRANCH  68  69
ATOM     69  S   UNL A   1      47.414  37.161  28.648  1.00  0.00     0.124 S 
ATOM     70  O   UNL A   1      46.225  37.669  29.327  1.00  0.00    -0.237 OA
ATOM     71  O   UNL A   1      48.631  37.123  29.455  1.00  0.00    -0.237 OA
ATOM     72  O   UNL A   1      47.594  37.629  27.276  1.00  0.00    -0.744 OA
ENDBRANCH  68  69
ENDBRANCH  49  63
BRANCH  50  73
ATOM     73  C   UNL A   1      43.716  23.151  26.895  1.00  0.00    -0.014 A 
ATOM     74  C   UNL A   1      42.941  22.464  27.846  1.00  0.00     0.010 A 
ATOM     75  C   UNL A   1      44.082  22.494  25.707  1.00  0.00     0.010 A 
ATOM     76  C   UNL A   1      42.552  21.141  27.620  1.00  0.00     0.020 A 
ATOM     77  C   UNL A   1      43.673  21.179  25.465  1.00  0.00     0.020 A 
ATOM     78  C   UNL A   1      42.918  20.507  26.429  1.00  0.00     0.054 A 
BRANCH  78  79
ATOM     79  S   UNL A   1      42.349  18.811  26.127  1.00  0.00     0.124 S 
ATOM     80  O   UNL A   1      40.947  19.018  25.781  1.00  0.00    -0.237 OA
ATOM     81  O   UNL A   1      43.214  18.376  25.032  1.00  0.00    -0.237 OA
ATOM     82  O   UNL A   1      42.589  18.139  27.402  1.00  0.00    -0.744 OA
ENDBRANCH  78  79
ENDBRANCH  50  73
BRANCH  62  83
ATOM     83  C   UNL A   1      49.739  26.606  26.221  1.00  0.00    -0.014 A 
ATOM     84  C   UNL A   1      50.176  26.690  24.889  1.00  0.00     0.010 A 
ATOM     85  C   UNL A   1      50.634  26.164  27.212  1.00  0.00     0.010 A 
ATOM     86  C   UNL A   1      51.478  26.309  24.548  1.00  0.00     0.020 A 
ATOM     87  C   UNL A   1      51.943  25.807  26.880  1.00  0.00     0.020 A 
ATOM     88  C   UNL A   1      52.352  25.869  25.547  1.00  0.00     0.054 A 
BRANCH  88  89
ATOM     89  S   UNL A   1      54.050  25.425  25.088  1.00  0.00     0.124 S 
ATOM     90  O   UNL A   1      54.795  25.793  26.289  1.00  0.00    -0.237 OA
ATOM     91  O   UNL A   1      53.949  23.992  24.827  1.00  0.00    -0.237 OA
ATOM     92  O   UNL A   1      54.318  26.249  23.911  1.00  0.00    -0.744 OA
ENDBRANCH  88  89
ENDBRANCH  62  83
ENDBRANCH  36  37
ENDBRANCH  28  31
ENDBRANCH  26  27
ENDBRANCH  25  26
ENDBRANCH   1  25
TORSDOF 19
ENDMDL
MODEL 3
REMARK VINA RESULT:     -10.2      2.955      3.896
REMARK SMILES CC[C@@H](CNC(=O)NCc1c(C)noc1C)C(=O)NCCCCNC(=O)c1ccc(-c2c3nc(c(-c4ccc(S(=O)(=O)[O-])cc4)c4ccc([nH]4)c(-c4ccc(S(=O)(=O)[O-])cc4)c4nc(c(-c5ccc(S(=O)(=O)[O-])cc5)c5ccc2[nH]5)C=C4)C=C3)cc1
REMARK SMILES IDX 21 1 20 2 19 3 17 4 18 5 3 7 2 8 1 9 4 10 5 11 6 12 7 14
REMARK SMILES IDX 8 15 9 17 10 18 11 19 15 20 12 21 13 22 14 23 16 24 22 25
REMARK SMILES IDX 23 26 24 27 25 28 26 30 27 31 28 32 86 33 29 34 85 35 30 36
REMARK SMILES IDX 31 37 32 38 79 39 33 40 84 41 78 42 80 43 34 44 83 45 77 46
REMARK SMILES IDX 76 47 35 49 65 50 46 51 64 52 47 53 50 54 63 55 81 56 48 57
REMARK SMILES IDX 49 58 62 60 82 61 51 62 36 63 37 64 45 65 38 66 44 67 39 68
REMARK SMILES IDX 40 69 41 70 42 71 43 72 66 73 67 74 75 75 68 76 74 77 69 78
REMARK SMILES IDX 70 79 71 80 72 81 73 82 52 83 53 84 61 85 54 86 60 87 55 88
REMARK SMILES IDX 56 89 57 90 58 91 59 92
REMARK H PARENT 19 6 5 13 8 16 24 29 80 48 50 59
REMARK Flexibility Score: inf
ROOT
ATOM      1  C   UNL A   1      33.032  30.583  27.239  1.00  0.00     0.023 C 
ENDROOT
BRANCH   1   2
ATOM      2  C   UNL A   1      31.883  29.716  26.739  1.00  0.00     0.116 C 
BRANCH   2   3
ATOM      3  N   UNL A   1      31.910  29.513  25.302  1.00  0.00    -0.356 N 
ATOM      4  C   UNL A   1      31.863  28.367  24.571  1.00  0.00     0.224 C 
ATOM      5  O   UNL A   1      31.645  28.470  23.360  1.00  0.00    -0.275 OA
ATOM      6  H   UNL A   1      31.972  30.339  24.771  1.00  0.00     0.163 HD
BRANCH   4   7
ATOM      7  C   UNL A   1      32.042  26.983  25.188  1.00  0.00     0.097 C 
BRANCH   7   8
ATOM      8  C   UNL A   1      33.334  26.822  26.009  1.00  0.00     0.012 C 
ATOM      9  C   UNL A   1      34.395  25.963  25.334  1.00  0.00     0.005 C 
ENDBRANCH   7   8
BRANCH   7  10
ATOM     10  C   UNL A   1      30.742  26.410  25.774  1.00  0.00     0.131 C 
BRANCH  10  11
ATOM     11  N   UNL A   1      30.852  25.238  26.612  1.00  0.00    -0.337 N 
ATOM     12  C   UNL A   1      30.629  23.932  26.427  1.00  0.00     0.315 C 
ATOM     13  H   UNL A   1      31.158  25.448  27.524  1.00  0.00     0.165 HD
ATOM     14  O   UNL A   1      30.568  23.224  27.434  1.00  0.00    -0.249 OA
ATOM     15  N   UNL A   1      30.437  23.347  25.245  1.00  0.00    -0.334 N 
ATOM     16  H   UNL A   1      30.017  22.461  25.330  1.00  0.00     0.165 HD
BRANCH  15  17
ATOM     17  C   UNL A   1      30.698  23.702  23.867  1.00  0.00     0.159 C 
BRANCH  17  18
ATOM     18  C   UNL A   1      32.097  23.320  23.542  1.00  0.00     0.037 A 
ATOM     19  C   UNL A   1      33.064  23.988  22.735  1.00  0.00     0.086 A 
ATOM     20  C   UNL A   1      32.776  22.197  23.978  1.00  0.00     0.138 A 
ATOM     21  C   UNL A   1      32.954  25.265  21.995  1.00  0.00     0.071 C 
ATOM     22  N   UNL A   1      34.220  23.315  22.692  1.00  0.00    -0.085 NA
ATOM     23  O   UNL A   1      34.035  22.195  23.474  1.00  0.00    -0.361 OA
ATOM     24  C   UNL A   1      32.421  21.062  24.851  1.00  0.00     0.091 C 
ENDBRANCH  17  18
ENDBRANCH  15  17
ENDBRANCH  10  11
ENDBRANCH   7  10
ENDBRANCH   4   7
ENDBRANCH   2   3
ENDBRANCH   1   2
BRANCH   1  25
ATOM     25  C   UNL A   1      34.417  30.118  26.792  1.00  0.00     0.023 C 
BRANCH  25  26
ATOM     26  C   UNL A   1      35.289  29.497  27.882  1.00  0.00     0.116 C 
BRANCH  26  27
ATOM     27  N   UNL A   1      35.424  30.332  29.067  1.00  0.00    -0.352 N 
ATOM     28  C   UNL A   1      36.524  30.520  29.873  1.00  0.00     0.251 C 
ATOM     29  H   UNL A   1      34.616  30.831  29.328  1.00  0.00     0.163 HD
ATOM     30  O   UNL A   1      36.435  31.174  30.902  1.00  0.00    -0.269 OA
BRANCH  28  31
ATOM     31  C   UNL A   1      37.806  29.887  29.497  1.00  0.00     0.039 A 
ATOM     32  C   UNL A   1      38.205  29.914  28.160  1.00  0.00     0.014 A 
ATOM     33  C   UNL A   1      38.630  29.316  30.471  1.00  0.00     0.014 A 
ATOM     34  C   UNL A   1      39.472  29.442  27.810  1.00  0.00     0.010 A 
ATOM     35  C   UNL A   1      39.918  28.915  30.132  1.00  0.00     0.010 A 
ATOM     36  C   UNL A   1      40.355  28.981  28.801  1.00  0.00    -0.014 A 
BRANCH  36  37
ATOM     37  C   UNL A   1      41.747  28.586  28.468  1.00  0.00     0.031 A 
ATOM     38  C   UNL A   1      42.838  29.621  28.430  1.00  0.00     0.074 A 
ATOM     39  C   UNL A   1      42.014  27.311  28.122  1.00  0.00     0.049 A 
ATOM     40  N   UNL A   1      44.094  29.481  28.093  1.00  0.00    -0.248 NA
ATOM     41  C   UNL A   1      42.463  30.998  28.792  1.00  0.00     0.031 C 
ATOM     42  C   UNL A   1      41.032  26.224  28.063  1.00  0.00     0.029 A 
ATOM     43  N   UNL A   1      43.189  26.714  27.740  1.00  0.00    -0.354 N 
ATOM     44  C   UNL A   1      44.652  30.751  28.177  1.00  0.00     0.074 A 
ATOM     45  C   UNL A   1      43.589  31.656  28.556  1.00  0.00     0.031 C 
ATOM     46  C   UNL A   1      41.650  25.092  27.694  1.00  0.00     0.029 A 
ATOM     47  C   UNL A   1      43.061  25.375  27.452  1.00  0.00     0.049 A 
ATOM     48  H   UNL A   1      44.044  27.199  27.678  1.00  0.00     0.167 HD
ATOM     49  C   UNL A   1      45.937  31.129  27.975  1.00  0.00     0.031 A 
ATOM     50  C   UNL A   1      43.973  24.476  27.035  1.00  0.00     0.031 A 
ATOM     51  C   UNL A   1      46.998  30.223  27.621  1.00  0.00     0.049 A 
ATOM     52  C   UNL A   1      45.399  24.913  26.842  1.00  0.00     0.074 A 
ATOM     53  C   UNL A   1      48.345  30.498  27.462  1.00  0.00     0.029 A 
ATOM     54  N   UNL A   1      46.833  28.870  27.372  1.00  0.00    -0.354 N 
ATOM     55  N   UNL A   1      45.921  26.107  26.994  1.00  0.00    -0.248 NA
ATOM     56  C   UNL A   1      46.361  23.881  26.432  1.00  0.00     0.031 C 
ATOM     57  C   UNL A   1      48.988  29.318  27.075  1.00  0.00     0.029 A 
ATOM     58  C   UNL A   1      48.050  28.298  27.043  1.00  0.00     0.049 A 
ATOM     59  H   UNL A   1      45.977  28.386  27.422  1.00  0.00     0.167 HD
ATOM     60  C   UNL A   1      47.277  25.964  26.723  1.00  0.00     0.074 A 
ATOM     61  C   UNL A   1      47.496  24.566  26.410  1.00  0.00     0.031 C 
ATOM     62  C   UNL A   1      48.252  26.906  26.733  1.00  0.00     0.031 A 
BRANCH  49  63
ATOM     63  C   UNL A   1      46.265  32.590  28.131  1.00  0.00    -0.014 A 
ATOM     64  C   UNL A   1      46.211  33.467  27.034  1.00  0.00     0.010 A 
ATOM     65  C   UNL A   1      46.597  33.098  29.400  1.00  0.00     0.010 A 
ATOM     66  C   UNL A   1      46.524  34.819  27.193  1.00  0.00     0.020 A 
ATOM     67  C   UNL A   1      46.885  34.456  29.568  1.00  0.00     0.020 A 
ATOM     68  C   UNL A   1      46.863  35.304  28.460  1.00  0.00     0.054 A 
BRANCH  68  69
ATOM     69  S   UNL A   1      47.243  37.068  28.643  1.00  0.00     0.124 S 
ATOM     70  O   UNL A   1      46.125  37.690  27.938  1.00  0.00    -0.237 OA
ATOM     71  O   UNL A   1      47.250  37.248  30.092  1.00  0.00    -0.237 OA
ATOM     72  O   UNL A   1      48.544  37.211  27.994  1.00  0.00    -0.744 OA
ENDBRANCH  68  69
ENDBRANCH  49  63
BRANCH  50  73
ATOM     73  C   UNL A   1      43.567  23.065  26.794  1.00  0.00    -0.014 A 
ATOM     74  C   UNL A   1      43.979  22.395  25.630  1.00  0.00     0.010 A 
ATOM     75  C   UNL A   1      42.785  22.379  27.739  1.00  0.00     0.010 A 
ATOM     76  C   UNL A   1      43.605  21.067  25.407  1.00  0.00     0.020 A 
ATOM     77  C   UNL A   1      42.429  21.043  27.533  1.00  0.00     0.020 A 
ATOM     78  C   UNL A   1      42.834  20.397  26.362  1.00  0.00     0.054 A 
BRANCH  78  79
ATOM     79  S   UNL A   1      42.412  18.654  26.084  1.00  0.00     0.124 S 
ATOM     80  O   UNL A   1      43.320  18.291  25.001  1.00  0.00    -0.237 OA
ATOM     81  O   UNL A   1      42.701  18.048  27.382  1.00  0.00    -0.237 OA
ATOM     82  O   UNL A   1      40.996  18.699  25.730  1.00  0.00    -0.744 OA
ENDBRANCH  78  79
ENDBRANCH  50  73
BRANCH  62  83
ATOM     83  C   UNL A   1      49.654  26.454  26.425  1.00  0.00    -0.014 A 
ATOM     84  C   UNL A   1      50.195  26.589  25.135  1.00  0.00     0.010 A 
ATOM     85  C   UNL A   1      50.459  25.940  27.458  1.00  0.00     0.010 A 
ATOM     86  C   UNL A   1      51.510  26.190  24.876  1.00  0.00     0.020 A 
ATOM     87  C   UNL A   1      51.781  25.563  27.209  1.00  0.00     0.020 A 
ATOM     88  C   UNL A   1      52.294  25.679  25.915  1.00  0.00     0.054 A 
BRANCH  88  89
ATOM     89  S   UNL A   1      54.011  25.211  25.566  1.00  0.00     0.124 S 
ATOM     90  O   UNL A   1      54.730  25.859  26.660  1.00  0.00    -0.237 OA
ATOM     91  O   UNL A   1      53.965  23.752  25.622  1.00  0.00    -0.237 OA
ATOM     92  O   UNL A   1      54.259  25.770  24.238  1.00  0.00    -0.744 OA
ENDBRANCH  88  89
ENDBRANCH  62  83
ENDBRANCH  36  37
ENDBRANCH  28  31
ENDBRANCH  26  27
ENDBRANCH  25  26
ENDBRANCH   1  25
TORSDOF 19
ENDMDL
