MODEL 1
REMARK VINA RESULT:     -11.2      0.000      0.000
REMARK SMILES CC(C)N1C[C@@]2(CCCN(c3ccc(C(=O)NCCCCNC(=O)c4ccc(-c5c6nc(c(-c7ccc(S(=O)(=O)[O-])cc7)c7ccc([nH]7)c(-c7ccc(S(=O)(=O)[O-])cc7)c7nc(c(-c8ccc(S(=O)(=O)[O-])cc8)c8ccc5[nH]8)C=C7)C=C6)cc4)cn3)C2)CCC1=O
REMARK SMILES IDX 20 1 19 2 18 3 17 4 15 5 16 6 14 8 11 9 12 10 86 11 13 12
REMARK SMILES IDX 85 13 10 14 4 15 5 16 90 17 6 18 89 19 91 20 7 21 87 22
REMARK SMILES IDX 88 23 8 24 9 25 2 26 1 27 3 28 21 29 22 30 23 31 24 33 25 34
REMARK SMILES IDX 26 35 84 36 27 37 83 38 28 39 29 40 30 41 77 42 31 43 82 44
REMARK SMILES IDX 76 45 78 46 32 47 81 48 75 49 74 50 33 52 63 53 44 54 62 55
REMARK SMILES IDX 45 56 48 57 61 58 79 59 46 60 47 61 60 63 80 64 49 65 34 66
REMARK SMILES IDX 35 67 43 68 36 69 42 70 37 71 38 72 39 73 40 74 41 75 64 76
REMARK SMILES IDX 65 77 73 78 66 79 72 80 67 81 68 82 69 83 70 84 71 85 50 86
REMARK SMILES IDX 51 87 59 88 52 89 58 90 53 91 54 92 55 93 56 94 57 95
REMARK H PARENT 17 7 22 32 78 51 48 62
REMARK Flexibility Score: inf
ROOT
ATOM      1  C   UNL A   1      40.783  22.207  27.929  1.00  0.00     0.023 C 
ENDROOT
BRANCH   1   2
ATOM      2  C   UNL A   1      40.949  20.876  27.195  1.00  0.00     0.023 C 
BRANCH   2   3
ATOM      3  C   UNL A   1      42.342  20.595  26.635  1.00  0.00     0.116 C 
BRANCH   3   4
ATOM      4  N   UNL A   1      42.625  21.323  25.406  1.00  0.00    -0.352 N 
ATOM      5  C   UNL A   1      43.471  22.391  25.209  1.00  0.00     0.252 C 
ATOM      6  O   UNL A   1      43.531  22.964  24.129  1.00  0.00    -0.269 OA
ATOM      7  H   UNL A   1      42.146  21.007  24.606  1.00  0.00     0.163 HD
BRANCH   5   8
ATOM      8  C   UNL A   1      44.272  22.883  26.335  1.00  0.00     0.058 A 
ATOM      9  C   UNL A   1      45.928  24.192  28.113  1.00  0.00     0.128 A 
ATOM     10  C   UNL A   1      44.553  24.146  28.352  1.00  0.00     0.048 A 
ATOM     11  N   UNL A   1      46.467  23.458  27.111  1.00  0.00    -0.239 NA
ATOM     12  C   UNL A   1      43.711  23.505  27.442  1.00  0.00     0.019 A 
ATOM     13  C   UNL A   1      45.646  22.809  26.253  1.00  0.00     0.127 A 
BRANCH   9  14
ATOM     14  N   UNL A   1      46.763  25.080  28.768  1.00  0.00    -0.356 N 
ATOM     15  N   UNL A   1      48.509  27.486  25.463  1.00  0.00    -0.340 N 
ATOM     16  C   UNL A   1      48.128  28.027  26.764  1.00  0.00     0.128 C 
ATOM     17  C   UNL A   1      47.517  27.131  24.552  1.00  0.00     0.222 C 
ATOM     18  C   UNL A   1      47.061  27.190  27.488  1.00  0.00     0.006 C 
ATOM     19  C   UNL A   1      46.273  26.512  25.154  1.00  0.00     0.101 C 
ATOM     20  O   UNL A   1      47.662  27.164  23.332  1.00  0.00    -0.275 OA
ATOM     21  C   UNL A   1      46.610  27.943  28.773  1.00  0.00     0.012 C 
ATOM     22  C   UNL A   1      47.691  25.826  27.905  1.00  0.00     0.127 C 
ATOM     23  C   UNL A   1      45.873  27.081  26.504  1.00  0.00     0.020 C 
ATOM     24  C   UNL A   1      45.756  27.089  29.719  1.00  0.00     0.022 C 
ATOM     25  C   UNL A   1      46.421  25.744  30.016  1.00  0.00     0.118 C 
BRANCH  15  26
ATOM     26  C   UNL A   1      49.893  27.707  25.014  1.00  0.00     0.078 C 
ATOM     27  C   UNL A   1      50.614  28.796  25.817  1.00  0.00     0.031 C 
ATOM     28  C   UNL A   1      50.702  26.416  24.963  1.00  0.00     0.031 C 
ENDBRANCH  15  26
ENDBRANCH   9  14
ENDBRANCH   5   8
ENDBRANCH   3   4
ENDBRANCH   2   3
ENDBRANCH   1   2
BRANCH   1  29
ATOM     29  C   UNL A   1      39.824  23.205  27.287  1.00  0.00     0.116 C 
BRANCH  29  30
ATOM     30  N   UNL A   1      40.417  23.952  26.188  1.00  0.00    -0.352 N 
ATOM     31  C   UNL A   1      40.872  25.253  26.156  1.00  0.00     0.251 C 
ATOM     32  H   UNL A   1      40.507  23.456  25.342  1.00  0.00     0.163 HD
ATOM     33  O   UNL A   1      41.249  25.740  25.097  1.00  0.00    -0.269 OA
BRANCH  31  34
ATOM     34  C   UNL A   1      40.868  26.072  27.391  1.00  0.00     0.039 A 
ATOM     35  C   UNL A   1      41.926  26.957  27.618  1.00  0.00     0.014 A 
ATOM     36  C   UNL A   1      39.821  25.986  28.312  1.00  0.00     0.014 A 
ATOM     37  C   UNL A   1      41.891  27.816  28.720  1.00  0.00     0.010 A 
ATOM     38  C   UNL A   1      39.752  26.892  29.369  1.00  0.00     0.010 A 
ATOM     39  C   UNL A   1      40.781  27.823  29.580  1.00  0.00    -0.014 A 
BRANCH  39  40
ATOM     40  C   UNL A   1      40.663  28.812  30.686  1.00  0.00     0.031 A 
ATOM     41  C   UNL A   1      41.537  28.698  31.906  1.00  0.00     0.074 A 
ATOM     42  C   UNL A   1      39.715  29.768  30.628  1.00  0.00     0.049 A 
ATOM     43  N   UNL A   1      41.526  29.418  32.999  1.00  0.00    -0.248 NA
ATOM     44  C   UNL A   1      42.537  27.618  31.909  1.00  0.00     0.031 C 
ATOM     45  C   UNL A   1      38.773  29.964  29.521  1.00  0.00     0.029 A 
ATOM     46  N   UNL A   1      39.378  30.753  31.524  1.00  0.00    -0.354 N 
ATOM     47  C   UNL A   1      42.500  28.870  33.824  1.00  0.00     0.074 A 
ATOM     48  C   UNL A   1      43.050  27.727  33.126  1.00  0.00     0.031 C 
ATOM     49  C   UNL A   1      37.985  31.016  29.794  1.00  0.00     0.029 A 
ATOM     50  C   UNL A   1      38.333  31.546  31.109  1.00  0.00     0.049 A 
ATOM     51  H   UNL A   1      39.840  30.879  32.385  1.00  0.00     0.167 HD
ATOM     52  C   UNL A   1      42.913  29.286  35.046  1.00  0.00     0.031 A 
ATOM     53  C   UNL A   1      37.718  32.579  31.717  1.00  0.00     0.031 A 
ATOM     54  C   UNL A   1      42.374  30.428  35.737  1.00  0.00     0.049 A 
ATOM     55  C   UNL A   1      38.188  33.018  33.077  1.00  0.00     0.074 A 
ATOM     56  C   UNL A   1      42.765  30.961  36.952  1.00  0.00     0.029 A 
ATOM     57  N   UNL A   1      41.327  31.211  35.275  1.00  0.00    -0.354 N 
ATOM     58  N   UNL A   1      39.154  32.524  33.814  1.00  0.00    -0.248 NA
ATOM     59  C   UNL A   1      37.492  34.163  33.682  1.00  0.00     0.031 C 
ATOM     60  C   UNL A   1      41.923  32.039  37.249  1.00  0.00     0.029 A 
ATOM     61  C   UNL A   1      41.044  32.210  36.192  1.00  0.00     0.049 A 
ATOM     62  H   UNL A   1      40.853  31.077  34.423  1.00  0.00     0.167 HD
ATOM     63  C   UNL A   1      39.199  33.314  34.957  1.00  0.00     0.074 A 
ATOM     64  C   UNL A   1      38.173  34.326  34.808  1.00  0.00     0.031 C 
ATOM     65  C   UNL A   1      40.019  33.211  36.033  1.00  0.00     0.031 A 
BRANCH  52  66
ATOM     66  C   UNL A   1      44.006  28.494  35.716  1.00  0.00    -0.014 A 
ATOM     67  C   UNL A   1      43.704  27.416  36.567  1.00  0.00     0.010 A 
ATOM     68  C   UNL A   1      45.354  28.812  35.469  1.00  0.00     0.010 A 
ATOM     69  C   UNL A   1      44.726  26.701  37.197  1.00  0.00     0.020 A 
ATOM     70  C   UNL A   1      46.381  28.082  36.074  1.00  0.00     0.020 A 
ATOM     71  C   UNL A   1      46.059  27.043  36.951  1.00  0.00     0.054 A 
BRANCH  71  72
ATOM     72  S   UNL A   1      47.366  26.093  37.775  1.00  0.00     0.124 S 
ATOM     73  O   UNL A   1      48.514  26.350  36.908  1.00  0.00    -0.237 OA
ATOM     74  O   UNL A   1      47.429  26.712  39.096  1.00  0.00    -0.237 OA
ATOM     75  O   UNL A   1      46.864  24.722  37.755  1.00  0.00    -0.744 OA
ENDBRANCH  71  72
ENDBRANCH  52  66
BRANCH  53  76
ATOM     76  C   UNL A   1      36.597  33.281  31.035  1.00  0.00    -0.014 A 
ATOM     77  C   UNL A   1      35.326  33.343  31.636  1.00  0.00     0.010 A 
ATOM     78  C   UNL A   1      36.795  33.906  29.790  1.00  0.00     0.010 A 
ATOM     79  C   UNL A   1      34.272  34.002  30.998  1.00  0.00     0.020 A 
ATOM     80  C   UNL A   1      35.750  34.590  29.162  1.00  0.00     0.020 A 
ATOM     81  C   UNL A   1      34.491  34.623  29.765  1.00  0.00     0.054 A 
BRANCH  81  82
ATOM     82  S   UNL A   1      33.122  35.521  28.982  1.00  0.00     0.124 S 
ATOM     83  O   UNL A   1      32.494  34.476  28.181  1.00  0.00    -0.237 OA
ATOM     84  O   UNL A   1      32.350  35.986  30.132  1.00  0.00    -0.237 OA
ATOM     85  O   UNL A   1      33.794  36.575  28.225  1.00  0.00    -0.744 OA
ENDBRANCH  81  82
ENDBRANCH  53  76
BRANCH  65  86
ATOM     86  C   UNL A   1      39.866  34.239  37.122  1.00  0.00    -0.014 A 
ATOM     87  C   UNL A   1      40.422  35.523  36.997  1.00  0.00     0.010 A 
ATOM     88  C   UNL A   1      39.106  33.930  38.265  1.00  0.00     0.010 A 
ATOM     89  C   UNL A   1      40.246  36.471  38.009  1.00  0.00     0.020 A 
ATOM     90  C   UNL A   1      38.905  34.882  39.266  1.00  0.00     0.020 A 
ATOM     91  C   UNL A   1      39.489  36.144  39.138  1.00  0.00     0.054 A 
BRANCH  91  92
ATOM     92  S   UNL A   1      39.236  37.405  40.417  1.00  0.00     0.124 S 
ATOM     93  O   UNL A   1      40.582  37.944  40.583  1.00  0.00    -0.237 OA
ATOM     94  O   UNL A   1      38.271  38.307  39.792  1.00  0.00    -0.237 OA
ATOM     95  O   UNL A   1      38.723  36.647  41.555  1.00  0.00    -0.744 OA
ENDBRANCH  91  92
ENDBRANCH  65  86
ENDBRANCH  39  40
ENDBRANCH  31  34
ENDBRANCH  29  30
ENDBRANCH   1  29
TORSDOF 16
ENDMDL
MODEL 2
REMARK VINA RESULT:     -11.1      3.936     10.680
REMARK SMILES CC(C)N1C[C@@]2(CCCN(c3ccc(C(=O)NCCCCNC(=O)c4ccc(-c5c6nc(c(-c7ccc(S(=O)(=O)[O-])cc7)c7ccc([nH]7)c(-c7ccc(S(=O)(=O)[O-])cc7)c7nc(c(-c8ccc(S(=O)(=O)[O-])cc8)c8ccc5[nH]8)C=C7)C=C6)cc4)cn3)C2)CCC1=O
REMARK SMILES IDX 20 1 19 2 18 3 17 4 15 5 16 6 14 8 11 9 12 10 86 11 13 12
REMARK SMILES IDX 85 13 10 14 4 15 5 16 90 17 6 18 89 19 91 20 7 21 87 22
REMARK SMILES IDX 88 23 8 24 9 25 2 26 1 27 3 28 21 29 22 30 23 31 24 33 25 34
REMARK SMILES IDX 26 35 84 36 27 37 83 38 28 39 29 40 30 41 77 42 31 43 82 44
REMARK SMILES IDX 76 45 78 46 32 47 81 48 75 49 74 50 33 52 63 53 44 54 62 55
REMARK SMILES IDX 45 56 48 57 61 58 79 59 46 60 47 61 60 63 80 64 49 65 34 66
REMARK SMILES IDX 35 67 43 68 36 69 42 70 37 71 38 72 39 73 40 74 41 75 64 76
REMARK SMILES IDX 65 77 73 78 66 79 72 80 67 81 68 82 69 83 70 84 71 85 50 86
REMARK SMILES IDX 51 87 59 88 52 89 58 90 53 91 54 92 55 93 56 94 57 95
REMARK H PARENT 17 7 22 32 78 51 48 62
REMARK Flexibility Score: inf
ROOT
ATOM      1  C   UNL A   1      41.428  22.630  27.974  1.00  0.00     0.023 C 
ENDROOT
BRANCH   1   2
ATOM      2  C   UNL A   1      40.403  21.778  27.226  1.00  0.00     0.023 C 
BRANCH   2   3
ATOM      3  C   UNL A   1      39.189  22.526  26.678  1.00  0.00     0.116 C 
BRANCH   3   4
ATOM      4  N   UNL A   1      38.820  22.116  25.331  1.00  0.00    -0.352 N 
ATOM      5  C   UNL A   1      37.571  22.073  24.753  1.00  0.00     0.252 C 
ATOM      6  O   UNL A   1      37.404  21.608  23.633  1.00  0.00    -0.269 OA
ATOM      7  H   UNL A   1      39.565  21.830  24.755  1.00  0.00     0.163 HD
BRANCH   5   8
ATOM      8  C   UNL A   1      36.412  22.543  25.521  1.00  0.00     0.058 A 
ATOM      9  C   UNL A   1      34.033  23.553  26.487  1.00  0.00     0.128 A 
ATOM     10  C   UNL A   1      34.322  22.195  26.640  1.00  0.00     0.048 A 
ATOM     11  N   UNL A   1      34.982  24.400  26.023  1.00  0.00    -0.239 NA
ATOM     12  C   UNL A   1      35.514  21.677  26.131  1.00  0.00     0.019 A 
ATOM     13  C   UNL A   1      36.151  23.895  25.565  1.00  0.00     0.127 A 
BRANCH   9  14
ATOM     14  N   UNL A   1      32.756  24.060  26.651  1.00  0.00    -0.356 N 
ATOM     15  N   UNL A   1      32.168  26.570  23.030  1.00  0.00    -0.340 N 
ATOM     16  C   UNL A   1      31.126  25.751  23.643  1.00  0.00     0.128 C 
ATOM     17  C   UNL A   1      33.194  25.953  22.320  1.00  0.00     0.222 C 
ATOM     18  C   UNL A   1      31.677  24.580  24.474  1.00  0.00     0.006 C 
ATOM     19  C   UNL A   1      33.680  24.636  22.888  1.00  0.00     0.101 C 
ATOM     20  O   UNL A   1      33.789  26.477  21.380  1.00  0.00    -0.275 OA
ATOM     21  C   UNL A   1      30.492  23.682  24.934  1.00  0.00     0.012 C 
ATOM     22  C   UNL A   1      32.390  25.152  25.738  1.00  0.00     0.127 C 
ATOM     23  C   UNL A   1      32.594  23.782  23.519  1.00  0.00     0.020 C 
ATOM     24  C   UNL A   1      30.883  22.643  25.993  1.00  0.00     0.022 C 
ATOM     25  C   UNL A   1      31.635  23.285  27.160  1.00  0.00     0.118 C 
BRANCH  15  26
ATOM     26  C   UNL A   1      31.884  28.002  22.845  1.00  0.00     0.078 C 
ATOM     27  C   UNL A   1      30.422  28.279  22.477  1.00  0.00     0.031 C 
ATOM     28  C   UNL A   1      32.334  28.844  24.035  1.00  0.00     0.031 C 
ENDBRANCH  15  26
ENDBRANCH   9  14
ENDBRANCH   5   8
ENDBRANCH   3   4
ENDBRANCH   2   3
ENDBRANCH   1   2
BRANCH   1  29
ATOM     29  C   UNL A   1      42.613  23.122  27.150  1.00  0.00     0.116 C 
BRANCH  29  30
ATOM     30  N   UNL A   1      42.232  23.999  26.053  1.00  0.00    -0.352 N 
ATOM     31  C   UNL A   1      41.736  25.286  26.089  1.00  0.00     0.251 C 
ATOM     32  H   UNL A   1      42.344  23.619  25.152  1.00  0.00     0.163 HD
ATOM     33  O   UNL A   1      41.374  25.827  25.053  1.00  0.00    -0.269 OA
BRANCH  31  34
ATOM     34  C   UNL A   1      41.604  25.994  27.384  1.00  0.00     0.039 A 
ATOM     35  C   UNL A   1      42.615  26.877  27.776  1.00  0.00     0.014 A 
ATOM     36  C   UNL A   1      40.486  25.808  28.201  1.00  0.00     0.014 A 
ATOM     37  C   UNL A   1      42.463  27.636  28.941  1.00  0.00     0.010 A 
ATOM     38  C   UNL A   1      40.302  26.618  29.320  1.00  0.00     0.010 A 
ATOM     39  C   UNL A   1      41.284  27.547  29.698  1.00  0.00    -0.014 A 
BRANCH  39  40
ATOM     40  C   UNL A   1      41.046  28.433  30.869  1.00  0.00     0.031 A 
ATOM     41  C   UNL A   1      39.962  29.476  30.827  1.00  0.00     0.074 A 
ATOM     42  C   UNL A   1      41.857  28.352  31.943  1.00  0.00     0.049 A 
ATOM     43  N   UNL A   1      39.656  30.385  31.719  1.00  0.00    -0.248 NA
ATOM     44  C   UNL A   1      39.128  29.520  29.616  1.00  0.00     0.031 C 
ATOM     45  C   UNL A   1      42.973  27.413  32.095  1.00  0.00     0.029 A 
ATOM     46  N   UNL A   1      41.874  29.076  33.111  1.00  0.00    -0.354 N 
ATOM     47  C   UNL A   1      38.611  31.118  31.170  1.00  0.00     0.074 A 
ATOM     48  C   UNL A   1      38.366  30.579  29.849  1.00  0.00     0.031 C 
ATOM     49  C   UNL A   1      43.548  27.603  33.294  1.00  0.00     0.029 A 
ATOM     50  C   UNL A   1      42.873  28.701  33.979  1.00  0.00     0.049 A 
ATOM     51  H   UNL A   1      41.233  29.797  33.307  1.00  0.00     0.167 HD
ATOM     52  C   UNL A   1      37.906  32.137  31.720  1.00  0.00     0.031 A 
ATOM     53  C   UNL A   1      43.214  29.186  35.189  1.00  0.00     0.031 A 
ATOM     54  C   UNL A   1      38.142  32.667  33.037  1.00  0.00     0.049 A 
ATOM     55  C   UNL A   1      42.422  30.323  35.775  1.00  0.00     0.074 A 
ATOM     56  C   UNL A   1      37.446  33.660  33.702  1.00  0.00     0.029 A 
ATOM     57  N   UNL A   1      39.154  32.250  33.888  1.00  0.00    -0.354 N 
ATOM     58  N   UNL A   1      41.396  30.962  35.265  1.00  0.00    -0.248 NA
ATOM     59  C   UNL A   1      42.828  30.797  37.107  1.00  0.00     0.031 C 
ATOM     60  C   UNL A   1      38.065  33.877  34.938  1.00  0.00     0.029 A 
ATOM     61  C   UNL A   1      39.114  32.981  35.064  1.00  0.00     0.049 A 
ATOM     62  H   UNL A   1      39.806  31.540  33.687  1.00  0.00     0.167 HD
ATOM     63  C   UNL A   1      41.018  31.895  36.224  1.00  0.00     0.074 A 
ATOM     64  C   UNL A   1      41.915  31.729  37.349  1.00  0.00     0.031 C 
ATOM     65  C   UNL A   1      40.014  32.806  36.176  1.00  0.00     0.031 A 
BRANCH  52  66
ATOM     66  C   UNL A   1      36.809  32.749  30.888  1.00  0.00    -0.014 A 
ATOM     67  C   UNL A   1      35.478  32.310  31.006  1.00  0.00     0.010 A 
ATOM     68  C   UNL A   1      37.105  33.796  29.997  1.00  0.00     0.010 A 
ATOM     69  C   UNL A   1      34.472  32.873  30.216  1.00  0.00     0.020 A 
ATOM     70  C   UNL A   1      36.098  34.383  29.225  1.00  0.00     0.020 A 
ATOM     71  C   UNL A   1      34.791  33.902  29.325  1.00  0.00     0.054 A 
BRANCH  71  72
ATOM     72  S   UNL A   1      33.465  34.621  28.317  1.00  0.00     0.124 S 
ATOM     73  O   UNL A   1      32.949  33.446  27.619  1.00  0.00    -0.237 OA
ATOM     74  O   UNL A   1      32.573  35.195  29.322  1.00  0.00    -0.237 OA
ATOM     75  O   UNL A   1      34.157  35.593  27.475  1.00  0.00    -0.744 OA
ENDBRANCH  71  72
ENDBRANCH  52  66
BRANCH  53  76
ATOM     76  C   UNL A   1      44.352  28.586  35.937  1.00  0.00    -0.014 A 
ATOM     77  C   UNL A   1      44.137  27.507  36.812  1.00  0.00     0.010 A 
ATOM     78  C   UNL A   1      45.660  29.078  35.766  1.00  0.00     0.010 A 
ATOM     79  C   UNL A   1      45.205  26.941  37.516  1.00  0.00     0.020 A 
ATOM     80  C   UNL A   1      46.734  28.498  36.447  1.00  0.00     0.020 A 
ATOM     81  C   UNL A   1      46.497  27.440  37.327  1.00  0.00     0.054 A 
BRANCH  81  82
ATOM     82  S   UNL A   1      47.875  26.653  38.208  1.00  0.00     0.124 S 
ATOM     83  O   UNL A   1      48.808  26.372  37.121  1.00  0.00    -0.237 OA
ATOM     84  O   UNL A   1      48.289  27.696  39.143  1.00  0.00    -0.237 OA
ATOM     85  O   UNL A   1      47.260  25.481  38.826  1.00  0.00    -0.744 OA
ENDBRANCH  81  82
ENDBRANCH  53  76
BRANCH  65  86
ATOM     86  C   UNL A   1      39.808  33.675  37.389  1.00  0.00    -0.014 A 
ATOM     87  C   UNL A   1      40.401  34.945  37.486  1.00  0.00     0.010 A 
ATOM     88  C   UNL A   1      38.963  33.232  38.423  1.00  0.00     0.010 A 
ATOM     89  C   UNL A   1      40.176  35.746  38.609  1.00  0.00     0.020 A 
ATOM     90  C   UNL A   1      38.714  34.040  39.535  1.00  0.00     0.020 A 
ATOM     91  C   UNL A   1      39.334  35.288  39.627  1.00  0.00     0.054 A 
BRANCH  91  92
ATOM     92  S   UNL A   1      39.021  36.364  41.053  1.00  0.00     0.124 S 
ATOM     93  O   UNL A   1      40.329  36.402  41.699  1.00  0.00    -0.237 OA
ATOM     94  O   UNL A   1      38.592  37.612  40.426  1.00  0.00    -0.237 OA
ATOM     95  O   UNL A   1      37.978  35.659  41.796  1.00  0.00    -0.744 OA
ENDBRANCH  91  92
ENDBRANCH  65  86
ENDBRANCH  39  40
ENDBRANCH  31  34
ENDBRANCH  29  30
ENDBRANCH   1  29
TORSDOF 16
ENDMDL
MODEL 3
REMARK VINA RESULT:     -11.1      6.377     13.489
REMARK SMILES CC(C)N1C[C@@]2(CCCN(c3ccc(C(=O)NCCCCNC(=O)c4ccc(-c5c6nc(c(-c7ccc(S(=O)(=O)[O-])cc7)c7ccc([nH]7)c(-c7ccc(S(=O)(=O)[O-])cc7)c7nc(c(-c8ccc(S(=O)(=O)[O-])cc8)c8ccc5[nH]8)C=C7)C=C6)cc4)cn3)C2)CCC1=O
REMARK SMILES IDX 20 1 19 2 18 3 17 4 15 5 16 6 14 8 11 9 12 10 86 11 13 12
REMARK SMILES IDX 85 13 10 14 4 15 5 16 90 17 6 18 89 19 91 20 7 21 87 22
REMARK SMILES IDX 88 23 8 24 9 25 2 26 1 27 3 28 21 29 22 30 23 31 24 33 25 34
REMARK SMILES IDX 26 35 84 36 27 37 83 38 28 39 29 40 30 41 77 42 31 43 82 44
REMARK SMILES IDX 76 45 78 46 32 47 81 48 75 49 74 50 33 52 63 53 44 54 62 55
REMARK SMILES IDX 45 56 48 57 61 58 79 59 46 60 47 61 60 63 80 64 49 65 34 66
REMARK SMILES IDX 35 67 43 68 36 69 42 70 37 71 38 72 39 73 40 74 41 75 64 76
REMARK SMILES IDX 65 77 73 78 66 79 72 80 67 81 68 82 69 83 70 84 71 85 50 86
REMARK SMILES IDX 51 87 59 88 52 89 58 90 53 91 54 92 55 93 56 94 57 95
REMARK H PARENT 17 7 22 32 78 51 48 62
REMARK Flexibility Score: inf
ROOT
ATOM      1  C   UNL A   1      33.782  28.963  27.111  1.00  0.00     0.023 C 
ENDROOT
BRANCH   1   2
ATOM      2  C   UNL A   1      33.184  29.747  25.942  1.00  0.00     0.023 C 
BRANCH   2   3
ATOM      3  C   UNL A   1      31.732  29.422  25.599  1.00  0.00     0.116 C 
BRANCH   3   4
ATOM      4  N   UNL A   1      31.437  29.533  24.177  1.00  0.00    -0.352 N 
ATOM      5  C   UNL A   1      31.629  28.603  23.180  1.00  0.00     0.252 C 
ATOM      6  O   UNL A   1      31.422  28.878  22.005  1.00  0.00    -0.269 OA
ATOM      7  H   UNL A   1      31.047  30.390  23.890  1.00  0.00     0.163 HD
BRANCH   5   8
ATOM      8  C   UNL A   1      32.145  27.276  23.531  1.00  0.00     0.058 A 
ATOM      9  C   UNL A   1      32.742  24.601  23.856  1.00  0.00     0.128 A 
ATOM     10  C   UNL A   1      33.678  25.453  23.265  1.00  0.00     0.048 A 
ATOM     11  N   UNL A   1      31.622  25.111  24.420  1.00  0.00    -0.239 NA
ATOM     12  C   UNL A   1      33.369  26.801  23.079  1.00  0.00     0.019 A 
ATOM     13  C   UNL A   1      31.346  26.427  24.266  1.00  0.00     0.127 A 
BRANCH   9  14
ATOM     14  N   UNL A   1      32.834  23.223  23.764  1.00  0.00    -0.356 N 
ATOM     15  N   UNL A   1      36.776  22.325  25.611  1.00  0.00    -0.340 N 
ATOM     16  C   UNL A   1      35.583  21.498  25.771  1.00  0.00     0.128 C 
ATOM     17  C   UNL A   1      36.852  23.549  26.271  1.00  0.00     0.222 C 
ATOM     18  C   UNL A   1      34.270  22.267  25.553  1.00  0.00     0.006 C 
ATOM     19  C   UNL A   1      35.554  24.324  26.359  1.00  0.00     0.101 C 
ATOM     20  O   UNL A   1      37.906  24.066  26.638  1.00  0.00    -0.275 OA
ATOM     21  C   UNL A   1      33.073  21.341  25.912  1.00  0.00     0.012 C 
ATOM     22  C   UNL A   1      34.162  22.661  24.047  1.00  0.00     0.127 C 
ATOM     23  C   UNL A   1      34.315  23.462  26.533  1.00  0.00     0.020 C 
ATOM     24  C   UNL A   1      31.711  21.897  25.476  1.00  0.00     0.022 C 
ATOM     25  C   UNL A   1      31.721  22.318  24.006  1.00  0.00     0.118 C 
BRANCH  15  26
ATOM     26  C   UNL A   1      37.991  21.673  25.100  1.00  0.00     0.078 C 
ATOM     27  C   UNL A   1      39.177  21.778  26.065  1.00  0.00     0.031 C 
ATOM     28  C   UNL A   1      37.741  20.231  24.670  1.00  0.00     0.031 C 
ENDBRANCH  15  26
ENDBRANCH   9  14
ENDBRANCH   5   8
ENDBRANCH   3   4
ENDBRANCH   2   3
ENDBRANCH   1   2
BRANCH   1  29
ATOM     29  C   UNL A   1      35.196  29.361  27.524  1.00  0.00     0.116 C 
BRANCH  29  30
ATOM     30  N   UNL A   1      35.249  30.075  28.791  1.00  0.00    -0.352 N 
ATOM     31  C   UNL A   1      36.295  30.210  29.680  1.00  0.00     0.251 C 
ATOM     32  H   UNL A   1      34.416  30.530  29.052  1.00  0.00     0.163 HD
ATOM     33  O   UNL A   1      36.112  30.771  30.753  1.00  0.00    -0.269 OA
BRANCH  31  34
ATOM     34  C   UNL A   1      37.624  29.642  29.354  1.00  0.00     0.039 A 
ATOM     35  C   UNL A   1      38.082  29.710  28.035  1.00  0.00     0.014 A 
ATOM     36  C   UNL A   1      38.424  29.062  30.341  1.00  0.00     0.014 A 
ATOM     37  C   UNL A   1      39.375  29.278  27.724  1.00  0.00     0.010 A 
ATOM     38  C   UNL A   1      39.738  28.700  30.045  1.00  0.00     0.010 A 
ATOM     39  C   UNL A   1      40.230  28.812  28.735  1.00  0.00    -0.014 A 
BRANCH  39  40
ATOM     40  C   UNL A   1      41.649  28.464  28.452  1.00  0.00     0.031 A 
ATOM     41  C   UNL A   1      42.712  29.529  28.464  1.00  0.00     0.074 A 
ATOM     42  C   UNL A   1      41.970  27.201  28.106  1.00  0.00     0.049 A 
ATOM     43  N   UNL A   1      43.984  29.430  28.170  1.00  0.00    -0.248 NA
ATOM     44  C   UNL A   1      42.286  30.889  28.831  1.00  0.00     0.031 C 
ATOM     45  C   UNL A   1      41.029  26.081  28.014  1.00  0.00     0.029 A 
ATOM     46  N   UNL A   1      43.177  26.645  27.759  1.00  0.00    -0.354 N 
ATOM     47  C   UNL A   1      44.505  30.712  28.298  1.00  0.00     0.074 A 
ATOM     48  C   UNL A   1      43.402  31.581  28.650  1.00  0.00     0.031 C 
ATOM     49  C   UNL A   1      41.697  24.972  27.660  1.00  0.00     0.029 A 
ATOM     50  C   UNL A   1      43.104  25.305  27.459  1.00  0.00     0.049 A 
ATOM     51  H   UNL A   1      44.017  27.159  27.726  1.00  0.00     0.167 HD
ATOM     52  C   UNL A   1      45.786  31.128  28.152  1.00  0.00     0.031 A 
ATOM     53  C   UNL A   1      44.057  24.439  27.060  1.00  0.00     0.031 A 
ATOM     54  C   UNL A   1      46.885  30.262  27.811  1.00  0.00     0.049 A 
ATOM     55  C   UNL A   1      45.471  24.926  26.898  1.00  0.00     0.074 A 
ATOM     56  C   UNL A   1      48.226  30.580  27.695  1.00  0.00     0.029 A 
ATOM     57  N   UNL A   1      46.769  28.910  27.529  1.00  0.00    -0.354 N 
ATOM     58  N   UNL A   1      45.954  26.132  27.084  1.00  0.00    -0.248 NA
ATOM     59  C   UNL A   1      46.471  23.932  26.480  1.00  0.00     0.031 C 
ATOM     60  C   UNL A   1      48.916  29.430  27.296  1.00  0.00     0.029 A 
ATOM     61  C   UNL A   1      48.012  28.383  27.218  1.00  0.00     0.049 A 
ATOM     62  H   UNL A   1      45.928  28.398  27.546  1.00  0.00     0.167 HD
ATOM     63  C   UNL A   1      47.318  26.035  26.833  1.00  0.00     0.074 A 
ATOM     64  C   UNL A   1      47.585  24.652  26.495  1.00  0.00     0.031 C 
ATOM     65  C   UNL A   1      48.264  27.005  26.881  1.00  0.00     0.031 A 
BRANCH  52  66
ATOM     66  C   UNL A   1      46.067  32.593  28.359  1.00  0.00    -0.014 A 
ATOM     67  C   UNL A   1      45.959  33.511  27.298  1.00  0.00     0.010 A 
ATOM     68  C   UNL A   1      46.414  33.067  29.637  1.00  0.00     0.010 A 
ATOM     69  C   UNL A   1      46.241  34.864  27.499  1.00  0.00     0.020 A 
ATOM     70  C   UNL A   1      46.669  34.425  29.851  1.00  0.00     0.020 A 
ATOM     71  C   UNL A   1      46.600  35.311  28.774  1.00  0.00     0.054 A 
BRANCH  71  72
ATOM     72  S   UNL A   1      46.951  37.076  29.010  1.00  0.00     0.124 S 
ATOM     73  O   UNL A   1      45.620  37.612  29.284  1.00  0.00    -0.237 OA
ATOM     74  O   UNL A   1      47.870  37.071  30.145  1.00  0.00    -0.237 OA
ATOM     75  O   UNL A   1      47.538  37.486  27.737  1.00  0.00    -0.744 OA
ENDBRANCH  71  72
ENDBRANCH  52  66
BRANCH  53  76
ATOM     76  C   UNL A   1      43.707  23.016  26.804  1.00  0.00    -0.014 A 
ATOM     77  C   UNL A   1      42.991  22.276  27.762  1.00  0.00     0.010 A 
ATOM     78  C   UNL A   1      44.073  22.395  25.595  1.00  0.00     0.010 A 
ATOM     79  C   UNL A   1      42.662  20.939  27.524  1.00  0.00     0.020 A 
ATOM     80  C   UNL A   1      43.722  21.066  25.341  1.00  0.00     0.020 A 
ATOM     81  C   UNL A   1      43.027  20.343  26.313  1.00  0.00     0.054 A 
BRANCH  81  82
ATOM     82  S   UNL A   1      42.539  18.623  26.002  1.00  0.00     0.124 S 
ATOM     83  O   UNL A   1      41.123  18.763  25.679  1.00  0.00    -0.237 OA
ATOM     84  O   UNL A   1      43.408  18.243  24.891  1.00  0.00    -0.237 OA
ATOM     85  O   UNL A   1      42.830  17.952  27.268  1.00  0.00    -0.744 OA
ENDBRANCH  81  82
ENDBRANCH  53  76
BRANCH  65  86
ATOM     86  C   UNL A   1      49.686  26.601  26.594  1.00  0.00    -0.014 A 
ATOM     87  C   UNL A   1      50.541  26.160  27.619  1.00  0.00     0.010 A 
ATOM     88  C   UNL A   1      50.155  26.613  25.268  1.00  0.00     0.010 A 
ATOM     89  C   UNL A   1      51.849  25.765  27.327  1.00  0.00     0.020 A 
ATOM     90  C   UNL A   1      51.453  26.195  24.968  1.00  0.00     0.020 A 
ATOM     91  C   UNL A   1      52.298  25.786  26.002  1.00  0.00     0.054 A 
BRANCH  91  92
ATOM     92  S   UNL A   1      53.985  25.226  25.642  1.00  0.00     0.124 S 
ATOM     93  O   UNL A   1      53.745  24.064  24.792  1.00  0.00    -0.237 OA
ATOM     94  O   UNL A   1      54.571  26.384  24.971  1.00  0.00    -0.237 OA
ATOM     95  O   UNL A   1      54.542  24.931  26.960  1.00  0.00    -0.744 OA
ENDBRANCH  91  92
ENDBRANCH  65  86
ENDBRANCH  39  40
ENDBRANCH  31  34
ENDBRANCH  29  30
ENDBRANCH   1  29
TORSDOF 16
ENDMDL
