MODEL 1
REMARK VINA RESULT:     -12.8      0.000      0.000
REMARK SMILES Cc1ccc([C@@H](CC(=O)NCCCCNC(=O)c2ccc(-c3c4nc(c(-c5ccc(S(=O)(=O)[O-])cc5)c5ccc([nH]5)c(-c5ccc(S(=O)(=O)[O-])cc5)c5nc(c(-c6ccc(S(=O)(=O)[O-])cc6)c6ccc3[nH]6)C=C5)C=C4)cc2)NC(=O)c2ccc(OC(F)F)cc2)cc1
REMARK SMILES IDX 11 1 10 2 8 3 9 4 7 6 6 7 5 8 1 9 2 10 3 11 92 12 4 13 91 14
REMARK SMILES IDX 78 15 79 16 80 18 81 19 82 20 90 21 83 22 89 23 84 24 85 25
REMARK SMILES IDX 86 26 87 27 88 28 12 29 13 30 14 31 15 32 16 33 17 35 18 36
REMARK SMILES IDX 19 37 77 38 20 39 76 40 21 41 22 42 23 43 70 44 24 45 75 46
REMARK SMILES IDX 69 47 71 48 25 49 74 50 68 51 67 52 26 54 56 55 37 56 55 57
REMARK SMILES IDX 38 58 41 59 54 60 72 61 39 62 40 63 53 65 73 66 42 67 27 68
REMARK SMILES IDX 28 69 36 70 29 71 35 72 30 73 31 74 32 75 33 76 34 77 57 78
REMARK SMILES IDX 58 79 66 80 59 81 65 82 60 83 61 84 62 85 63 86 64 87 43 88
REMARK SMILES IDX 44 89 52 90 45 91 51 92 46 93 47 94 48 95 49 96 50 97
REMARK H PARENT 10 5 78 17 15 34 71 53 41 64
REMARK Flexibility Score: inf
ROOT
ATOM      1  C   UNL A   1      35.002  23.149  24.085  1.00  0.00     0.116 C 
ENDROOT
BRANCH   1   2
ATOM      2  N   UNL A   1      33.962  22.266  23.577  1.00  0.00    -0.356 N 
ATOM      3  C   UNL A   1      32.700  22.556  23.157  1.00  0.00     0.222 C 
ATOM      4  O   UNL A   1      31.977  21.627  22.786  1.00  0.00    -0.275 OA
ATOM      5  H   UNL A   1      34.210  21.314  23.528  1.00  0.00     0.163 HD
BRANCH   3   6
ATOM      6  C   UNL A   1      32.193  23.981  23.112  1.00  0.00     0.129 C 
BRANCH   6   7
ATOM      7  C   UNL A   1      30.772  24.221  23.670  1.00  0.00     0.122 C 
BRANCH   7   8
ATOM      8  C   UNL A   1      30.289  25.633  23.347  1.00  0.00    -0.025 A 
ATOM      9  C   UNL A   1      29.472  29.868  23.140  1.00  0.00     0.044 C 
ATOM     10  C   UNL A   1      29.694  28.384  23.104  1.00  0.00    -0.051 A 
ATOM     11  C   UNL A   1      28.762  27.504  23.653  1.00  0.00     0.004 A 
ATOM     12  C   UNL A   1      30.875  27.869  22.566  1.00  0.00     0.004 A 
ATOM     13  C   UNL A   1      29.048  26.137  23.752  1.00  0.00     0.006 A 
ATOM     14  C   UNL A   1      31.169  26.510  22.687  1.00  0.00     0.006 A 
ENDBRANCH   7   8
BRANCH   7  15
ATOM     15  N   UNL A   1      30.615  23.874  25.081  1.00  0.00    -0.345 N 
ATOM     16  C   UNL A   1      31.191  24.435  26.190  1.00  0.00     0.251 C 
ATOM     17  H   UNL A   1      30.004  23.124  25.262  1.00  0.00     0.164 HD
ATOM     18  O   UNL A   1      31.181  23.839  27.264  1.00  0.00    -0.269 OA
BRANCH  16  19
ATOM     19  C   UNL A   1      31.831  25.765  26.111  1.00  0.00     0.040 A 
ATOM     20  C   UNL A   1      33.179  25.850  25.757  1.00  0.00     0.017 A 
ATOM     21  C   UNL A   1      31.136  26.918  26.483  1.00  0.00     0.017 A 
ATOM     22  C   UNL A   1      33.809  27.097  25.728  1.00  0.00     0.047 A 
ATOM     23  C   UNL A   1      31.766  28.165  26.436  1.00  0.00     0.047 A 
ATOM     24  C   UNL A   1      33.106  28.262  26.054  1.00  0.00     0.126 A 
BRANCH  24  25
ATOM     25  O   UNL A   1      33.843  29.410  25.982  1.00  0.00    -0.435 OA
BRANCH  25  26
ATOM     26  C   UNL A   1      34.111  30.111  27.190  1.00  0.00     0.542 C 
ATOM     27  F   UNL A   1      32.979  30.695  27.651  1.00  0.00    -0.167 F 
ATOM     28  F   UNL A   1      34.572  29.257  28.134  1.00  0.00    -0.167 F 
ENDBRANCH  25  26
ENDBRANCH  24  25
ENDBRANCH  16  19
ENDBRANCH   7  15
ENDBRANCH   6   7
ENDBRANCH   3   6
ENDBRANCH   1   2
BRANCH   1  29
ATOM     29  C   UNL A   1      35.288  22.873  25.566  1.00  0.00     0.023 C 
BRANCH  29  30
ATOM     30  C   UNL A   1      36.258  23.830  26.245  1.00  0.00     0.023 C 
BRANCH  30  31
ATOM     31  C   UNL A   1      37.691  23.657  25.772  1.00  0.00     0.116 C 
BRANCH  31  32
ATOM     32  N   UNL A   1      38.642  23.187  26.767  1.00  0.00    -0.352 N 
ATOM     33  C   UNL A   1      39.621  23.936  27.402  1.00  0.00     0.251 C 
ATOM     34  H   UNL A   1      38.584  22.236  27.018  1.00  0.00     0.163 HD
ATOM     35  O   UNL A   1      40.625  23.406  27.880  1.00  0.00    -0.269 OA
BRANCH  33  36
ATOM     36  C   UNL A   1      39.347  25.374  27.627  1.00  0.00     0.039 A 
ATOM     37  C   UNL A   1      39.896  26.297  26.726  1.00  0.00     0.014 A 
ATOM     38  C   UNL A   1      38.844  25.802  28.847  1.00  0.00     0.014 A 
ATOM     39  C   UNL A   1      40.121  27.613  27.134  1.00  0.00     0.010 A 
ATOM     40  C   UNL A   1      39.208  27.047  29.302  1.00  0.00     0.010 A 
ATOM     41  C   UNL A   1      39.859  27.955  28.456  1.00  0.00    -0.014 A 
BRANCH  41  42
ATOM     42  C   UNL A   1      40.182  29.221  29.102  1.00  0.00     0.031 A 
ATOM     43  C   UNL A   1      39.162  30.300  29.099  1.00  0.00     0.074 A 
ATOM     44  C   UNL A   1      41.281  29.342  29.877  1.00  0.00     0.049 A 
ATOM     45  N   UNL A   1      39.357  31.501  29.525  1.00  0.00    -0.248 NA
ATOM     46  C   UNL A   1      37.810  30.094  28.585  1.00  0.00     0.031 C 
ATOM     47  C   UNL A   1      41.514  30.325  30.936  1.00  0.00     0.029 A 
ATOM     48  N   UNL A   1      42.492  28.686  29.813  1.00  0.00    -0.354 N 
ATOM     49  C   UNL A   1      38.128  32.111  29.634  1.00  0.00     0.074 A 
ATOM     50  C   UNL A   1      37.204  31.214  28.983  1.00  0.00     0.031 C 
ATOM     51  C   UNL A   1      42.831  30.379  31.197  1.00  0.00     0.029 A 
ATOM     52  C   UNL A   1      43.500  29.581  30.186  1.00  0.00     0.049 A 
ATOM     53  H   UNL A   1      42.625  27.747  29.548  1.00  0.00     0.167 HD
ATOM     54  C   UNL A   1      38.016  33.255  30.364  1.00  0.00     0.031 A 
ATOM     55  C   UNL A   1      44.390  30.091  29.275  1.00  0.00     0.031 A 
ATOM     56  C   UNL A   1      39.323  33.764  30.786  1.00  0.00     0.049 A 
ATOM     57  C   UNL A   1      44.264  31.597  29.043  1.00  0.00     0.074 A 
ATOM     58  C   UNL A   1      40.025  33.813  31.978  1.00  0.00     0.029 A 
ATOM     59  N   UNL A   1      40.238  34.087  29.796  1.00  0.00    -0.354 N 
ATOM     60  N   UNL A   1      43.422  32.386  29.656  1.00  0.00    -0.248 NA
ATOM     61  C   UNL A   1      45.030  32.310  28.015  1.00  0.00     0.031 C 
ATOM     62  C   UNL A   1      41.383  34.145  31.681  1.00  0.00     0.029 A 
ATOM     63  C   UNL A   1      41.497  34.316  30.313  1.00  0.00     0.049 A 
ATOM     64  H   UNL A   1      40.016  34.146  28.839  1.00  0.00     0.167 HD
ATOM     65  C   UNL A   1      43.445  33.624  29.072  1.00  0.00     0.074 A 
ATOM     66  C   UNL A   1      44.493  33.539  28.071  1.00  0.00     0.031 C 
ATOM     67  C   UNL A   1      42.571  34.624  29.385  1.00  0.00     0.031 A 
BRANCH  54  68
ATOM     68  C   UNL A   1      36.698  33.818  30.849  1.00  0.00    -0.014 A 
ATOM     69  C   UNL A   1      35.628  33.969  29.943  1.00  0.00     0.010 A 
ATOM     70  C   UNL A   1      36.455  34.261  32.164  1.00  0.00     0.010 A 
ATOM     71  C   UNL A   1      34.428  34.602  30.306  1.00  0.00     0.020 A 
ATOM     72  C   UNL A   1      35.280  34.928  32.533  1.00  0.00     0.020 A 
ATOM     73  C   UNL A   1      34.271  35.103  31.597  1.00  0.00     0.054 A 
BRANCH  73  74
ATOM     74  S   UNL A   1      32.748  35.977  32.037  1.00  0.00     0.124 S 
ATOM     75  O   UNL A   1      33.211  36.926  33.046  1.00  0.00    -0.237 OA
ATOM     76  O   UNL A   1      32.340  36.556  30.762  1.00  0.00    -0.237 OA
ATOM     77  O   UNL A   1      31.876  34.917  32.546  1.00  0.00    -0.744 OA
ENDBRANCH  73  74
ENDBRANCH  54  68
BRANCH  55  78
ATOM     78  C   UNL A   1      44.767  29.103  28.219  1.00  0.00    -0.014 A 
ATOM     79  C   UNL A   1      45.768  28.161  28.544  1.00  0.00     0.010 A 
ATOM     80  C   UNL A   1      43.886  28.822  27.161  1.00  0.00     0.010 A 
ATOM     81  C   UNL A   1      45.746  26.886  27.980  1.00  0.00     0.020 A 
ATOM     82  C   UNL A   1      43.883  27.551  26.571  1.00  0.00     0.020 A 
ATOM     83  C   UNL A   1      44.756  26.571  27.049  1.00  0.00     0.054 A 
BRANCH  83  84
ATOM     84  S   UNL A   1      44.484  24.818  26.654  1.00  0.00     0.124 S 
ATOM     85  O   UNL A   1      45.846  24.304  26.542  1.00  0.00    -0.237 OA
ATOM     86  O   UNL A   1      43.740  24.368  27.829  1.00  0.00    -0.237 OA
ATOM     87  O   UNL A   1      43.722  24.865  25.411  1.00  0.00    -0.744 OA
ENDBRANCH  83  84
ENDBRANCH  55  78
BRANCH  67  88
ATOM     88  C   UNL A   1      42.639  35.987  28.755  1.00  0.00    -0.014 A 
ATOM     89  C   UNL A   1      41.818  36.339  27.671  1.00  0.00     0.010 A 
ATOM     90  C   UNL A   1      43.622  36.919  29.158  1.00  0.00     0.010 A 
ATOM     91  C   UNL A   1      41.929  37.594  27.058  1.00  0.00     0.020 A 
ATOM     92  C   UNL A   1      43.754  38.164  28.540  1.00  0.00     0.020 A 
ATOM     93  C   UNL A   1      42.890  38.504  27.505  1.00  0.00     0.054 A 
BRANCH  93  94
ATOM     94  S   UNL A   1      43.041  40.111  26.685  1.00  0.00     0.124 S 
ATOM     95  O   UNL A   1      41.793  40.205  25.929  1.00  0.00    -0.237 OA
ATOM     96  O   UNL A   1      43.153  41.019  27.824  1.00  0.00    -0.237 OA
ATOM     97  O   UNL A   1      44.245  39.975  25.872  1.00  0.00    -0.744 OA
ENDBRANCH  93  94
ENDBRANCH  67  88
ENDBRANCH  41  42
ENDBRANCH  33  36
ENDBRANCH  31  32
ENDBRANCH  30  31
ENDBRANCH  29  30
ENDBRANCH   1  29
TORSDOF 20
ENDMDL
MODEL 2
REMARK VINA RESULT:     -12.6      1.835      2.948
REMARK SMILES Cc1ccc([C@@H](CC(=O)NCCCCNC(=O)c2ccc(-c3c4nc(c(-c5ccc(S(=O)(=O)[O-])cc5)c5ccc([nH]5)c(-c5ccc(S(=O)(=O)[O-])cc5)c5nc(c(-c6ccc(S(=O)(=O)[O-])cc6)c6ccc3[nH]6)C=C5)C=C4)cc2)NC(=O)c2ccc(OC(F)F)cc2)cc1
REMARK SMILES IDX 11 1 10 2 8 3 9 4 7 6 6 7 5 8 1 9 2 10 3 11 92 12 4 13 91 14
REMARK SMILES IDX 78 15 79 16 80 18 81 19 82 20 90 21 83 22 89 23 84 24 85 25
REMARK SMILES IDX 86 26 87 27 88 28 12 29 13 30 14 31 15 32 16 33 17 35 18 36
REMARK SMILES IDX 19 37 77 38 20 39 76 40 21 41 22 42 23 43 70 44 24 45 75 46
REMARK SMILES IDX 69 47 71 48 25 49 74 50 68 51 67 52 26 54 56 55 37 56 55 57
REMARK SMILES IDX 38 58 41 59 54 60 72 61 39 62 40 63 53 65 73 66 42 67 27 68
REMARK SMILES IDX 28 69 36 70 29 71 35 72 30 73 31 74 32 75 33 76 34 77 57 78
REMARK SMILES IDX 58 79 66 80 59 81 65 82 60 83 61 84 62 85 63 86 64 87 43 88
REMARK SMILES IDX 44 89 52 90 45 91 51 92 46 93 47 94 48 95 49 96 50 97
REMARK H PARENT 10 5 78 17 15 34 71 53 41 64
REMARK Flexibility Score: inf
ROOT
ATOM      1  C   UNL A   1      34.056  22.375  25.824  1.00  0.00     0.116 C 
ENDROOT
BRANCH   1   2
ATOM      2  N   UNL A   1      32.929  22.736  26.672  1.00  0.00    -0.356 N 
ATOM      3  C   UNL A   1      32.057  23.776  26.567  1.00  0.00     0.222 C 
ATOM      4  O   UNL A   1      31.182  23.897  27.430  1.00  0.00    -0.275 OA
ATOM      5  H   UNL A   1      32.774  22.136  27.437  1.00  0.00     0.163 HD
BRANCH   3   6
ATOM      6  C   UNL A   1      32.126  24.748  25.409  1.00  0.00     0.129 C 
BRANCH   6   7
ATOM      7  C   UNL A   1      33.412  25.600  25.307  1.00  0.00     0.122 C 
BRANCH   7   8
ATOM      8  C   UNL A   1      33.229  26.950  25.996  1.00  0.00    -0.025 A 
ATOM      9  C   UNL A   1      32.277  30.999  27.159  1.00  0.00     0.044 C 
ATOM     10  C   UNL A   1      32.645  29.572  26.872  1.00  0.00    -0.051 A 
ATOM     11  C   UNL A   1      33.939  29.227  26.484  1.00  0.00     0.004 A 
ATOM     12  C   UNL A   1      31.670  28.574  26.938  1.00  0.00     0.004 A 
ATOM     13  C   UNL A   1      34.233  27.922  26.071  1.00  0.00     0.006 A 
ATOM     14  C   UNL A   1      31.959  27.279  26.504  1.00  0.00     0.006 A 
ENDBRANCH   7   8
BRANCH   7  15
ATOM     15  N   UNL A   1      33.945  25.720  23.951  1.00  0.00    -0.345 N 
ATOM     16  C   UNL A   1      33.358  26.226  22.821  1.00  0.00     0.251 C 
ATOM     17  H   UNL A   1      34.863  25.386  23.832  1.00  0.00     0.164 HD
ATOM     18  O   UNL A   1      33.832  25.982  21.714  1.00  0.00    -0.269 OA
BRANCH  16  19
ATOM     19  C   UNL A   1      32.152  27.073  22.917  1.00  0.00     0.040 A 
ATOM     20  C   UNL A   1      32.300  28.457  23.022  1.00  0.00     0.017 A 
ATOM     21  C   UNL A   1      30.880  26.501  23.007  1.00  0.00     0.017 A 
ATOM     22  C   UNL A   1      31.169  29.265  23.164  1.00  0.00     0.047 A 
ATOM     23  C   UNL A   1      29.750  27.315  23.133  1.00  0.00     0.047 A 
ATOM     24  C   UNL A   1      29.888  28.703  23.208  1.00  0.00     0.126 A 
BRANCH  24  25
ATOM     25  O   UNL A   1      28.874  29.608  23.348  1.00  0.00    -0.435 OA
BRANCH  25  26
ATOM     26  C   UNL A   1      28.987  30.851  22.666  1.00  0.00     0.542 C 
ATOM     27  F   UNL A   1      28.085  30.914  21.658  1.00  0.00    -0.167 F 
ATOM     28  F   UNL A   1      28.752  31.876  23.520  1.00  0.00    -0.167 F 
ENDBRANCH  25  26
ENDBRANCH  24  25
ENDBRANCH  16  19
ENDBRANCH   7  15
ENDBRANCH   6   7
ENDBRANCH   3   6
ENDBRANCH   1   2
BRANCH   1  29
ATOM     29  C   UNL A   1      35.388  22.740  26.488  1.00  0.00     0.023 C 
BRANCH  29  30
ATOM     30  C   UNL A   1      36.644  22.335  25.728  1.00  0.00     0.023 C 
BRANCH  30  31
ATOM     31  C   UNL A   1      37.793  23.311  25.917  1.00  0.00     0.116 C 
BRANCH  31  32
ATOM     32  N   UNL A   1      38.826  22.909  26.858  1.00  0.00    -0.352 N 
ATOM     33  C   UNL A   1      39.819  23.713  27.398  1.00  0.00     0.251 C 
ATOM     34  H   UNL A   1      38.820  21.966  27.143  1.00  0.00     0.163 HD
ATOM     35  O   UNL A   1      40.871  23.235  27.822  1.00  0.00    -0.269 OA
BRANCH  33  36
ATOM     36  C   UNL A   1      39.507  25.148  27.594  1.00  0.00     0.039 A 
ATOM     37  C   UNL A   1      40.075  26.071  26.705  1.00  0.00     0.014 A 
ATOM     38  C   UNL A   1      38.948  25.579  28.788  1.00  0.00     0.014 A 
ATOM     39  C   UNL A   1      40.257  27.396  27.105  1.00  0.00     0.010 A 
ATOM     40  C   UNL A   1      39.269  26.837  29.242  1.00  0.00     0.010 A 
ATOM     41  C   UNL A   1      39.935  27.748  28.411  1.00  0.00    -0.014 A 
BRANCH  41  42
ATOM     42  C   UNL A   1      40.208  29.027  29.055  1.00  0.00     0.031 A 
ATOM     43  C   UNL A   1      39.201  30.112  28.933  1.00  0.00     0.074 A 
ATOM     44  C   UNL A   1      41.231  29.161  29.924  1.00  0.00     0.049 A 
ATOM     45  N   UNL A   1      39.365  31.321  29.346  1.00  0.00    -0.248 NA
ATOM     46  C   UNL A   1      37.899  29.901  28.302  1.00  0.00     0.031 C 
ATOM     47  C   UNL A   1      41.374  30.168  30.976  1.00  0.00     0.029 A 
ATOM     48  N   UNL A   1      42.439  28.497  29.987  1.00  0.00    -0.354 N 
ATOM     49  C   UNL A   1      38.136  31.940  29.328  1.00  0.00     0.074 A 
ATOM     50  C   UNL A   1      37.268  31.033  28.616  1.00  0.00     0.031 C 
ATOM     51  C   UNL A   1      42.662  30.221  31.356  1.00  0.00     0.029 A 
ATOM     52  C   UNL A   1      43.415  29.395  30.430  1.00  0.00     0.049 A 
ATOM     53  H   UNL A   1      42.589  27.552  29.758  1.00  0.00     0.167 HD
ATOM     54  C   UNL A   1      37.965  33.103  30.018  1.00  0.00     0.031 A 
ATOM     55  C   UNL A   1      44.388  29.879  29.593  1.00  0.00     0.031 A 
ATOM     56  C   UNL A   1      39.232  33.614  30.546  1.00  0.00     0.049 A 
ATOM     57  C   UNL A   1      44.296  31.379  29.314  1.00  0.00     0.074 A 
ATOM     58  C   UNL A   1      39.822  33.688  31.795  1.00  0.00     0.029 A 
ATOM     59  N   UNL A   1      40.237  33.909  29.637  1.00  0.00    -0.354 N 
ATOM     60  N   UNL A   1      43.407  32.187  29.829  1.00  0.00    -0.248 NA
ATOM     61  C   UNL A   1      45.158  32.063  28.345  1.00  0.00     0.031 C 
ATOM     62  C   UNL A   1      41.205  34.006  31.617  1.00  0.00     0.029 A 
ATOM     63  C   UNL A   1      41.445  34.143  30.262  1.00  0.00     0.049 A 
ATOM     64  H   UNL A   1      40.104  33.946  28.662  1.00  0.00     0.167 HD
ATOM     65  C   UNL A   1      43.493  33.411  29.221  1.00  0.00     0.074 A 
ATOM     66  C   UNL A   1      44.627  33.296  28.322  1.00  0.00     0.031 C 
ATOM     67  C   UNL A   1      42.601  34.422  29.429  1.00  0.00     0.031 A 
BRANCH  54  68
ATOM     68  C   UNL A   1      36.613  33.683  30.366  1.00  0.00    -0.014 A 
ATOM     69  C   UNL A   1      35.769  34.152  29.339  1.00  0.00     0.010 A 
ATOM     70  C   UNL A   1      36.128  33.843  31.679  1.00  0.00     0.010 A 
ATOM     71  C   UNL A   1      34.561  34.816  29.611  1.00  0.00     0.020 A 
ATOM     72  C   UNL A   1      34.945  34.536  31.970  1.00  0.00     0.020 A 
ATOM     73  C   UNL A   1      34.169  35.027  30.931  1.00  0.00     0.054 A 
BRANCH  73  74
ATOM     74  S   UNL A   1      32.645  35.942  31.274  1.00  0.00     0.124 S 
ATOM     75  O   UNL A   1      33.147  37.183  31.859  1.00  0.00    -0.237 OA
ATOM     76  O   UNL A   1      32.047  36.063  29.949  1.00  0.00    -0.237 OA
ATOM     77  O   UNL A   1      31.922  35.075  32.204  1.00  0.00    -0.744 OA
ENDBRANCH  73  74
ENDBRANCH  54  68
BRANCH  55  78
ATOM     78  C   UNL A   1      44.853  28.863  28.599  1.00  0.00    -0.014 A 
ATOM     79  C   UNL A   1      44.190  28.830  27.352  1.00  0.00     0.010 A 
ATOM     80  C   UNL A   1      46.138  28.304  28.703  1.00  0.00     0.010 A 
ATOM     81  C   UNL A   1      44.878  28.453  26.198  1.00  0.00     0.020 A 
ATOM     82  C   UNL A   1      46.819  27.895  27.548  1.00  0.00     0.020 A 
ATOM     83  C   UNL A   1      46.212  28.057  26.300  1.00  0.00     0.054 A 
BRANCH  83  84
ATOM     84  S   UNL A   1      47.198  27.985  24.776  1.00  0.00     0.124 S 
ATOM     85  O   UNL A   1      46.576  29.014  23.948  1.00  0.00    -0.237 OA
ATOM     86  O   UNL A   1      48.533  28.307  25.278  1.00  0.00    -0.237 OA
ATOM     87  O   UNL A   1      47.017  26.611  24.319  1.00  0.00    -0.744 OA
ENDBRANCH  83  84
ENDBRANCH  55  78
BRANCH  67  88
ATOM     88  C   UNL A   1      42.738  35.770  28.775  1.00  0.00    -0.014 A 
ATOM     89  C   UNL A   1      43.293  36.865  29.457  1.00  0.00     0.010 A 
ATOM     90  C   UNL A   1      42.198  36.006  27.491  1.00  0.00     0.010 A 
ATOM     91  C   UNL A   1      43.366  38.128  28.856  1.00  0.00     0.020 A 
ATOM     92  C   UNL A   1      42.247  37.266  26.892  1.00  0.00     0.020 A 
ATOM     93  C   UNL A   1      42.852  38.318  27.571  1.00  0.00     0.054 A 
BRANCH  93  94
ATOM     94  S   UNL A   1      42.927  39.963  26.818  1.00  0.00     0.124 S 
ATOM     95  O   UNL A   1      41.637  40.068  26.141  1.00  0.00    -0.237 OA
ATOM     96  O   UNL A   1      43.092  40.821  27.989  1.00  0.00    -0.237 OA
ATOM     97  O   UNL A   1      44.085  39.886  25.931  1.00  0.00    -0.744 OA
ENDBRANCH  93  94
ENDBRANCH  67  88
ENDBRANCH  41  42
ENDBRANCH  33  36
ENDBRANCH  31  32
ENDBRANCH  30  31
ENDBRANCH  29  30
ENDBRANCH   1  29
TORSDOF 20
ENDMDL
MODEL 3
REMARK VINA RESULT:     -12.2      2.010      3.032
REMARK SMILES Cc1ccc([C@@H](CC(=O)NCCCCNC(=O)c2ccc(-c3c4nc(c(-c5ccc(S(=O)(=O)[O-])cc5)c5ccc([nH]5)c(-c5ccc(S(=O)(=O)[O-])cc5)c5nc(c(-c6ccc(S(=O)(=O)[O-])cc6)c6ccc3[nH]6)C=C5)C=C4)cc2)NC(=O)c2ccc(OC(F)F)cc2)cc1
REMARK SMILES IDX 11 1 10 2 8 3 9 4 7 6 6 7 5 8 1 9 2 10 3 11 92 12 4 13 91 14
REMARK SMILES IDX 78 15 79 16 80 18 81 19 82 20 90 21 83 22 89 23 84 24 85 25
REMARK SMILES IDX 86 26 87 27 88 28 12 29 13 30 14 31 15 32 16 33 17 35 18 36
REMARK SMILES IDX 19 37 77 38 20 39 76 40 21 41 22 42 23 43 70 44 24 45 75 46
REMARK SMILES IDX 69 47 71 48 25 49 74 50 68 51 67 52 26 54 56 55 37 56 55 57
REMARK SMILES IDX 38 58 41 59 54 60 72 61 39 62 40 63 53 65 73 66 42 67 27 68
REMARK SMILES IDX 28 69 36 70 29 71 35 72 30 73 31 74 32 75 33 76 34 77 57 78
REMARK SMILES IDX 58 79 66 80 59 81 65 82 60 83 61 84 62 85 63 86 64 87 43 88
REMARK SMILES IDX 44 89 52 90 45 91 51 92 46 93 47 94 48 95 49 96 50 97
REMARK H PARENT 10 5 78 17 15 34 71 53 41 64
REMARK Flexibility Score: inf
ROOT
ATOM      1  C   UNL A   1      34.037  22.065  25.659  1.00  0.00     0.116 C 
ENDROOT
BRANCH   1   2
ATOM      2  N   UNL A   1      32.865  22.270  26.497  1.00  0.00    -0.356 N 
ATOM      3  C   UNL A   1      31.925  23.253  26.457  1.00  0.00     0.222 C 
ATOM      4  O   UNL A   1      31.021  23.235  27.298  1.00  0.00    -0.275 OA
ATOM      5  H   UNL A   1      32.733  21.593  27.201  1.00  0.00     0.163 HD
BRANCH   3   6
ATOM      6  C   UNL A   1      31.957  24.330  25.395  1.00  0.00     0.129 C 
BRANCH   6   7
ATOM      7  C   UNL A   1      33.262  25.151  25.291  1.00  0.00     0.122 C 
BRANCH   7   8
ATOM      8  C   UNL A   1      33.115  26.501  25.990  1.00  0.00    -0.025 A 
ATOM      9  C   UNL A   1      32.278  30.567  27.180  1.00  0.00     0.044 C 
ATOM     10  C   UNL A   1      32.605  29.131  26.884  1.00  0.00    -0.051 A 
ATOM     11  C   UNL A   1      33.890  28.751  26.500  1.00  0.00     0.004 A 
ATOM     12  C   UNL A   1      31.600  28.163  26.936  1.00  0.00     0.004 A 
ATOM     13  C   UNL A   1      34.148  27.442  26.078  1.00  0.00     0.006 A 
ATOM     14  C   UNL A   1      31.853  26.863  26.493  1.00  0.00     0.006 A 
ENDBRANCH   7   8
BRANCH   7  15
ATOM     15  N   UNL A   1      33.790  25.268  23.933  1.00  0.00    -0.345 N 
ATOM     16  C   UNL A   1      33.265  25.907  22.841  1.00  0.00     0.251 C 
ATOM     17  H   UNL A   1      34.652  24.817  23.779  1.00  0.00     0.164 HD
ATOM     18  O   UNL A   1      33.687  25.659  21.714  1.00  0.00    -0.269 OA
BRANCH  16  19
ATOM     19  C   UNL A   1      32.188  26.905  23.002  1.00  0.00     0.040 A 
ATOM     20  C   UNL A   1      30.861  26.473  23.038  1.00  0.00     0.017 A 
ATOM     21  C   UNL A   1      32.474  28.272  23.016  1.00  0.00     0.017 A 
ATOM     22  C   UNL A   1      29.830  27.410  23.140  1.00  0.00     0.047 A 
ATOM     23  C   UNL A   1      31.439  29.206  23.134  1.00  0.00     0.047 A 
ATOM     24  C   UNL A   1      30.111  28.780  23.201  1.00  0.00     0.126 A 
BRANCH  24  25
ATOM     25  O   UNL A   1      29.010  29.582  23.301  1.00  0.00    -0.435 OA
BRANCH  25  26
ATOM     26  C   UNL A   1      27.897  29.299  22.463  1.00  0.00     0.542 C 
ATOM     27  F   UNL A   1      26.801  29.040  23.215  1.00  0.00    -0.167 F 
ATOM     28  F   UNL A   1      27.631  30.361  21.664  1.00  0.00    -0.167 F 
ENDBRANCH  25  26
ENDBRANCH  24  25
ENDBRANCH  16  19
ENDBRANCH   7  15
ENDBRANCH   6   7
ENDBRANCH   3   6
ENDBRANCH   1   2
BRANCH   1  29
ATOM     29  C   UNL A   1      35.330  22.188  26.474  1.00  0.00     0.023 C 
BRANCH  29  30
ATOM     30  C   UNL A   1      36.268  23.316  26.066  1.00  0.00     0.023 C 
BRANCH  30  31
ATOM     31  C   UNL A   1      37.508  22.824  25.339  1.00  0.00     0.116 C 
BRANCH  31  32
ATOM     32  N   UNL A   1      38.569  22.284  26.174  1.00  0.00    -0.352 N 
ATOM     33  C   UNL A   1      39.668  22.969  26.670  1.00  0.00     0.251 C 
ATOM     34  H   UNL A   1      38.500  21.331  26.414  1.00  0.00     0.163 HD
ATOM     35  O   UNL A   1      40.702  22.380  26.985  1.00  0.00    -0.269 OA
BRANCH  33  36
ATOM     36  C   UNL A   1      39.503  24.413  26.957  1.00  0.00     0.039 A 
ATOM     37  C   UNL A   1      40.320  25.318  26.265  1.00  0.00     0.014 A 
ATOM     38  C   UNL A   1      38.806  24.820  28.085  1.00  0.00     0.014 A 
ATOM     39  C   UNL A   1      40.590  26.570  26.821  1.00  0.00     0.010 A 
ATOM     40  C   UNL A   1      39.195  25.983  28.708  1.00  0.00     0.010 A 
ATOM     41  C   UNL A   1      40.097  26.858  28.088  1.00  0.00    -0.014 A 
BRANCH  41  42
ATOM     42  C   UNL A   1      40.409  28.034  28.892  1.00  0.00     0.031 A 
ATOM     43  C   UNL A   1      39.504  29.208  28.812  1.00  0.00     0.074 A 
ATOM     44  C   UNL A   1      41.358  27.986  29.850  1.00  0.00     0.049 A 
ATOM     45  N   UNL A   1      39.723  30.348  29.371  1.00  0.00    -0.248 NA
ATOM     46  C   UNL A   1      38.251  29.178  28.059  1.00  0.00     0.031 C 
ATOM     47  C   UNL A   1      41.484  28.860  31.017  1.00  0.00     0.029 A 
ATOM     48  N   UNL A   1      42.500  27.217  29.934  1.00  0.00    -0.354 N 
ATOM     49  C   UNL A   1      38.552  31.070  29.324  1.00  0.00     0.074 A 
ATOM     50  C   UNL A   1      37.684  30.322  28.447  1.00  0.00     0.031 C 
ATOM     51  C   UNL A   1      42.733  28.761  31.502  1.00  0.00     0.029 A 
ATOM     52  C   UNL A   1      43.499  27.976  30.553  1.00  0.00     0.049 A 
ATOM     53  H   UNL A   1      42.597  26.292  29.613  1.00  0.00     0.167 HD
ATOM     54  C   UNL A   1      38.411  32.163  30.124  1.00  0.00     0.031 A 
ATOM     55  C   UNL A   1      44.578  28.459  29.855  1.00  0.00     0.031 A 
ATOM     56  C   UNL A   1      39.661  32.504  30.807  1.00  0.00     0.049 A 
ATOM     57  C   UNL A   1      44.627  29.983  29.742  1.00  0.00     0.074 A 
ATOM     58  C   UNL A   1      40.141  32.395  32.100  1.00  0.00     0.029 A 
ATOM     59  N   UNL A   1      40.763  32.805  30.020  1.00  0.00    -0.354 N 
ATOM     60  N   UNL A   1      43.760  30.805  30.271  1.00  0.00    -0.248 NA
ATOM     61  C   UNL A   1      45.622  30.688  28.928  1.00  0.00     0.031 C 
ATOM     62  C   UNL A   1      41.554  32.609  32.070  1.00  0.00     0.029 A 
ATOM     63  C   UNL A   1      41.924  32.867  30.762  1.00  0.00     0.049 A 
ATOM     64  H   UNL A   1      40.720  32.957  29.049  1.00  0.00     0.167 HD
ATOM     65  C   UNL A   1      43.994  32.075  29.814  1.00  0.00     0.074 A 
ATOM     66  C   UNL A   1      45.193  31.958  29.002  1.00  0.00     0.031 C 
ATOM     67  C   UNL A   1      43.169  33.132  30.062  1.00  0.00     0.031 A 
BRANCH  54  68
ATOM     68  C   UNL A   1      37.081  32.819  30.426  1.00  0.00    -0.014 A 
ATOM     69  C   UNL A   1      36.393  33.503  29.404  1.00  0.00     0.010 A 
ATOM     70  C   UNL A   1      36.475  32.843  31.697  1.00  0.00     0.010 A 
ATOM     71  C   UNL A   1      35.222  34.237  29.657  1.00  0.00     0.020 A 
ATOM     72  C   UNL A   1      35.329  33.600  31.975  1.00  0.00     0.020 A 
ATOM     73  C   UNL A   1      34.710  34.302  30.951  1.00  0.00     0.054 A 
BRANCH  73  74
ATOM     74  S   UNL A   1      33.239  35.305  31.281  1.00  0.00     0.124 S 
ATOM     75  O   UNL A   1      33.803  36.639  31.471  1.00  0.00    -0.237 OA
ATOM     76  O   UNL A   1      32.454  35.116  30.066  1.00  0.00    -0.237 OA
ATOM     77  O   UNL A   1      32.672  34.701  32.486  1.00  0.00    -0.744 OA
ENDBRANCH  73  74
ENDBRANCH  54  68
BRANCH  55  78
ATOM     78  C   UNL A   1      45.050  27.518  28.795  1.00  0.00    -0.014 A 
ATOM     79  C   UNL A   1      45.886  26.455  29.201  1.00  0.00     0.010 A 
ATOM     80  C   UNL A   1      44.354  27.411  27.579  1.00  0.00     0.010 A 
ATOM     81  C   UNL A   1      45.852  25.234  28.526  1.00  0.00     0.020 A 
ATOM     82  C   UNL A   1      44.344  26.195  26.882  1.00  0.00     0.020 A 
ATOM     83  C   UNL A   1      45.024  25.095  27.412  1.00  0.00     0.054 A 
BRANCH  83  84
ATOM     84  S   UNL A   1      44.671  23.415  26.817  1.00  0.00     0.124 S 
ATOM     85  O   UNL A   1      43.851  22.864  27.893  1.00  0.00    -0.237 OA
ATOM     86  O   UNL A   1      43.962  23.692  25.569  1.00  0.00    -0.237 OA
ATOM     87  O   UNL A   1      45.996  22.824  26.665  1.00  0.00    -0.744 OA
ENDBRANCH  83  84
ENDBRANCH  55  78
BRANCH  67  88
ATOM     88  C   UNL A   1      43.467  34.524  29.578  1.00  0.00    -0.014 A 
ATOM     89  C   UNL A   1      43.206  34.914  28.253  1.00  0.00     0.010 A 
ATOM     90  C   UNL A   1      44.132  35.450  30.412  1.00  0.00     0.010 A 
ATOM     91  C   UNL A   1      43.538  36.197  27.800  1.00  0.00     0.020 A 
ATOM     92  C   UNL A   1      44.485  36.724  29.963  1.00  0.00     0.020 A 
ATOM     93  C   UNL A   1      44.166  37.099  28.663  1.00  0.00     0.054 A 
BRANCH  93  94
ATOM     94  S   UNL A   1      44.613  38.745  28.054  1.00  0.00     0.124 S 
ATOM     95  O   UNL A   1      46.073  38.717  28.093  1.00  0.00    -0.237 OA
ATOM     96  O   UNL A   1      44.021  38.741  26.719  1.00  0.00    -0.237 OA
ATOM     97  O   UNL A   1      43.989  39.652  29.013  1.00  0.00    -0.744 OA
ENDBRANCH  93  94
ENDBRANCH  67  88
ENDBRANCH  41  42
ENDBRANCH  33  36
ENDBRANCH  31  32
ENDBRANCH  30  31
ENDBRANCH  29  30
ENDBRANCH   1  29
TORSDOF 20
ENDMDL
