MODEL 1
REMARK VINA RESULT:     -10.6      0.000      0.000
REMARK SMILES C[C@@H](C(=O)NCCCCNC(=O)c1ccc(-c2c3nc(c(-c4ccc(S(=O)(=O)[O-])cc4)c4ccc([nH]4)c(-c4ccc(S(=O)(=O)[O-])cc4)c4nc(c(-c5ccc(S(=O)(=O)[O-])cc5)c5ccc2[nH]5)C=C4)C=C3)cc1)c1ccc(Cc2ccco2)cc1F
REMARK SMILES IDX 7 1 6 2 5 3 3 4 4 5 2 7 1 8 73 9 74 10 84 11 75 12 83 13
REMARK SMILES IDX 85 14 76 15 77 16 78 17 79 18 82 19 80 20 81 21 8 22 9 23
REMARK SMILES IDX 10 24 11 25 12 27 13 28 14 29 72 30 15 31 71 32 16 33 17 34
REMARK SMILES IDX 18 35 65 36 19 37 70 38 64 39 66 40 20 41 69 42 63 43 62 44
REMARK SMILES IDX 21 46 51 47 32 48 50 49 33 50 36 51 49 52 67 53 34 54 35 55
REMARK SMILES IDX 48 57 68 58 37 59 22 60 23 61 31 62 24 63 30 64 25 65 26 66
REMARK SMILES IDX 27 67 28 68 29 69 52 70 53 71 61 72 54 73 60 74 55 75 56 76
REMARK SMILES IDX 57 77 58 78 59 79 38 80 39 81 47 82 40 83 46 84 41 85 42 86
REMARK SMILES IDX 43 87 44 88 45 89
REMARK H PARENT 5 6 10 26 66 45 36 56
REMARK Flexibility Score: inf
ROOT
ATOM      1  C   UNL A   1      34.288  23.219  27.022  1.00  0.00     0.023 C 
ENDROOT
BRANCH   1   2
ATOM      2  C   UNL A   1      33.841  21.756  27.110  1.00  0.00     0.116 C 
BRANCH   2   3
ATOM      3  N   UNL A   1      34.541  20.938  26.138  1.00  0.00    -0.356 N 
ATOM      4  C   UNL A   1      34.051  20.242  25.070  1.00  0.00     0.227 C 
ATOM      5  O   UNL A   1      34.770  19.340  24.635  1.00  0.00    -0.274 OA
ATOM      6  H   UNL A   1      35.515  20.876  26.268  1.00  0.00     0.163 HD
BRANCH   4   7
ATOM      7  C   UNL A   1      32.662  20.582  24.499  1.00  0.00     0.108 C 
ATOM      8  C   UNL A   1      32.313  19.481  23.486  1.00  0.00     0.023 C 
BRANCH   7   9
ATOM      9  C   UNL A   1      32.513  21.979  23.881  1.00  0.00    -0.000 A 
ATOM     10  C   UNL A   1      33.306  22.435  22.818  1.00  0.00     0.008 A 
ATOM     11  C   UNL A   1      31.563  22.881  24.383  1.00  0.00     0.127 A 
ATOM     12  C   UNL A   1      33.068  23.672  22.208  1.00  0.00     0.005 A 
ATOM     13  C   UNL A   1      31.331  24.127  23.794  1.00  0.00     0.043 A 
ATOM     14  F   UNL A   1      30.835  22.568  25.465  1.00  0.00    -0.207 F 
ATOM     15  C   UNL A   1      32.065  24.526  22.674  1.00  0.00    -0.038 A 
BRANCH  15  16
ATOM     16  C   UNL A   1      31.763  25.827  21.969  1.00  0.00     0.111 C 
BRANCH  16  17
ATOM     17  C   UNL A   1      32.344  27.029  22.631  1.00  0.00     0.108 A 
ATOM     18  C   UNL A   1      31.899  28.323  22.823  1.00  0.00     0.046 A 
ATOM     19  O   UNL A   1      33.558  26.865  23.233  1.00  0.00    -0.469 OA
ATOM     20  C   UNL A   1      32.901  28.986  23.569  1.00  0.00     0.042 A 
ATOM     21  C   UNL A   1      33.886  28.056  23.797  1.00  0.00     0.195 A 
ENDBRANCH  16  17
ENDBRANCH  15  16
ENDBRANCH   7   9
ENDBRANCH   4   7
ENDBRANCH   2   3
ENDBRANCH   1   2
BRANCH   1  22
ATOM     22  C   UNL A   1      35.123  23.569  25.787  1.00  0.00     0.023 C 
BRANCH  22  23
ATOM     23  C   UNL A   1      36.539  24.044  26.083  1.00  0.00     0.116 C 
BRANCH  23  24
ATOM     24  N   UNL A   1      37.513  22.965  26.029  1.00  0.00    -0.352 N 
ATOM     25  C   UNL A   1      38.845  22.998  26.362  1.00  0.00     0.251 C 
ATOM     26  H   UNL A   1      37.172  22.097  25.710  1.00  0.00     0.163 HD
ATOM     27  O   UNL A   1      39.567  22.035  26.124  1.00  0.00    -0.269 OA
BRANCH  25  28
ATOM     28  C   UNL A   1      39.402  24.218  26.981  1.00  0.00     0.039 A 
ATOM     29  C   UNL A   1      40.135  25.109  26.192  1.00  0.00     0.014 A 
ATOM     30  C   UNL A   1      39.167  24.495  28.331  1.00  0.00     0.014 A 
ATOM     31  C   UNL A   1      40.579  26.313  26.742  1.00  0.00     0.010 A 
ATOM     32  C   UNL A   1      39.552  25.722  28.856  1.00  0.00     0.010 A 
ATOM     33  C   UNL A   1      40.263  26.641  28.070  1.00  0.00    -0.014 A 
BRANCH  33  34
ATOM     34  C   UNL A   1      40.675  27.930  28.678  1.00  0.00     0.031 A 
ATOM     35  C   UNL A   1      42.042  28.054  29.293  1.00  0.00     0.074 A 
ATOM     36  C   UNL A   1      39.794  28.944  28.774  1.00  0.00     0.049 A 
ATOM     37  N   UNL A   1      42.540  29.025  30.012  1.00  0.00    -0.248 NA
ATOM     38  C   UNL A   1      42.956  26.916  29.100  1.00  0.00     0.031 C 
ATOM     39  C   UNL A   1      38.428  28.936  28.245  1.00  0.00     0.029 A 
ATOM     40  N   UNL A   1      39.911  30.173  29.372  1.00  0.00    -0.354 N 
ATOM     41  C   UNL A   1      43.808  28.602  30.389  1.00  0.00     0.074 A 
ATOM     42  C   UNL A   1      43.988  27.272  29.849  1.00  0.00     0.031 C 
ATOM     43  C   UNL A   1      37.839  30.108  28.534  1.00  0.00     0.029 A 
ATOM     44  C   UNL A   1      38.767  30.931  29.305  1.00  0.00     0.049 A 
ATOM     45  H   UNL A   1      40.738  30.484  29.808  1.00  0.00     0.167 HD
ATOM     46  C   UNL A   1      44.743  29.264  31.112  1.00  0.00     0.031 A 
ATOM     47  C   UNL A   1      38.488  32.146  29.819  1.00  0.00     0.031 A 
ATOM     48  C   UNL A   1      44.567  30.594  31.627  1.00  0.00     0.049 A 
ATOM     49  C   UNL A   1      39.546  32.872  30.602  1.00  0.00     0.074 A 
ATOM     50  C   UNL A   1      45.472  31.374  32.326  1.00  0.00     0.029 A 
ATOM     51  N   UNL A   1      43.408  31.345  31.496  1.00  0.00    -0.354 N 
ATOM     52  N   UNL A   1      40.756  32.473  30.915  1.00  0.00    -0.248 NA
ATOM     53  C   UNL A   1      39.205  34.214  31.093  1.00  0.00     0.031 C 
ATOM     54  C   UNL A   1      44.847  32.583  32.646  1.00  0.00     0.029 A 
ATOM     55  C   UNL A   1      43.570  32.575  32.107  1.00  0.00     0.049 A 
ATOM     56  H   UNL A   1      42.590  31.045  31.036  1.00  0.00     0.167 HD
ATOM     57  C   UNL A   1      41.333  33.529  31.613  1.00  0.00     0.074 A 
ATOM     58  C   UNL A   1      40.340  34.582  31.674  1.00  0.00     0.031 C 
ATOM     59  C   UNL A   1      42.574  33.617  32.149  1.00  0.00     0.031 A 
BRANCH  46  60
ATOM     60  C   UNL A   1      46.031  28.540  31.396  1.00  0.00    -0.014 A 
ATOM     61  C   UNL A   1      47.121  28.618  30.510  1.00  0.00     0.010 A 
ATOM     62  C   UNL A   1      46.154  27.767  32.564  1.00  0.00     0.010 A 
ATOM     63  C   UNL A   1      48.287  27.888  30.755  1.00  0.00     0.020 A 
ATOM     64  C   UNL A   1      47.329  27.057  32.829  1.00  0.00     0.020 A 
ATOM     65  C   UNL A   1      48.378  27.103  31.908  1.00  0.00     0.054 A 
BRANCH  65  66
ATOM     66  S   UNL A   1      49.895  26.151  32.198  1.00  0.00     0.124 S 
ATOM     67  O   UNL A   1      50.661  26.433  30.987  1.00  0.00    -0.237 OA
ATOM     68  O   UNL A   1      50.420  26.745  33.425  1.00  0.00    -0.237 OA
ATOM     69  O   UNL A   1      49.420  24.775  32.330  1.00  0.00    -0.744 OA
ENDBRANCH  65  66
ENDBRANCH  46  60
BRANCH  47  70
ATOM     70  C   UNL A   1      37.151  32.753  29.586  1.00  0.00    -0.014 A 
ATOM     71  C   UNL A   1      36.174  32.721  30.595  1.00  0.00     0.010 A 
ATOM     72  C   UNL A   1      36.863  33.406  28.373  1.00  0.00     0.010 A 
ATOM     73  C   UNL A   1      34.930  33.328  30.397  1.00  0.00     0.020 A 
ATOM     74  C   UNL A   1      35.628  34.032  28.179  1.00  0.00     0.020 A 
ATOM     75  C   UNL A   1      34.667  33.984  29.191  1.00  0.00     0.054 A 
BRANCH  75  76
ATOM     76  S   UNL A   1      33.076  34.833  28.985  1.00  0.00     0.124 S 
ATOM     77  O   UNL A   1      32.534  34.794  30.340  1.00  0.00    -0.237 OA
ATOM     78  O   UNL A   1      33.480  36.151  28.503  1.00  0.00    -0.237 OA
ATOM     79  O   UNL A   1      32.373  34.008  28.005  1.00  0.00    -0.744 OA
ENDBRANCH  75  76
ENDBRANCH  47  70
BRANCH  59  80
ATOM     80  C   UNL A   1      42.957  34.912  32.810  1.00  0.00    -0.014 A 
ATOM     81  C   UNL A   1      42.728  35.128  34.180  1.00  0.00     0.010 A 
ATOM     82  C   UNL A   1      43.634  35.894  32.062  1.00  0.00     0.010 A 
ATOM     83  C   UNL A   1      43.154  36.314  34.787  1.00  0.00     0.020 A 
ATOM     84  C   UNL A   1      44.080  37.069  32.670  1.00  0.00     0.020 A 
ATOM     85  C   UNL A   1      43.830  37.276  34.028  1.00  0.00     0.054 A 
BRANCH  85  86
ATOM     86  S   UNL A   1      44.435  38.774  34.852  1.00  0.00     0.124 S 
ATOM     87  O   UNL A   1      45.832  38.810  34.429  1.00  0.00    -0.237 OA
ATOM     88  O   UNL A   1      43.580  39.818  34.290  1.00  0.00    -0.237 OA
ATOM     89  O   UNL A   1      44.220  38.499  36.271  1.00  0.00    -0.744 OA
ENDBRANCH  85  86
ENDBRANCH  59  80
ENDBRANCH  33  34
ENDBRANCH  25  28
ENDBRANCH  23  24
ENDBRANCH  22  23
ENDBRANCH   1  22
TORSDOF 17
ENDMDL
MODEL 2
REMARK VINA RESULT:     -10.5      4.682     11.565
REMARK SMILES C[C@@H](C(=O)NCCCCNC(=O)c1ccc(-c2c3nc(c(-c4ccc(S(=O)(=O)[O-])cc4)c4ccc([nH]4)c(-c4ccc(S(=O)(=O)[O-])cc4)c4nc(c(-c5ccc(S(=O)(=O)[O-])cc5)c5ccc2[nH]5)C=C4)C=C3)cc1)c1ccc(Cc2ccco2)cc1F
REMARK SMILES IDX 7 1 6 2 5 3 3 4 4 5 2 7 1 8 73 9 74 10 84 11 75 12 83 13
REMARK SMILES IDX 85 14 76 15 77 16 78 17 79 18 82 19 80 20 81 21 8 22 9 23
REMARK SMILES IDX 10 24 11 25 12 27 13 28 14 29 72 30 15 31 71 32 16 33 17 34
REMARK SMILES IDX 18 35 65 36 19 37 70 38 64 39 66 40 20 41 69 42 63 43 62 44
REMARK SMILES IDX 21 46 51 47 32 48 50 49 33 50 36 51 49 52 67 53 34 54 35 55
REMARK SMILES IDX 48 57 68 58 37 59 22 60 23 61 31 62 24 63 30 64 25 65 26 66
REMARK SMILES IDX 27 67 28 68 29 69 52 70 53 71 61 72 54 73 60 74 55 75 56 76
REMARK SMILES IDX 57 77 58 78 59 79 38 80 39 81 47 82 40 83 46 84 41 85 42 86
REMARK SMILES IDX 43 87 44 88 45 89
REMARK H PARENT 5 6 10 26 66 45 36 56
REMARK Flexibility Score: inf
ROOT
ATOM      1  C   UNL A   1      34.483  35.279  28.439  1.00  0.00     0.023 C 
ENDROOT
BRANCH   1   2
ATOM      2  C   UNL A   1      33.145  35.929  28.808  1.00  0.00     0.116 C 
BRANCH   2   3
ATOM      3  N   UNL A   1      33.327  36.964  29.807  1.00  0.00    -0.356 N 
ATOM      4  C   UNL A   1      33.002  36.963  31.134  1.00  0.00     0.227 C 
ATOM      5  O   UNL A   1      32.908  38.068  31.671  1.00  0.00    -0.274 OA
ATOM      6  H   UNL A   1      33.748  37.791  29.479  1.00  0.00     0.163 HD
BRANCH   4   7
ATOM      7  C   UNL A   1      32.748  35.630  31.864  1.00  0.00     0.108 C 
ATOM      8  C   UNL A   1      31.588  35.871  32.842  1.00  0.00     0.023 C 
BRANCH   7   9
ATOM      9  C   UNL A   1      33.959  35.012  32.575  1.00  0.00    -0.000 A 
ATOM     10  C   UNL A   1      35.244  35.574  32.531  1.00  0.00     0.008 A 
ATOM     11  C   UNL A   1      33.826  33.818  33.300  1.00  0.00     0.127 A 
ATOM     12  C   UNL A   1      36.299  35.044  33.282  1.00  0.00     0.005 A 
ATOM     13  C   UNL A   1      34.878  33.268  34.037  1.00  0.00     0.043 A 
ATOM     14  F   UNL A   1      32.659  33.156  33.307  1.00  0.00    -0.207 F 
ATOM     15  C   UNL A   1      36.126  33.895  34.060  1.00  0.00    -0.038 A 
BRANCH  15  16
ATOM     16  C   UNL A   1      37.246  33.367  34.925  1.00  0.00     0.111 C 
BRANCH  16  17
ATOM     17  C   UNL A   1      38.005  32.238  34.318  1.00  0.00     0.108 A 
ATOM     18  C   UNL A   1      37.636  31.039  33.741  1.00  0.00     0.046 A 
ATOM     19  O   UNL A   1      39.361  32.383  34.250  1.00  0.00    -0.469 OA
ATOM     20  C   UNL A   1      38.829  30.413  33.312  1.00  0.00     0.042 A 
ATOM     21  C   UNL A   1      39.850  31.273  33.641  1.00  0.00     0.195 A 
ENDBRANCH  16  17
ENDBRANCH  15  16
ENDBRANCH   7   9
ENDBRANCH   4   7
ENDBRANCH   2   3
ENDBRANCH   1   2
BRANCH   1  22
ATOM     22  C   UNL A   1      34.741  33.914  29.083  1.00  0.00     0.023 C 
BRANCH  22  23
ATOM     23  C   UNL A   1      35.238  32.838  28.128  1.00  0.00     0.116 C 
BRANCH  23  24
ATOM     24  N   UNL A   1      34.270  31.769  27.939  1.00  0.00    -0.352 N 
ATOM     25  C   UNL A   1      34.493  30.415  27.872  1.00  0.00     0.251 C 
ATOM     26  H   UNL A   1      33.331  32.053  27.845  1.00  0.00     0.163 HD
ATOM     27  O   UNL A   1      33.583  29.652  27.565  1.00  0.00    -0.269 OA
BRANCH  25  28
ATOM     28  C   UNL A   1      35.849  29.895  28.144  1.00  0.00     0.039 A 
ATOM     29  C   UNL A   1      36.791  29.875  27.111  1.00  0.00     0.014 A 
ATOM     30  C   UNL A   1      36.195  29.463  29.427  1.00  0.00     0.014 A 
ATOM     31  C   UNL A   1      38.103  29.481  27.382  1.00  0.00     0.010 A 
ATOM     32  C   UNL A   1      37.515  29.136  29.708  1.00  0.00     0.010 A 
ATOM     33  C   UNL A   1      38.481  29.139  28.690  1.00  0.00    -0.014 A 
BRANCH  33  34
ATOM     34  C   UNL A   1      39.874  28.760  29.030  1.00  0.00     0.031 A 
ATOM     35  C   UNL A   1      40.795  29.787  29.631  1.00  0.00     0.074 A 
ATOM     36  C   UNL A   1      40.342  27.540  28.704  1.00  0.00     0.049 A 
ATOM     37  N   UNL A   1      42.081  29.716  29.852  1.00  0.00    -0.248 NA
ATOM     38  C   UNL A   1      40.189  31.078  30.000  1.00  0.00     0.031 C 
ATOM     39  C   UNL A   1      39.558  26.466  28.089  1.00  0.00     0.029 A 
ATOM     40  N   UNL A   1      41.600  27.005  28.825  1.00  0.00    -0.354 N 
ATOM     41  C   UNL A   1      42.446  30.962  30.348  1.00  0.00     0.074 A 
ATOM     42  C   UNL A   1      41.252  31.778  30.362  1.00  0.00     0.031 C 
ATOM     43  C   UNL A   1      40.351  25.400  27.896  1.00  0.00     0.029 A 
ATOM     44  C   UNL A   1      41.706  25.727  28.332  1.00  0.00     0.049 A 
ATOM     45  H   UNL A   1      42.355  27.492  29.228  1.00  0.00     0.167 HD
ATOM     46  C   UNL A   1      43.663  31.384  30.764  1.00  0.00     0.031 A 
ATOM     47  C   UNL A   1      42.776  24.914  28.227  1.00  0.00     0.031 A 
ATOM     48  C   UNL A   1      44.842  30.562  30.769  1.00  0.00     0.049 A 
ATOM     49  C   UNL A   1      44.115  25.395  28.712  1.00  0.00     0.074 A 
ATOM     50  C   UNL A   1      46.111  30.877  31.220  1.00  0.00     0.029 A 
ATOM     51  N   UNL A   1      44.895  29.256  30.304  1.00  0.00    -0.354 N 
ATOM     52  N   UNL A   1      44.434  26.563  29.217  1.00  0.00    -0.248 NA
ATOM     53  C   UNL A   1      45.234  24.449  28.622  1.00  0.00     0.031 C 
ATOM     54  C   UNL A   1      46.940  29.774  30.996  1.00  0.00     0.029 A 
ATOM     55  C   UNL A   1      46.176  28.754  30.449  1.00  0.00     0.049 A 
ATOM     56  H   UNL A   1      44.132  28.760  29.926  1.00  0.00     0.167 HD
ATOM     57  C   UNL A   1      45.786  26.480  29.535  1.00  0.00     0.074 A 
ATOM     58  C   UNL A   1      46.221  25.149  29.166  1.00  0.00     0.031 C 
ATOM     59  C   UNL A   1      46.589  27.422  30.086  1.00  0.00     0.031 A 
BRANCH  46  60
ATOM     60  C   UNL A   1      43.772  32.811  31.231  1.00  0.00    -0.014 A 
ATOM     61  C   UNL A   1      44.154  33.840  30.350  1.00  0.00     0.010 A 
ATOM     62  C   UNL A   1      43.491  33.129  32.572  1.00  0.00     0.010 A 
ATOM     63  C   UNL A   1      44.313  35.147  30.814  1.00  0.00     0.020 A 
ATOM     64  C   UNL A   1      43.620  34.442  33.035  1.00  0.00     0.020 A 
ATOM     65  C   UNL A   1      44.056  35.438  32.158  1.00  0.00     0.054 A 
BRANCH  65  66
ATOM     66  S   UNL A   1      44.284  37.140  32.742  1.00  0.00     0.124 S 
ATOM     67  O   UNL A   1      43.189  37.278  33.698  1.00  0.00    -0.237 OA
ATOM     68  O   UNL A   1      45.624  37.105  33.323  1.00  0.00    -0.237 OA
ATOM     69  O   UNL A   1      44.156  37.942  31.527  1.00  0.00    -0.744 OA
ENDBRANCH  65  66
ENDBRANCH  46  60
BRANCH  47  70
ATOM     70  C   UNL A   1      42.609  23.552  27.654  1.00  0.00    -0.014 A 
ATOM     71  C   UNL A   1      43.263  23.202  26.459  1.00  0.00     0.010 A 
ATOM     72  C   UNL A   1      41.837  22.583  28.322  1.00  0.00     0.010 A 
ATOM     73  C   UNL A   1      43.144  21.910  25.939  1.00  0.00     0.020 A 
ATOM     74  C   UNL A   1      41.734  21.284  27.816  1.00  0.00     0.020 A 
ATOM     75  C   UNL A   1      42.384  20.957  26.624  1.00  0.00     0.054 A 
BRANCH  75  76
ATOM     76  S   UNL A   1      42.310  19.265  25.973  1.00  0.00     0.124 S 
ATOM     77  O   UNL A   1      40.877  19.086  25.758  1.00  0.00    -0.237 OA
ATOM     78  O   UNL A   1      43.125  19.354  24.764  1.00  0.00    -0.237 OA
ATOM     79  O   UNL A   1      42.889  18.460  27.046  1.00  0.00    -0.744 OA
ENDBRANCH  75  76
ENDBRANCH  47  70
BRANCH  59  80
ATOM     80  C   UNL A   1      48.015  27.039  30.375  1.00  0.00    -0.014 A 
ATOM     81  C   UNL A   1      49.064  27.443  29.532  1.00  0.00     0.010 A 
ATOM     82  C   UNL A   1      48.313  26.333  31.555  1.00  0.00     0.010 A 
ATOM     83  C   UNL A   1      50.388  27.133  29.857  1.00  0.00     0.020 A 
ATOM     84  C   UNL A   1      49.636  26.040  31.894  1.00  0.00     0.020 A 
ATOM     85  C   UNL A   1      50.666  26.435  31.037  1.00  0.00     0.054 A 
BRANCH  85  86
ATOM     86  S   UNL A   1      52.395  26.105  31.473  1.00  0.00     0.124 S 
ATOM     87  O   UNL A   1      52.283  24.868  32.240  1.00  0.00    -0.237 OA
ATOM     88  O   UNL A   1      53.038  25.980  30.167  1.00  0.00    -0.237 OA
ATOM     89  O   UNL A   1      52.788  27.283  32.243  1.00  0.00    -0.744 OA
ENDBRANCH  85  86
ENDBRANCH  59  80
ENDBRANCH  33  34
ENDBRANCH  25  28
ENDBRANCH  23  24
ENDBRANCH  22  23
ENDBRANCH   1  22
TORSDOF 17
ENDMDL
MODEL 3
REMARK VINA RESULT:     -10.4      3.560      9.153
REMARK SMILES C[C@@H](C(=O)NCCCCNC(=O)c1ccc(-c2c3nc(c(-c4ccc(S(=O)(=O)[O-])cc4)c4ccc([nH]4)c(-c4ccc(S(=O)(=O)[O-])cc4)c4nc(c(-c5ccc(S(=O)(=O)[O-])cc5)c5ccc2[nH]5)C=C4)C=C3)cc1)c1ccc(Cc2ccco2)cc1F
REMARK SMILES IDX 7 1 6 2 5 3 3 4 4 5 2 7 1 8 73 9 74 10 84 11 75 12 83 13
REMARK SMILES IDX 85 14 76 15 77 16 78 17 79 18 82 19 80 20 81 21 8 22 9 23
REMARK SMILES IDX 10 24 11 25 12 27 13 28 14 29 72 30 15 31 71 32 16 33 17 34
REMARK SMILES IDX 18 35 65 36 19 37 70 38 64 39 66 40 20 41 69 42 63 43 62 44
REMARK SMILES IDX 21 46 51 47 32 48 50 49 33 50 36 51 49 52 67 53 34 54 35 55
REMARK SMILES IDX 48 57 68 58 37 59 22 60 23 61 31 62 24 63 30 64 25 65 26 66
REMARK SMILES IDX 27 67 28 68 29 69 52 70 53 71 61 72 54 73 60 74 55 75 56 76
REMARK SMILES IDX 57 77 58 78 59 79 38 80 39 81 47 82 40 83 46 84 41 85 42 86
REMARK SMILES IDX 43 87 44 88 45 89
REMARK H PARENT 5 6 10 26 66 45 36 56
REMARK Flexibility Score: inf
ROOT
ATOM      1  C   UNL A   1      37.571  22.597  25.087  1.00  0.00     0.023 C 
ENDROOT
BRANCH   1   2
ATOM      2  C   UNL A   1      36.442  21.591  25.337  1.00  0.00     0.116 C 
BRANCH   2   3
ATOM      3  N   UNL A   1      35.309  21.855  24.472  1.00  0.00    -0.356 N 
ATOM      4  C   UNL A   1      34.076  22.359  24.779  1.00  0.00     0.227 C 
ATOM      5  O   UNL A   1      33.181  22.137  23.962  1.00  0.00    -0.274 OA
ATOM      6  H   UNL A   1      35.448  21.639  23.522  1.00  0.00     0.163 HD
BRANCH   4   7
ATOM      7  C   UNL A   1      33.863  23.125  26.098  1.00  0.00     0.108 C 
ATOM      8  C   UNL A   1      32.897  22.288  26.950  1.00  0.00     0.023 C 
BRANCH   7   9
ATOM      9  C   UNL A   1      33.378  24.574  25.963  1.00  0.00    -0.000 A 
ATOM     10  C   UNL A   1      32.212  25.052  26.579  1.00  0.00     0.008 A 
ATOM     11  C   UNL A   1      34.093  25.494  25.182  1.00  0.00     0.127 A 
ATOM     12  C   UNL A   1      31.860  26.406  26.524  1.00  0.00     0.005 A 
ATOM     13  C   UNL A   1      33.740  26.844  25.104  1.00  0.00     0.043 A 
ATOM     14  F   UNL A   1      35.161  25.097  24.473  1.00  0.00    -0.207 F 
ATOM     15  C   UNL A   1      32.629  27.323  25.803  1.00  0.00    -0.038 A 
BRANCH  15  16
ATOM     16  C   UNL A   1      32.287  28.794  25.805  1.00  0.00     0.111 C 
BRANCH  16  17
ATOM     17  C   UNL A   1      33.171  29.626  26.669  1.00  0.00     0.108 A 
ATOM     18  C   UNL A   1      34.370  29.393  27.315  1.00  0.00     0.046 A 
ATOM     19  O   UNL A   1      32.787  30.921  26.865  1.00  0.00    -0.469 OA
ATOM     20  C   UNL A   1      34.728  30.605  27.950  1.00  0.00     0.042 A 
ATOM     21  C   UNL A   1      33.735  31.504  27.643  1.00  0.00     0.195 A 
ENDBRANCH  16  17
ENDBRANCH  15  16
ENDBRANCH   7   9
ENDBRANCH   4   7
ENDBRANCH   2   3
ENDBRANCH   1   2
BRANCH   1  22
ATOM     22  C   UNL A   1      37.611  23.780  26.059  1.00  0.00     0.023 C 
BRANCH  22  23
ATOM     23  C   UNL A   1      38.908  23.922  26.843  1.00  0.00     0.116 C 
BRANCH  23  24
ATOM     24  N   UNL A   1      40.011  24.392  26.019  1.00  0.00    -0.352 N 
ATOM     25  C   UNL A   1      40.734  25.553  26.140  1.00  0.00     0.251 C 
ATOM     26  H   UNL A   1      40.273  23.799  25.277  1.00  0.00     0.163 HD
ATOM     27  O   UNL A   1      41.544  25.871  25.275  1.00  0.00    -0.269 OA
BRANCH  25  28
ATOM     28  C   UNL A   1      40.501  26.427  27.308  1.00  0.00     0.039 A 
ATOM     29  C   UNL A   1      39.651  25.989  28.327  1.00  0.00     0.014 A 
ATOM     30  C   UNL A   1      41.150  27.661  27.407  1.00  0.00     0.014 A 
ATOM     31  C   UNL A   1      39.503  26.762  29.481  1.00  0.00     0.010 A 
ATOM     32  C   UNL A   1      41.053  28.394  28.583  1.00  0.00     0.010 A 
ATOM     33  C   UNL A   1      40.228  27.955  29.630  1.00  0.00    -0.014 A 
BRANCH  33  34
ATOM     34  C   UNL A   1      40.135  28.781  30.858  1.00  0.00     0.031 A 
ATOM     35  C   UNL A   1      39.126  29.895  30.927  1.00  0.00     0.074 A 
ATOM     36  C   UNL A   1      41.017  28.603  31.860  1.00  0.00     0.049 A 
ATOM     37  N   UNL A   1      38.987  30.829  31.829  1.00  0.00    -0.248 NA
ATOM     38  C   UNL A   1      38.171  29.986  29.810  1.00  0.00     0.031 C 
ATOM     39  C   UNL A   1      42.062  27.578  31.900  1.00  0.00     0.029 A 
ATOM     40  N   UNL A   1      41.189  29.298  33.031  1.00  0.00    -0.354 N 
ATOM     41  C   UNL A   1      37.957  31.642  31.372  1.00  0.00     0.074 A 
ATOM     42  C   UNL A   1      37.531  31.110  30.097  1.00  0.00     0.031 C 
ATOM     43  C   UNL A   1      42.758  27.705  33.042  1.00  0.00     0.029 A 
ATOM     44  C   UNL A   1      42.239  28.846  33.792  1.00  0.00     0.049 A 
ATOM     45  H   UNL A   1      40.613  30.050  33.300  1.00  0.00     0.167 HD
ATOM     46  C   UNL A   1      37.407  32.728  31.967  1.00  0.00     0.031 A 
ATOM     47  C   UNL A   1      42.741  29.306  34.956  1.00  0.00     0.031 A 
ATOM     48  C   UNL A   1      37.818  33.239  33.245  1.00  0.00     0.049 A 
ATOM     49  C   UNL A   1      42.105  30.501  35.609  1.00  0.00     0.074 A 
ATOM     50  C   UNL A   1      37.291  34.301  33.959  1.00  0.00     0.029 A 
ATOM     51  N   UNL A   1      38.857  32.722  34.005  1.00  0.00    -0.354 N 
ATOM     52  N   UNL A   1      41.103  31.233  35.182  1.00  0.00    -0.248 NA
ATOM     53  C   UNL A   1      42.658  30.926  36.901  1.00  0.00     0.031 C 
ATOM     54  C   UNL A   1      38.033  34.447  35.135  1.00  0.00     0.029 A 
ATOM     55  C   UNL A   1      38.993  33.447  35.176  1.00  0.00     0.049 A 
ATOM     56  H   UNL A   1      39.416  31.953  33.749  1.00  0.00     0.167 HD
ATOM     57  C   UNL A   1      40.886  32.187  36.171  1.00  0.00     0.074 A 
ATOM     58  C   UNL A   1      41.858  31.937  37.215  1.00  0.00     0.031 C 
ATOM     59  C   UNL A   1      39.960  33.177  36.210  1.00  0.00     0.031 A 
BRANCH  46  60
ATOM     60  C   UNL A   1      36.311  33.438  31.219  1.00  0.00    -0.014 A 
ATOM     61  C   UNL A   1      36.505  33.898  29.903  1.00  0.00     0.010 A 
ATOM     62  C   UNL A   1      35.068  33.652  31.842  1.00  0.00     0.010 A 
ATOM     63  C   UNL A   1      35.500  34.612  29.248  1.00  0.00     0.020 A 
ATOM     64  C   UNL A   1      34.048  34.341  31.178  1.00  0.00     0.020 A 
ATOM     65  C   UNL A   1      34.281  34.839  29.894  1.00  0.00     0.054 A 
BRANCH  65  66
ATOM     66  S   UNL A   1      32.996  35.782  29.029  1.00  0.00     0.124 S 
ATOM     67  O   UNL A   1      32.370  34.750  28.207  1.00  0.00    -0.237 OA
ATOM     68  O   UNL A   1      32.177  36.294  30.124  1.00  0.00    -0.237 OA
ATOM     69  O   UNL A   1      33.748  36.795  28.292  1.00  0.00    -0.744 OA
ENDBRANCH  65  66
ENDBRANCH  46  60
BRANCH  47  70
ATOM     70  C   UNL A   1      43.898  28.612  35.582  1.00  0.00    -0.014 A 
ATOM     71  C   UNL A   1      43.689  27.499  36.414  1.00  0.00     0.010 A 
ATOM     72  C   UNL A   1      45.214  29.031  35.313  1.00  0.00     0.010 A 
ATOM     73  C   UNL A   1      44.776  26.818  36.971  1.00  0.00     0.020 A 
ATOM     74  C   UNL A   1      46.304  28.338  35.851  1.00  0.00     0.020 A 
ATOM     75  C   UNL A   1      46.077  27.239  36.681  1.00  0.00     0.054 A 
BRANCH  75  76
ATOM     76  S   UNL A   1      47.473  26.292  37.350  1.00  0.00     0.124 S 
ATOM     77  O   UNL A   1      48.520  27.306  37.425  1.00  0.00    -0.237 OA
ATOM     78  O   UNL A   1      46.953  25.824  38.632  1.00  0.00    -0.237 OA
ATOM     79  O   UNL A   1      47.683  25.244  36.354  1.00  0.00    -0.744 OA
ENDBRANCH  75  76
ENDBRANCH  47  70
BRANCH  59  80
ATOM     80  C   UNL A   1      39.915  34.040  37.441  1.00  0.00    -0.014 A 
ATOM     81  C   UNL A   1      40.623  35.252  37.508  1.00  0.00     0.010 A 
ATOM     82  C   UNL A   1      39.082  33.669  38.512  1.00  0.00     0.010 A 
ATOM     83  C   UNL A   1      40.511  36.071  38.636  1.00  0.00     0.020 A 
ATOM     84  C   UNL A   1      38.951  34.495  39.631  1.00  0.00     0.020 A 
ATOM     85  C   UNL A   1      39.674  35.688  39.689  1.00  0.00     0.054 A 
BRANCH  85  86
ATOM     86  S   UNL A   1      39.491  36.799  41.111  1.00  0.00     0.124 S 
ATOM     87  O   UNL A   1      40.881  37.052  41.479  1.00  0.00    -0.237 OA
ATOM     88  O   UNL A   1      38.773  37.936  40.541  1.00  0.00    -0.237 OA
ATOM     89  O   UNL A   1      38.727  36.007  42.073  1.00  0.00    -0.744 OA
ENDBRANCH  85  86
ENDBRANCH  59  80
ENDBRANCH  33  34
ENDBRANCH  25  28
ENDBRANCH  23  24
ENDBRANCH  22  23
ENDBRANCH   1  22
TORSDOF 17
ENDMDL
