MODEL 1
REMARK VINA RESULT:     -10.7      0.000      0.000
REMARK SMILES C[C@@H]1CCN(c2cncc(C(=O)NCCCCNC(=O)c3ccc(-c4c5nc(c(-c6ccc(S(=O)(=O)[O-])cc6)c6ccc([nH]6)c(-c6ccc(S(=O)(=O)[O-])cc6)c6nc(c(-c7ccc(S(=O)(=O)[O-])cc7)c7ccc4[nH]7)C=C6)C=C5)cc3)n2)[C@H](C)C1
REMARK SMILES IDX 16 1 15 2 14 3 13 4 11 5 12 6 10 8 6 9 7 10 81 11 8 12 9 13
REMARK SMILES IDX 5 14 1 15 2 16 3 17 84 18 4 19 82 20 83 21 17 22 18 23 19 24
REMARK SMILES IDX 20 26 21 27 22 28 80 29 23 30 79 31 24 32 25 33 26 34 73 35
REMARK SMILES IDX 27 36 78 37 72 38 74 39 28 40 77 41 71 42 70 43 29 45 59 46
REMARK SMILES IDX 40 47 58 48 41 49 44 50 57 51 75 52 42 53 43 54 56 56 76 57
REMARK SMILES IDX 45 58 30 59 31 60 39 61 32 62 38 63 33 64 34 65 35 66 36 67
REMARK SMILES IDX 37 68 60 69 61 70 69 71 62 72 68 73 63 74 64 75 65 76 66 77
REMARK SMILES IDX 67 78 46 79 47 80 55 81 48 82 54 83 49 84 50 85 51 86 52 87
REMARK SMILES IDX 53 88
REMARK H PARENT 13 7 18 25 74 44 44 55
REMARK Flexibility Score: inf
ROOT
ATOM      1  C   UNL A   1      31.996  27.900  26.547  1.00  0.00     0.023 C 
ENDROOT
BRANCH   1   2
ATOM      2  C   UNL A   1      31.550  28.422  25.177  1.00  0.00     0.023 C 
BRANCH   2   3
ATOM      3  C   UNL A   1      32.640  28.393  24.107  1.00  0.00     0.116 C 
BRANCH   3   4
ATOM      4  N   UNL A   1      32.180  27.761  22.886  1.00  0.00    -0.351 N 
ATOM      5  C   UNL A   1      31.923  26.439  22.601  1.00  0.00     0.271 C 
ATOM      6  O   UNL A   1      31.526  26.172  21.463  1.00  0.00    -0.267 OA
ATOM      7  H   UNL A   1      32.027  28.380  22.136  1.00  0.00     0.163 HD
BRANCH   5   8
ATOM      8  C   UNL A   1      32.101  25.328  23.583  1.00  0.00     0.148 A 
ATOM      9  C   UNL A   1      33.418  23.764  24.672  1.00  0.00     0.148 A 
ATOM     10  C   UNL A   1      32.254  23.300  25.303  1.00  0.00     0.157 A 
ATOM     11  N   UNL A   1      33.334  24.803  23.812  1.00  0.00    -0.222 NA
ATOM     12  N   UNL A   1      31.017  23.818  25.112  1.00  0.00    -0.258 NA
ATOM     13  C   UNL A   1      30.971  24.843  24.230  1.00  0.00     0.145 A 
BRANCH   9  14
ATOM     14  N   UNL A   1      34.650  23.202  24.930  1.00  0.00    -0.353 N 
ATOM     15  C   UNL A   1      38.039  21.744  25.694  1.00  0.00     0.008 C 
ATOM     16  C   UNL A   1      37.517  22.913  24.853  1.00  0.00    -0.011 C 
ATOM     17  C   UNL A   1      36.819  23.978  25.715  1.00  0.00     0.025 C 
ATOM     18  C   UNL A   1      36.609  22.465  23.689  1.00  0.00     0.028 C 
ATOM     19  C   UNL A   1      35.402  23.573  26.120  1.00  0.00     0.118 C 
ATOM     20  C   UNL A   1      35.156  22.128  24.078  1.00  0.00     0.081 C 
ATOM     21  C   UNL A   1      35.023  20.758  24.737  1.00  0.00     0.031 C 
ENDBRANCH   9  14
ENDBRANCH   5   8
ENDBRANCH   3   4
ENDBRANCH   2   3
ENDBRANCH   1   2
BRANCH   1  22
ATOM     22  C   UNL A   1      33.318  28.464  27.065  1.00  0.00     0.116 C 
BRANCH  22  23
ATOM     23  N   UNL A   1      33.269  29.890  27.354  1.00  0.00    -0.352 N 
ATOM     24  C   UNL A   1      34.241  30.690  27.905  1.00  0.00     0.251 C 
ATOM     25  H   UNL A   1      32.425  30.343  27.123  1.00  0.00     0.163 HD
ATOM     26  O   UNL A   1      33.997  31.863  28.171  1.00  0.00    -0.269 OA
BRANCH  24  27
ATOM     27  C   UNL A   1      35.568  30.116  28.212  1.00  0.00     0.039 A 
ATOM     28  C   UNL A   1      36.544  30.109  27.213  1.00  0.00     0.014 A 
ATOM     29  C   UNL A   1      35.859  29.620  29.485  1.00  0.00     0.014 A 
ATOM     30  C   UNL A   1      37.836  29.673  27.514  1.00  0.00     0.010 A 
ATOM     31  C   UNL A   1      37.163  29.247  29.802  1.00  0.00     0.010 A 
ATOM     32  C   UNL A   1      38.167  29.279  28.821  1.00  0.00    -0.014 A 
BRANCH  32  33
ATOM     33  C   UNL A   1      39.563  28.920  29.183  1.00  0.00     0.031 A 
ATOM     34  C   UNL A   1      40.455  29.924  29.860  1.00  0.00     0.074 A 
ATOM     35  C   UNL A   1      40.043  27.705  28.848  1.00  0.00     0.049 A 
ATOM     36  N   UNL A   1      41.713  29.807  30.204  1.00  0.00    -0.248 NA
ATOM     37  C   UNL A   1      39.867  31.236  30.174  1.00  0.00     0.031 C 
ATOM     38  C   UNL A   1      39.293  26.660  28.146  1.00  0.00     0.029 A 
ATOM     39  N   UNL A   1      41.280  27.145  29.046  1.00  0.00    -0.354 N 
ATOM     40  C   UNL A   1      42.067  31.026  30.766  1.00  0.00     0.074 A 
ATOM     41  C   UNL A   1      40.909  31.888  30.673  1.00  0.00     0.031 C 
ATOM     42  C   UNL A   1      40.078  25.580  27.993  1.00  0.00     0.029 A 
ATOM     43  C   UNL A   1      41.395  25.866  28.551  1.00  0.00     0.049 A 
ATOM     44  H   UNL A   1      42.017  27.614  29.501  1.00  0.00     0.167 HD
ATOM     45  C   UNL A   1      43.243  31.391  31.331  1.00  0.00     0.031 A 
ATOM     46  C   UNL A   1      42.445  25.021  28.540  1.00  0.00     0.031 A 
ATOM     47  C   UNL A   1      44.393  30.531  31.432  1.00  0.00     0.049 A 
ATOM     48  C   UNL A   1      43.741  25.454  29.168  1.00  0.00     0.074 A 
ATOM     49  C   UNL A   1      45.616  30.797  32.024  1.00  0.00     0.029 A 
ATOM     50  N   UNL A   1      44.462  29.238  30.936  1.00  0.00    -0.354 N 
ATOM     51  N   UNL A   1      44.036  26.593  29.749  1.00  0.00    -0.248 NA
ATOM     52  C   UNL A   1      44.843  24.482  29.154  1.00  0.00     0.031 C 
ATOM     53  C   UNL A   1      46.439  29.680  31.849  1.00  0.00     0.029 A 
ATOM     54  C   UNL A   1      45.711  28.699  31.196  1.00  0.00     0.049 A 
ATOM     55  H   UNL A   1      43.731  28.773  30.469  1.00  0.00     0.167 HD
ATOM     56  C   UNL A   1      45.348  26.464  30.189  1.00  0.00     0.074 A 
ATOM     57  C   UNL A   1      45.782  25.130  29.827  1.00  0.00     0.031 C 
ATOM     58  C   UNL A   1      46.126  27.369  30.833  1.00  0.00     0.031 A 
BRANCH  45  59
ATOM     59  C   UNL A   1      43.344  32.781  31.900  1.00  0.00    -0.014 A 
ATOM     60  C   UNL A   1      43.201  33.003  33.281  1.00  0.00     0.010 A 
ATOM     61  C   UNL A   1      43.649  33.867  31.059  1.00  0.00     0.010 A 
ATOM     62  C   UNL A   1      43.335  34.290  33.808  1.00  0.00     0.020 A 
ATOM     63  C   UNL A   1      43.808  35.152  31.586  1.00  0.00     0.020 A 
ATOM     64  C   UNL A   1      43.639  35.357  32.957  1.00  0.00     0.054 A 
BRANCH  64  65
ATOM     65  S   UNL A   1      43.852  37.007  33.677  1.00  0.00     0.124 S 
ATOM     66  O   UNL A   1      43.834  37.859  32.491  1.00  0.00    -0.237 OA
ATOM     67  O   UNL A   1      42.689  37.128  34.553  1.00  0.00    -0.237 OA
ATOM     68  O   UNL A   1      45.139  36.923  34.364  1.00  0.00    -0.744 OA
ENDBRANCH  64  65
ENDBRANCH  45  59
BRANCH  46  69
ATOM     69  C   UNL A   1      42.319  23.676  27.914  1.00  0.00    -0.014 A 
ATOM     70  C   UNL A   1      41.684  22.625  28.598  1.00  0.00     0.010 A 
ATOM     71  C   UNL A   1      42.851  23.436  26.634  1.00  0.00     0.010 A 
ATOM     72  C   UNL A   1      41.617  21.348  28.032  1.00  0.00     0.020 A 
ATOM     73  C   UNL A   1      42.760  22.169  26.052  1.00  0.00     0.020 A 
ATOM     74  C   UNL A   1      42.160  21.128  26.762  1.00  0.00     0.054 A 
BRANCH  74  75
ATOM     75  S   UNL A   1      42.046  19.470  26.034  1.00  0.00     0.124 S 
ATOM     76  O   UNL A   1      42.603  18.636  27.093  1.00  0.00    -0.237 OA
ATOM     77  O   UNL A   1      40.610  19.324  25.801  1.00  0.00    -0.237 OA
ATOM     78  O   UNL A   1      42.857  19.574  24.824  1.00  0.00    -0.744 OA
ENDBRANCH  74  75
ENDBRANCH  46  69
BRANCH  58  79
ATOM     79  C   UNL A   1      47.515  26.935  31.219  1.00  0.00    -0.014 A 
ATOM     80  C   UNL A   1      48.604  27.118  30.348  1.00  0.00     0.010 A 
ATOM     81  C   UNL A   1      47.738  26.376  32.490  1.00  0.00     0.010 A 
ATOM     82  C   UNL A   1      49.886  26.715  30.728  1.00  0.00     0.020 A 
ATOM     83  C   UNL A   1      49.024  25.997  32.885  1.00  0.00     0.020 A 
ATOM     84  C   UNL A   1      50.088  26.154  31.993  1.00  0.00     0.054 A 
BRANCH  84  85
ATOM     85  S   UNL A   1      51.767  25.671  32.478  1.00  0.00     0.124 S 
ATOM     86  O   UNL A   1      52.565  26.774  31.950  1.00  0.00    -0.237 OA
ATOM     87  O   UNL A   1      51.674  25.602  33.934  1.00  0.00    -0.237 OA
ATOM     88  O   UNL A   1      51.963  24.385  31.811  1.00  0.00    -0.744 OA
ENDBRANCH  84  85
ENDBRANCH  58  79
ENDBRANCH  32  33
ENDBRANCH  24  27
ENDBRANCH  22  23
ENDBRANCH   1  22
TORSDOF 15
ENDMDL
MODEL 2
REMARK VINA RESULT:     -10.5      5.339     11.411
REMARK SMILES C[C@@H]1CCN(c2cncc(C(=O)NCCCCNC(=O)c3ccc(-c4c5nc(c(-c6ccc(S(=O)(=O)[O-])cc6)c6ccc([nH]6)c(-c6ccc(S(=O)(=O)[O-])cc6)c6nc(c(-c7ccc(S(=O)(=O)[O-])cc7)c7ccc4[nH]7)C=C6)C=C5)cc3)n2)[C@H](C)C1
REMARK SMILES IDX 16 1 15 2 14 3 13 4 11 5 12 6 10 8 6 9 7 10 81 11 8 12 9 13
REMARK SMILES IDX 5 14 1 15 2 16 3 17 84 18 4 19 82 20 83 21 17 22 18 23 19 24
REMARK SMILES IDX 20 26 21 27 22 28 80 29 23 30 79 31 24 32 25 33 26 34 73 35
REMARK SMILES IDX 27 36 78 37 72 38 74 39 28 40 77 41 71 42 70 43 29 45 59 46
REMARK SMILES IDX 40 47 58 48 41 49 44 50 57 51 75 52 42 53 43 54 56 56 76 57
REMARK SMILES IDX 45 58 30 59 31 60 39 61 32 62 38 63 33 64 34 65 35 66 36 67
REMARK SMILES IDX 37 68 60 69 61 70 69 71 62 72 68 73 63 74 64 75 65 76 66 77
REMARK SMILES IDX 67 78 46 79 47 80 55 81 48 82 54 83 49 84 50 85 51 86 52 87
REMARK SMILES IDX 53 88
REMARK H PARENT 13 7 18 25 74 44 44 55
REMARK Flexibility Score: inf
ROOT
ATOM      1  C   UNL A   1      39.726  22.151  26.802  1.00  0.00     0.023 C 
ENDROOT
BRANCH   1   2
ATOM      2  C   UNL A   1      40.509  20.892  27.191  1.00  0.00     0.023 C 
BRANCH   2   3
ATOM      3  C   UNL A   1      40.581  19.831  26.095  1.00  0.00     0.116 C 
BRANCH   3   4
ATOM      4  N   UNL A   1      41.478  18.750  26.450  1.00  0.00    -0.351 N 
ATOM      5  C   UNL A   1      42.832  18.603  26.249  1.00  0.00     0.271 C 
ATOM      6  O   UNL A   1      43.359  17.567  26.666  1.00  0.00    -0.267 OA
ATOM      7  H   UNL A   1      41.048  17.993  26.910  1.00  0.00     0.163 HD
BRANCH   5   8
ATOM      8  C   UNL A   1      43.684  19.617  25.557  1.00  0.00     0.148 A 
ATOM      9  C   UNL A   1      44.622  21.730  25.412  1.00  0.00     0.148 A 
ATOM     10  C   UNL A   1      45.162  21.349  24.174  1.00  0.00     0.157 A 
ATOM     11  N   UNL A   1      43.886  20.841  26.114  1.00  0.00    -0.222 NA
ATOM     12  N   UNL A   1      44.997  20.130  23.606  1.00  0.00    -0.258 NA
ATOM     13  C   UNL A   1      44.238  19.274  24.330  1.00  0.00     0.145 A 
BRANCH   9  14
ATOM     14  N   UNL A   1      44.849  22.983  25.941  1.00  0.00    -0.353 N 
ATOM     15  C   UNL A   1      45.443  26.445  27.300  1.00  0.00     0.008 C 
ATOM     16  C   UNL A   1      46.174  25.513  26.331  1.00  0.00    -0.011 C 
ATOM     17  C   UNL A   1      45.334  25.206  25.080  1.00  0.00     0.025 C 
ATOM     18  C   UNL A   1      46.665  24.210  26.996  1.00  0.00     0.028 C 
ATOM     19  C   UNL A   1      44.248  24.164  25.340  1.00  0.00     0.118 C 
ATOM     20  C   UNL A   1      45.590  23.123  27.193  1.00  0.00     0.081 C 
ATOM     21  C   UNL A   1      44.672  23.408  28.378  1.00  0.00     0.031 C 
ENDBRANCH   9  14
ENDBRANCH   5   8
ENDBRANCH   3   4
ENDBRANCH   2   3
ENDBRANCH   1   2
BRANCH   1  22
ATOM     22  C   UNL A   1      40.361  23.476  27.225  1.00  0.00     0.116 C 
BRANCH  22  23
ATOM     23  N   UNL A   1      40.781  24.303  26.103  1.00  0.00    -0.352 N 
ATOM     24  C   UNL A   1      41.058  25.649  26.084  1.00  0.00     0.251 C 
ATOM     25  H   UNL A   1      40.882  23.835  25.243  1.00  0.00     0.163 HD
ATOM     26  O   UNL A   1      41.309  26.212  25.023  1.00  0.00    -0.269 OA
BRANCH  24  27
ATOM     27  C   UNL A   1      41.010  26.420  27.345  1.00  0.00     0.039 A 
ATOM     28  C   UNL A   1      42.043  27.319  27.621  1.00  0.00     0.014 A 
ATOM     29  C   UNL A   1      39.939  26.282  28.231  1.00  0.00     0.014 A 
ATOM     30  C   UNL A   1      41.960  28.136  28.752  1.00  0.00     0.010 A 
ATOM     31  C   UNL A   1      39.827  27.141  29.321  1.00  0.00     0.010 A 
ATOM     32  C   UNL A   1      40.832  28.084  29.587  1.00  0.00    -0.014 A 
BRANCH  32  33
ATOM     33  C   UNL A   1      40.679  29.024  30.728  1.00  0.00     0.031 A 
ATOM     34  C   UNL A   1      41.529  28.869  31.959  1.00  0.00     0.074 A 
ATOM     35  C   UNL A   1      39.732  29.982  30.675  1.00  0.00     0.049 A 
ATOM     36  N   UNL A   1      41.500  29.561  33.070  1.00  0.00    -0.248 NA
ATOM     37  C   UNL A   1      42.526  27.787  31.952  1.00  0.00     0.031 C 
ATOM     38  C   UNL A   1      38.811  30.204  29.556  1.00  0.00     0.029 A 
ATOM     39  N   UNL A   1      39.380  30.945  31.587  1.00  0.00    -0.354 N 
ATOM     40  C   UNL A   1      42.465  28.996  33.894  1.00  0.00     0.074 A 
ATOM     41  C   UNL A   1      43.029  27.873  33.177  1.00  0.00     0.031 C 
ATOM     42  C   UNL A   1      38.017  31.250  29.840  1.00  0.00     0.029 A 
ATOM     43  C   UNL A   1      38.344  31.749  31.171  1.00  0.00     0.049 A 
ATOM     44  H   UNL A   1      39.826  31.051  32.458  1.00  0.00     0.167 HD
ATOM     45  C   UNL A   1      42.865  29.389  35.127  1.00  0.00     0.031 A 
ATOM     46  C   UNL A   1      37.721  32.770  31.793  1.00  0.00     0.031 A 
ATOM     47  C   UNL A   1      42.311  30.512  35.837  1.00  0.00     0.049 A 
ATOM     48  C   UNL A   1      38.181  33.181  33.165  1.00  0.00     0.074 A 
ATOM     49  C   UNL A   1      42.678  31.012  37.075  1.00  0.00     0.029 A 
ATOM     50  N   UNL A   1      41.278  31.312  35.373  1.00  0.00    -0.354 N 
ATOM     51  N   UNL A   1      39.138  32.669  33.902  1.00  0.00    -0.248 NA
ATOM     52  C   UNL A   1      37.486  34.319  33.784  1.00  0.00     0.031 C 
ATOM     53  C   UNL A   1      41.840  32.090  37.377  1.00  0.00     0.029 A 
ATOM     54  C   UNL A   1      40.985  32.293  36.306  1.00  0.00     0.049 A 
ATOM     55  H   UNL A   1      40.820  31.198  34.509  1.00  0.00     0.167 HD
ATOM     56  C   UNL A   1      39.175  33.437  35.060  1.00  0.00     0.074 A 
ATOM     57  C   UNL A   1      38.160  34.461  34.916  1.00  0.00     0.031 C 
ATOM     58  C   UNL A   1      39.975  33.307  36.146  1.00  0.00     0.031 A 
BRANCH  45  59
ATOM     59  C   UNL A   1      43.968  28.606  35.787  1.00  0.00    -0.014 A 
ATOM     60  C   UNL A   1      43.672  27.514  36.624  1.00  0.00     0.010 A 
ATOM     61  C   UNL A   1      45.312  28.920  35.520  1.00  0.00     0.010 A 
ATOM     62  C   UNL A   1      44.701  26.767  37.202  1.00  0.00     0.020 A 
ATOM     63  C   UNL A   1      46.345  28.159  36.077  1.00  0.00     0.020 A 
ATOM     64  C   UNL A   1      46.032  27.094  36.924  1.00  0.00     0.054 A 
BRANCH  64  65
ATOM     65  S   UNL A   1      47.345  26.077  37.652  1.00  0.00     0.124 S 
ATOM     66  O   UNL A   1      47.180  24.814  36.937  1.00  0.00    -0.237 OA
ATOM     67  O   UNL A   1      48.553  26.830  37.326  1.00  0.00    -0.237 OA
ATOM     68  O   UNL A   1      47.004  26.037  39.073  1.00  0.00    -0.744 OA
ENDBRANCH  64  65
ENDBRANCH  45  59
BRANCH  46  69
ATOM     69  C   UNL A   1      36.595  33.479  31.127  1.00  0.00    -0.014 A 
ATOM     70  C   UNL A   1      35.408  33.755  31.828  1.00  0.00     0.010 A 
ATOM     71  C   UNL A   1      36.698  33.866  29.779  1.00  0.00     0.010 A 
ATOM     72  C   UNL A   1      34.330  34.370  31.184  1.00  0.00     0.020 A 
ATOM     73  C   UNL A   1      35.634  34.509  29.139  1.00  0.00     0.020 A 
ATOM     74  C   UNL A   1      34.450  34.740  29.841  1.00  0.00     0.054 A 
BRANCH  74  75
ATOM     75  S   UNL A   1      33.049  35.557  29.027  1.00  0.00     0.124 S 
ATOM     76  O   UNL A   1      32.218  35.937  30.164  1.00  0.00    -0.237 OA
ATOM     77  O   UNL A   1      33.693  36.659  28.316  1.00  0.00    -0.237 OA
ATOM     78  O   UNL A   1      32.498  34.511  28.169  1.00  0.00    -0.744 OA
ENDBRANCH  74  75
ENDBRANCH  46  69
BRANCH  58  79
ATOM     79  C   UNL A   1      39.810  34.315  37.251  1.00  0.00    -0.014 A 
ATOM     80  C   UNL A   1      38.997  34.048  38.367  1.00  0.00     0.010 A 
ATOM     81  C   UNL A   1      40.514  35.532  37.190  1.00  0.00     0.010 A 
ATOM     82  C   UNL A   1      38.862  34.994  39.384  1.00  0.00     0.020 A 
ATOM     83  C   UNL A   1      40.404  36.469  38.220  1.00  0.00     0.020 A 
ATOM     84  C   UNL A   1      39.565  36.201  39.304  1.00  0.00     0.054 A 
BRANCH  84  85
ATOM     85  S   UNL A   1      39.402  37.400  40.655  1.00  0.00     0.124 S 
ATOM     86  O   UNL A   1      38.988  36.549  41.767  1.00  0.00    -0.237 OA
ATOM     87  O   UNL A   1      40.749  37.956  40.755  1.00  0.00    -0.237 OA
ATOM     88  O   UNL A   1      38.385  38.331  40.170  1.00  0.00    -0.744 OA
ENDBRANCH  84  85
ENDBRANCH  58  79
ENDBRANCH  32  33
ENDBRANCH  24  27
ENDBRANCH  22  23
ENDBRANCH   1  22
TORSDOF 15
ENDMDL
MODEL 3
REMARK VINA RESULT:     -10.5      3.394      4.315
REMARK SMILES C[C@@H]1CCN(c2cncc(C(=O)NCCCCNC(=O)c3ccc(-c4c5nc(c(-c6ccc(S(=O)(=O)[O-])cc6)c6ccc([nH]6)c(-c6ccc(S(=O)(=O)[O-])cc6)c6nc(c(-c7ccc(S(=O)(=O)[O-])cc7)c7ccc4[nH]7)C=C6)C=C5)cc3)n2)[C@H](C)C1
REMARK SMILES IDX 16 1 15 2 14 3 13 4 11 5 12 6 10 8 6 9 7 10 81 11 8 12 9 13
REMARK SMILES IDX 5 14 1 15 2 16 3 17 84 18 4 19 82 20 83 21 17 22 18 23 19 24
REMARK SMILES IDX 20 26 21 27 22 28 80 29 23 30 79 31 24 32 25 33 26 34 73 35
REMARK SMILES IDX 27 36 78 37 72 38 74 39 28 40 77 41 71 42 70 43 29 45 59 46
REMARK SMILES IDX 40 47 58 48 41 49 44 50 57 51 75 52 42 53 43 54 56 56 76 57
REMARK SMILES IDX 45 58 30 59 31 60 39 61 32 62 38 63 33 64 34 65 35 66 36 67
REMARK SMILES IDX 37 68 60 69 61 70 69 71 62 72 68 73 63 74 64 75 65 76 66 77
REMARK SMILES IDX 67 78 46 79 47 80 55 81 48 82 54 83 49 84 50 85 51 86 52 87
REMARK SMILES IDX 53 88
REMARK H PARENT 13 7 18 25 74 44 44 55
REMARK Flexibility Score: inf
ROOT
ATOM      1  C   UNL A   1      35.629  32.489  27.906  1.00  0.00     0.023 C 
ENDROOT
BRANCH   1   2
ATOM      2  C   UNL A   1      34.226  31.877  27.833  1.00  0.00     0.023 C 
BRANCH   2   3
ATOM      3  C   UNL A   1      34.187  30.461  27.257  1.00  0.00     0.116 C 
BRANCH   3   4
ATOM      4  N   UNL A   1      33.053  29.709  27.756  1.00  0.00    -0.351 N 
ATOM      5  C   UNL A   1      32.429  28.588  27.258  1.00  0.00     0.271 C 
ATOM      6  O   UNL A   1      31.474  28.139  27.897  1.00  0.00    -0.267 OA
ATOM      7  H   UNL A   1      32.663  30.058  28.590  1.00  0.00     0.163 HD
BRANCH   5   8
ATOM      8  C   UNL A   1      32.842  27.899  25.998  1.00  0.00     0.148 A 
ATOM      9  C   UNL A   1      33.721  26.079  24.866  1.00  0.00     0.148 A 
ATOM     10  C   UNL A   1      33.610  26.826  23.684  1.00  0.00     0.157 A 
ATOM     11  N   UNL A   1      33.315  26.624  26.034  1.00  0.00    -0.222 NA
ATOM     12  N   UNL A   1      33.121  28.087  23.614  1.00  0.00    -0.258 NA
ATOM     13  C   UNL A   1      32.744  28.606  24.806  1.00  0.00     0.145 A 
BRANCH   9  14
ATOM     14  N   UNL A   1      34.209  24.789  24.860  1.00  0.00    -0.353 N 
ATOM     15  C   UNL A   1      35.575  21.279  24.936  1.00  0.00     0.008 C 
ATOM     16  C   UNL A   1      36.178  22.684  24.836  1.00  0.00    -0.011 C 
ATOM     17  C   UNL A   1      35.887  23.527  26.089  1.00  0.00     0.025 C 
ATOM     18  C   UNL A   1      35.755  23.435  23.557  1.00  0.00     0.028 C 
ATOM     19  C   UNL A   1      34.465  24.085  26.108  1.00  0.00     0.118 C 
ATOM     20  C   UNL A   1      34.349  24.068  23.597  1.00  0.00     0.081 C 
ATOM     21  C   UNL A   1      33.235  23.045  23.389  1.00  0.00     0.031 C 
ENDBRANCH   9  14
ENDBRANCH   5   8
ENDBRANCH   3   4
ENDBRANCH   2   3
ENDBRANCH   1   2
BRANCH   1  22
ATOM     22  C   UNL A   1      36.191  32.674  29.316  1.00  0.00     0.116 C 
BRANCH  22  23
ATOM     23  N   UNL A   1      35.788  31.628  30.244  1.00  0.00    -0.352 N 
ATOM     24  C   UNL A   1      36.479  30.502  30.625  1.00  0.00     0.251 C 
ATOM     25  H   UNL A   1      34.901  31.743  30.656  1.00  0.00     0.163 HD
ATOM     26  O   UNL A   1      35.947  29.668  31.351  1.00  0.00    -0.269 OA
BRANCH  24  27
ATOM     27  C   UNL A   1      37.851  30.285  30.119  1.00  0.00     0.039 A 
ATOM     28  C   UNL A   1      38.916  30.349  31.020  1.00  0.00     0.014 A 
ATOM     29  C   UNL A   1      38.082  29.987  28.774  1.00  0.00     0.014 A 
ATOM     30  C   UNL A   1      40.207  30.039  30.585  1.00  0.00     0.010 A 
ATOM     31  C   UNL A   1      39.357  29.615  28.356  1.00  0.00     0.010 A 
ATOM     32  C   UNL A   1      40.431  29.628  29.260  1.00  0.00    -0.014 A 
BRANCH  32  33
ATOM     33  C   UNL A   1      41.778  29.187  28.812  1.00  0.00     0.031 A 
ATOM     34  C   UNL A   1      42.905  30.177  28.706  1.00  0.00     0.074 A 
ATOM     35  C   UNL A   1      41.967  27.903  28.447  1.00  0.00     0.049 A 
ATOM     36  N   UNL A   1      44.130  29.986  28.285  1.00  0.00    -0.248 NA
ATOM     37  C   UNL A   1      42.616  31.565  29.101  1.00  0.00     0.031 C 
ATOM     38  C   UNL A   1      40.940  26.857  28.458  1.00  0.00     0.029 A 
ATOM     39  N   UNL A   1      43.088  27.259  27.985  1.00  0.00    -0.354 N 
ATOM     40  C   UNL A   1      44.754  31.224  28.360  1.00  0.00     0.074 A 
ATOM     41  C   UNL A   1      43.761  32.172  28.816  1.00  0.00     0.031 C 
ATOM     42  C   UNL A   1      41.485  25.700  28.047  1.00  0.00     0.029 A 
ATOM     43  C   UNL A   1      42.885  25.927  27.707  1.00  0.00     0.049 A 
ATOM     44  H   UNL A   1      43.955  27.708  27.865  1.00  0.00     0.167 HD
ATOM     45  C   UNL A   1      46.043  31.543  28.094  1.00  0.00     0.031 A 
ATOM     46  C   UNL A   1      43.730  24.994  27.225  1.00  0.00     0.031 A 
ATOM     47  C   UNL A   1      47.035  30.599  27.648  1.00  0.00     0.049 A 
ATOM     48  C   UNL A   1      45.155  25.376  26.933  1.00  0.00     0.074 A 
ATOM     49  C   UNL A   1      48.377  30.819  27.392  1.00  0.00     0.029 A 
ATOM     50  N   UNL A   1      46.795  29.257  27.398  1.00  0.00    -0.354 N 
ATOM     51  N   UNL A   1      45.740  26.542  27.068  1.00  0.00    -0.248 NA
ATOM     52  C   UNL A   1      46.039  24.312  26.438  1.00  0.00     0.031 C 
ATOM     53  C   UNL A   1      48.940  29.618  26.948  1.00  0.00     0.029 A 
ATOM     54  C   UNL A   1      47.960  28.639  26.977  1.00  0.00     0.049 A 
ATOM     55  H   UNL A   1      45.924  28.809  27.504  1.00  0.00     0.167 HD
ATOM     56  C   UNL A   1      47.065  26.346  26.696  1.00  0.00     0.074 A 
ATOM     57  C   UNL A   1      47.201  24.945  26.353  1.00  0.00     0.031 C 
ATOM     58  C   UNL A   1      48.080  27.243  26.642  1.00  0.00     0.031 A 
BRANCH  45  59
ATOM     59  C   UNL A   1      46.465  32.974  28.293  1.00  0.00    -0.014 A 
ATOM     60  C   UNL A   1      46.973  33.408  29.531  1.00  0.00     0.010 A 
ATOM     61  C   UNL A   1      46.417  33.880  27.218  1.00  0.00     0.010 A 
ATOM     62  C   UNL A   1      47.399  34.727  29.698  1.00  0.00     0.020 A 
ATOM     63  C   UNL A   1      46.866  35.194  27.374  1.00  0.00     0.020 A 
ATOM     64  C   UNL A   1      47.344  35.613  28.617  1.00  0.00     0.054 A 
BRANCH  64  65
ATOM     65  S   UNL A   1      47.948  37.306  28.852  1.00  0.00     0.124 S 
ATOM     66  O   UNL A   1      49.218  37.277  28.130  1.00  0.00    -0.237 OA
ATOM     67  O   UNL A   1      46.896  38.111  28.238  1.00  0.00    -0.237 OA
ATOM     68  O   UNL A   1      48.061  37.436  30.303  1.00  0.00    -0.744 OA
ENDBRANCH  64  65
ENDBRANCH  45  59
BRANCH  46  69
ATOM     69  C   UNL A   1      43.255  23.603  26.988  1.00  0.00    -0.014 A 
ATOM     70  C   UNL A   1      42.961  22.753  28.069  1.00  0.00     0.010 A 
ATOM     71  C   UNL A   1      43.113  23.115  25.676  1.00  0.00     0.010 A 
ATOM     72  C   UNL A   1      42.570  21.429  27.844  1.00  0.00     0.020 A 
ATOM     73  C   UNL A   1      42.693  21.802  25.447  1.00  0.00     0.020 A 
ATOM     74  C   UNL A   1      42.442  20.962  26.532  1.00  0.00     0.054 A 
BRANCH  74  75
ATOM     75  S   UNL A   1      41.913  19.247  26.259  1.00  0.00     0.124 S 
ATOM     76  O   UNL A   1      42.617  18.907  25.028  1.00  0.00    -0.237 OA
ATOM     77  O   UNL A   1      42.386  18.573  27.466  1.00  0.00    -0.237 OA
ATOM     78  O   UNL A   1      40.461  19.354  26.143  1.00  0.00    -0.744 OA
ENDBRANCH  74  75
ENDBRANCH  46  69
BRANCH  58  79
ATOM     79  C   UNL A   1      49.433  26.732  26.228  1.00  0.00    -0.014 A 
ATOM     80  C   UNL A   1      49.923  26.938  24.927  1.00  0.00     0.010 A 
ATOM     81  C   UNL A   1      50.243  26.074  27.171  1.00  0.00     0.010 A 
ATOM     82  C   UNL A   1      51.185  26.461  24.564  1.00  0.00     0.020 A 
ATOM     83  C   UNL A   1      51.518  25.621  26.821  1.00  0.00     0.020 A 
ATOM     84  C   UNL A   1      51.974  25.803  25.513  1.00  0.00     0.054 A 
BRANCH  84  85
ATOM     85  S   UNL A   1      53.623  25.224  25.029  1.00  0.00     0.124 S 
ATOM     86  O   UNL A   1      53.771  25.807  23.699  1.00  0.00    -0.237 OA
ATOM     87  O   UNL A   1      54.480  25.795  26.066  1.00  0.00    -0.237 OA
ATOM     88  O   UNL A   1      53.502  23.768  25.063  1.00  0.00    -0.744 OA
ENDBRANCH  84  85
ENDBRANCH  58  79
ENDBRANCH  32  33
ENDBRANCH  24  27
ENDBRANCH  22  23
ENDBRANCH   1  22
TORSDOF 15
ENDMDL
