MODEL 1
REMARK VINA RESULT:     -10.8      0.000      0.000
REMARK SMILES C[C@@H]1C[N@@H+](C[C@]2(C(=O)NCCCCNC(=O)c3ccc(-c4c5nc(c(-c6ccc(S(=O)(=O)[O-])cc6)c6ccc([nH]6)c(-c6ccc(S(=O)(=O)[O-])cc6)c6nc(c(-c7ccc(S(=O)(=O)[O-])cc7)c7ccc4[nH]7)C=C6)C=C5)cc3)CCOC2)C[C@@H]1C
REMARK SMILES IDX 12 1 11 2 10 3 9 4 7 5 8 6 6 8 77 9 80 10 78 11 79 12 5 13
REMARK SMILES IDX 4 14 1 15 2 16 3 17 82 18 81 19 83 20 13 22 14 23 15 24
REMARK SMILES IDX 16 26 17 27 18 28 76 29 19 30 75 31 20 32 21 33 22 34 69 35
REMARK SMILES IDX 23 36 74 37 68 38 70 39 24 40 73 41 67 42 66 43 25 45 55 46
REMARK SMILES IDX 36 47 54 48 37 49 40 50 53 51 71 52 38 53 39 54 52 56 72 57
REMARK SMILES IDX 41 58 26 59 27 60 35 61 28 62 34 63 29 64 30 65 31 66 32 67
REMARK SMILES IDX 33 68 56 69 57 70 65 71 58 72 64 73 59 74 60 75 61 76 62 77
REMARK SMILES IDX 63 78 42 79 43 80 51 81 44 82 50 83 45 84 46 85 47 86 48 87
REMARK SMILES IDX 49 88
REMARK H PARENT 9 7 4 21 14 25 70 44 40 55
REMARK Flexibility Score: inf
ROOT
ATOM      1  C   UNL A   1      32.015  27.988  27.217  1.00  0.00     0.023 C 
ENDROOT
BRANCH   1   2
ATOM      2  C   UNL A   1      31.481  27.834  25.795  1.00  0.00     0.023 C 
BRANCH   2   3
ATOM      3  C   UNL A   1      30.715  26.553  25.494  1.00  0.00     0.116 C 
BRANCH   3   4
ATOM      4  N   UNL A   1      30.853  25.523  26.503  1.00  0.00    -0.355 N 
ATOM      5  C   UNL A   1      31.574  24.363  26.481  1.00  0.00     0.234 C 
ATOM      6  O   UNL A   1      31.616  23.723  27.537  1.00  0.00    -0.274 OA
ATOM      7  H   UNL A   1      30.349  25.683  27.333  1.00  0.00     0.163 HD
BRANCH   5   8
ATOM      8  C   UNL A   1      32.194  23.798  25.188  1.00  0.00     0.123 C 
ATOM      9  C   UNL A   1      31.228  23.761  24.011  1.00  0.00     0.054 C 
ATOM     10  C   UNL A   1      33.207  24.831  24.680  1.00  0.00     0.183 C 
ATOM     11  C   UNL A   1      32.008  24.212  22.799  1.00  0.00     0.161 C 
ATOM     12  O   UNL A   1      33.250  24.744  23.249  1.00  0.00    -0.380 OA
BRANCH   8  13
ATOM     13  C   UNL A   1      32.855  22.446  25.603  1.00  0.00     0.281 C 
BRANCH  13  14
ATOM     14  N   UNL A   1      34.287  22.220  25.574  1.00  0.00    -0.333 N 
ATOM     15  C   UNL A   1      37.558  23.849  26.169  1.00  0.00     0.014 C 
ATOM     16  C   UNL A   1      36.264  23.437  25.489  1.00  0.00     0.049 C 
ATOM     17  C   UNL A   1      35.204  22.915  26.451  1.00  0.00     0.265 C 
ATOM     18  C   UNL A   1      36.351  22.350  24.405  1.00  0.00     0.049 C 
ATOM     19  C   UNL A   1      34.946  21.725  24.387  1.00  0.00     0.265 C 
ATOM     20  C   UNL A   1      37.434  21.300  24.642  1.00  0.00     0.014 C 
ATOM     21  H   UNL A   1      34.002  21.407  26.119  1.00  0.00     0.348 HD
ENDBRANCH  13  14
ENDBRANCH   8  13
ENDBRANCH   5   8
ENDBRANCH   3   4
ENDBRANCH   2   3
ENDBRANCH   1   2
BRANCH   1  22
ATOM     22  C   UNL A   1      33.415  28.577  27.359  1.00  0.00     0.116 C 
BRANCH  22  23
ATOM     23  N   UNL A   1      33.430  29.986  27.720  1.00  0.00    -0.352 N 
ATOM     24  C   UNL A   1      34.454  30.757  28.219  1.00  0.00     0.251 C 
ATOM     25  H   UNL A   1      32.577  30.460  27.588  1.00  0.00     0.163 HD
ATOM     26  O   UNL A   1      34.238  31.927  28.528  1.00  0.00    -0.269 OA
BRANCH  24  27
ATOM     27  C   UNL A   1      35.797  30.171  28.427  1.00  0.00     0.039 A 
ATOM     28  C   UNL A   1      36.704  30.179  27.364  1.00  0.00     0.014 A 
ATOM     29  C   UNL A   1      36.173  29.645  29.664  1.00  0.00     0.014 A 
ATOM     30  C   UNL A   1      38.015  29.742  27.571  1.00  0.00     0.010 A 
ATOM     31  C   UNL A   1      37.501  29.289  29.890  1.00  0.00     0.010 A 
ATOM     32  C   UNL A   1      38.438  29.337  28.848  1.00  0.00    -0.014 A 
BRANCH  32  33
ATOM     33  C   UNL A   1      39.859  28.984  29.105  1.00  0.00     0.031 A 
ATOM     34  C   UNL A   1      40.794  29.984  29.733  1.00  0.00     0.074 A 
ATOM     35  C   UNL A   1      40.322  27.776  28.724  1.00  0.00     0.049 A 
ATOM     36  N   UNL A   1      42.060  29.849  30.034  1.00  0.00    -0.248 NA
ATOM     37  C   UNL A   1      40.244  31.315  30.038  1.00  0.00     0.031 C 
ATOM     38  C   UNL A   1      39.536  26.741  28.046  1.00  0.00     0.029 A 
ATOM     39  N   UNL A   1      41.566  27.211  28.853  1.00  0.00    -0.354 N 
ATOM     40  C   UNL A   1      42.461  31.079  30.544  1.00  0.00     0.074 A 
ATOM     41  C   UNL A   1      41.318  31.962  30.463  1.00  0.00     0.031 C 
ATOM     42  C   UNL A   1      40.303  25.654  27.861  1.00  0.00     0.029 A 
ATOM     43  C   UNL A   1      41.642  25.924  28.374  1.00  0.00     0.049 A 
ATOM     44  H   UNL A   1      42.333  27.683  29.251  1.00  0.00     0.167 HD
ATOM     45  C   UNL A   1      43.664  31.436  31.055  1.00  0.00     0.031 A 
ATOM     46  C   UNL A   1      42.670  25.053  28.358  1.00  0.00     0.031 A 
ATOM     47  C   UNL A   1      44.794  30.550  31.154  1.00  0.00     0.049 A 
ATOM     48  C   UNL A   1      43.987  25.465  28.956  1.00  0.00     0.074 A 
ATOM     49  C   UNL A   1      46.031  30.795  31.723  1.00  0.00     0.029 A 
ATOM     50  N   UNL A   1      44.824  29.251  30.674  1.00  0.00    -0.354 N 
ATOM     51  N   UNL A   1      44.319  26.605  29.512  1.00  0.00    -0.248 NA
ATOM     52  C   UNL A   1      45.063  24.464  28.939  1.00  0.00     0.031 C 
ATOM     53  C   UNL A   1      46.826  29.657  31.545  1.00  0.00     0.029 A 
ATOM     54  C   UNL A   1      46.065  28.687  30.913  1.00  0.00     0.049 A 
ATOM     55  H   UNL A   1      44.074  28.796  30.227  1.00  0.00     0.167 HD
ATOM     56  C   UNL A   1      45.635  26.450  29.934  1.00  0.00     0.074 A 
ATOM     57  C   UNL A   1      46.030  25.100  29.585  1.00  0.00     0.031 C 
ATOM     58  C   UNL A   1      46.444  27.344  30.555  1.00  0.00     0.031 A 
BRANCH  45  59
ATOM     59  C   UNL A   1      43.816  32.851  31.551  1.00  0.00    -0.014 A 
ATOM     60  C   UNL A   1      44.362  33.853  30.729  1.00  0.00     0.010 A 
ATOM     61  C   UNL A   1      43.376  33.191  32.844  1.00  0.00     0.010 A 
ATOM     62  C   UNL A   1      44.506  35.159  31.205  1.00  0.00     0.020 A 
ATOM     63  C   UNL A   1      43.493  34.502  33.313  1.00  0.00     0.020 A 
ATOM     64  C   UNL A   1      44.074  35.475  32.495  1.00  0.00     0.054 A 
BRANCH  64  65
ATOM     65  S   UNL A   1      44.252  37.183  33.079  1.00  0.00     0.124 S 
ATOM     66  O   UNL A   1      43.618  37.119  34.394  1.00  0.00    -0.237 OA
ATOM     67  O   UNL A   1      45.700  37.371  33.088  1.00  0.00    -0.237 OA
ATOM     68  O   UNL A   1      43.532  37.968  32.079  1.00  0.00    -0.744 OA
ENDBRANCH  64  65
ENDBRANCH  45  59
BRANCH  46  69
ATOM     69  C   UNL A   1      42.484  23.687  27.794  1.00  0.00    -0.014 A 
ATOM     70  C   UNL A   1      42.632  23.463  26.414  1.00  0.00     0.010 A 
ATOM     71  C   UNL A   1      42.161  22.605  28.632  1.00  0.00     0.010 A 
ATOM     72  C   UNL A   1      42.438  22.186  25.878  1.00  0.00     0.020 A 
ATOM     73  C   UNL A   1      41.993  21.321  28.104  1.00  0.00     0.020 A 
ATOM     74  C   UNL A   1      42.120  21.122  26.728  1.00  0.00     0.054 A 
BRANCH  74  75
ATOM     75  S   UNL A   1      41.919  19.464  26.018  1.00  0.00     0.124 S 
ATOM     76  O   UNL A   1      42.779  19.531  24.842  1.00  0.00    -0.237 OA
ATOM     77  O   UNL A   1      42.387  18.599  27.098  1.00  0.00    -0.237 OA
ATOM     78  O   UNL A   1      40.485  19.383  25.744  1.00  0.00    -0.744 OA
ENDBRANCH  74  75
ENDBRANCH  46  69
BRANCH  58  79
ATOM     79  C   UNL A   1      47.827  26.877  30.923  1.00  0.00    -0.014 A 
ATOM     80  C   UNL A   1      48.929  27.132  30.089  1.00  0.00     0.010 A 
ATOM     81  C   UNL A   1      48.028  26.199  32.139  1.00  0.00     0.010 A 
ATOM     82  C   UNL A   1      50.201  26.677  30.442  1.00  0.00     0.020 A 
ATOM     83  C   UNL A   1      49.304  25.767  32.509  1.00  0.00     0.020 A 
ATOM     84  C   UNL A   1      50.380  25.993  31.649  1.00  0.00     0.054 A 
BRANCH  84  85
ATOM     85  S   UNL A   1      52.044  25.428  32.097  1.00  0.00     0.124 S 
ATOM     86  O   UNL A   1      51.822  24.008  32.359  1.00  0.00    -0.237 OA
ATOM     87  O   UNL A   1      52.821  25.730  30.897  1.00  0.00    -0.237 OA
ATOM     88  O   UNL A   1      52.378  26.234  33.268  1.00  0.00    -0.744 OA
ENDBRANCH  84  85
ENDBRANCH  58  79
ENDBRANCH  32  33
ENDBRANCH  24  27
ENDBRANCH  22  23
ENDBRANCH   1  22
TORSDOF 16
ENDMDL
MODEL 2
REMARK VINA RESULT:     -10.3      3.854     10.938
REMARK SMILES C[C@@H]1C[N@@H+](C[C@]2(C(=O)NCCCCNC(=O)c3ccc(-c4c5nc(c(-c6ccc(S(=O)(=O)[O-])cc6)c6ccc([nH]6)c(-c6ccc(S(=O)(=O)[O-])cc6)c6nc(c(-c7ccc(S(=O)(=O)[O-])cc7)c7ccc4[nH]7)C=C6)C=C5)cc3)CCOC2)C[C@@H]1C
REMARK SMILES IDX 12 1 11 2 10 3 9 4 7 5 8 6 6 8 77 9 80 10 78 11 79 12 5 13
REMARK SMILES IDX 4 14 1 15 2 16 3 17 82 18 81 19 83 20 13 22 14 23 15 24
REMARK SMILES IDX 16 26 17 27 18 28 76 29 19 30 75 31 20 32 21 33 22 34 69 35
REMARK SMILES IDX 23 36 74 37 68 38 70 39 24 40 73 41 67 42 66 43 25 45 55 46
REMARK SMILES IDX 36 47 54 48 37 49 40 50 53 51 71 52 38 53 39 54 52 56 72 57
REMARK SMILES IDX 41 58 26 59 27 60 35 61 28 62 34 63 29 64 30 65 31 66 32 67
REMARK SMILES IDX 33 68 56 69 57 70 65 71 58 72 64 73 59 74 60 75 61 76 62 77
REMARK SMILES IDX 63 78 42 79 43 80 51 81 44 82 50 83 45 84 46 85 47 86 48 87
REMARK SMILES IDX 49 88
REMARK H PARENT 9 7 4 21 14 25 70 44 40 55
REMARK Flexibility Score: inf
ROOT
ATOM      1  C   UNL A   1      42.404  22.134  26.360  1.00  0.00     0.023 C 
ENDROOT
BRANCH   1   2
ATOM      2  C   UNL A   1      43.083  23.465  26.673  1.00  0.00     0.023 C 
BRANCH   2   3
ATOM      3  C   UNL A   1      43.395  24.364  25.485  1.00  0.00     0.116 C 
BRANCH   3   4
ATOM      4  N   UNL A   1      44.530  23.936  24.693  1.00  0.00    -0.355 N 
ATOM      5  C   UNL A   1      45.846  24.289  24.783  1.00  0.00     0.234 C 
ATOM      6  O   UNL A   1      46.631  23.670  24.058  1.00  0.00    -0.274 OA
ATOM      7  H   UNL A   1      44.321  23.291  23.980  1.00  0.00     0.163 HD
BRANCH   5   8
ATOM      8  C   UNL A   1      46.327  25.481  25.635  1.00  0.00     0.123 C 
ATOM      9  C   UNL A   1      45.878  25.416  27.088  1.00  0.00     0.054 C 
ATOM     10  C   UNL A   1      47.843  25.334  25.809  1.00  0.00     0.183 C 
ATOM     11  C   UNL A   1      47.058  25.849  27.925  1.00  0.00     0.161 C 
ATOM     12  O   UNL A   1      48.201  25.900  27.077  1.00  0.00    -0.380 OA
BRANCH   8  13
ATOM     13  C   UNL A   1      45.924  26.755  24.827  1.00  0.00     0.281 C 
BRANCH  13  14
ATOM     14  N   UNL A   1      45.297  27.913  25.432  1.00  0.00    -0.333 N 
ATOM     15  C   UNL A   1      45.613  30.347  28.205  1.00  0.00     0.014 C 
ATOM     16  C   UNL A   1      45.296  29.069  27.447  1.00  0.00     0.049 C 
ATOM     17  C   UNL A   1      46.050  28.932  26.130  1.00  0.00     0.265 C 
ATOM     18  C   UNL A   1      43.828  28.820  27.064  1.00  0.00     0.049 C 
ATOM     19  C   UNL A   1      43.911  27.889  25.843  1.00  0.00     0.265 C 
ATOM     20  C   UNL A   1      43.028  30.084  26.759  1.00  0.00     0.014 C 
ATOM     21  H   UNL A   1      45.315  28.223  24.461  1.00  0.00     0.348 HD
ENDBRANCH  13  14
ENDBRANCH   8  13
ENDBRANCH   5   8
ENDBRANCH   3   4
ENDBRANCH   2   3
ENDBRANCH   1   2
BRANCH   1  22
ATOM     22  C   UNL A   1      41.112  21.835  27.115  1.00  0.00     0.116 C 
BRANCH  22  23
ATOM     23  N   UNL A   1      39.914  21.920  26.293  1.00  0.00    -0.352 N 
ATOM     24  C   UNL A   1      39.044  22.970  26.110  1.00  0.00     0.251 C 
ATOM     25  H   UNL A   1      39.692  21.101  25.793  1.00  0.00     0.163 HD
ATOM     26  O   UNL A   1      38.041  22.813  25.418  1.00  0.00    -0.269 OA
BRANCH  24  27
ATOM     27  C   UNL A   1      39.289  24.268  26.777  1.00  0.00     0.039 A 
ATOM     28  C   UNL A   1      38.809  24.455  28.076  1.00  0.00     0.014 A 
ATOM     29  C   UNL A   1      40.011  25.282  26.145  1.00  0.00     0.014 A 
ATOM     30  C   UNL A   1      39.131  25.624  28.771  1.00  0.00     0.010 A 
ATOM     31  C   UNL A   1      40.402  26.407  26.868  1.00  0.00     0.010 A 
ATOM     32  C   UNL A   1      39.970  26.589  28.189  1.00  0.00    -0.014 A 
BRANCH  32  33
ATOM     33  C   UNL A   1      40.415  27.779  28.962  1.00  0.00     0.031 A 
ATOM     34  C   UNL A   1      41.773  27.804  29.612  1.00  0.00     0.074 A 
ATOM     35  C   UNL A   1      39.572  28.819  29.124  1.00  0.00     0.049 A 
ATOM     36  N   UNL A   1      42.329  28.754  30.319  1.00  0.00    -0.248 NA
ATOM     37  C   UNL A   1      42.604  26.597  29.473  1.00  0.00     0.031 C 
ATOM     38  C   UNL A   1      38.204  28.893  28.601  1.00  0.00     0.029 A 
ATOM     39  N   UNL A   1      39.740  30.018  29.772  1.00  0.00    -0.354 N 
ATOM     40  C   UNL A   1      43.562  28.254  30.723  1.00  0.00     0.074 A 
ATOM     41  C   UNL A   1      43.650  26.899  30.228  1.00  0.00     0.031 C 
ATOM     42  C   UNL A   1      37.677  30.088  28.910  1.00  0.00     0.029 A 
ATOM     43  C   UNL A   1      38.652  30.853  29.680  1.00  0.00     0.049 A 
ATOM     44  H   UNL A   1      40.562  30.257  30.258  1.00  0.00     0.167 HD
ATOM     45  C   UNL A   1      44.543  28.874  31.423  1.00  0.00     0.031 A 
ATOM     46  C   UNL A   1      38.461  32.101  30.153  1.00  0.00     0.031 A 
ATOM     47  C   UNL A   1      44.462  30.230  31.898  1.00  0.00     0.049 A 
ATOM     48  C   UNL A   1      39.575  32.776  30.905  1.00  0.00     0.074 A 
ATOM     49  C   UNL A   1      45.430  30.971  32.552  1.00  0.00     0.029 A 
ATOM     50  N   UNL A   1      43.351  31.048  31.770  1.00  0.00    -0.354 N 
ATOM     51  N   UNL A   1      40.767  32.316  31.201  1.00  0.00    -0.248 NA
ATOM     52  C   UNL A   1      39.323  34.147  31.370  1.00  0.00     0.031 C 
ATOM     53  C   UNL A   1      44.887  32.224  32.861  1.00  0.00     0.029 A 
ATOM     54  C   UNL A   1      43.599  32.279  32.351  1.00  0.00     0.049 A 
ATOM     55  H   UNL A   1      42.507  30.791  31.331  1.00  0.00     0.167 HD
ATOM     56  C   UNL A   1      41.416  33.351  31.866  1.00  0.00     0.074 A 
ATOM     57  C   UNL A   1      40.492  34.465  31.910  1.00  0.00     0.031 C 
ATOM     58  C   UNL A   1      42.666  33.376  32.392  1.00  0.00     0.031 A 
BRANCH  45  59
ATOM     59  C   UNL A   1      45.793  28.085  31.715  1.00  0.00    -0.014 A 
ATOM     60  C   UNL A   1      46.919  28.173  30.876  1.00  0.00     0.010 A 
ATOM     61  C   UNL A   1      45.856  27.272  32.862  1.00  0.00     0.010 A 
ATOM     62  C   UNL A   1      48.068  27.429  31.153  1.00  0.00     0.020 A 
ATOM     63  C   UNL A   1      47.014  26.547  33.157  1.00  0.00     0.020 A 
ATOM     64  C   UNL A   1      48.108  26.617  32.290  1.00  0.00     0.054 A 
BRANCH  64  65
ATOM     65  S   UNL A   1      49.621  25.680  32.638  1.00  0.00     0.124 S 
ATOM     66  O   UNL A   1      50.555  26.742  33.001  1.00  0.00    -0.237 OA
ATOM     67  O   UNL A   1      49.212  24.802  33.731  1.00  0.00    -0.237 OA
ATOM     68  O   UNL A   1      49.908  25.004  31.375  1.00  0.00    -0.744 OA
ENDBRANCH  64  65
ENDBRANCH  45  59
BRANCH  46  69
ATOM     69  C   UNL A   1      37.179  32.811  29.893  1.00  0.00    -0.014 A 
ATOM     70  C   UNL A   1      36.208  32.916  30.904  1.00  0.00     0.010 A 
ATOM     71  C   UNL A   1      36.922  33.388  28.636  1.00  0.00     0.010 A 
ATOM     72  C   UNL A   1      34.994  33.565  30.658  1.00  0.00     0.020 A 
ATOM     73  C   UNL A   1      35.721  34.062  28.394  1.00  0.00     0.020 A 
ATOM     74  C   UNL A   1      34.758  34.134  29.403  1.00  0.00     0.054 A 
BRANCH  74  75
ATOM     75  S   UNL A   1      33.195  35.012  29.119  1.00  0.00     0.124 S 
ATOM     76  O   UNL A   1      32.576  34.201  28.077  1.00  0.00    -0.237 OA
ATOM     77  O   UNL A   1      32.557  34.954  30.432  1.00  0.00    -0.237 OA
ATOM     78  O   UNL A   1      33.625  36.346  28.705  1.00  0.00    -0.744 OA
ENDBRANCH  74  75
ENDBRANCH  46  69
BRANCH  58  79
ATOM     79  C   UNL A   1      43.115  34.662  33.033  1.00  0.00    -0.014 A 
ATOM     80  C   UNL A   1      43.737  35.673  32.281  1.00  0.00     0.010 A 
ATOM     81  C   UNL A   1      42.880  34.871  34.404  1.00  0.00     0.010 A 
ATOM     82  C   UNL A   1      44.160  36.853  32.898  1.00  0.00     0.020 A 
ATOM     83  C   UNL A   1      43.276  36.062  35.019  1.00  0.00     0.020 A 
ATOM     84  C   UNL A   1      43.930  37.038  34.265  1.00  0.00     0.054 A 
BRANCH  84  85
ATOM     85  S   UNL A   1      44.469  38.585  35.042  1.00  0.00     0.124 S 
ATOM     86  O   UNL A   1      44.133  38.353  36.445  1.00  0.00    -0.237 OA
ATOM     87  O   UNL A   1      45.897  38.619  34.737  1.00  0.00    -0.237 OA
ATOM     88  O   UNL A   1      43.670  39.606  34.369  1.00  0.00    -0.744 OA
ENDBRANCH  84  85
ENDBRANCH  58  79
ENDBRANCH  32  33
ENDBRANCH  24  27
ENDBRANCH  22  23
ENDBRANCH   1  22
TORSDOF 16
ENDMDL
MODEL 3
REMARK VINA RESULT:     -10.3      1.005      8.447
REMARK SMILES C[C@@H]1C[N@@H+](C[C@]2(C(=O)NCCCCNC(=O)c3ccc(-c4c5nc(c(-c6ccc(S(=O)(=O)[O-])cc6)c6ccc([nH]6)c(-c6ccc(S(=O)(=O)[O-])cc6)c6nc(c(-c7ccc(S(=O)(=O)[O-])cc7)c7ccc4[nH]7)C=C6)C=C5)cc3)CCOC2)C[C@@H]1C
REMARK SMILES IDX 12 1 11 2 10 3 9 4 7 5 8 6 6 8 77 9 80 10 78 11 79 12 5 13
REMARK SMILES IDX 4 14 1 15 2 16 3 17 82 18 81 19 83 20 13 22 14 23 15 24
REMARK SMILES IDX 16 26 17 27 18 28 76 29 19 30 75 31 20 32 21 33 22 34 69 35
REMARK SMILES IDX 23 36 74 37 68 38 70 39 24 40 73 41 67 42 66 43 25 45 55 46
REMARK SMILES IDX 36 47 54 48 37 49 40 50 53 51 71 52 38 53 39 54 52 56 72 57
REMARK SMILES IDX 41 58 26 59 27 60 35 61 28 62 34 63 29 64 30 65 31 66 32 67
REMARK SMILES IDX 33 68 56 69 57 70 65 71 58 72 64 73 59 74 60 75 61 76 62 77
REMARK SMILES IDX 63 78 42 79 43 80 51 81 44 82 50 83 45 84 46 85 47 86 48 87
REMARK SMILES IDX 49 88
REMARK H PARENT 9 7 4 21 14 25 70 44 40 55
REMARK Flexibility Score: inf
ROOT
ATOM      1  C   UNL A   1      32.154  27.791  27.272  1.00  0.00     0.023 C 
ENDROOT
BRANCH   1   2
ATOM      2  C   UNL A   1      31.401  27.659  25.951  1.00  0.00     0.023 C 
BRANCH   2   3
ATOM      3  C   UNL A   1      32.184  27.086  24.778  1.00  0.00     0.116 C 
BRANCH   3   4
ATOM      4  N   UNL A   1      31.412  26.219  23.910  1.00  0.00    -0.355 N 
ATOM      5  C   UNL A   1      31.264  24.862  23.932  1.00  0.00     0.234 C 
ATOM      6  O   UNL A   1      30.437  24.388  23.147  1.00  0.00    -0.274 OA
ATOM      7  H   UNL A   1      30.919  26.680  23.194  1.00  0.00     0.163 HD
BRANCH   5   8
ATOM      8  C   UNL A   1      32.162  23.945  24.786  1.00  0.00     0.123 C 
ATOM      9  C   UNL A   1      31.860  24.006  26.277  1.00  0.00     0.054 C 
ATOM     10  C   UNL A   1      31.756  22.498  24.482  1.00  0.00     0.183 C 
ATOM     11  C   UNL A   1      31.925  22.587  26.789  1.00  0.00     0.161 C 
ATOM     12  O   UNL A   1      31.981  21.717  25.663  1.00  0.00    -0.380 OA
BRANCH   8  13
ATOM     13  C   UNL A   1      33.624  24.274  24.347  1.00  0.00     0.281 C 
BRANCH  13  14
ATOM     14  N   UNL A   1      34.763  23.449  24.696  1.00  0.00    -0.333 N 
ATOM     15  C   UNL A   1      38.175  23.557  26.131  1.00  0.00     0.014 C 
ATOM     16  C   UNL A   1      37.034  23.669  25.135  1.00  0.00     0.049 C 
ATOM     17  C   UNL A   1      35.659  23.776  25.783  1.00  0.00     0.265 C 
ATOM     18  C   UNL A   1      36.876  22.533  24.111  1.00  0.00     0.049 C 
ATOM     19  C   UNL A   1      35.389  22.581  23.723  1.00  0.00     0.265 C 
ATOM     20  C   UNL A   1      37.283  21.154  24.625  1.00  0.00     0.014 C 
ATOM     21  H   UNL A   1      34.025  22.909  25.146  1.00  0.00     0.348 HD
ENDBRANCH  13  14
ENDBRANCH   8  13
ENDBRANCH   5   8
ENDBRANCH   3   4
ENDBRANCH   2   3
ENDBRANCH   1   2
BRANCH   1  22
ATOM     22  C   UNL A   1      33.497  28.513  27.221  1.00  0.00     0.116 C 
BRANCH  22  23
ATOM     23  N   UNL A   1      33.433  29.910  27.624  1.00  0.00    -0.352 N 
ATOM     24  C   UNL A   1      34.413  30.724  28.144  1.00  0.00     0.251 C 
ATOM     25  H   UNL A   1      32.553  30.338  27.507  1.00  0.00     0.163 HD
ATOM     26  O   UNL A   1      34.131  31.869  28.487  1.00  0.00    -0.269 OA
BRANCH  24  27
ATOM     27  C   UNL A   1      35.788  30.209  28.331  1.00  0.00     0.039 A 
ATOM     28  C   UNL A   1      36.674  30.257  27.252  1.00  0.00     0.014 A 
ATOM     29  C   UNL A   1      36.212  29.713  29.565  1.00  0.00     0.014 A 
ATOM     30  C   UNL A   1      38.010  29.890  27.438  1.00  0.00     0.010 A 
ATOM     31  C   UNL A   1      37.560  29.428  29.769  1.00  0.00     0.010 A 
ATOM     32  C   UNL A   1      38.475  29.517  28.710  1.00  0.00    -0.014 A 
BRANCH  32  33
ATOM     33  C   UNL A   1      39.917  29.240  28.945  1.00  0.00     0.031 A 
ATOM     34  C   UNL A   1      40.503  27.896  28.598  1.00  0.00     0.074 A 
ATOM     35  C   UNL A   1      40.690  30.184  29.520  1.00  0.00     0.049 A 
ATOM     36  N   UNL A   1      41.736  27.479  28.729  1.00  0.00    -0.248 NA
ATOM     37  C   UNL A   1      39.581  26.882  28.061  1.00  0.00     0.031 C 
ATOM     38  C   UNL A   1      40.229  31.503  29.963  1.00  0.00     0.029 A 
ATOM     39  N   UNL A   1      42.027  30.181  29.829  1.00  0.00    -0.354 N 
ATOM     40  C   UNL A   1      41.734  26.153  28.309  1.00  0.00     0.074 A 
ATOM     41  C   UNL A   1      40.368  25.821  27.970  1.00  0.00     0.031 C 
ATOM     42  C   UNL A   1      41.274  32.196  30.445  1.00  0.00     0.029 A 
ATOM     43  C   UNL A   1      42.470  31.363  30.377  1.00  0.00     0.049 A 
ATOM     44  H   UNL A   1      42.614  29.407  29.675  1.00  0.00     0.167 HD
ATOM     45  C   UNL A   1      42.778  25.297  28.195  1.00  0.00     0.031 A 
ATOM     46  C   UNL A   1      43.702  31.740  30.770  1.00  0.00     0.031 A 
ATOM     47  C   UNL A   1      44.139  25.635  28.514  1.00  0.00     0.049 A 
ATOM     48  C   UNL A   1      44.848  30.779  30.608  1.00  0.00     0.074 A 
ATOM     49  C   UNL A   1      45.276  24.861  28.361  1.00  0.00     0.029 A 
ATOM     50  N   UNL A   1      44.548  26.846  29.048  1.00  0.00    -0.354 N 
ATOM     51  N   UNL A   1      44.838  29.559  30.128  1.00  0.00    -0.248 NA
ATOM     52  C   UNL A   1      46.174  31.254  31.025  1.00  0.00     0.031 C 
ATOM     53  C   UNL A   1      46.368  25.589  28.848  1.00  0.00     0.029 A 
ATOM     54  C   UNL A   1      45.917  26.835  29.253  1.00  0.00     0.049 A 
ATOM     55  H   UNL A   1      43.953  27.604  29.253  1.00  0.00     0.167 HD
ATOM     56  C   UNL A   1      46.161  29.130  30.161  1.00  0.00     0.074 A 
ATOM     57  C   UNL A   1      46.943  30.228  30.691  1.00  0.00     0.031 C 
ATOM     58  C   UNL A   1      46.681  27.934  29.786  1.00  0.00     0.031 A 
BRANCH  45  59
ATOM     59  C   UNL A   1      42.482  23.905  27.698  1.00  0.00    -0.014 A 
ATOM     60  C   UNL A   1      42.299  22.837  28.596  1.00  0.00     0.010 A 
ATOM     61  C   UNL A   1      42.351  23.667  26.317  1.00  0.00     0.010 A 
ATOM     62  C   UNL A   1      42.035  21.550  28.122  1.00  0.00     0.020 A 
ATOM     63  C   UNL A   1      42.059  22.386  25.841  1.00  0.00     0.020 A 
ATOM     64  C   UNL A   1      41.920  21.332  26.746  1.00  0.00     0.054 A 
BRANCH  64  65
ATOM     65  S   UNL A   1      41.554  19.655  26.160  1.00  0.00     0.124 S 
ATOM     66  O   UNL A   1      42.438  19.542  25.002  1.00  0.00    -0.237 OA
ATOM     67  O   UNL A   1      41.914  18.826  27.307  1.00  0.00    -0.237 OA
ATOM     68  O   UNL A   1      40.127  19.699  25.850  1.00  0.00    -0.744 OA
ENDBRANCH  64  65
ENDBRANCH  45  59
BRANCH  46  69
ATOM     69  C   UNL A   1      43.927  33.106  31.318  1.00  0.00    -0.014 A 
ATOM     70  C   UNL A   1      44.129  34.195  30.451  1.00  0.00     0.010 A 
ATOM     71  C   UNL A   1      43.937  33.328  32.706  1.00  0.00     0.010 A 
ATOM     72  C   UNL A   1      44.360  35.476  30.961  1.00  0.00     0.020 A 
ATOM     73  C   UNL A   1      44.140  34.612  33.221  1.00  0.00     0.020 A 
ATOM     74  C   UNL A   1      44.364  35.676  32.345  1.00  0.00     0.054 A 
BRANCH  74  75
ATOM     75  S   UNL A   1      44.620  37.355  32.986  1.00  0.00     0.124 S 
ATOM     76  O   UNL A   1      45.768  37.172  33.866  1.00  0.00    -0.237 OA
ATOM     77  O   UNL A   1      44.869  38.123  31.769  1.00  0.00    -0.237 OA
ATOM     78  O   UNL A   1      43.357  37.659  33.655  1.00  0.00    -0.744 OA
ENDBRANCH  74  75
ENDBRANCH  46  69
BRANCH  58  79
ATOM     79  C   UNL A   1      48.171  27.766  29.909  1.00  0.00    -0.014 A 
ATOM     80  C   UNL A   1      49.037  28.162  28.875  1.00  0.00     0.010 A 
ATOM     81  C   UNL A   1      48.713  27.230  31.091  1.00  0.00     0.010 A 
ATOM     82  C   UNL A   1      50.416  27.983  29.002  1.00  0.00     0.020 A 
ATOM     83  C   UNL A   1      50.094  27.076  31.234  1.00  0.00     0.020 A 
ATOM     84  C   UNL A   1      50.936  27.436  30.180  1.00  0.00     0.054 A 
BRANCH  84  85
ATOM     85  S   UNL A   1      52.732  27.231  30.331  1.00  0.00     0.124 S 
ATOM     86  O   UNL A   1      53.145  28.539  30.833  1.00  0.00    -0.237 OA
ATOM     87  O   UNL A   1      52.851  26.128  31.282  1.00  0.00    -0.237 OA
ATOM     88  O   UNL A   1      53.160  26.921  28.969  1.00  0.00    -0.744 OA
ENDBRANCH  84  85
ENDBRANCH  58  79
ENDBRANCH  32  33
ENDBRANCH  24  27
ENDBRANCH  22  23
ENDBRANCH   1  22
TORSDOF 16
ENDMDL
