MODEL 1
REMARK VINA RESULT:     -10.7      0.000      0.000
REMARK SMILES COc1cccc([C@H]2[NH2+][C@@](CC(C)C)(C(=O)NCCCCNC(=O)c3ccc(-c4c5nc(c(-c6ccc(S(=O)(=O)[O-])cc6)c6ccc([nH]6)c(-c6ccc(S(=O)(=O)[O-])cc6)c6nc(c(-c7ccc(S(=O)(=O)[O-])cc7)c7ccc4[nH]7)C=C6)C=C5)cc3)[C@H]3C(=O)N(C(C)C)C(=O)[C@H]23)c1O
REMARK SMILES IDX 20 1 19 2 18 3 17 4 15 5 16 6 10 8 8 9 9 10 94 11 85 14
REMARK SMILES IDX 92 15 86 16 88 17 93 18 87 19 7 20 3 21 4 22 95 23 5 24 6 25
REMARK SMILES IDX 2 26 1 27 96 28 11 30 12 31 13 32 14 33 89 34 90 35 91 36
REMARK SMILES IDX 21 37 22 38 23 39 24 41 25 42 26 43 84 44 27 45 83 46 28 47
REMARK SMILES IDX 29 48 30 49 77 50 31 51 82 52 76 53 78 54 32 55 81 56 75 57
REMARK SMILES IDX 74 58 33 60 63 61 44 62 62 63 45 64 48 65 61 66 79 67 46 68
REMARK SMILES IDX 47 69 60 71 80 72 49 73 34 74 35 75 43 76 36 77 42 78 37 79
REMARK SMILES IDX 38 80 39 81 40 82 41 83 64 84 65 85 73 86 66 87 72 88 67 89
REMARK SMILES IDX 68 90 69 91 70 92 71 93 50 94 51 95 59 96 52 97 58 98 53 99
REMARK SMILES IDX 54 100 55 101 56 102 57 103
REMARK H PARENT 17 7 9 12 9 13 96 29 22 40 78 59 48 70
REMARK Flexibility Score: inf
ROOT
ATOM      1  C   UNL A   1      35.814  22.945  24.381  1.00  0.00     0.023 C 
ENDROOT
BRANCH   1   2
ATOM      2  C   UNL A   1      34.936  23.760  23.419  1.00  0.00     0.023 C 
BRANCH   2   3
ATOM      3  C   UNL A   1      34.368  25.058  23.987  1.00  0.00     0.116 C 
BRANCH   3   4
ATOM      4  N   UNL A   1      33.630  25.864  23.049  1.00  0.00    -0.351 N 
ATOM      5  C   UNL A   1      32.625  26.761  23.220  1.00  0.00     0.282 C 
ATOM      6  O   UNL A   1      32.460  27.499  22.236  1.00  0.00    -0.268 OA
ATOM      7  H   UNL A   1      33.907  25.743  22.112  1.00  0.00     0.163 HD
BRANCH   5   8
ATOM      8  C   UNL A   1      31.607  26.827  24.440  1.00  0.00     0.189 C 
ATOM      9  C   UNL A   1      30.364  29.008  24.565  1.00  0.00     0.232 C 
ATOM     10  N   UNL A   1      30.393  27.647  23.920  1.00  0.00    -0.326 N 
ATOM     11  C   UNL A   1      31.789  29.162  24.973  1.00  0.00     0.161 C 
ATOM     12  H   UNL A   1      30.468  27.756  22.908  1.00  0.00     0.347 HD
ATOM     13  H   UNL A   1      29.533  27.151  24.156  1.00  0.00     0.347 HD
ATOM     14  C   UNL A   1      32.113  27.785  25.525  1.00  0.00     0.169 C 
ATOM     15  C   UNL A   1      32.309  30.012  26.080  1.00  0.00     0.240 C 
ATOM     16  C   UNL A   1      33.516  28.076  25.982  1.00  0.00     0.240 C 
ATOM     17  N   UNL A   1      33.479  29.380  26.457  1.00  0.00    -0.279 N 
ATOM     18  O   UNL A   1      31.822  31.048  26.509  1.00  0.00    -0.274 OA
ATOM     19  O   UNL A   1      34.439  27.283  26.064  1.00  0.00    -0.274 OA
BRANCH   9  20
ATOM     20  C   UNL A   1      29.712  30.061  23.674  1.00  0.00     0.056 A 
ATOM     21  C   UNL A   1      29.015  31.051  21.523  1.00  0.00     0.161 A 
ATOM     22  C   UNL A   1      28.622  32.211  22.193  1.00  0.00     0.050 A 
ATOM     23  C   UNL A   1      29.540  29.981  22.273  1.00  0.00     0.166 A 
ATOM     24  C   UNL A   1      28.747  32.312  23.574  1.00  0.00     0.005 A 
ATOM     25  C   UNL A   1      29.289  31.252  24.303  1.00  0.00     0.014 A 
BRANCH  21  26
ATOM     26  O   UNL A   1      28.801  31.126  20.172  1.00  0.00    -0.493 OA
ATOM     27  C   UNL A   1      27.867  32.075  19.675  1.00  0.00     0.278 C 
ENDBRANCH  21  26
BRANCH  23  28
ATOM     28  O   UNL A   1      29.858  28.821  21.627  1.00  0.00    -0.504 OA
ATOM     29  H   UNL A   1      29.765  28.761  20.697  1.00  0.00     0.293 HD
ENDBRANCH  23  28
ENDBRANCH   9  20
BRANCH   8  30
ATOM     30  C   UNL A   1      31.003  25.527  25.077  1.00  0.00     0.083 C 
BRANCH  30  31
ATOM     31  C   UNL A   1      31.295  24.091  24.572  1.00  0.00    -0.011 C 
ATOM     32  C   UNL A   1      31.059  22.959  25.556  1.00  0.00     0.007 C 
ATOM     33  C   UNL A   1      30.588  23.784  23.247  1.00  0.00     0.007 C 
ENDBRANCH  30  31
ENDBRANCH   8  30
BRANCH  17  34
ATOM     34  C   UNL A   1      34.554  29.989  27.236  1.00  0.00     0.087 C 
ATOM     35  C   UNL A   1      34.354  31.499  27.357  1.00  0.00     0.031 C 
ATOM     36  C   UNL A   1      34.703  29.341  28.612  1.00  0.00     0.031 C 
ENDBRANCH  17  34
ENDBRANCH   5   8
ENDBRANCH   3   4
ENDBRANCH   2   3
ENDBRANCH   1   2
BRANCH   1  37
ATOM     37  C   UNL A   1      36.996  23.654  25.051  1.00  0.00     0.116 C 
BRANCH  37  38
ATOM     38  N   UNL A   1      38.118  22.783  25.374  1.00  0.00    -0.352 N 
ATOM     39  C   UNL A   1      39.251  23.026  26.119  1.00  0.00     0.251 C 
ATOM     40  H   UNL A   1      38.056  21.875  25.000  1.00  0.00     0.163 HD
ATOM     41  O   UNL A   1      40.093  22.137  26.230  1.00  0.00    -0.269 OA
BRANCH  39  42
ATOM     42  C   UNL A   1      39.498  24.349  26.747  1.00  0.00     0.039 A 
ATOM     43  C   UNL A   1      39.025  24.567  28.046  1.00  0.00     0.014 A 
ATOM     44  C   UNL A   1      40.181  25.372  26.084  1.00  0.00     0.014 A 
ATOM     45  C   UNL A   1      39.322  25.763  28.711  1.00  0.00     0.010 A 
ATOM     46  C   UNL A   1      40.533  26.538  26.771  1.00  0.00     0.010 A 
ATOM     47  C   UNL A   1      40.125  26.739  28.100  1.00  0.00    -0.014 A 
BRANCH  47  48
ATOM     48  C   UNL A   1      40.593  27.932  28.861  1.00  0.00     0.031 A 
ATOM     49  C   UNL A   1      41.952  27.966  29.507  1.00  0.00     0.074 A 
ATOM     50  C   UNL A   1      39.754  28.975  29.033  1.00  0.00     0.049 A 
ATOM     51  N   UNL A   1      42.502  28.916  30.221  1.00  0.00    -0.248 NA
ATOM     52  C   UNL A   1      42.794  26.771  29.350  1.00  0.00     0.031 C 
ATOM     53  C   UNL A   1      38.383  29.054  28.521  1.00  0.00     0.029 A 
ATOM     54  N   UNL A   1      39.926  30.167  29.695  1.00  0.00    -0.354 N 
ATOM     55  C   UNL A   1      43.743  28.428  30.615  1.00  0.00     0.074 A 
ATOM     56  C   UNL A   1      43.848  27.083  30.091  1.00  0.00     0.031 C 
ATOM     57  C   UNL A   1      37.849  30.236  28.867  1.00  0.00     0.029 A 
ATOM     58  C   UNL A   1      38.824  30.989  29.651  1.00  0.00     0.049 A 
ATOM     59  H   UNL A   1      40.760  30.410  30.159  1.00  0.00     0.167 HD
ATOM     60  C   UNL A   1      44.713  29.046  31.334  1.00  0.00     0.031 A 
ATOM     61  C   UNL A   1      38.612  32.211  30.180  1.00  0.00     0.031 A 
ATOM     62  C   UNL A   1      44.619  30.387  31.851  1.00  0.00     0.049 A 
ATOM     63  C   UNL A   1      39.714  32.889  30.944  1.00  0.00     0.074 A 
ATOM     64  C   UNL A   1      45.580  31.118  32.531  1.00  0.00     0.029 A 
ATOM     65  N   UNL A   1      43.500  31.199  31.750  1.00  0.00    -0.354 N 
ATOM     66  N   UNL A   1      40.913  32.442  31.232  1.00  0.00    -0.248 NA
ATOM     67  C   UNL A   1      39.441  34.246  31.437  1.00  0.00     0.031 C 
ATOM     68  C   UNL A   1      45.027  32.355  32.878  1.00  0.00     0.029 A 
ATOM     69  C   UNL A   1      43.739  32.415  32.371  1.00  0.00     0.049 A 
ATOM     70  H   UNL A   1      42.659  30.949  31.304  1.00  0.00     0.167 HD
ATOM     71  C   UNL A   1      41.544  33.470  31.921  1.00  0.00     0.074 A 
ATOM     72  C   UNL A   1      40.601  34.568  31.992  1.00  0.00     0.031 C 
ATOM     73  C   UNL A   1      42.794  33.500  32.446  1.00  0.00     0.031 A 
BRANCH  60  74
ATOM     74  C   UNL A   1      45.971  28.263  31.610  1.00  0.00    -0.014 A 
ATOM     75  C   UNL A   1      47.010  28.202  30.664  1.00  0.00     0.010 A 
ATOM     76  C   UNL A   1      46.128  27.602  32.842  1.00  0.00     0.010 A 
ATOM     77  C   UNL A   1      48.160  27.451  30.923  1.00  0.00     0.020 A 
ATOM     78  C   UNL A   1      47.289  26.872  33.116  1.00  0.00     0.020 A 
ATOM     79  C   UNL A   1      48.289  26.784  32.145  1.00  0.00     0.054 A 
BRANCH  79  80
ATOM     80  S   UNL A   1      49.792  25.817  32.457  1.00  0.00     0.124 S 
ATOM     81  O   UNL A   1      49.248  24.609  33.073  1.00  0.00    -0.237 OA
ATOM     82  O   UNL A   1      50.347  25.642  31.118  1.00  0.00    -0.237 OA
ATOM     83  O   UNL A   1      50.575  26.671  33.346  1.00  0.00    -0.744 OA
ENDBRANCH  79  80
ENDBRANCH  60  74
BRANCH  61  84
ATOM     84  C   UNL A   1      37.301  32.884  29.976  1.00  0.00    -0.014 A 
ATOM     85  C   UNL A   1      36.275  32.751  30.928  1.00  0.00     0.010 A 
ATOM     86  C   UNL A   1      37.082  33.683  28.839  1.00  0.00     0.010 A 
ATOM     87  C   UNL A   1      35.049  33.394  30.742  1.00  0.00     0.020 A 
ATOM     88  C   UNL A   1      35.866  34.348  28.662  1.00  0.00     0.020 A 
ATOM     89  C   UNL A   1      34.853  34.193  29.611  1.00  0.00     0.054 A 
BRANCH  89  90
ATOM     90  S   UNL A   1      33.279  35.077  29.423  1.00  0.00     0.124 S 
ATOM     91  O   UNL A   1      32.707  34.965  30.760  1.00  0.00    -0.237 OA
ATOM     92  O   UNL A   1      33.712  36.415  29.028  1.00  0.00    -0.237 OA
ATOM     93  O   UNL A   1      32.589  34.322  28.378  1.00  0.00    -0.744 OA
ENDBRANCH  89  90
ENDBRANCH  61  84
BRANCH  73  94
ATOM     94  C   UNL A   1      43.227  34.776  33.122  1.00  0.00    -0.014 A 
ATOM     95  C   UNL A   1      42.962  35.005  34.484  1.00  0.00     0.010 A 
ATOM     96  C   UNL A   1      43.929  35.747  32.387  1.00  0.00     0.010 A 
ATOM     97  C   UNL A   1      43.359  36.201  35.089  1.00  0.00     0.020 A 
ATOM     98  C   UNL A   1      44.349  36.933  32.994  1.00  0.00     0.020 A 
ATOM     99  C   UNL A   1      44.044  37.161  34.337  1.00  0.00     0.054 A 
BRANCH  99 100
ATOM    100  S   UNL A   1      44.567  38.699  35.145  1.00  0.00     0.124 S 
ATOM    101  O   UNL A   1      45.967  38.794  34.740  1.00  0.00    -0.237 OA
ATOM    102  O   UNL A   1      43.675  39.694  34.556  1.00  0.00    -0.237 OA
ATOM    103  O   UNL A   1      44.345  38.436  36.566  1.00  0.00    -0.744 OA
ENDBRANCH  99 100
ENDBRANCH  73  94
ENDBRANCH  47  48
ENDBRANCH  39  42
ENDBRANCH  37  38
ENDBRANCH   1  37
TORSDOF 20
ENDMDL
MODEL 2
REMARK VINA RESULT:     -10.7      1.462      4.155
REMARK SMILES COc1cccc([C@H]2[NH2+][C@@](CC(C)C)(C(=O)NCCCCNC(=O)c3ccc(-c4c5nc(c(-c6ccc(S(=O)(=O)[O-])cc6)c6ccc([nH]6)c(-c6ccc(S(=O)(=O)[O-])cc6)c6nc(c(-c7ccc(S(=O)(=O)[O-])cc7)c7ccc4[nH]7)C=C6)C=C5)cc3)[C@H]3C(=O)N(C(C)C)C(=O)[C@H]23)c1O
REMARK SMILES IDX 20 1 19 2 18 3 17 4 15 5 16 6 10 8 8 9 9 10 94 11 85 14
REMARK SMILES IDX 92 15 86 16 88 17 93 18 87 19 7 20 3 21 4 22 95 23 5 24 6 25
REMARK SMILES IDX 2 26 1 27 96 28 11 30 12 31 13 32 14 33 89 34 90 35 91 36
REMARK SMILES IDX 21 37 22 38 23 39 24 41 25 42 26 43 84 44 27 45 83 46 28 47
REMARK SMILES IDX 29 48 30 49 77 50 31 51 82 52 76 53 78 54 32 55 81 56 75 57
REMARK SMILES IDX 74 58 33 60 63 61 44 62 62 63 45 64 48 65 61 66 79 67 46 68
REMARK SMILES IDX 47 69 60 71 80 72 49 73 34 74 35 75 43 76 36 77 42 78 37 79
REMARK SMILES IDX 38 80 39 81 40 82 41 83 64 84 65 85 73 86 66 87 72 88 67 89
REMARK SMILES IDX 68 90 69 91 70 92 71 93 50 94 51 95 59 96 52 97 58 98 53 99
REMARK SMILES IDX 54 100 55 101 56 102 57 103
REMARK H PARENT 17 7 9 12 9 13 96 29 22 40 78 59 48 70
REMARK Flexibility Score: inf
ROOT
ATOM      1  C   UNL A   1      36.102  23.234  24.109  1.00  0.00     0.023 C 
ENDROOT
BRANCH   1   2
ATOM      2  C   UNL A   1      35.049  24.303  23.783  1.00  0.00     0.023 C 
BRANCH   2   3
ATOM      3  C   UNL A   1      34.838  25.369  24.854  1.00  0.00     0.116 C 
BRANCH   3   4
ATOM      4  N   UNL A   1      34.385  26.645  24.366  1.00  0.00    -0.351 N 
ATOM      5  C   UNL A   1      33.488  27.538  24.860  1.00  0.00     0.282 C 
ATOM      6  O   UNL A   1      33.593  28.664  24.351  1.00  0.00    -0.268 OA
ATOM      7  H   UNL A   1      34.802  26.922  23.518  1.00  0.00     0.163 HD
BRANCH   5   8
ATOM      8  C   UNL A   1      32.290  27.227  25.860  1.00  0.00     0.189 C 
ATOM      9  C   UNL A   1      31.085  25.090  25.313  1.00  0.00     0.232 C 
ATOM     10  N   UNL A   1      32.278  25.681  26.019  1.00  0.00    -0.326 N 
ATOM     11  C   UNL A   1      30.772  26.166  24.330  1.00  0.00     0.161 C 
ATOM     12  H   UNL A   1      33.132  25.293  25.617  1.00  0.00     0.347 HD
ATOM     13  H   UNL A   1      32.222  25.451  27.012  1.00  0.00     0.347 HD
ATOM     14  C   UNL A   1      30.936  27.422  25.169  1.00  0.00     0.169 C 
ATOM     15  C   UNL A   1      29.449  26.442  23.708  1.00  0.00     0.240 C 
ATOM     16  C   UNL A   1      30.515  28.417  24.124  1.00  0.00     0.240 C 
ATOM     17  N   UNL A   1      29.498  27.792  23.416  1.00  0.00    -0.279 N 
ATOM     18  O   UNL A   1      28.556  25.639  23.478  1.00  0.00    -0.274 OA
ATOM     19  O   UNL A   1      30.880  29.577  24.030  1.00  0.00    -0.274 OA
BRANCH   9  20
ATOM     20  C   UNL A   1      31.342  23.667  24.825  1.00  0.00     0.056 A 
ATOM     21  C   UNL A   1      31.865  21.271  25.094  1.00  0.00     0.161 A 
ATOM     22  C   UNL A   1      31.973  21.147  23.707  1.00  0.00     0.050 A 
ATOM     23  C   UNL A   1      31.533  22.526  25.638  1.00  0.00     0.166 A 
ATOM     24  C   UNL A   1      31.760  22.241  22.877  1.00  0.00     0.005 A 
ATOM     25  C   UNL A   1      31.453  23.485  23.430  1.00  0.00     0.014 A 
BRANCH  21  26
ATOM     26  O   UNL A   1      32.090  20.087  25.747  1.00  0.00    -0.493 OA
ATOM     27  C   UNL A   1      32.671  19.006  25.031  1.00  0.00     0.278 C 
ENDBRANCH  21  26
BRANCH  23  28
ATOM     28  O   UNL A   1      31.357  22.631  26.988  1.00  0.00    -0.504 OA
ATOM     29  H   UNL A   1      30.647  23.136  27.330  1.00  0.00     0.293 HD
ENDBRANCH  23  28
ENDBRANCH   9  20
BRANCH   8  30
ATOM     30  C   UNL A   1      32.265  27.806  27.317  1.00  0.00     0.083 C 
BRANCH  30  31
ATOM     31  C   UNL A   1      32.913  29.152  27.732  1.00  0.00    -0.011 C 
ATOM     32  C   UNL A   1      34.425  29.243  27.631  1.00  0.00     0.007 C 
ATOM     33  C   UNL A   1      32.271  30.352  27.025  1.00  0.00     0.007 C 
ENDBRANCH  30  31
ENDBRANCH   8  30
BRANCH  17  34
ATOM     34  C   UNL A   1      28.621  28.486  22.477  1.00  0.00     0.087 C 
ATOM     35  C   UNL A   1      27.315  28.901  23.153  1.00  0.00     0.031 C 
ATOM     36  C   UNL A   1      29.310  29.686  21.827  1.00  0.00     0.031 C 
ENDBRANCH  17  34
ENDBRANCH   5   8
ENDBRANCH   3   4
ENDBRANCH   2   3
ENDBRANCH   1   2
BRANCH   1  37
ATOM     37  C   UNL A   1      36.787  23.295  25.480  1.00  0.00     0.116 C 
BRANCH  37  38
ATOM     38  N   UNL A   1      38.017  22.521  25.575  1.00  0.00    -0.352 N 
ATOM     39  C   UNL A   1      39.242  22.852  26.110  1.00  0.00     0.251 C 
ATOM     40  H   UNL A   1      37.963  21.613  25.197  1.00  0.00     0.163 HD
ATOM     41  O   UNL A   1      40.161  22.038  26.045  1.00  0.00    -0.269 OA
BRANCH  39  42
ATOM     42  C   UNL A   1      39.489  24.187  26.713  1.00  0.00     0.039 A 
ATOM     43  C   UNL A   1      39.030  24.423  28.014  1.00  0.00     0.014 A 
ATOM     44  C   UNL A   1      40.158  25.204  26.027  1.00  0.00     0.014 A 
ATOM     45  C   UNL A   1      39.328  25.630  28.657  1.00  0.00     0.010 A 
ATOM     46  C   UNL A   1      40.511  26.381  26.691  1.00  0.00     0.010 A 
ATOM     47  C   UNL A   1      40.119  26.601  28.021  1.00  0.00    -0.014 A 
BRANCH  47  48
ATOM     48  C   UNL A   1      40.588  27.809  28.758  1.00  0.00     0.031 A 
ATOM     49  C   UNL A   1      41.950  27.856  29.397  1.00  0.00     0.074 A 
ATOM     50  C   UNL A   1      39.748  28.854  28.916  1.00  0.00     0.049 A 
ATOM     51  N   UNL A   1      42.502  28.819  30.091  1.00  0.00    -0.248 NA
ATOM     52  C   UNL A   1      42.793  26.659  29.258  1.00  0.00     0.031 C 
ATOM     53  C   UNL A   1      38.375  28.921  28.408  1.00  0.00     0.029 A 
ATOM     54  N   UNL A   1      39.922  30.058  29.555  1.00  0.00    -0.354 N 
ATOM     55  C   UNL A   1      43.746  28.341  30.488  1.00  0.00     0.074 A 
ATOM     56  C   UNL A   1      43.849  26.986  29.989  1.00  0.00     0.031 C 
ATOM     57  C   UNL A   1      37.842  30.109  28.735  1.00  0.00     0.029 A 
ATOM     58  C   UNL A   1      38.819  30.878  29.501  1.00  0.00     0.049 A 
ATOM     59  H   UNL A   1      40.758  30.310  30.009  1.00  0.00     0.167 HD
ATOM     60  C   UNL A   1      44.719  28.972  31.191  1.00  0.00     0.031 A 
ATOM     61  C   UNL A   1      38.608  32.109  30.008  1.00  0.00     0.031 A 
ATOM     62  C   UNL A   1      44.625  30.323  31.683  1.00  0.00     0.049 A 
ATOM     63  C   UNL A   1      39.713  32.802  30.754  1.00  0.00     0.074 A 
ATOM     64  C   UNL A   1      45.588  31.067  32.346  1.00  0.00     0.029 A 
ATOM     65  N   UNL A   1      43.505  31.132  31.573  1.00  0.00    -0.354 N 
ATOM     66  N   UNL A   1      40.913  32.361  31.044  1.00  0.00    -0.248 NA
ATOM     67  C   UNL A   1      39.440  34.168  31.223  1.00  0.00     0.031 C 
ATOM     68  C   UNL A   1      45.035  32.310  32.672  1.00  0.00     0.029 A 
ATOM     69  C   UNL A   1      43.745  32.359  32.171  1.00  0.00     0.049 A 
ATOM     70  H   UNL A   1      42.662  30.872  31.136  1.00  0.00     0.167 HD
ATOM     71  C   UNL A   1      41.547  33.403  31.712  1.00  0.00     0.074 A 
ATOM     72  C   UNL A   1      40.603  34.501  31.766  1.00  0.00     0.031 C 
ATOM     73  C   UNL A   1      42.799  33.444  32.230  1.00  0.00     0.031 A 
BRANCH  60  74
ATOM     74  C   UNL A   1      45.978  28.196  31.475  1.00  0.00    -0.014 A 
ATOM     75  C   UNL A   1      46.063  27.328  32.579  1.00  0.00     0.010 A 
ATOM     76  C   UNL A   1      47.084  28.314  30.612  1.00  0.00     0.010 A 
ATOM     77  C   UNL A   1      47.247  26.634  32.844  1.00  0.00     0.020 A 
ATOM     78  C   UNL A   1      48.260  27.601  30.859  1.00  0.00     0.020 A 
ATOM     79  C   UNL A   1      48.341  26.781  31.987  1.00  0.00     0.054 A 
BRANCH  79  80
ATOM     80  S   UNL A   1      49.865  25.868  32.353  1.00  0.00     0.124 S 
ATOM     81  O   UNL A   1      50.871  26.925  32.287  1.00  0.00    -0.237 OA
ATOM     82  O   UNL A   1      49.608  25.331  33.687  1.00  0.00    -0.237 OA
ATOM     83  O   UNL A   1      49.937  24.872  31.287  1.00  0.00    -0.744 OA
ENDBRANCH  79  80
ENDBRANCH  60  74
BRANCH  61  84
ATOM     84  C   UNL A   1      37.296  32.776  29.797  1.00  0.00    -0.014 A 
ATOM     85  C   UNL A   1      36.308  32.739  30.798  1.00  0.00     0.010 A 
ATOM     86  C   UNL A   1      37.036  33.474  28.604  1.00  0.00     0.010 A 
ATOM     87  C   UNL A   1      35.081  33.379  30.604  1.00  0.00     0.020 A 
ATOM     88  C   UNL A   1      35.819  34.136  28.417  1.00  0.00     0.020 A 
ATOM     89  C   UNL A   1      34.846  34.076  29.416  1.00  0.00     0.054 A 
BRANCH  89  90
ATOM     90  S   UNL A   1      33.272  34.958  29.214  1.00  0.00     0.124 S 
ATOM     91  O   UNL A   1      33.715  36.260  28.725  1.00  0.00    -0.237 OA
ATOM     92  O   UNL A   1      32.564  34.125  28.245  1.00  0.00    -0.237 OA
ATOM     93  O   UNL A   1      32.704  34.951  30.560  1.00  0.00    -0.744 OA
ENDBRANCH  89  90
ENDBRANCH  61  84
BRANCH  73  94
ATOM     94  C   UNL A   1      43.233  34.732  32.880  1.00  0.00    -0.014 A 
ATOM     95  C   UNL A   1      42.981  34.983  34.240  1.00  0.00     0.010 A 
ATOM     96  C   UNL A   1      43.926  35.693  32.122  1.00  0.00     0.010 A 
ATOM     97  C   UNL A   1      43.378  36.191  34.822  1.00  0.00     0.020 A 
ATOM     98  C   UNL A   1      44.347  36.891  32.706  1.00  0.00     0.020 A 
ATOM     99  C   UNL A   1      44.054  37.141  34.048  1.00  0.00     0.054 A 
BRANCH  99 100
ATOM    100  S   UNL A   1      44.578  38.694  34.825  1.00  0.00     0.124 S 
ATOM    101  O   UNL A   1      44.595  38.334  36.241  1.00  0.00    -0.237 OA
ATOM    102  O   UNL A   1      45.888  38.931  34.223  1.00  0.00    -0.237 OA
ATOM    103  O   UNL A   1      43.540  39.644  34.435  1.00  0.00    -0.744 OA
ENDBRANCH  99 100
ENDBRANCH  73  94
ENDBRANCH  47  48
ENDBRANCH  39  42
ENDBRANCH  37  38
ENDBRANCH   1  37
TORSDOF 20
ENDMDL
MODEL 3
REMARK VINA RESULT:     -10.2      1.958      2.558
REMARK SMILES COc1cccc([C@H]2[NH2+][C@@](CC(C)C)(C(=O)NCCCCNC(=O)c3ccc(-c4c5nc(c(-c6ccc(S(=O)(=O)[O-])cc6)c6ccc([nH]6)c(-c6ccc(S(=O)(=O)[O-])cc6)c6nc(c(-c7ccc(S(=O)(=O)[O-])cc7)c7ccc4[nH]7)C=C6)C=C5)cc3)[C@H]3C(=O)N(C(C)C)C(=O)[C@H]23)c1O
REMARK SMILES IDX 20 1 19 2 18 3 17 4 15 5 16 6 10 8 8 9 9 10 94 11 85 14
REMARK SMILES IDX 92 15 86 16 88 17 93 18 87 19 7 20 3 21 4 22 95 23 5 24 6 25
REMARK SMILES IDX 2 26 1 27 96 28 11 30 12 31 13 32 14 33 89 34 90 35 91 36
REMARK SMILES IDX 21 37 22 38 23 39 24 41 25 42 26 43 84 44 27 45 83 46 28 47
REMARK SMILES IDX 29 48 30 49 77 50 31 51 82 52 76 53 78 54 32 55 81 56 75 57
REMARK SMILES IDX 74 58 33 60 63 61 44 62 62 63 45 64 48 65 61 66 79 67 46 68
REMARK SMILES IDX 47 69 60 71 80 72 49 73 34 74 35 75 43 76 36 77 42 78 37 79
REMARK SMILES IDX 38 80 39 81 40 82 41 83 64 84 65 85 73 86 66 87 72 88 67 89
REMARK SMILES IDX 68 90 69 91 70 92 71 93 50 94 51 95 59 96 52 97 58 98 53 99
REMARK SMILES IDX 54 100 55 101 56 102 57 103
REMARK H PARENT 17 7 9 12 9 13 96 29 22 40 78 59 48 70
REMARK Flexibility Score: inf
ROOT
ATOM      1  C   UNL A   1      35.722  23.692  24.917  1.00  0.00     0.023 C 
ENDROOT
BRANCH   1   2
ATOM      2  C   UNL A   1      34.864  24.967  24.900  1.00  0.00     0.023 C 
BRANCH   2   3
ATOM      3  C   UNL A   1      34.066  25.205  23.620  1.00  0.00     0.116 C 
BRANCH   3   4
ATOM      4  N   UNL A   1      33.901  26.587  23.252  1.00  0.00    -0.351 N 
ATOM      5  C   UNL A   1      33.296  27.627  23.884  1.00  0.00     0.282 C 
ATOM      6  O   UNL A   1      33.632  28.732  23.431  1.00  0.00    -0.268 OA
ATOM      7  H   UNL A   1      34.302  26.822  22.384  1.00  0.00     0.163 HD
BRANCH   5   8
ATOM      8  C   UNL A   1      32.146  27.534  24.979  1.00  0.00     0.189 C 
ATOM      9  C   UNL A   1      30.521  29.449  24.859  1.00  0.00     0.232 C 
ATOM     10  N   UNL A   1      30.874  28.100  24.288  1.00  0.00    -0.326 N 
ATOM     11  C   UNL A   1      31.837  29.877  25.416  1.00  0.00     0.161 C 
ATOM     12  H   UNL A   1      31.047  28.194  23.287  1.00  0.00     0.347 HD
ATOM     13  H   UNL A   1      30.097  27.459  24.450  1.00  0.00     0.347 HD
ATOM     14  C   UNL A   1      32.338  28.598  26.066  1.00  0.00     0.169 C 
ATOM     15  C   UNL A   1      32.059  30.837  26.531  1.00  0.00     0.240 C 
ATOM     16  C   UNL A   1      33.600  29.158  26.661  1.00  0.00     0.240 C 
ATOM     17  N   UNL A   1      33.271  30.444  27.067  1.00  0.00    -0.279 N 
ATOM     18  O   UNL A   1      31.344  31.775  26.854  1.00  0.00    -0.274 OA
ATOM     19  O   UNL A   1      34.635  28.553  26.884  1.00  0.00    -0.274 OA
BRANCH   9  20
ATOM     20  C   UNL A   1      29.799  30.339  23.852  1.00  0.00     0.056 A 
ATOM     21  C   UNL A   1      28.818  30.891  21.656  1.00  0.00     0.161 A 
ATOM     22  C   UNL A   1      28.618  32.205  22.084  1.00  0.00     0.050 A 
ATOM     23  C   UNL A   1      29.390  29.966  22.550  1.00  0.00     0.166 A 
ATOM     24  C   UNL A   1      28.979  32.597  23.368  1.00  0.00     0.005 A 
ATOM     25  C   UNL A   1      29.566  31.676  24.238  1.00  0.00     0.014 A 
BRANCH  21  26
ATOM     26  O   UNL A   1      28.385  30.685  20.372  1.00  0.00    -0.493 OA
ATOM     27  C   UNL A   1      27.788  31.764  19.666  1.00  0.00     0.278 C 
ENDBRANCH  21  26
BRANCH  23  28
ATOM     28  O   UNL A   1      29.519  28.666  22.157  1.00  0.00    -0.504 OA
ATOM     29  H   UNL A   1      29.861  28.027  22.751  1.00  0.00     0.293 HD
ENDBRANCH  23  28
ENDBRANCH   9  20
BRANCH   8  30
ATOM     30  C   UNL A   1      31.717  26.163  25.606  1.00  0.00     0.083 C 
BRANCH  30  31
ATOM     31  C   UNL A   1      30.516  25.315  25.113  1.00  0.00    -0.011 C 
ATOM     32  C   UNL A   1      30.827  23.919  24.605  1.00  0.00     0.007 C 
ATOM     33  C   UNL A   1      29.383  25.254  26.145  1.00  0.00     0.007 C 
ENDBRANCH  30  31
ENDBRANCH   8  30
BRANCH  17  34
ATOM     34  C   UNL A   1      34.118  31.262  27.930  1.00  0.00     0.087 C 
ATOM     35  C   UNL A   1      35.597  31.020  27.633  1.00  0.00     0.031 C 
ATOM     36  C   UNL A   1      33.774  32.748  27.832  1.00  0.00     0.031 C 
ENDBRANCH  17  34
ENDBRANCH   5   8
ENDBRANCH   3   4
ENDBRANCH   2   3
ENDBRANCH   1   2
BRANCH   1  37
ATOM     37  C   UNL A   1      36.391  23.295  26.238  1.00  0.00     0.116 C 
BRANCH  37  38
ATOM     38  N   UNL A   1      37.567  22.449  26.088  1.00  0.00    -0.352 N 
ATOM     39  C   UNL A   1      38.900  22.726  26.297  1.00  0.00     0.251 C 
ATOM     40  H   UNL A   1      37.378  21.530  25.789  1.00  0.00     0.163 HD
ATOM     41  O   UNL A   1      39.734  21.853  26.068  1.00  0.00    -0.269 OA
BRANCH  39  42
ATOM     42  C   UNL A   1      39.351  24.069  26.744  1.00  0.00     0.039 A 
ATOM     43  C   UNL A   1      39.247  24.387  28.103  1.00  0.00     0.014 A 
ATOM     44  C   UNL A   1      39.870  25.015  25.856  1.00  0.00     0.014 A 
ATOM     45  C   UNL A   1      39.752  25.602  28.582  1.00  0.00     0.010 A 
ATOM     46  C   UNL A   1      40.433  26.198  26.344  1.00  0.00     0.010 A 
ATOM     47  C   UNL A   1      40.399  26.497  27.715  1.00  0.00    -0.014 A 
BRANCH  47  48
ATOM     48  C   UNL A   1      41.094  27.706  28.242  1.00  0.00     0.031 A 
ATOM     49  C   UNL A   1      42.595  27.814  28.230  1.00  0.00     0.074 A 
ATOM     50  C   UNL A   1      40.365  28.693  28.804  1.00  0.00     0.049 A 
ATOM     51  N   UNL A   1      43.355  28.785  28.670  1.00  0.00    -0.248 NA
ATOM     52  C   UNL A   1      43.340  26.674  27.675  1.00  0.00     0.031 C 
ATOM     53  C   UNL A   1      38.906  28.695  28.944  1.00  0.00     0.029 A 
ATOM     54  N   UNL A   1      40.751  29.884  29.371  1.00  0.00    -0.354 N 
ATOM     55  C   UNL A   1      44.665  28.369  28.464  1.00  0.00     0.074 A 
ATOM     56  C   UNL A   1      44.596  27.040  27.894  1.00  0.00     0.031 C 
ATOM     57  C   UNL A   1      38.521  29.837  29.535  1.00  0.00     0.029 A 
ATOM     58  C   UNL A   1      39.703  30.638  29.844  1.00  0.00     0.049 A 
ATOM     59  H   UNL A   1      41.690  30.171  29.433  1.00  0.00     0.167 HD
ATOM     60  C   UNL A   1      45.821  29.035  28.711  1.00  0.00     0.031 A 
ATOM     61  C   UNL A   1      39.684  31.837  30.459  1.00  0.00     0.031 A 
ATOM     62  C   UNL A   1      45.897  30.361  29.268  1.00  0.00     0.049 A 
ATOM     63  C   UNL A   1      40.975  32.570  30.691  1.00  0.00     0.074 A 
ATOM     64  C   UNL A   1      47.022  31.139  29.489  1.00  0.00     0.029 A 
ATOM     65  N   UNL A   1      44.809  31.104  29.698  1.00  0.00    -0.354 N 
ATOM     66  N   UNL A   1      42.198  32.193  30.410  1.00  0.00    -0.248 NA
ATOM     67  C   UNL A   1      40.879  33.902  31.307  1.00  0.00     0.031 C 
ATOM     68  C   UNL A   1      46.617  32.336  30.091  1.00  0.00     0.029 A 
ATOM     69  C   UNL A   1      45.236  32.323  30.200  1.00  0.00     0.049 A 
ATOM     70  H   UNL A   1      43.871  30.809  29.654  1.00  0.00     0.167 HD
ATOM     71  C   UNL A   1      43.017  33.249  30.794  1.00  0.00     0.074 A 
ATOM     72  C   UNL A   1      42.148  34.286  31.312  1.00  0.00     0.031 C 
ATOM     73  C   UNL A   1      44.368  33.348  30.722  1.00  0.00     0.031 A 
BRANCH  60  74
ATOM     74  C   UNL A   1      47.109  28.327  28.379  1.00  0.00    -0.014 A 
ATOM     75  C   UNL A   1      47.707  28.461  27.113  1.00  0.00     0.010 A 
ATOM     76  C   UNL A   1      47.746  27.538  29.355  1.00  0.00     0.010 A 
ATOM     77  C   UNL A   1      48.888  27.778  26.811  1.00  0.00     0.020 A 
ATOM     78  C   UNL A   1      48.942  26.874  29.066  1.00  0.00     0.020 A 
ATOM     79  C   UNL A   1      49.494  26.982  27.788  1.00  0.00     0.054 A 
BRANCH  79  80
ATOM     80  S   UNL A   1      51.028  26.107  27.371  1.00  0.00     0.124 S 
ATOM     81  O   UNL A   1      51.344  26.666  26.058  1.00  0.00    -0.237 OA
ATOM     82  O   UNL A   1      51.928  26.499  28.452  1.00  0.00    -0.237 OA
ATOM     83  O   UNL A   1      50.635  24.700  27.370  1.00  0.00    -0.744 OA
ENDBRANCH  79  80
ENDBRANCH  60  74
BRANCH  61  84
ATOM     84  C   UNL A   1      38.385  32.431  30.874  1.00  0.00    -0.014 A 
ATOM     85  C   UNL A   1      37.605  33.155  29.955  1.00  0.00     0.010 A 
ATOM     86  C   UNL A   1      37.909  32.255  32.186  1.00  0.00     0.010 A 
ATOM     87  C   UNL A   1      36.379  33.701  30.343  1.00  0.00     0.020 A 
ATOM     88  C   UNL A   1      36.672  32.778  32.570  1.00  0.00     0.020 A 
ATOM     89  C   UNL A   1      35.918  33.505  31.648  1.00  0.00     0.054 A 
BRANCH  89  90
ATOM     90  S   UNL A   1      34.291  34.163  32.111  1.00  0.00     0.124 S 
ATOM     91  O   UNL A   1      33.758  34.591  30.822  1.00  0.00    -0.237 OA
ATOM     92  O   UNL A   1      33.639  33.001  32.713  1.00  0.00    -0.237 OA
ATOM     93  O   UNL A   1      34.613  35.238  33.047  1.00  0.00    -0.744 OA
ENDBRANCH  89  90
ENDBRANCH  61  84
BRANCH  73  94
ATOM     94  C   UNL A   1      44.989  34.638  31.190  1.00  0.00    -0.014 A 
ATOM     95  C   UNL A   1      45.168  35.722  30.312  1.00  0.00     0.010 A 
ATOM     96  C   UNL A   1      45.376  34.774  32.535  1.00  0.00     0.010 A 
ATOM     97  C   UNL A   1      45.760  36.905  30.762  1.00  0.00     0.020 A 
ATOM     98  C   UNL A   1      45.946  35.964  32.995  1.00  0.00     0.020 A 
ATOM     99  C   UNL A   1      46.152  37.017  32.100  1.00  0.00     0.054 A 
BRANCH  99 100
ATOM    100  S   UNL A   1      46.901  38.568  32.670  1.00  0.00     0.124 S 
ATOM    101  O   UNL A   1      47.410  38.194  33.986  1.00  0.00    -0.237 OA
ATOM    102  O   UNL A   1      47.918  38.828  31.654  1.00  0.00    -0.237 OA
ATOM    103  O   UNL A   1      45.783  39.509  32.677  1.00  0.00    -0.744 OA
ENDBRANCH  99 100
ENDBRANCH  73  94
ENDBRANCH  47  48
ENDBRANCH  39  42
ENDBRANCH  37  38
ENDBRANCH   1  37
TORSDOF 20
ENDMDL
