MODEL 1
REMARK VINA RESULT:     -12.5      0.000      0.000
REMARK SMILES [NH3+][C@@H](Cc1cn(-c2nc(Cl)nc(N3CCOCC3)n2)c2ccccc12)C(=O)NCCCCNC(=O)c1ccc(-c2c3nc(c(-c4ccc(S(=O)(=O)[O-])cc4)c4ccc([nH]4)c(-c4ccc(S(=O)(=O)[O-])cc4)c4nc(c(-c5ccc(S(=O)(=O)[O-])cc5)c5ccc2[nH]5)C=C4)C=C3)cc1
REMARK SMILES IDX 30 1 29 2 28 3 26 4 27 5 2 7 1 8 3 12 4 13 5 14 25 15 6 16
REMARK SMILES IDX 20 17 24 18 21 19 23 20 22 21 7 22 8 23 19 24 9 25 12 26
REMARK SMILES IDX 10 27 11 28 13 29 14 30 18 31 15 32 17 33 16 34 31 35 32 36
REMARK SMILES IDX 33 37 34 38 35 40 36 41 37 42 95 43 38 44 94 45 39 46 40 47
REMARK SMILES IDX 41 48 88 49 42 50 93 51 87 52 89 53 43 54 92 55 86 56 85 57
REMARK SMILES IDX 44 59 74 60 55 61 73 62 56 63 59 64 72 65 90 66 57 67 58 68
REMARK SMILES IDX 71 70 91 71 60 72 45 73 46 74 54 75 47 76 53 77 48 78 49 79
REMARK SMILES IDX 50 80 51 81 52 82 75 83 76 84 84 85 77 86 83 87 78 88 79 89
REMARK SMILES IDX 80 90 81 91 82 92 61 93 62 94 70 95 63 96 69 97 64 98 65 99
REMARK SMILES IDX 66 100 67 101 68 102
REMARK H PARENT 28 6 1 9 1 10 1 11 33 39 89 58 59 69
REMARK Flexibility Score: inf
ROOT
ATOM      1  C   UNL A   1      33.789  29.427  25.671  1.00  0.00     0.023 C 
ENDROOT
BRANCH   1   2
ATOM      2  C   UNL A   1      32.338  29.911  25.663  1.00  0.00     0.116 C 
BRANCH   2   3
ATOM      3  N   UNL A   1      31.534  29.459  24.550  1.00  0.00    -0.351 N 
ATOM      4  C   UNL A   1      30.704  28.367  24.540  1.00  0.00     0.278 C 
ATOM      5  O   UNL A   1      29.721  28.390  23.792  1.00  0.00    -0.268 OA
ATOM      6  H   UNL A   1      31.587  29.986  23.720  1.00  0.00     0.163 HD
BRANCH   4   7
ATOM      7  C   UNL A   1      31.000  27.117  25.407  1.00  0.00     0.275 C 
BRANCH   7   8
ATOM      8  N   UNL A   1      31.018  27.416  26.862  1.00  0.00    -0.347 N 
ATOM      9  H   UNL A   1      31.065  28.425  27.001  1.00  0.00     0.345 HD
ATOM     10  H   UNL A   1      31.832  26.974  27.290  1.00  0.00     0.345 HD
ATOM     11  H   UNL A   1      30.168  27.053  27.294  1.00  0.00     0.345 HD
ENDBRANCH   7   8
BRANCH   7  12
ATOM     12  C   UNL A   1      30.254  25.827  24.998  1.00  0.00     0.113 C 
BRANCH  12  13
ATOM     13  C   UNL A   1      30.976  24.832  24.134  1.00  0.00    -0.015 A 
ATOM     14  C   UNL A   1      31.249  23.522  24.475  1.00  0.00     0.099 A 
ATOM     15  C   UNL A   1      31.523  25.026  22.826  1.00  0.00     0.004 A 
ATOM     16  N   UNL A   1      32.022  22.923  23.493  1.00  0.00    -0.285 N 
ATOM     17  C   UNL A   1      32.206  23.851  22.466  1.00  0.00     0.056 A 
ATOM     18  C   UNL A   1      31.554  26.134  21.947  1.00  0.00     0.010 A 
ATOM     19  C   UNL A   1      32.943  23.782  21.268  1.00  0.00     0.027 A 
ATOM     20  C   UNL A   1      32.290  26.068  20.762  1.00  0.00     0.001 A 
ATOM     21  C   UNL A   1      32.982  24.909  20.435  1.00  0.00     0.002 A 
BRANCH  16  22
ATOM     22  C   UNL A   1      32.845  21.783  23.783  1.00  0.00     0.240 A 
ATOM     23  N   UNL A   1      33.927  22.078  24.501  1.00  0.00    -0.181 NA
ATOM     24  N   UNL A   1      32.322  20.545  23.680  1.00  0.00    -0.176 NA
ATOM     25  C   UNL A   1      34.571  21.025  24.949  1.00  0.00     0.228 A 
ATOM     26  C   UNL A   1      33.053  19.563  24.228  1.00  0.00     0.231 A 
ATOM     27  Cl  UNL A   1      35.782  21.280  26.127  1.00  0.00    -0.041 Cl
ATOM     28  N   UNL A   1      34.219  19.773  24.812  1.00  0.00    -0.182 NA
BRANCH  26  29
ATOM     29  N   UNL A   1      32.598  18.265  24.333  1.00  0.00    -0.336 N 
ATOM     30  C   UNL A   1      32.740  17.483  25.555  1.00  0.00     0.148 C 
ATOM     31  C   UNL A   1      32.669  17.449  23.102  1.00  0.00     0.148 C 
ATOM     32  C   UNL A   1      33.999  16.598  25.478  1.00  0.00     0.181 C 
ATOM     33  C   UNL A   1      33.991  16.665  23.109  1.00  0.00     0.181 C 
ATOM     34  O   UNL A   1      34.057  15.815  24.269  1.00  0.00    -0.378 OA
ENDBRANCH  26  29
ENDBRANCH  16  22
ENDBRANCH  12  13
ENDBRANCH   7  12
ENDBRANCH   4   7
ENDBRANCH   2   3
ENDBRANCH   1   2
BRANCH   1  35
ATOM     35  C   UNL A   1      34.632  29.958  26.835  1.00  0.00     0.023 C 
BRANCH  35  36
ATOM     36  C   UNL A   1      33.791  30.525  27.971  1.00  0.00     0.116 C 
BRANCH  36  37
ATOM     37  N   UNL A   1      34.295  31.663  28.685  1.00  0.00    -0.352 N 
ATOM     38  C   UNL A   1      35.611  32.029  28.425  1.00  0.00     0.251 C 
ATOM     39  H   UNL A   1      33.737  32.160  29.326  1.00  0.00     0.163 HD
ATOM     40  O   UNL A   1      35.910  32.884  27.617  1.00  0.00    -0.269 OA
BRANCH  38  41
ATOM     41  C   UNL A   1      36.613  31.469  29.361  1.00  0.00     0.039 A 
ATOM     42  C   UNL A   1      37.911  31.970  29.415  1.00  0.00     0.014 A 
ATOM     43  C   UNL A   1      36.291  30.244  29.957  1.00  0.00     0.014 A 
ATOM     44  C   UNL A   1      38.928  31.138  29.822  1.00  0.00     0.010 A 
ATOM     45  C   UNL A   1      37.315  29.412  30.386  1.00  0.00     0.010 A 
ATOM     46  C   UNL A   1      38.634  29.819  30.187  1.00  0.00    -0.014 A 
BRANCH  46  47
ATOM     47  C   UNL A   1      39.768  28.901  30.131  1.00  0.00     0.031 A 
ATOM     48  C   UNL A   1      40.599  28.793  31.358  1.00  0.00     0.074 A 
ATOM     49  C   UNL A   1      40.167  28.303  28.991  1.00  0.00     0.049 A 
ATOM     50  N   UNL A   1      41.818  29.193  31.534  1.00  0.00    -0.248 NA
ATOM     51  C   UNL A   1      39.946  28.271  32.562  1.00  0.00     0.031 C 
ATOM     52  C   UNL A   1      39.435  28.119  27.734  1.00  0.00     0.029 A 
ATOM     53  N   UNL A   1      41.344  27.659  28.760  1.00  0.00    -0.354 N 
ATOM     54  C   UNL A   1      42.146  28.853  32.841  1.00  0.00     0.074 A 
ATOM     55  C   UNL A   1      40.931  28.371  33.455  1.00  0.00     0.031 C 
ATOM     56  C   UNL A   1      40.084  27.212  26.973  1.00  0.00     0.029 A 
ATOM     57  C   UNL A   1      41.348  26.894  27.610  1.00  0.00     0.049 A 
ATOM     58  H   UNL A   1      42.124  27.734  29.359  1.00  0.00     0.167 HD
ATOM     59  C   UNL A   1      43.422  28.869  33.318  1.00  0.00     0.031 A 
ATOM     60  C   UNL A   1      42.291  25.995  27.248  1.00  0.00     0.031 A 
ATOM     61  C   UNL A   1      44.313  29.646  32.506  1.00  0.00     0.049 A 
ATOM     62  C   UNL A   1      43.554  26.369  27.926  1.00  0.00     0.074 A 
ATOM     63  C   UNL A   1      44.436  30.988  32.207  1.00  0.00     0.029 A 
ATOM     64  N   UNL A   1      45.112  28.984  31.606  1.00  0.00    -0.354 N 
ATOM     65  N   UNL A   1      44.237  27.443  27.647  1.00  0.00    -0.248 NA
ATOM     66  C   UNL A   1      43.893  25.726  29.186  1.00  0.00     0.031 C 
ATOM     67  C   UNL A   1      44.947  31.034  30.880  1.00  0.00     0.029 A 
ATOM     68  C   UNL A   1      45.116  29.717  30.445  1.00  0.00     0.049 A 
ATOM     69  H   UNL A   1      45.592  28.139  31.765  1.00  0.00     0.167 HD
ATOM     70  C   UNL A   1      44.800  27.835  28.852  1.00  0.00     0.074 A 
ATOM     71  C   UNL A   1      44.656  26.678  29.728  1.00  0.00     0.031 C 
ATOM     72  C   UNL A   1      45.092  29.144  29.111  1.00  0.00     0.031 A 
BRANCH  59  73
ATOM     73  C   UNL A   1      43.904  27.960  34.417  1.00  0.00    -0.014 A 
ATOM     74  C   UNL A   1      44.876  28.370  35.353  1.00  0.00     0.010 A 
ATOM     75  C   UNL A   1      43.224  26.755  34.686  1.00  0.00     0.010 A 
ATOM     76  C   UNL A   1      45.184  27.611  36.481  1.00  0.00     0.020 A 
ATOM     77  C   UNL A   1      43.494  26.007  35.842  1.00  0.00     0.020 A 
ATOM     78  C   UNL A   1      44.479  26.441  36.730  1.00  0.00     0.054 A 
BRANCH  78  79
ATOM     79  S   UNL A   1      44.801  25.573  38.285  1.00  0.00     0.124 S 
ATOM     80  O   UNL A   1      46.234  25.792  38.462  1.00  0.00    -0.237 OA
ATOM     81  O   UNL A   1      43.934  26.281  39.225  1.00  0.00    -0.237 OA
ATOM     82  O   UNL A   1      44.408  24.196  37.997  1.00  0.00    -0.744 OA
ENDBRANCH  78  79
ENDBRANCH  59  73
BRANCH  60  83
ATOM     83  C   UNL A   1      42.005  24.619  26.779  1.00  0.00    -0.014 A 
ATOM     84  C   UNL A   1      41.143  23.788  27.526  1.00  0.00     0.010 A 
ATOM     85  C   UNL A   1      42.793  24.026  25.777  1.00  0.00     0.010 A 
ATOM     86  C   UNL A   1      41.117  22.407  27.333  1.00  0.00     0.020 A 
ATOM     87  C   UNL A   1      42.775  22.636  25.581  1.00  0.00     0.020 A 
ATOM     88  C   UNL A   1      41.962  21.834  26.386  1.00  0.00     0.054 A 
BRANCH  88  89
ATOM     89  S   UNL A   1      42.038  20.024  26.297  1.00  0.00     0.124 S 
ATOM     90  O   UNL A   1      40.703  19.689  25.808  1.00  0.00    -0.237 OA
ATOM     91  O   UNL A   1      43.126  19.801  25.348  1.00  0.00    -0.237 OA
ATOM     92  O   UNL A   1      42.320  19.622  27.672  1.00  0.00    -0.744 OA
ENDBRANCH  88  89
ENDBRANCH  60  83
BRANCH  72  93
ATOM     93  C   UNL A   1      45.067  30.138  27.967  1.00  0.00    -0.014 A 
ATOM     94  C   UNL A   1      46.233  30.881  27.703  1.00  0.00     0.010 A 
ATOM     95  C   UNL A   1      43.879  30.498  27.300  1.00  0.00     0.010 A 
ATOM     96  C   UNL A   1      46.206  31.976  26.833  1.00  0.00     0.020 A 
ATOM     97  C   UNL A   1      43.851  31.582  26.409  1.00  0.00     0.020 A 
ATOM     98  C   UNL A   1      45.010  32.332  26.205  1.00  0.00     0.054 A 
BRANCH  98  99
ATOM     99  S   UNL A   1      44.990  33.813  25.157  1.00  0.00     0.124 S 
ATOM    100  O   UNL A   1      44.141  34.724  25.922  1.00  0.00    -0.237 OA
ATOM    101  O   UNL A   1      46.402  34.186  25.092  1.00  0.00    -0.237 OA
ATOM    102  O   UNL A   1      44.416  33.349  23.895  1.00  0.00    -0.744 OA
ENDBRANCH  98  99
ENDBRANCH  72  93
ENDBRANCH  46  47
ENDBRANCH  38  41
ENDBRANCH  36  37
ENDBRANCH  35  36
ENDBRANCH   1  35
TORSDOF 19
ENDMDL
MODEL 2
REMARK VINA RESULT:     -12.3      1.592      2.330
REMARK SMILES [NH3+][C@@H](Cc1cn(-c2nc(Cl)nc(N3CCOCC3)n2)c2ccccc12)C(=O)NCCCCNC(=O)c1ccc(-c2c3nc(c(-c4ccc(S(=O)(=O)[O-])cc4)c4ccc([nH]4)c(-c4ccc(S(=O)(=O)[O-])cc4)c4nc(c(-c5ccc(S(=O)(=O)[O-])cc5)c5ccc2[nH]5)C=C4)C=C3)cc1
REMARK SMILES IDX 30 1 29 2 28 3 26 4 27 5 2 7 1 8 3 12 4 13 5 14 25 15 6 16
REMARK SMILES IDX 20 17 24 18 21 19 23 20 22 21 7 22 8 23 19 24 9 25 12 26
REMARK SMILES IDX 10 27 11 28 13 29 14 30 18 31 15 32 17 33 16 34 31 35 32 36
REMARK SMILES IDX 33 37 34 38 35 40 36 41 37 42 95 43 38 44 94 45 39 46 40 47
REMARK SMILES IDX 41 48 88 49 42 50 93 51 87 52 89 53 43 54 92 55 86 56 85 57
REMARK SMILES IDX 44 59 74 60 55 61 73 62 56 63 59 64 72 65 90 66 57 67 58 68
REMARK SMILES IDX 71 70 91 71 60 72 45 73 46 74 54 75 47 76 53 77 48 78 49 79
REMARK SMILES IDX 50 80 51 81 52 82 75 83 76 84 84 85 77 86 83 87 78 88 79 89
REMARK SMILES IDX 80 90 81 91 82 92 61 93 62 94 70 95 63 96 69 97 64 98 65 99
REMARK SMILES IDX 66 100 67 101 68 102
REMARK H PARENT 28 6 1 9 1 10 1 11 33 39 89 58 59 69
REMARK Flexibility Score: inf
ROOT
ATOM      1  C   UNL A   1      31.679  29.515  26.014  1.00  0.00     0.023 C 
ENDROOT
BRANCH   1   2
ATOM      2  C   UNL A   1      32.419  29.550  24.675  1.00  0.00     0.116 C 
BRANCH   2   3
ATOM      3  N   UNL A   1      31.593  29.398  23.499  1.00  0.00    -0.351 N 
ATOM      4  C   UNL A   1      31.373  28.234  22.808  1.00  0.00     0.278 C 
ATOM      5  O   UNL A   1      30.301  28.109  22.206  1.00  0.00    -0.268 OA
ATOM      6  H   UNL A   1      31.145  30.208  23.162  1.00  0.00     0.163 HD
BRANCH   4   7
ATOM      7  C   UNL A   1      32.445  27.117  22.741  1.00  0.00     0.275 C 
BRANCH   7   8
ATOM      8  N   UNL A   1      33.300  27.211  21.531  1.00  0.00    -0.347 N 
ATOM      9  H   UNL A   1      32.914  27.909  20.895  1.00  0.00     0.345 HD
ATOM     10  H   UNL A   1      33.331  26.305  21.064  1.00  0.00     0.345 HD
ATOM     11  H   UNL A   1      34.245  27.485  21.803  1.00  0.00     0.345 HD
ENDBRANCH   7   8
BRANCH   7  12
ATOM     12  C   UNL A   1      33.188  26.823  24.064  1.00  0.00     0.113 C 
BRANCH  12  13
ATOM     13  C   UNL A   1      33.042  25.456  24.672  1.00  0.00    -0.015 A 
ATOM     14  C   UNL A   1      33.961  24.431  24.572  1.00  0.00     0.099 A 
ATOM     15  C   UNL A   1      31.954  24.943  25.448  1.00  0.00     0.004 A 
ATOM     16  N   UNL A   1      33.459  23.279  25.157  1.00  0.00    -0.285 N 
ATOM     17  C   UNL A   1      32.208  23.583  25.698  1.00  0.00     0.056 A 
ATOM     18  C   UNL A   1      30.737  25.507  25.897  1.00  0.00     0.010 A 
ATOM     19  C   UNL A   1      31.255  22.779  26.352  1.00  0.00     0.027 A 
ATOM     20  C   UNL A   1      29.789  24.708  26.539  1.00  0.00     0.001 A 
ATOM     21  C   UNL A   1      30.045  23.360  26.754  1.00  0.00     0.002 A 
BRANCH  16  22
ATOM     22  C   UNL A   1      33.947  21.981  24.787  1.00  0.00     0.240 A 
ATOM     23  N   UNL A   1      35.256  21.830  24.982  1.00  0.00    -0.181 NA
ATOM     24  N   UNL A   1      33.080  20.957  24.666  1.00  0.00    -0.176 NA
ATOM     25  C   UNL A   1      35.674  20.592  24.849  1.00  0.00     0.228 A 
ATOM     26  C   UNL A   1      33.633  19.737  24.595  1.00  0.00     0.231 A 
ATOM     27  Cl  UNL A   1      37.260  20.232  25.375  1.00  0.00    -0.041 Cl
ATOM     28  N   UNL A   1      34.939  19.537  24.617  1.00  0.00    -0.182 NA
BRANCH  26  29
ATOM     29  N   UNL A   1      32.886  18.577  24.610  1.00  0.00    -0.336 N 
ATOM     30  C   UNL A   1      32.988  17.595  25.683  1.00  0.00     0.148 C 
ATOM     31  C   UNL A   1      32.590  17.978  23.291  1.00  0.00     0.148 C 
ATOM     32  C   UNL A   1      33.965  16.472  25.286  1.00  0.00     0.181 C 
ATOM     33  C   UNL A   1      33.664  16.924  22.978  1.00  0.00     0.181 C 
ATOM     34  O   UNL A   1      33.667  15.904  23.994  1.00  0.00    -0.378 OA
ENDBRANCH  26  29
ENDBRANCH  16  22
ENDBRANCH  12  13
ENDBRANCH   7  12
ENDBRANCH   4   7
ENDBRANCH   2   3
ENDBRANCH   1   2
BRANCH   1  35
ATOM     35  C   UNL A   1      32.158  30.551  27.035  1.00  0.00     0.023 C 
BRANCH  35  36
ATOM     36  C   UNL A   1      33.674  30.690  27.078  1.00  0.00     0.116 C 
BRANCH  36  37
ATOM     37  N   UNL A   1      34.358  30.290  28.275  1.00  0.00    -0.352 N 
ATOM     38  C   UNL A   1      35.218  31.223  28.842  1.00  0.00     0.251 C 
ATOM     39  H   UNL A   1      34.223  29.400  28.674  1.00  0.00     0.163 HD
ATOM     40  O   UNL A   1      34.883  31.969  29.740  1.00  0.00    -0.269 OA
BRANCH  38  41
ATOM     41  C   UNL A   1      36.636  31.095  28.437  1.00  0.00     0.039 A 
ATOM     42  C   UNL A   1      37.040  30.132  27.515  1.00  0.00     0.014 A 
ATOM     43  C   UNL A   1      37.573  31.766  29.231  1.00  0.00     0.014 A 
ATOM     44  C   UNL A   1      38.329  29.656  27.574  1.00  0.00     0.010 A 
ATOM     45  C   UNL A   1      38.879  31.298  29.276  1.00  0.00     0.010 A 
ATOM     46  C   UNL A   1      39.205  30.157  28.543  1.00  0.00    -0.014 A 
BRANCH  46  47
ATOM     47  C   UNL A   1      40.341  29.292  28.849  1.00  0.00     0.031 A 
ATOM     48  C   UNL A   1      40.756  29.217  30.273  1.00  0.00     0.074 A 
ATOM     49  C   UNL A   1      41.100  28.720  27.893  1.00  0.00     0.049 A 
ATOM     50  N   UNL A   1      41.841  29.672  30.814  1.00  0.00    -0.248 NA
ATOM     51  C   UNL A   1      39.787  28.659  31.221  1.00  0.00     0.031 C 
ATOM     52  C   UNL A   1      40.802  28.509  26.473  1.00  0.00     0.029 A 
ATOM     53  N   UNL A   1      42.319  28.132  28.044  1.00  0.00    -0.354 N 
ATOM     54  C   UNL A   1      41.764  29.340  32.162  1.00  0.00     0.074 A 
ATOM     55  C   UNL A   1      40.442  28.799  32.374  1.00  0.00     0.031 C 
ATOM     56  C   UNL A   1      41.695  27.637  25.958  1.00  0.00     0.029 A 
ATOM     57  C   UNL A   1      42.714  27.374  26.959  1.00  0.00     0.049 A 
ATOM     58  H   UNL A   1      42.871  28.239  28.854  1.00  0.00     0.167 HD
ATOM     59  C   UNL A   1      42.827  29.412  33.009  1.00  0.00     0.031 A 
ATOM     60  C   UNL A   1      43.762  26.521  26.914  1.00  0.00     0.031 A 
ATOM     61  C   UNL A   1      43.890  30.234  32.506  1.00  0.00     0.049 A 
ATOM     62  C   UNL A   1      44.735  26.950  27.946  1.00  0.00     0.074 A 
ATOM     63  C   UNL A   1      44.038  31.581  32.248  1.00  0.00     0.029 A 
ATOM     64  N   UNL A   1      44.957  29.614  31.904  1.00  0.00    -0.354 N 
ATOM     65  N   UNL A   1      45.421  28.056  27.882  1.00  0.00    -0.248 NA
ATOM     66  C   UNL A   1      44.696  26.316  29.255  1.00  0.00     0.031 C 
ATOM     67  C   UNL A   1      44.932  31.658  31.143  1.00  0.00     0.029 A 
ATOM     68  C   UNL A   1      45.287  30.352  30.794  1.00  0.00     0.049 A 
ATOM     69  H   UNL A   1      45.402  28.791  32.211  1.00  0.00     0.167 HD
ATOM     70  C   UNL A   1      45.565  28.467  29.198  1.00  0.00     0.074 A 
ATOM     71  C   UNL A   1      45.210  27.300  29.998  1.00  0.00     0.031 C 
ATOM     72  C   UNL A   1      45.702  29.787  29.523  1.00  0.00     0.031 A 
BRANCH  59  73
ATOM     73  C   UNL A   1      42.987  28.520  34.212  1.00  0.00    -0.014 A 
ATOM     74  C   UNL A   1      43.330  27.158  34.091  1.00  0.00     0.010 A 
ATOM     75  C   UNL A   1      43.032  29.080  35.505  1.00  0.00     0.010 A 
ATOM     76  C   UNL A   1      43.668  26.378  35.196  1.00  0.00     0.020 A 
ATOM     77  C   UNL A   1      43.416  28.316  36.617  1.00  0.00     0.020 A 
ATOM     78  C   UNL A   1      43.727  26.966  36.453  1.00  0.00     0.054 A 
BRANCH  78  79
ATOM     79  S   UNL A   1      44.324  25.957  37.833  1.00  0.00     0.124 S 
ATOM     80  O   UNL A   1      43.790  26.677  38.986  1.00  0.00    -0.237 OA
ATOM     81  O   UNL A   1      43.709  24.660  37.560  1.00  0.00    -0.237 OA
ATOM     82  O   UNL A   1      45.776  25.998  37.685  1.00  0.00    -0.744 OA
ENDBRANCH  78  79
ENDBRANCH  59  73
BRANCH  60  83
ATOM     83  C   UNL A   1      43.698  25.136  26.392  1.00  0.00    -0.014 A 
ATOM     84  C   UNL A   1      43.787  24.046  27.284  1.00  0.00     0.010 A 
ATOM     85  C   UNL A   1      43.846  24.881  25.018  1.00  0.00     0.010 A 
ATOM     86  C   UNL A   1      44.082  22.759  26.833  1.00  0.00     0.020 A 
ATOM     87  C   UNL A   1      44.147  23.589  24.558  1.00  0.00     0.020 A 
ATOM     88  C   UNL A   1      44.298  22.546  25.474  1.00  0.00     0.054 A 
BRANCH  88  89
ATOM     89  S   UNL A   1      44.865  20.905  24.951  1.00  0.00     0.124 S 
ATOM     90  O   UNL A   1      44.751  20.994  23.497  1.00  0.00    -0.237 OA
ATOM     91  O   UNL A   1      46.230  20.864  25.470  1.00  0.00    -0.237 OA
ATOM     92  O   UNL A   1      43.927  19.992  25.597  1.00  0.00    -0.744 OA
ENDBRANCH  88  89
ENDBRANCH  60  83
BRANCH  72  93
ATOM     93  C   UNL A   1      45.987  30.784  28.418  1.00  0.00    -0.014 A 
ATOM     94  C   UNL A   1      47.169  31.546  28.495  1.00  0.00     0.010 A 
ATOM     95  C   UNL A   1      45.032  31.129  27.441  1.00  0.00     0.010 A 
ATOM     96  C   UNL A   1      47.373  32.644  27.653  1.00  0.00     0.020 A 
ATOM     97  C   UNL A   1      45.241  32.215  26.578  1.00  0.00     0.020 A 
ATOM     98  C   UNL A   1      46.398  32.984  26.711  1.00  0.00     0.054 A 
BRANCH  98  99
ATOM     99  S   UNL A   1      46.653  34.469  25.700  1.00  0.00     0.124 S 
ATOM    100  O   UNL A   1      48.002  34.261  25.177  1.00  0.00    -0.237 OA
ATOM    101  O   UNL A   1      45.581  34.378  24.711  1.00  0.00    -0.237 OA
ATOM    102  O   UNL A   1      46.524  35.573  26.650  1.00  0.00    -0.744 OA
ENDBRANCH  98  99
ENDBRANCH  72  93
ENDBRANCH  46  47
ENDBRANCH  38  41
ENDBRANCH  36  37
ENDBRANCH  35  36
ENDBRANCH   1  35
TORSDOF 19
ENDMDL
MODEL 3
REMARK VINA RESULT:     -12.2      2.236      3.490
REMARK SMILES [NH3+][C@@H](Cc1cn(-c2nc(Cl)nc(N3CCOCC3)n2)c2ccccc12)C(=O)NCCCCNC(=O)c1ccc(-c2c3nc(c(-c4ccc(S(=O)(=O)[O-])cc4)c4ccc([nH]4)c(-c4ccc(S(=O)(=O)[O-])cc4)c4nc(c(-c5ccc(S(=O)(=O)[O-])cc5)c5ccc2[nH]5)C=C4)C=C3)cc1
REMARK SMILES IDX 30 1 29 2 28 3 26 4 27 5 2 7 1 8 3 12 4 13 5 14 25 15 6 16
REMARK SMILES IDX 20 17 24 18 21 19 23 20 22 21 7 22 8 23 19 24 9 25 12 26
REMARK SMILES IDX 10 27 11 28 13 29 14 30 18 31 15 32 17 33 16 34 31 35 32 36
REMARK SMILES IDX 33 37 34 38 35 40 36 41 37 42 95 43 38 44 94 45 39 46 40 47
REMARK SMILES IDX 41 48 88 49 42 50 93 51 87 52 89 53 43 54 92 55 86 56 85 57
REMARK SMILES IDX 44 59 74 60 55 61 73 62 56 63 59 64 72 65 90 66 57 67 58 68
REMARK SMILES IDX 71 70 91 71 60 72 45 73 46 74 54 75 47 76 53 77 48 78 49 79
REMARK SMILES IDX 50 80 51 81 52 82 75 83 76 84 84 85 77 86 83 87 78 88 79 89
REMARK SMILES IDX 80 90 81 91 82 92 61 93 62 94 70 95 63 96 69 97 64 98 65 99
REMARK SMILES IDX 66 100 67 101 68 102
REMARK H PARENT 28 6 1 9 1 10 1 11 33 39 89 58 59 69
REMARK Flexibility Score: inf
ROOT
ATOM      1  C   UNL A   1      37.730  30.937  28.952  1.00  0.00     0.023 C 
ENDROOT
BRANCH   1   2
ATOM      2  C   UNL A   1      36.726  30.634  27.838  1.00  0.00     0.116 C 
BRANCH   2   3
ATOM      3  N   UNL A   1      35.706  31.636  27.625  1.00  0.00    -0.351 N 
ATOM      4  C   UNL A   1      34.351  31.424  27.618  1.00  0.00     0.278 C 
ATOM      5  O   UNL A   1      33.615  32.356  27.957  1.00  0.00    -0.268 OA
ATOM      6  H   UNL A   1      36.014  32.558  27.471  1.00  0.00     0.163 HD
BRANCH   4   7
ATOM      7  C   UNL A   1      33.745  30.073  27.160  1.00  0.00     0.275 C 
BRANCH   7   8
ATOM      8  N   UNL A   1      34.148  28.937  28.028  1.00  0.00    -0.347 N 
ATOM      9  H   UNL A   1      33.318  28.523  28.453  1.00  0.00     0.345 HD
ATOM     10  H   UNL A   1      34.775  29.273  28.760  1.00  0.00     0.345 HD
ATOM     11  H   UNL A   1      34.629  28.234  27.466  1.00  0.00     0.345 HD
ENDBRANCH   7   8
BRANCH   7  12
ATOM     12  C   UNL A   1      32.253  30.111  26.757  1.00  0.00     0.113 C 
BRANCH  12  13
ATOM     13  C   UNL A   1      31.653  28.880  26.139  1.00  0.00    -0.015 A 
ATOM     14  C   UNL A   1      31.563  27.641  26.744  1.00  0.00     0.099 A 
ATOM     15  C   UNL A   1      31.077  28.732  24.838  1.00  0.00     0.004 A 
ATOM     16  N   UNL A   1      31.054  26.710  25.852  1.00  0.00    -0.285 N 
ATOM     17  C   UNL A   1      30.756  27.375  24.660  1.00  0.00     0.056 A 
ATOM     18  C   UNL A   1      30.869  29.632  23.766  1.00  0.00     0.010 A 
ATOM     19  C   UNL A   1      30.269  26.903  23.427  1.00  0.00     0.027 A 
ATOM     20  C   UNL A   1      30.392  29.162  22.540  1.00  0.00     0.001 A 
ATOM     21  C   UNL A   1      30.106  27.813  22.374  1.00  0.00     0.002 A 
BRANCH  16  22
ATOM     22  C   UNL A   1      31.301  25.306  26.018  1.00  0.00     0.240 A 
ATOM     23  N   UNL A   1      30.370  24.684  26.740  1.00  0.00    -0.181 NA
ATOM     24  N   UNL A   1      32.148  24.678  25.179  1.00  0.00    -0.176 NA
ATOM     25  C   UNL A   1      30.470  23.375  26.722  1.00  0.00     0.228 A 
ATOM     26  C   UNL A   1      32.112  23.338  25.218  1.00  0.00     0.231 A 
ATOM     27  Cl  UNL A   1      29.161  22.474  27.351  1.00  0.00    -0.041 Cl
ATOM     28  N   UNL A   1      31.324  22.663  26.036  1.00  0.00    -0.182 NA
BRANCH  26  29
ATOM     29  N   UNL A   1      32.810  22.546  24.330  1.00  0.00    -0.336 N 
ATOM     30  C   UNL A   1      33.338  21.238  24.697  1.00  0.00     0.148 C 
ATOM     31  C   UNL A   1      33.643  23.260  23.338  1.00  0.00     0.148 C 
ATOM     32  C   UNL A   1      34.818  21.358  25.112  1.00  0.00     0.181 C 
ATOM     33  C   UNL A   1      35.073  23.374  23.891  1.00  0.00     0.181 C 
ATOM     34  O   UNL A   1      35.615  22.063  24.138  1.00  0.00    -0.378 OA
ENDBRANCH  26  29
ENDBRANCH  16  22
ENDBRANCH  12  13
ENDBRANCH   7  12
ENDBRANCH   4   7
ENDBRANCH   2   3
ENDBRANCH   1   2
BRANCH   1  35
ATOM     35  C   UNL A   1      38.121  32.413  29.075  1.00  0.00     0.023 C 
BRANCH  35  36
ATOM     36  C   UNL A   1      37.309  33.161  30.124  1.00  0.00     0.116 C 
BRANCH  36  37
ATOM     37  N   UNL A   1      36.566  32.391  31.082  1.00  0.00    -0.352 N 
ATOM     38  C   UNL A   1      36.989  32.467  32.404  1.00  0.00     0.251 C 
ATOM     39  H   UNL A   1      35.796  31.839  30.815  1.00  0.00     0.163 HD
ATOM     40  O   UNL A   1      36.498  33.232  33.210  1.00  0.00    -0.269 OA
BRANCH  38  41
ATOM     41  C   UNL A   1      37.920  31.397  32.826  1.00  0.00     0.039 A 
ATOM     42  C   UNL A   1      39.270  31.659  33.047  1.00  0.00     0.014 A 
ATOM     43  C   UNL A   1      37.455  30.083  32.700  1.00  0.00     0.014 A 
ATOM     44  C   UNL A   1      40.180  30.641  32.877  1.00  0.00     0.010 A 
ATOM     45  C   UNL A   1      38.373  29.053  32.548  1.00  0.00     0.010 A 
ATOM     46  C   UNL A   1      39.731  29.370  32.504  1.00  0.00    -0.014 A 
BRANCH  46  47
ATOM     47  C   UNL A   1      40.744  28.517  31.889  1.00  0.00     0.031 A 
ATOM     48  C   UNL A   1      41.953  28.228  32.701  1.00  0.00     0.074 A 
ATOM     49  C   UNL A   1      40.694  28.142  30.596  1.00  0.00     0.049 A 
ATOM     50  N   UNL A   1      43.166  28.635  32.501  1.00  0.00    -0.248 NA
ATOM     51  C   UNL A   1      41.757  27.480  33.947  1.00  0.00     0.031 C 
ATOM     52  C   UNL A   1      39.558  28.154  29.669  1.00  0.00     0.029 A 
ATOM     53  N   UNL A   1      41.694  27.592  29.852  1.00  0.00    -0.354 N 
ATOM     54  C   UNL A   1      43.928  28.085  33.525  1.00  0.00     0.074 A 
ATOM     55  C   UNL A   1      42.998  27.459  34.435  1.00  0.00     0.031 C 
ATOM     56  C   UNL A   1      39.868  27.417  28.579  1.00  0.00     0.029 A 
ATOM     57  C   UNL A   1      41.267  27.039  28.660  1.00  0.00     0.049 A 
ATOM     58  H   UNL A   1      42.637  27.589  30.138  1.00  0.00     0.167 HD
ATOM     59  C   UNL A   1      45.289  28.063  33.513  1.00  0.00     0.031 A 
ATOM     60  C   UNL A   1      41.992  26.252  27.835  1.00  0.00     0.031 A 
ATOM     61  C   UNL A   1      45.856  29.002  32.587  1.00  0.00     0.049 A 
ATOM     62  C   UNL A   1      43.425  26.548  28.075  1.00  0.00     0.074 A 
ATOM     63  C   UNL A   1      45.903  30.378  32.505  1.00  0.00     0.029 A 
ATOM     64  N   UNL A   1      46.263  28.536  31.362  1.00  0.00    -0.354 N 
ATOM     65  N   UNL A   1      43.994  27.679  27.765  1.00  0.00    -0.248 NA
ATOM     66  C   UNL A   1      44.171  25.708  28.999  1.00  0.00     0.031 C 
ATOM     67  C   UNL A   1      45.909  30.674  31.113  1.00  0.00     0.029 A 
ATOM     68  C   UNL A   1      45.875  29.460  30.423  1.00  0.00     0.049 A 
ATOM     69  H   UNL A   1      46.744  27.695  31.188  1.00  0.00     0.167 HD
ATOM     70  C   UNL A   1      44.959  27.875  28.741  1.00  0.00     0.074 A 
ATOM     71  C   UNL A   1      45.103  26.578  29.393  1.00  0.00     0.031 C 
ATOM     72  C   UNL A   1      45.362  29.128  29.106  1.00  0.00     0.031 A 
BRANCH  59  73
ATOM     73  C   UNL A   1      46.105  26.994  34.191  1.00  0.00    -0.014 A 
ATOM     74  C   UNL A   1      46.448  27.070  35.557  1.00  0.00     0.010 A 
ATOM     75  C   UNL A   1      46.347  25.770  33.536  1.00  0.00     0.010 A 
ATOM     76  C   UNL A   1      47.032  26.000  36.234  1.00  0.00     0.020 A 
ATOM     77  C   UNL A   1      46.891  24.672  34.220  1.00  0.00     0.020 A 
ATOM     78  C   UNL A   1      47.234  24.799  35.567  1.00  0.00     0.054 A 
BRANCH  78  79
ATOM     79  S   UNL A   1      47.846  23.391  36.525  1.00  0.00     0.124 S 
ATOM     80  O   UNL A   1      48.004  23.976  37.853  1.00  0.00    -0.237 OA
ATOM     81  O   UNL A   1      46.760  22.423  36.387  1.00  0.00    -0.237 OA
ATOM     82  O   UNL A   1      49.089  23.029  35.847  1.00  0.00    -0.744 OA
ENDBRANCH  78  79
ENDBRANCH  59  73
BRANCH  60  83
ATOM     83  C   UNL A   1      41.520  24.970  27.263  1.00  0.00    -0.014 A 
ATOM     84  C   UNL A   1      40.534  24.221  27.942  1.00  0.00     0.010 A 
ATOM     85  C   UNL A   1      42.231  24.343  26.226  1.00  0.00     0.010 A 
ATOM     86  C   UNL A   1      40.313  22.875  27.647  1.00  0.00     0.020 A 
ATOM     87  C   UNL A   1      42.016  22.988  25.928  1.00  0.00     0.020 A 
ATOM     88  C   UNL A   1      41.083  22.256  26.665  1.00  0.00     0.054 A 
BRANCH  88  89
ATOM     89  S   UNL A   1      40.899  20.466  26.443  1.00  0.00     0.124 S 
ATOM     90  O   UNL A   1      42.091  20.133  25.667  1.00  0.00    -0.237 OA
ATOM     91  O   UNL A   1      40.892  19.978  27.821  1.00  0.00    -0.237 OA
ATOM     92  O   UNL A   1      39.631  20.333  25.731  1.00  0.00    -0.744 OA
ENDBRANCH  88  89
ENDBRANCH  60  83
BRANCH  72  93
ATOM     93  C   UNL A   1      44.959  30.305  28.238  1.00  0.00    -0.014 A 
ATOM     94  C   UNL A   1      45.758  30.614  27.121  1.00  0.00     0.010 A 
ATOM     95  C   UNL A   1      43.956  31.219  28.616  1.00  0.00     0.010 A 
ATOM     96  C   UNL A   1      45.590  31.817  26.427  1.00  0.00     0.020 A 
ATOM     97  C   UNL A   1      43.768  32.417  27.911  1.00  0.00     0.020 A 
ATOM     98  C   UNL A   1      44.608  32.721  26.838  1.00  0.00     0.054 A 
BRANCH  98  99
ATOM     99  S   UNL A   1      44.480  34.312  25.975  1.00  0.00     0.124 S 
ATOM    100  O   UNL A   1      44.599  35.271  27.071  1.00  0.00    -0.237 OA
ATOM    101  O   UNL A   1      45.614  34.275  25.054  1.00  0.00    -0.237 OA
ATOM    102  O   UNL A   1      43.166  34.266  25.337  1.00  0.00    -0.744 OA
ENDBRANCH  98  99
ENDBRANCH  72  93
ENDBRANCH  46  47
ENDBRANCH  38  41
ENDBRANCH  36  37
ENDBRANCH  35  36
ENDBRANCH   1  35
TORSDOF 19
ENDMDL
