MODEL 1
REMARK VINA RESULT:      -9.1      0.000      0.000
REMARK SMILES CC(=O)NS(=O)(=O)c1cc(-c2ccn(C(F)F)c(=O)c2)ccc1C(=O)NCCCCNC(=O)c1ccc(-c2c3nc(c(-c4ccc(S(=O)(=O)[O-])cc4)c4ccc([nH]4)c(-c4ccc(S(=O)(=O)[O-])cc4)c4nc(c(-c5ccc(S(=O)(=O)[O-])cc5)c5ccc2[nH]5)C=C4)C=C3)cc1
REMARK SMILES IDX 29 1 28 2 27 3 26 4 24 5 25 6 23 8 8 9 9 10 10 11 22 12
REMARK SMILES IDX 21 13 5 14 6 15 7 16 4 17 1 18 2 19 3 20 11 22 12 23 20 24
REMARK SMILES IDX 13 25 18 26 14 27 19 28 15 29 16 30 17 31 30 32 31 33 32 34
REMARK SMILES IDX 33 36 34 37 35 38 93 39 36 40 92 41 37 42 38 43 39 44 86 45
REMARK SMILES IDX 40 46 91 47 85 48 87 49 41 50 90 51 84 52 83 53 42 55 72 56
REMARK SMILES IDX 53 57 71 58 54 59 57 60 70 61 88 62 55 63 56 64 69 66 89 67
REMARK SMILES IDX 58 68 43 69 44 70 52 71 45 72 51 73 46 74 47 75 48 76 49 77
REMARK SMILES IDX 50 78 73 79 74 80 82 81 75 82 81 83 76 84 77 85 78 86 79 87
REMARK SMILES IDX 80 88 59 89 60 90 68 91 61 92 67 93 62 94 63 95 64 96 65 97
REMARK SMILES IDX 66 98
REMARK H PARENT 26 7 4 21 31 35 87 54 57 65
REMARK Flexibility Score: inf
ROOT
ATOM      1  C   UNL A   1      42.127  22.031  26.539  1.00  0.00     0.023 C 
ENDROOT
BRANCH   1   2
ATOM      2  C   UNL A   1      42.718  23.026  27.541  1.00  0.00     0.023 C 
BRANCH   2   3
ATOM      3  C   UNL A   1      44.227  23.249  27.398  1.00  0.00     0.116 C 
BRANCH   3   4
ATOM      4  N   UNL A   1      44.625  23.025  26.021  1.00  0.00    -0.352 N 
ATOM      5  C   UNL A   1      44.892  23.890  25.001  1.00  0.00     0.252 C 
ATOM      6  O   UNL A   1      45.170  23.451  23.885  1.00  0.00    -0.269 OA
ATOM      7  H   UNL A   1      44.720  22.076  25.778  1.00  0.00     0.163 HD
BRANCH   5   8
ATOM      8  C   UNL A   1      44.980  25.356  25.179  1.00  0.00     0.060 A 
ATOM      9  C   UNL A   1      46.104  26.058  25.626  1.00  0.00     0.101 A 
ATOM     10  C   UNL A   1      45.972  27.389  26.061  1.00  0.00     0.031 A 
ATOM     11  C   UNL A   1      44.713  27.999  26.130  1.00  0.00    -0.017 A 
ATOM     12  C   UNL A   1      43.737  26.017  25.145  1.00  0.00     0.016 A 
ATOM     13  C   UNL A   1      43.600  27.324  25.626  1.00  0.00     0.009 A 
BRANCH   9  14
ATOM     14  S   UNL A   1      47.681  25.284  25.786  1.00  0.00     0.264 S 
ATOM     15  O   UNL A   1      48.359  25.501  24.530  1.00  0.00    -0.201 OA
ATOM     16  O   UNL A   1      47.518  23.978  26.374  1.00  0.00    -0.201 OA
BRANCH  14  17
ATOM     17  N   UNL A   1      48.523  26.217  26.873  1.00  0.00    -0.249 N 
ATOM     18  C   UNL A   1      47.323  25.616  28.985  1.00  0.00     0.115 C 
ATOM     19  C   UNL A   1      48.547  26.110  28.269  1.00  0.00     0.230 C 
ATOM     20  O   UNL A   1      49.516  26.552  28.872  1.00  0.00    -0.274 OA
ATOM     21  H   UNL A   1      49.076  26.934  26.486  1.00  0.00     0.183 HD
ENDBRANCH  14  17
ENDBRANCH   9  14
BRANCH  11  22
ATOM     22  C   UNL A   1      44.560  29.215  26.949  1.00  0.00    -0.011 A 
ATOM     23  C   UNL A   1      43.243  29.649  27.386  1.00  0.00     0.027 A 
ATOM     24  C   UNL A   1      45.644  29.861  27.410  1.00  0.00     0.080 A 
ATOM     25  C   UNL A   1      43.109  30.633  28.280  1.00  0.00     0.095 A 
ATOM     26  C   UNL A   1      45.507  30.987  28.382  1.00  0.00     0.255 A 
ATOM     27  N   UNL A   1      44.215  31.285  28.790  1.00  0.00    -0.258 N 
ATOM     28  O   UNL A   1      46.524  31.550  28.774  1.00  0.00    -0.269 OA
BRANCH  27  29
ATOM     29  C   UNL A   1      44.057  32.310  29.790  1.00  0.00     0.451 C 
ATOM     30  F   UNL A   1      42.753  32.646  29.943  1.00  0.00    -0.185 F 
ATOM     31  F   UNL A   1      44.532  31.902  30.991  1.00  0.00    -0.185 F 
ENDBRANCH  27  29
ENDBRANCH  11  22
ENDBRANCH   5   8
ENDBRANCH   3   4
ENDBRANCH   2   3
ENDBRANCH   1   2
BRANCH   1  32
ATOM     32  C   UNL A   1      40.787  21.440  26.979  1.00  0.00     0.116 C 
BRANCH  32  33
ATOM     33  N   UNL A   1      39.723  21.722  26.024  1.00  0.00    -0.352 N 
ATOM     34  C   UNL A   1      38.933  22.834  25.881  1.00  0.00     0.251 C 
ATOM     35  H   UNL A   1      39.544  21.001  25.377  1.00  0.00     0.163 HD
ATOM     36  O   UNL A   1      37.957  22.798  25.137  1.00  0.00    -0.269 OA
BRANCH  34  37
ATOM     37  C   UNL A   1      39.243  24.068  26.626  1.00  0.00     0.039 A 
ATOM     38  C   UNL A   1      38.723  24.226  27.915  1.00  0.00     0.014 A 
ATOM     39  C   UNL A   1      40.017  25.077  26.047  1.00  0.00     0.014 A 
ATOM     40  C   UNL A   1      39.040  25.367  28.654  1.00  0.00     0.010 A 
ATOM     41  C   UNL A   1      40.360  26.198  26.798  1.00  0.00     0.010 A 
ATOM     42  C   UNL A   1      39.888  26.344  28.112  1.00  0.00    -0.014 A 
BRANCH  42  43
ATOM     43  C   UNL A   1      40.326  27.518  28.898  1.00  0.00     0.031 A 
ATOM     44  C   UNL A   1      41.618  27.476  29.653  1.00  0.00     0.074 A 
ATOM     45  C   UNL A   1      39.507  28.576  29.029  1.00  0.00     0.049 A 
ATOM     46  N   UNL A   1      42.021  28.247  30.628  1.00  0.00    -0.248 NA
ATOM     47  C   UNL A   1      42.561  26.408  29.287  1.00  0.00     0.031 C 
ATOM     48  C   UNL A   1      38.206  28.735  28.377  1.00  0.00     0.029 A 
ATOM     49  N   UNL A   1      39.646  29.714  29.782  1.00  0.00    -0.354 N 
ATOM     50  C   UNL A   1      43.218  27.697  31.065  1.00  0.00     0.074 A 
ATOM     51  C   UNL A   1      43.511  26.574  30.197  1.00  0.00     0.031 C 
ATOM     52  C   UNL A   1      37.668  29.906  28.754  1.00  0.00     0.029 A 
ATOM     53  C   UNL A   1      38.571  30.561  29.696  1.00  0.00     0.049 A 
ATOM     54  H   UNL A   1      40.440  29.904  30.333  1.00  0.00     0.167 HD
ATOM     55  C   UNL A   1      43.973  28.067  32.127  1.00  0.00     0.031 A 
ATOM     56  C   UNL A   1      38.326  31.726  30.322  1.00  0.00     0.031 A 
ATOM     57  C   UNL A   1      43.704  29.210  32.954  1.00  0.00     0.049 A 
ATOM     58  C   UNL A   1      39.313  32.251  31.319  1.00  0.00     0.074 A 
ATOM     59  C   UNL A   1      44.338  29.619  34.114  1.00  0.00     0.029 A 
ATOM     60  N   UNL A   1      42.736  30.161  32.672  1.00  0.00    -0.354 N 
ATOM     61  N   UNL A   1      40.375  31.658  31.806  1.00  0.00    -0.248 NA
ATOM     62  C   UNL A   1      39.071  33.598  31.850  1.00  0.00     0.031 C 
ATOM     63  C   UNL A   1      43.778  30.845  34.508  1.00  0.00     0.029 A 
ATOM     64  C   UNL A   1      42.795  31.189  33.594  1.00  0.00     0.049 A 
ATOM     65  H   UNL A   1      42.099  30.111  31.922  1.00  0.00     0.167 HD
ATOM     66  C   UNL A   1      40.916  32.547  32.723  1.00  0.00     0.074 A 
ATOM     67  C   UNL A   1      40.083  33.735  32.698  1.00  0.00     0.031 C 
ATOM     68  C   UNL A   1      41.987  32.378  33.536  1.00  0.00     0.031 A 
BRANCH  55  69
ATOM     69  C   UNL A   1      45.117  27.160  32.467  1.00  0.00    -0.014 A 
ATOM     70  C   UNL A   1      44.934  26.042  33.296  1.00  0.00     0.010 A 
ATOM     71  C   UNL A   1      46.406  27.481  32.004  1.00  0.00     0.010 A 
ATOM     72  C   UNL A   1      46.037  25.283  33.701  1.00  0.00     0.020 A 
ATOM     73  C   UNL A   1      47.507  26.722  32.403  1.00  0.00     0.020 A 
ATOM     74  C   UNL A   1      47.318  25.642  33.270  1.00  0.00     0.054 A 
BRANCH  74  75
ATOM     75  S   UNL A   1      48.772  24.717  33.835  1.00  0.00     0.124 S 
ATOM     76  O   UNL A   1      48.178  23.450  34.251  1.00  0.00    -0.237 OA
ATOM     77  O   UNL A   1      49.618  24.648  32.646  1.00  0.00    -0.237 OA
ATOM     78  O   UNL A   1      49.290  25.553  34.915  1.00  0.00    -0.744 OA
ENDBRANCH  74  75
ENDBRANCH  55  69
BRANCH  56  79
ATOM     79  C   UNL A   1      37.077  32.461  30.015  1.00  0.00    -0.014 A 
ATOM     80  C   UNL A   1      35.936  32.268  30.812  1.00  0.00     0.010 A 
ATOM     81  C   UNL A   1      37.052  33.416  28.986  1.00  0.00     0.010 A 
ATOM     82  C   UNL A   1      34.789  33.033  30.595  1.00  0.00     0.020 A 
ATOM     83  C   UNL A   1      35.907  34.185  28.770  1.00  0.00     0.020 A 
ATOM     84  C   UNL A   1      34.782  33.990  29.577  1.00  0.00     0.054 A 
BRANCH  84  85
ATOM     85  S   UNL A   1      33.337  35.065  29.358  1.00  0.00     0.124 S 
ATOM     86  O   UNL A   1      32.562  34.333  28.362  1.00  0.00    -0.237 OA
ATOM     87  O   UNL A   1      32.752  35.118  30.697  1.00  0.00    -0.237 OA
ATOM     88  O   UNL A   1      33.932  36.319  28.902  1.00  0.00    -0.744 OA
ENDBRANCH  84  85
ENDBRANCH  56  79
BRANCH  68  89
ATOM     89  C   UNL A   1      42.322  33.514  34.454  1.00  0.00    -0.014 A 
ATOM     90  C   UNL A   1      41.672  33.634  35.696  1.00  0.00     0.010 A 
ATOM     91  C   UNL A   1      43.289  34.462  34.083  1.00  0.00     0.010 A 
ATOM     92  C   UNL A   1      41.973  34.701  36.546  1.00  0.00     0.020 A 
ATOM     93  C   UNL A   1      43.590  35.531  34.930  1.00  0.00     0.020 A 
ATOM     94  C   UNL A   1      42.921  35.650  36.151  1.00  0.00     0.054 A 
BRANCH  94  95
ATOM     95  S   UNL A   1      43.324  37.027  37.263  1.00  0.00     0.124 S 
ATOM     96  O   UNL A   1      42.092  37.162  38.035  1.00  0.00    -0.237 OA
ATOM     97  O   UNL A   1      44.479  36.530  38.007  1.00  0.00    -0.237 OA
ATOM     98  O   UNL A   1      43.612  38.126  36.344  1.00  0.00    -0.744 OA
ENDBRANCH  94  95
ENDBRANCH  68  89
ENDBRANCH  42  43
ENDBRANCH  34  37
ENDBRANCH  32  33
ENDBRANCH   1  32
TORSDOF 18
ENDMDL
MODEL 2
REMARK VINA RESULT:      -9.0      5.466     12.653
REMARK SMILES CC(=O)NS(=O)(=O)c1cc(-c2ccn(C(F)F)c(=O)c2)ccc1C(=O)NCCCCNC(=O)c1ccc(-c2c3nc(c(-c4ccc(S(=O)(=O)[O-])cc4)c4ccc([nH]4)c(-c4ccc(S(=O)(=O)[O-])cc4)c4nc(c(-c5ccc(S(=O)(=O)[O-])cc5)c5ccc2[nH]5)C=C4)C=C3)cc1
REMARK SMILES IDX 29 1 28 2 27 3 26 4 24 5 25 6 23 8 8 9 9 10 10 11 22 12
REMARK SMILES IDX 21 13 5 14 6 15 7 16 4 17 1 18 2 19 3 20 11 22 12 23 20 24
REMARK SMILES IDX 13 25 18 26 14 27 19 28 15 29 16 30 17 31 30 32 31 33 32 34
REMARK SMILES IDX 33 36 34 37 35 38 93 39 36 40 92 41 37 42 38 43 39 44 86 45
REMARK SMILES IDX 40 46 91 47 85 48 87 49 41 50 90 51 84 52 83 53 42 55 72 56
REMARK SMILES IDX 53 57 71 58 54 59 57 60 70 61 88 62 55 63 56 64 69 66 89 67
REMARK SMILES IDX 58 68 43 69 44 70 52 71 45 72 51 73 46 74 47 75 48 76 49 77
REMARK SMILES IDX 50 78 73 79 74 80 82 81 75 82 81 83 76 84 77 85 78 86 79 87
REMARK SMILES IDX 80 88 59 89 60 90 68 91 61 92 67 93 62 94 63 95 64 96 65 97
REMARK SMILES IDX 66 98
REMARK H PARENT 26 7 4 21 31 35 87 54 57 65
REMARK Flexibility Score: inf
ROOT
ATOM      1  C   UNL A   1      34.209  29.363  27.715  1.00  0.00     0.023 C 
ENDROOT
BRANCH   1   2
ATOM      2  C   UNL A   1      32.809  29.029  27.195  1.00  0.00     0.023 C 
BRANCH   2   3
ATOM      3  C   UNL A   1      32.244  27.699  27.706  1.00  0.00     0.116 C 
BRANCH   3   4
ATOM      4  N   UNL A   1      31.152  27.273  26.851  1.00  0.00    -0.352 N 
ATOM      5  C   UNL A   1      30.999  26.179  26.051  1.00  0.00     0.252 C 
ATOM      6  O   UNL A   1      29.979  26.058  25.371  1.00  0.00    -0.269 OA
ATOM      7  H   UNL A   1      30.380  27.884  26.849  1.00  0.00     0.163 HD
BRANCH   5   8
ATOM      8  C   UNL A   1      31.949  25.047  26.029  1.00  0.00     0.060 A 
ATOM      9  C   UNL A   1      32.903  24.800  25.037  1.00  0.00     0.101 A 
ATOM     10  C   UNL A   1      33.518  23.538  24.953  1.00  0.00     0.031 A 
ATOM     11  C   UNL A   1      33.131  22.495  25.804  1.00  0.00    -0.017 A 
ATOM     12  C   UNL A   1      31.650  24.025  26.951  1.00  0.00     0.016 A 
ATOM     13  C   UNL A   1      32.227  22.755  26.834  1.00  0.00     0.009 A 
BRANCH   9  14
ATOM     14  S   UNL A   1      33.275  25.989  23.788  1.00  0.00     0.264 S 
ATOM     15  O   UNL A   1      33.937  25.261  22.731  1.00  0.00    -0.201 OA
ATOM     16  O   UNL A   1      33.836  27.168  24.398  1.00  0.00    -0.201 OA
BRANCH  14  17
ATOM     17  N   UNL A   1      31.808  26.417  23.133  1.00  0.00    -0.249 N 
ATOM     18  C   UNL A   1      31.862  28.887  23.525  1.00  0.00     0.115 C 
ATOM     19  C   UNL A   1      31.366  27.693  22.763  1.00  0.00     0.230 C 
ATOM     20  O   UNL A   1      30.484  27.782  21.919  1.00  0.00    -0.274 OA
ATOM     21  H   UNL A   1      31.172  25.680  22.986  1.00  0.00     0.183 HD
ENDBRANCH  14  17
ENDBRANCH   9  14
BRANCH  11  22
ATOM     22  C   UNL A   1      33.490  21.112  25.436  1.00  0.00    -0.011 A 
ATOM     23  C   UNL A   1      32.464  20.168  25.026  1.00  0.00     0.027 A 
ATOM     24  C   UNL A   1      34.780  20.749  25.350  1.00  0.00     0.080 A 
ATOM     25  C   UNL A   1      32.793  18.980  24.511  1.00  0.00     0.095 A 
ATOM     26  C   UNL A   1      35.162  19.409  24.812  1.00  0.00     0.255 A 
ATOM     27  N   UNL A   1      34.116  18.604  24.384  1.00  0.00    -0.258 N 
ATOM     28  O   UNL A   1      36.352  19.118  24.754  1.00  0.00    -0.269 OA
BRANCH  27  29
ATOM     29  C   UNL A   1      34.458  17.340  23.783  1.00  0.00     0.451 C 
ATOM     30  F   UNL A   1      34.781  16.422  24.726  1.00  0.00    -0.185 F 
ATOM     31  F   UNL A   1      33.427  16.850  23.051  1.00  0.00    -0.185 F 
ENDBRANCH  27  29
ENDBRANCH  11  22
ENDBRANCH   5   8
ENDBRANCH   3   4
ENDBRANCH   2   3
ENDBRANCH   1   2
BRANCH   1  32
ATOM     32  C   UNL A   1      34.548  30.852  27.649  1.00  0.00     0.116 C 
BRANCH  32  33
ATOM     33  N   UNL A   1      34.503  31.484  28.962  1.00  0.00    -0.352 N 
ATOM     34  C   UNL A   1      35.404  31.444  29.996  1.00  0.00     0.251 C 
ATOM     35  H   UNL A   1      33.699  32.026  29.134  1.00  0.00     0.163 HD
ATOM     36  O   UNL A   1      35.089  31.883  31.098  1.00  0.00    -0.269 OA
BRANCH  34  37
ATOM     37  C   UNL A   1      36.744  30.863  29.792  1.00  0.00     0.039 A 
ATOM     38  C   UNL A   1      37.317  30.920  28.518  1.00  0.00     0.014 A 
ATOM     39  C   UNL A   1      37.420  30.238  30.844  1.00  0.00     0.014 A 
ATOM     40  C   UNL A   1      38.603  30.416  28.313  1.00  0.00     0.010 A 
ATOM     41  C   UNL A   1      38.715  29.766  30.646  1.00  0.00     0.010 A 
ATOM     42  C   UNL A   1      39.321  29.867  29.385  1.00  0.00    -0.014 A 
BRANCH  42  43
ATOM     43  C   UNL A   1      40.720  29.411  29.232  1.00  0.00     0.031 A 
ATOM     44  C   UNL A   1      41.846  30.389  29.354  1.00  0.00     0.074 A 
ATOM     45  C   UNL A   1      40.973  28.141  28.865  1.00  0.00     0.049 A 
ATOM     46  N   UNL A   1      43.084  30.268  28.952  1.00  0.00    -0.248 NA
ATOM     47  C   UNL A   1      41.529  31.684  29.976  1.00  0.00     0.031 C 
ATOM     48  C   UNL A   1      39.970  27.092  28.678  1.00  0.00     0.029 A 
ATOM     49  N   UNL A   1      42.161  27.528  28.561  1.00  0.00    -0.354 N 
ATOM     50  C   UNL A   1      43.670  31.506  29.177  1.00  0.00     0.074 A 
ATOM     51  C   UNL A   1      42.673  32.337  29.821  1.00  0.00     0.031 C 
ATOM     52  C   UNL A   1      40.586  25.961  28.296  1.00  0.00     0.029 A 
ATOM     53  C   UNL A   1      42.019  26.218  28.183  1.00  0.00     0.049 A 
ATOM     54  H   UNL A   1      43.032  27.985  28.609  1.00  0.00     0.167 HD
ATOM     55  C   UNL A   1      44.911  31.922  28.828  1.00  0.00     0.031 A 
ATOM     56  C   UNL A   1      42.936  25.325  27.768  1.00  0.00     0.031 A 
ATOM     57  C   UNL A   1      45.911  31.079  28.234  1.00  0.00     0.049 A 
ATOM     58  C   UNL A   1      44.367  25.746  27.633  1.00  0.00     0.074 A 
ATOM     59  C   UNL A   1      47.162  31.417  27.746  1.00  0.00     0.029 A 
ATOM     60  N   UNL A   1      45.785  29.706  28.093  1.00  0.00    -0.354 N 
ATOM     61  N   UNL A   1      44.878  26.947  27.733  1.00  0.00    -0.248 NA
ATOM     62  C   UNL A   1      45.344  24.691  27.330  1.00  0.00     0.031 C 
ATOM     63  C   UNL A   1      47.808  30.235  27.349  1.00  0.00     0.029 A 
ATOM     64  C   UNL A   1      46.955  29.169  27.587  1.00  0.00     0.049 A 
ATOM     65  H   UNL A   1      44.979  29.188  28.321  1.00  0.00     0.167 HD
ATOM     66  C   UNL A   1      46.234  26.803  27.478  1.00  0.00     0.074 A 
ATOM     67  C   UNL A   1      46.471  25.389  27.254  1.00  0.00     0.031 C 
ATOM     68  C   UNL A   1      47.189  27.762  27.404  1.00  0.00     0.031 A 
BRANCH  55  69
ATOM     69  C   UNL A   1      45.197  33.379  29.031  1.00  0.00    -0.014 A 
ATOM     70  C   UNL A   1      45.764  33.846  30.227  1.00  0.00     0.010 A 
ATOM     71  C   UNL A   1      44.823  34.296  28.032  1.00  0.00     0.010 A 
ATOM     72  C   UNL A   1      45.906  35.221  30.445  1.00  0.00     0.020 A 
ATOM     73  C   UNL A   1      44.967  35.668  28.245  1.00  0.00     0.020 A 
ATOM     74  C   UNL A   1      45.486  36.122  29.462  1.00  0.00     0.054 A 
BRANCH  74  75
ATOM     75  S   UNL A   1      45.595  37.910  29.745  1.00  0.00     0.124 S 
ATOM     76  O   UNL A   1      46.552  37.980  30.845  1.00  0.00    -0.237 OA
ATOM     77  O   UNL A   1      46.074  38.432  28.467  1.00  0.00    -0.237 OA
ATOM     78  O   UNL A   1      44.221  38.270  30.084  1.00  0.00    -0.744 OA
ENDBRANCH  74  75
ENDBRANCH  55  69
BRANCH  56  79
ATOM     79  C   UNL A   1      42.504  23.946  27.445  1.00  0.00    -0.014 A 
ATOM     80  C   UNL A   1      42.108  23.623  26.136  1.00  0.00     0.010 A 
ATOM     81  C   UNL A   1      42.573  22.936  28.419  1.00  0.00     0.010 A 
ATOM     82  C   UNL A   1      41.801  22.304  25.799  1.00  0.00     0.020 A 
ATOM     83  C   UNL A   1      42.270  21.615  28.083  1.00  0.00     0.020 A 
ATOM     84  C   UNL A   1      41.887  21.307  26.774  1.00  0.00     0.054 A 
BRANCH  84  85
ATOM     85  S   UNL A   1      41.598  19.573  26.321  1.00  0.00     0.124 S 
ATOM     86  O   UNL A   1      40.183  19.586  25.963  1.00  0.00    -0.237 OA
ATOM     87  O   UNL A   1      42.526  19.357  25.213  1.00  0.00    -0.237 OA
ATOM     88  O   UNL A   1      41.934  18.857  27.549  1.00  0.00    -0.744 OA
ENDBRANCH  84  85
ENDBRANCH  56  79
BRANCH  68  89
ATOM     89  C   UNL A   1      48.578  27.305  27.079  1.00  0.00    -0.014 A 
ATOM     90  C   UNL A   1      48.990  27.192  25.739  1.00  0.00     0.010 A 
ATOM     91  C   UNL A   1      49.479  26.993  28.111  1.00  0.00     0.010 A 
ATOM     92  C   UNL A   1      50.281  26.753  25.435  1.00  0.00     0.020 A 
ATOM     93  C   UNL A   1      50.769  26.551  27.809  1.00  0.00     0.020 A 
ATOM     94  C   UNL A   1      51.158  26.422  26.472  1.00  0.00     0.054 A 
BRANCH  94  95
ATOM     95  S   UNL A   1      52.841  25.867  26.078  1.00  0.00     0.124 S 
ATOM     96  O   UNL A   1      53.549  26.145  27.323  1.00  0.00    -0.237 OA
ATOM     97  O   UNL A   1      52.661  24.452  25.760  1.00  0.00    -0.237 OA
ATOM     98  O   UNL A   1      53.213  26.709  24.942  1.00  0.00    -0.744 OA
ENDBRANCH  94  95
ENDBRANCH  68  89
ENDBRANCH  42  43
ENDBRANCH  34  37
ENDBRANCH  32  33
ENDBRANCH   1  32
TORSDOF 18
ENDMDL
MODEL 3
REMARK VINA RESULT:      -8.6      5.458     11.206
REMARK SMILES CC(=O)NS(=O)(=O)c1cc(-c2ccn(C(F)F)c(=O)c2)ccc1C(=O)NCCCCNC(=O)c1ccc(-c2c3nc(c(-c4ccc(S(=O)(=O)[O-])cc4)c4ccc([nH]4)c(-c4ccc(S(=O)(=O)[O-])cc4)c4nc(c(-c5ccc(S(=O)(=O)[O-])cc5)c5ccc2[nH]5)C=C4)C=C3)cc1
REMARK SMILES IDX 29 1 28 2 27 3 26 4 24 5 25 6 23 8 8 9 9 10 10 11 22 12
REMARK SMILES IDX 21 13 5 14 6 15 7 16 4 17 1 18 2 19 3 20 11 22 12 23 20 24
REMARK SMILES IDX 13 25 18 26 14 27 19 28 15 29 16 30 17 31 30 32 31 33 32 34
REMARK SMILES IDX 33 36 34 37 35 38 93 39 36 40 92 41 37 42 38 43 39 44 86 45
REMARK SMILES IDX 40 46 91 47 85 48 87 49 41 50 90 51 84 52 83 53 42 55 72 56
REMARK SMILES IDX 53 57 71 58 54 59 57 60 70 61 88 62 55 63 56 64 69 66 89 67
REMARK SMILES IDX 58 68 43 69 44 70 52 71 45 72 51 73 46 74 47 75 48 76 49 77
REMARK SMILES IDX 50 78 73 79 74 80 82 81 75 82 81 83 76 84 77 85 78 86 79 87
REMARK SMILES IDX 80 88 59 89 60 90 68 91 61 92 67 93 62 94 63 95 64 96 65 97
REMARK SMILES IDX 66 98
REMARK H PARENT 26 7 4 21 31 35 87 54 57 65
REMARK Flexibility Score: inf
ROOT
ATOM      1  C   UNL A   1      32.335  30.673  26.870  1.00  0.00     0.023 C 
ENDROOT
BRANCH   1   2
ATOM      2  C   UNL A   1      32.646  29.178  26.966  1.00  0.00     0.023 C 
BRANCH   2   3
ATOM      3  C   UNL A   1      33.671  28.677  25.944  1.00  0.00     0.116 C 
BRANCH   3   4
ATOM      4  N   UNL A   1      33.378  29.244  24.641  1.00  0.00    -0.352 N 
ATOM      5  C   UNL A   1      33.136  28.662  23.431  1.00  0.00     0.252 C 
ATOM      6  O   UNL A   1      32.955  29.369  22.440  1.00  0.00    -0.269 OA
ATOM      7  H   UNL A   1      33.347  30.228  24.628  1.00  0.00     0.163 HD
BRANCH   5   8
ATOM      8  C   UNL A   1      32.962  27.205  23.248  1.00  0.00     0.060 A 
ATOM      9  C   UNL A   1      31.776  26.493  23.451  1.00  0.00     0.101 A 
ATOM     10  C   UNL A   1      31.810  25.091  23.563  1.00  0.00     0.031 A 
ATOM     11  C   UNL A   1      33.029  24.401  23.554  1.00  0.00    -0.017 A 
ATOM     12  C   UNL A   1      34.170  26.491  23.127  1.00  0.00     0.016 A 
ATOM     13  C   UNL A   1      34.207  25.102  23.289  1.00  0.00     0.009 A 
BRANCH   9  14
ATOM     14  S   UNL A   1      30.233  27.308  23.704  1.00  0.00     0.264 S 
ATOM     15  O   UNL A   1      30.454  28.255  24.772  1.00  0.00    -0.201 OA
ATOM     16  O   UNL A   1      29.172  26.333  23.729  1.00  0.00    -0.201 OA
BRANCH  14  17
ATOM     17  N   UNL A   1      30.007  28.255  22.358  1.00  0.00    -0.249 N 
ATOM     18  C   UNL A   1      27.932  29.481  23.032  1.00  0.00     0.115 C 
ATOM     19  C   UNL A   1      29.193  29.387  22.223  1.00  0.00     0.230 C 
ATOM     20  O   UNL A   1      29.466  30.201  21.351  1.00  0.00    -0.274 OA
ATOM     21  H   UNL A   1      30.509  27.987  21.555  1.00  0.00     0.183 HD
ENDBRANCH  14  17
ENDBRANCH   9  14
BRANCH  11  22
ATOM     22  C   UNL A   1      33.063  23.018  24.066  1.00  0.00    -0.011 A 
ATOM     23  C   UNL A   1      31.868  22.193  24.039  1.00  0.00     0.027 A 
ATOM     24  C   UNL A   1      34.229  22.465  24.441  1.00  0.00     0.080 A 
ATOM     25  C   UNL A   1      31.930  20.888  24.321  1.00  0.00     0.095 A 
ATOM     26  C   UNL A   1      34.306  21.016  24.795  1.00  0.00     0.255 A 
ATOM     27  N   UNL A   1      33.127  20.296  24.675  1.00  0.00    -0.258 N 
ATOM     28  O   UNL A   1      35.390  20.553  25.134  1.00  0.00    -0.269 OA
BRANCH  27  29
ATOM     29  C   UNL A   1      33.188  18.879  24.928  1.00  0.00     0.451 C 
ATOM     30  F   UNL A   1      32.993  18.609  26.242  1.00  0.00    -0.185 F 
ATOM     31  F   UNL A   1      32.249  18.211  24.215  1.00  0.00    -0.185 F 
ENDBRANCH  27  29
ENDBRANCH  11  22
ENDBRANCH   5   8
ENDBRANCH   3   4
ENDBRANCH   2   3
ENDBRANCH   1   2
BRANCH   1  32
ATOM     32  C   UNL A   1      33.466  31.569  27.376  1.00  0.00     0.116 C 
BRANCH  32  33
ATOM     33  N   UNL A   1      33.018  32.936  27.613  1.00  0.00    -0.352 N 
ATOM     34  C   UNL A   1      33.443  33.861  28.532  1.00  0.00     0.251 C 
ATOM     35  H   UNL A   1      32.298  33.245  27.017  1.00  0.00     0.163 HD
ATOM     36  O   UNL A   1      32.801  34.894  28.701  1.00  0.00    -0.269 OA
BRANCH  34  37
ATOM     37  C   UNL A   1      34.660  33.614  29.328  1.00  0.00     0.039 A 
ATOM     38  C   UNL A   1      34.568  32.812  30.470  1.00  0.00     0.014 A 
ATOM     39  C   UNL A   1      35.879  34.195  28.968  1.00  0.00     0.014 A 
ATOM     40  C   UNL A   1      35.716  32.530  31.213  1.00  0.00     0.010 A 
ATOM     41  C   UNL A   1      37.029  33.885  29.690  1.00  0.00     0.010 A 
ATOM     42  C   UNL A   1      36.959  33.038  30.807  1.00  0.00    -0.014 A 
BRANCH  42  43
ATOM     43  C   UNL A   1      38.211  32.684  31.509  1.00  0.00     0.031 A 
ATOM     44  C   UNL A   1      39.114  31.630  30.948  1.00  0.00     0.074 A 
ATOM     45  C   UNL A   1      38.478  33.224  32.712  1.00  0.00     0.049 A 
ATOM     46  N   UNL A   1      40.065  30.963  31.547  1.00  0.00    -0.248 NA
ATOM     47  C   UNL A   1      38.894  31.254  29.543  1.00  0.00     0.031 C 
ATOM     48  C   UNL A   1      37.668  34.236  33.391  1.00  0.00     0.029 A 
ATOM     49  N   UNL A   1      39.503  32.972  33.587  1.00  0.00    -0.354 N 
ATOM     50  C   UNL A   1      40.490  30.016  30.626  1.00  0.00     0.074 A 
ATOM     51  C   UNL A   1      39.745  30.247  29.404  1.00  0.00     0.031 C 
ATOM     52  C   UNL A   1      38.231  34.524  34.576  1.00  0.00     0.029 A 
ATOM     53  C   UNL A   1      39.420  33.694  34.750  1.00  0.00     0.049 A 
ATOM     54  H   UNL A   1      40.229  32.333  33.399  1.00  0.00     0.167 HD
ATOM     55  C   UNL A   1      41.382  29.012  30.806  1.00  0.00     0.031 A 
ATOM     56  C   UNL A   1      40.200  33.676  35.845  1.00  0.00     0.031 A 
ATOM     57  C   UNL A   1      42.152  28.817  32.003  1.00  0.00     0.049 A 
ATOM     58  C   UNL A   1      41.353  32.722  35.916  1.00  0.00     0.074 A 
ATOM     59  C   UNL A   1      43.007  27.780  32.334  1.00  0.00     0.029 A 
ATOM     60  N   UNL A   1      42.194  29.720  33.054  1.00  0.00    -0.354 N 
ATOM     61  N   UNL A   1      41.663  31.754  35.090  1.00  0.00    -0.248 NA
ATOM     62  C   UNL A   1      42.259  32.857  37.064  1.00  0.00     0.031 C 
ATOM     63  C   UNL A   1      43.598  28.080  33.572  1.00  0.00     0.029 A 
ATOM     64  C   UNL A   1      43.105  29.301  34.006  1.00  0.00     0.049 A 
ATOM     65  H   UNL A   1      41.654  30.541  33.114  1.00  0.00     0.167 HD
ATOM     66  C   UNL A   1      42.785  31.143  35.630  1.00  0.00     0.074 A 
ATOM     67  C   UNL A   1      43.122  31.875  36.837  1.00  0.00     0.031 C 
ATOM     68  C   UNL A   1      43.455  30.054  35.181  1.00  0.00     0.031 A 
BRANCH  55  69
ATOM     69  C   UNL A   1      41.496  28.025  29.684  1.00  0.00    -0.014 A 
ATOM     70  C   UNL A   1      42.373  28.247  28.610  1.00  0.00     0.010 A 
ATOM     71  C   UNL A   1      40.657  26.896  29.678  1.00  0.00     0.010 A 
ATOM     72  C   UNL A   1      42.372  27.377  27.515  1.00  0.00     0.020 A 
ATOM     73  C   UNL A   1      40.657  26.025  28.588  1.00  0.00     0.020 A 
ATOM     74  C   UNL A   1      41.498  26.285  27.501  1.00  0.00     0.054 A 
BRANCH  74  75
ATOM     75  S   UNL A   1      41.427  25.180  26.065  1.00  0.00     0.124 S 
ATOM     76  O   UNL A   1      42.106  23.990  26.569  1.00  0.00    -0.237 OA
ATOM     77  O   UNL A   1      39.995  25.025  25.821  1.00  0.00    -0.237 OA
ATOM     78  O   UNL A   1      42.152  25.930  25.042  1.00  0.00    -0.744 OA
ENDBRANCH  74  75
ENDBRANCH  55  69
BRANCH  56  79
ATOM     79  C   UNL A   1      39.893  34.598  36.963  1.00  0.00    -0.014 A 
ATOM     80  C   UNL A   1      39.068  34.170  38.018  1.00  0.00     0.010 A 
ATOM     81  C   UNL A   1      40.493  35.866  37.021  1.00  0.00     0.010 A 
ATOM     82  C   UNL A   1      38.859  34.994  39.125  1.00  0.00     0.020 A 
ATOM     83  C   UNL A   1      40.289  36.689  38.130  1.00  0.00     0.020 A 
ATOM     84  C   UNL A   1      39.474  36.247  39.177  1.00  0.00     0.054 A 
BRANCH  84  85
ATOM     85  S   UNL A   1      39.299  37.280  40.659  1.00  0.00     0.124 S 
ATOM     86  O   UNL A   1      38.750  36.333  41.624  1.00  0.00    -0.237 OA
ATOM     87  O   UNL A   1      40.666  37.725  40.921  1.00  0.00    -0.237 OA
ATOM     88  O   UNL A   1      38.388  38.332  40.216  1.00  0.00    -0.744 OA
ENDBRANCH  84  85
ENDBRANCH  56  79
BRANCH  68  89
ATOM     89  C   UNL A   1      44.627  29.600  35.997  1.00  0.00    -0.014 A 
ATOM     90  C   UNL A   1      45.913  30.098  35.726  1.00  0.00     0.010 A 
ATOM     91  C   UNL A   1      44.446  28.678  37.041  1.00  0.00     0.010 A 
ATOM     92  C   UNL A   1      47.009  29.665  36.477  1.00  0.00     0.020 A 
ATOM     93  C   UNL A   1      45.539  28.241  37.792  1.00  0.00     0.020 A 
ATOM     94  C   UNL A   1      46.816  28.728  37.497  1.00  0.00     0.054 A 
BRANCH  94  95
ATOM     95  S   UNL A   1      48.236  28.176  38.485  1.00  0.00     0.124 S 
ATOM     96  O   UNL A   1      49.360  28.567  37.639  1.00  0.00    -0.237 OA
ATOM     97  O   UNL A   1      48.093  28.932  39.727  1.00  0.00    -0.237 OA
ATOM     98  O   UNL A   1      48.016  26.737  38.612  1.00  0.00    -0.744 OA
ENDBRANCH  94  95
ENDBRANCH  68  89
ENDBRANCH  42  43
ENDBRANCH  34  37
ENDBRANCH  32  33
ENDBRANCH   1  32
TORSDOF 18
ENDMDL
