MODEL 1
REMARK VINA RESULT:     -10.7      0.000      0.000
REMARK SMILES Cc1nc(Nc2ccc(F)cc2)nc(OCC(=O)NCCCCNC(=O)c2ccc(-c3c4nc(c(-c5ccc(S(=O)(=O)[O-])cc5)c5ccc([nH]5)c(-c5ccc(S(=O)(=O)[O-])cc5)c5nc(c(-c6ccc(S(=O)(=O)[O-])cc6)c6ccc3[nH]6)C=C5)C=C4)cc2)c1CCO
REMARK SMILES IDX 20 1 19 2 17 3 18 4 16 6 15 7 14 8 1 9 2 10 3 11 87 12 4 13
REMARK SMILES IDX 13 14 88 15 89 16 90 17 5 19 6 21 7 22 12 23 8 24 11 25 9 26
REMARK SMILES IDX 10 27 21 28 22 29 23 30 24 31 25 32 26 34 27 35 28 36 86 37
REMARK SMILES IDX 29 38 85 39 30 40 31 41 32 42 79 43 33 44 84 45 78 46 80 47
REMARK SMILES IDX 34 48 83 49 77 50 76 51 35 53 65 54 46 55 64 56 47 57 50 58
REMARK SMILES IDX 63 59 81 60 48 61 49 62 62 64 82 65 51 66 36 67 37 68 45 69
REMARK SMILES IDX 38 70 44 71 39 72 40 73 41 74 42 75 43 76 66 77 67 78 75 79
REMARK SMILES IDX 68 80 74 81 69 82 70 83 71 84 72 85 73 86 52 87 53 88 61 89
REMARK SMILES IDX 54 90 60 91 55 92 56 93 57 94 58 95 59 96
REMARK H PARENT 19 5 90 18 5 20 24 33 80 52 50 63
REMARK Flexibility Score: inf
ROOT
ATOM      1  C   UNL A   1      32.083  25.461  26.346  1.00  0.00     0.116 C 
ENDROOT
BRANCH   1   2
ATOM      2  N   UNL A   1      30.928  24.676  26.714  1.00  0.00    -0.353 N 
ATOM      3  C   UNL A   1      30.832  23.330  26.871  1.00  0.00     0.258 C 
ATOM      4  O   UNL A   1      29.754  22.870  27.252  1.00  0.00    -0.271 OA
ATOM      5  H   UNL A   1      30.099  25.183  26.872  1.00  0.00     0.163 HD
BRANCH   3   6
ATOM      6  C   UNL A   1      32.065  22.441  26.652  1.00  0.00     0.331 C 
BRANCH   6   7
ATOM      7  O   UNL A   1      32.330  21.803  25.420  1.00  0.00    -0.467 OA
BRANCH   7   8
ATOM      8  C   UNL A   1      33.149  22.338  24.476  1.00  0.00     0.222 A 
ATOM      9  C   UNL A   1      36.566  22.962  23.016  1.00  0.00     0.067 C 
ATOM     10  C   UNL A   1      35.095  22.915  23.317  1.00  0.00     0.050 A 
ATOM     11  N   UNL A   1      34.362  23.628  22.446  1.00  0.00    -0.218 NA
ATOM     12  C   UNL A   1      34.539  22.295  24.435  1.00  0.00     0.038 A 
ATOM     13  C   UNL A   1      33.054  23.756  22.655  1.00  0.00     0.230 A 
ATOM     14  N   UNL A   1      32.419  23.101  23.629  1.00  0.00    -0.177 NA
BRANCH  12  15
ATOM     15  C   UNL A   1      35.426  21.769  25.534  1.00  0.00     0.071 C 
BRANCH  15  16
ATOM     16  C   UNL A   1      35.715  22.778  26.651  1.00  0.00     0.161 C 
BRANCH  16  17
ATOM     17  O   UNL A   1      37.010  23.358  26.570  1.00  0.00    -0.396 OA
ATOM     18  H   UNL A   1      37.681  22.657  26.608  1.00  0.00     0.210 HD
ENDBRANCH  16  17
ENDBRANCH  15  16
ENDBRANCH  12  15
BRANCH  13  19
ATOM     19  N   UNL A   1      32.343  24.722  21.940  1.00  0.00    -0.324 N 
ATOM     20  H   UNL A   1      32.116  24.495  21.008  1.00  0.00     0.170 HD
BRANCH  19  21
ATOM     21  C   UNL A   1      31.915  25.978  22.393  1.00  0.00     0.041 A 
ATOM     22  C   UNL A   1      30.562  26.230  22.668  1.00  0.00     0.029 A 
ATOM     23  C   UNL A   1      32.816  27.053  22.445  1.00  0.00     0.029 A 
ATOM     24  C   UNL A   1      30.116  27.512  22.995  1.00  0.00     0.041 A 
ATOM     25  C   UNL A   1      32.369  28.344  22.752  1.00  0.00     0.041 A 
ATOM     26  C   UNL A   1      31.023  28.561  23.023  1.00  0.00     0.123 A 
ATOM     27  F   UNL A   1      30.596  29.800  23.299  1.00  0.00    -0.207 F 
ENDBRANCH  19  21
ENDBRANCH  13  19
ENDBRANCH   7   8
ENDBRANCH   6   7
ENDBRANCH   3   6
ENDBRANCH   1   2
BRANCH   1  28
ATOM     28  C   UNL A   1      31.746  26.942  26.212  1.00  0.00     0.023 C 
BRANCH  28  29
ATOM     29  C   UNL A   1      32.160  27.817  27.398  1.00  0.00     0.023 C 
BRANCH  29  30
ATOM     30  C   UNL A   1      33.504  28.527  27.270  1.00  0.00     0.116 C 
BRANCH  30  31
ATOM     31  N   UNL A   1      33.441  29.944  27.587  1.00  0.00    -0.352 N 
ATOM     32  C   UNL A   1      34.421  30.755  28.104  1.00  0.00     0.251 C 
ATOM     33  H   UNL A   1      32.578  30.382  27.405  1.00  0.00     0.163 HD
ATOM     34  O   UNL A   1      34.165  31.921  28.393  1.00  0.00    -0.269 OA
BRANCH  32  35
ATOM     35  C   UNL A   1      35.768  30.202  28.351  1.00  0.00     0.039 A 
ATOM     36  C   UNL A   1      36.707  30.242  27.316  1.00  0.00     0.014 A 
ATOM     37  C   UNL A   1      36.116  29.686  29.602  1.00  0.00     0.014 A 
ATOM     38  C   UNL A   1      38.016  29.825  27.559  1.00  0.00     0.010 A 
ATOM     39  C   UNL A   1      37.439  29.337  29.860  1.00  0.00     0.010 A 
ATOM     40  C   UNL A   1      38.403  29.404  28.842  1.00  0.00    -0.014 A 
BRANCH  40  41
ATOM     41  C   UNL A   1      39.811  29.035  29.136  1.00  0.00     0.031 A 
ATOM     42  C   UNL A   1      40.742  30.040  29.759  1.00  0.00     0.074 A 
ATOM     43  C   UNL A   1      40.267  27.814  28.793  1.00  0.00     0.049 A 
ATOM     44  N   UNL A   1      42.011  29.919  30.050  1.00  0.00    -0.248 NA
ATOM     45  C   UNL A   1      40.177  31.363  30.075  1.00  0.00     0.031 C 
ATOM     46  C   UNL A   1      39.476  26.764  28.146  1.00  0.00     0.029 A 
ATOM     47  N   UNL A   1      41.511  27.249  28.935  1.00  0.00    -0.354 N 
ATOM     48  C   UNL A   1      42.400  31.149  30.567  1.00  0.00     0.074 A 
ATOM     49  C   UNL A   1      41.246  32.018  30.502  1.00  0.00     0.031 C 
ATOM     50  C   UNL A   1      40.244  25.675  27.976  1.00  0.00     0.029 A 
ATOM     51  C   UNL A   1      41.590  25.961  28.462  1.00  0.00     0.049 A 
ATOM     52  H   UNL A   1      42.273  27.723  29.339  1.00  0.00     0.167 HD
ATOM     53  C   UNL A   1      43.603  31.517  31.069  1.00  0.00     0.031 A 
ATOM     54  C   UNL A   1      42.630  25.105  28.420  1.00  0.00     0.031 A 
ATOM     55  C   UNL A   1      44.746  30.646  31.141  1.00  0.00     0.049 A 
ATOM     56  C   UNL A   1      43.959  25.539  28.975  1.00  0.00     0.074 A 
ATOM     57  C   UNL A   1      45.993  30.908  31.680  1.00  0.00     0.029 A 
ATOM     58  N   UNL A   1      44.783  29.347  30.657  1.00  0.00    -0.354 N 
ATOM     59  N   UNL A   1      44.289  26.686  29.519  1.00  0.00    -0.248 NA
ATOM     60  C   UNL A   1      45.052  24.559  28.922  1.00  0.00     0.031 C 
ATOM     61  C   UNL A   1      46.801  29.783  31.477  1.00  0.00     0.029 A 
ATOM     62  C   UNL A   1      46.039  28.801  30.865  1.00  0.00     0.049 A 
ATOM     63  H   UNL A   1      44.029  28.882  30.230  1.00  0.00     0.167 HD
ATOM     64  C   UNL A   1      45.620  26.555  29.899  1.00  0.00     0.074 A 
ATOM     65  C   UNL A   1      46.029  25.214  29.536  1.00  0.00     0.031 C 
ATOM     66  C   UNL A   1      46.430  27.464  30.497  1.00  0.00     0.031 A 
BRANCH  53  67
ATOM     67  C   UNL A   1      43.740  32.928  31.578  1.00  0.00    -0.014 A 
ATOM     68  C   UNL A   1      43.439  33.251  32.914  1.00  0.00     0.010 A 
ATOM     69  C   UNL A   1      44.206  33.940  30.719  1.00  0.00     0.010 A 
ATOM     70  C   UNL A   1      43.554  34.567  33.368  1.00  0.00     0.020 A 
ATOM     71  C   UNL A   1      44.352  35.252  31.178  1.00  0.00     0.020 A 
ATOM     72  C   UNL A   1      44.006  35.561  32.495  1.00  0.00     0.054 A 
BRANCH  72  73
ATOM     73  S   UNL A   1      44.161  37.258  33.116  1.00  0.00     0.124 S 
ATOM     74  O   UNL A   1      44.073  38.037  31.884  1.00  0.00    -0.237 OA
ATOM     75  O   UNL A   1      43.018  37.376  34.015  1.00  0.00    -0.237 OA
ATOM     76  O   UNL A   1      45.468  37.272  33.768  1.00  0.00    -0.744 OA
ENDBRANCH  72  73
ENDBRANCH  53  67
BRANCH  54  77
ATOM     77  C   UNL A   1      42.450  23.742  27.848  1.00  0.00    -0.014 A 
ATOM     78  C   UNL A   1      41.967  22.691  28.647  1.00  0.00     0.010 A 
ATOM     79  C   UNL A   1      42.749  23.490  26.497  1.00  0.00     0.010 A 
ATOM     80  C   UNL A   1      41.805  21.409  28.112  1.00  0.00     0.020 A 
ATOM     81  C   UNL A   1      42.563  22.217  25.951  1.00  0.00     0.020 A 
ATOM     82  C   UNL A   1      42.103  21.182  26.766  1.00  0.00     0.054 A 
BRANCH  82  83
ATOM     83  S   UNL A   1      41.838  19.523  26.080  1.00  0.00     0.124 S 
ATOM     84  O   UNL A   1      42.708  19.536  24.909  1.00  0.00    -0.237 OA
ATOM     85  O   UNL A   1      42.264  18.656  27.175  1.00  0.00    -0.237 OA
ATOM     86  O   UNL A   1      40.404  19.496  25.796  1.00  0.00    -0.744 OA
ENDBRANCH  82  83
ENDBRANCH  54  77
BRANCH  66  87
ATOM     87  C   UNL A   1      47.833  27.028  30.830  1.00  0.00    -0.014 A 
ATOM     88  C   UNL A   1      48.890  27.211  29.922  1.00  0.00     0.010 A 
ATOM     89  C   UNL A   1      48.103  26.475  32.096  1.00  0.00     0.010 A 
ATOM     90  C   UNL A   1      50.188  26.821  30.262  1.00  0.00     0.020 A 
ATOM     91  C   UNL A   1      49.404  26.109  32.450  1.00  0.00     0.020 A 
ATOM     92  C   UNL A   1      50.436  26.272  31.524  1.00  0.00     0.054 A 
BRANCH  92  93
ATOM     93  S   UNL A   1      52.137  25.813  31.958  1.00  0.00     0.124 S 
ATOM     94  O   UNL A   1      52.366  26.603  33.165  1.00  0.00    -0.237 OA
ATOM     95  O   UNL A   1      52.038  24.369  32.161  1.00  0.00    -0.237 OA
ATOM     96  O   UNL A   1      52.914  26.219  30.789  1.00  0.00    -0.744 OA
ENDBRANCH  92  93
ENDBRANCH  66  87
ENDBRANCH  40  41
ENDBRANCH  32  35
ENDBRANCH  30  31
ENDBRANCH  29  30
ENDBRANCH  28  29
ENDBRANCH   1  28
TORSDOF 21
ENDMDL
MODEL 2
REMARK VINA RESULT:     -10.3      1.441      2.330
REMARK SMILES Cc1nc(Nc2ccc(F)cc2)nc(OCC(=O)NCCCCNC(=O)c2ccc(-c3c4nc(c(-c5ccc(S(=O)(=O)[O-])cc5)c5ccc([nH]5)c(-c5ccc(S(=O)(=O)[O-])cc5)c5nc(c(-c6ccc(S(=O)(=O)[O-])cc6)c6ccc3[nH]6)C=C5)C=C4)cc2)c1CCO
REMARK SMILES IDX 20 1 19 2 17 3 18 4 16 6 15 7 14 8 1 9 2 10 3 11 87 12 4 13
REMARK SMILES IDX 13 14 88 15 89 16 90 17 5 19 6 21 7 22 12 23 8 24 11 25 9 26
REMARK SMILES IDX 10 27 21 28 22 29 23 30 24 31 25 32 26 34 27 35 28 36 86 37
REMARK SMILES IDX 29 38 85 39 30 40 31 41 32 42 79 43 33 44 84 45 78 46 80 47
REMARK SMILES IDX 34 48 83 49 77 50 76 51 35 53 65 54 46 55 64 56 47 57 50 58
REMARK SMILES IDX 63 59 81 60 48 61 49 62 62 64 82 65 51 66 36 67 37 68 45 69
REMARK SMILES IDX 38 70 44 71 39 72 40 73 41 74 42 75 43 76 66 77 67 78 75 79
REMARK SMILES IDX 68 80 74 81 69 82 70 83 71 84 72 85 73 86 52 87 53 88 61 89
REMARK SMILES IDX 54 90 60 91 55 92 56 93 57 94 58 95 59 96
REMARK H PARENT 19 5 90 18 5 20 24 33 80 52 50 63
REMARK Flexibility Score: inf
ROOT
ATOM      1  C   UNL A   1      32.613  25.527  26.386  1.00  0.00     0.116 C 
ENDROOT
BRANCH   1   2
ATOM      2  N   UNL A   1      31.415  24.971  26.972  1.00  0.00    -0.353 N 
ATOM      3  C   UNL A   1      30.638  23.957  26.511  1.00  0.00     0.258 C 
ATOM      4  O   UNL A   1      29.686  23.599  27.208  1.00  0.00    -0.271 OA
ATOM      5  H   UNL A   1      31.124  25.381  27.818  1.00  0.00     0.163 HD
BRANCH   3   6
ATOM      6  C   UNL A   1      31.002  23.243  25.201  1.00  0.00     0.331 C 
BRANCH   6   7
ATOM      7  O   UNL A   1      30.490  23.649  23.950  1.00  0.00    -0.467 OA
BRANCH   7   8
ATOM      8  C   UNL A   1      30.820  24.833  23.369  1.00  0.00     0.222 A 
ATOM      9  C   UNL A   1      33.266  27.107  21.625  1.00  0.00     0.067 C 
ATOM     10  C   UNL A   1      32.071  26.487  22.292  1.00  0.00     0.050 A 
ATOM     11  N   UNL A   1      31.034  27.335  22.393  1.00  0.00    -0.218 NA
ATOM     12  C   UNL A   1      32.054  25.210  22.851  1.00  0.00     0.038 A 
ATOM     13  C   UNL A   1      29.945  26.949  23.054  1.00  0.00     0.230 A 
ATOM     14  N   UNL A   1      29.794  25.706  23.517  1.00  0.00    -0.177 NA
BRANCH  12  15
ATOM     15  C   UNL A   1      33.329  24.417  22.977  1.00  0.00     0.071 C 
BRANCH  15  16
ATOM     16  C   UNL A   1      33.362  23.135  22.139  1.00  0.00     0.161 C 
BRANCH  16  17
ATOM     17  O   UNL A   1      33.220  23.366  20.743  1.00  0.00    -0.396 OA
ATOM     18  H   UNL A   1      34.021  23.072  20.283  1.00  0.00     0.210 HD
ENDBRANCH  16  17
ENDBRANCH  15  16
ENDBRANCH  12  15
BRANCH  13  19
ATOM     19  N   UNL A   1      28.995  27.905  23.417  1.00  0.00    -0.324 N 
ATOM     20  H   UNL A   1      28.296  27.608  24.044  1.00  0.00     0.170 HD
BRANCH  19  21
ATOM     21  C   UNL A   1      28.920  29.239  22.992  1.00  0.00     0.041 A 
ATOM     22  C   UNL A   1      29.483  30.277  23.750  1.00  0.00     0.029 A 
ATOM     23  C   UNL A   1      28.154  29.578  21.866  1.00  0.00     0.029 A 
ATOM     24  C   UNL A   1      29.300  31.616  23.396  1.00  0.00     0.041 A 
ATOM     25  C   UNL A   1      27.949  30.919  21.520  1.00  0.00     0.041 A 
ATOM     26  C   UNL A   1      28.524  31.925  22.288  1.00  0.00     0.123 A 
ATOM     27  F   UNL A   1      28.311  33.207  21.964  1.00  0.00    -0.207 F 
ENDBRANCH  19  21
ENDBRANCH  13  19
ENDBRANCH   7   8
ENDBRANCH   6   7
ENDBRANCH   3   6
ENDBRANCH   1   2
BRANCH   1  28
ATOM     28  C   UNL A   1      32.389  26.943  25.867  1.00  0.00     0.023 C 
BRANCH  28  29
ATOM     29  C   UNL A   1      32.313  28.030  26.942  1.00  0.00     0.023 C 
BRANCH  29  30
ATOM     30  C   UNL A   1      33.647  28.589  27.425  1.00  0.00     0.116 C 
BRANCH  30  31
ATOM     31  N   UNL A   1      33.592  30.001  27.765  1.00  0.00    -0.352 N 
ATOM     32  C   UNL A   1      34.579  30.800  28.288  1.00  0.00     0.251 C 
ATOM     33  H   UNL A   1      32.729  30.445  27.598  1.00  0.00     0.163 HD
ATOM     34  O   UNL A   1      34.330  31.962  28.598  1.00  0.00    -0.269 OA
BRANCH  32  35
ATOM     35  C   UNL A   1      35.926  30.239  28.514  1.00  0.00     0.039 A 
ATOM     36  C   UNL A   1      36.851  30.275  27.467  1.00  0.00     0.014 A 
ATOM     37  C   UNL A   1      36.288  29.717  29.759  1.00  0.00     0.014 A 
ATOM     38  C   UNL A   1      38.161  29.849  27.690  1.00  0.00     0.010 A 
ATOM     39  C   UNL A   1      37.613  29.359  29.998  1.00  0.00     0.010 A 
ATOM     40  C   UNL A   1      38.562  29.423  28.967  1.00  0.00    -0.014 A 
BRANCH  40  41
ATOM     41  C   UNL A   1      39.972  29.045  29.240  1.00  0.00     0.031 A 
ATOM     42  C   UNL A   1      40.915  30.040  29.860  1.00  0.00     0.074 A 
ATOM     43  C   UNL A   1      40.418  27.824  28.881  1.00  0.00     0.049 A 
ATOM     44  N   UNL A   1      42.188  29.910  30.134  1.00  0.00    -0.248 NA
ATOM     45  C   UNL A   1      40.361  31.363  30.194  1.00  0.00     0.031 C 
ATOM     46  C   UNL A   1      39.614  26.783  28.235  1.00  0.00     0.029 A 
ATOM     47  N   UNL A   1      41.660  27.252  29.004  1.00  0.00    -0.354 N 
ATOM     48  C   UNL A   1      42.589  31.134  30.657  1.00  0.00     0.074 A 
ATOM     49  C   UNL A   1      41.439  32.009  30.613  1.00  0.00     0.031 C 
ATOM     50  C   UNL A   1      40.374  25.693  28.047  1.00  0.00     0.029 A 
ATOM     51  C   UNL A   1      41.728  25.968  28.518  1.00  0.00     0.049 A 
ATOM     52  H   UNL A   1      42.430  27.719  29.401  1.00  0.00     0.167 HD
ATOM     53  C   UNL A   1      43.800  31.492  31.147  1.00  0.00     0.031 A 
ATOM     54  C   UNL A   1      42.762  25.107  28.457  1.00  0.00     0.031 A 
ATOM     55  C   UNL A   1      44.939  30.615  31.197  1.00  0.00     0.049 A 
ATOM     56  C   UNL A   1      44.101  25.530  28.999  1.00  0.00     0.074 A 
ATOM     57  C   UNL A   1      46.195  30.866  31.723  1.00  0.00     0.029 A 
ATOM     58  N   UNL A   1      44.964  29.319  30.703  1.00  0.00    -0.354 N 
ATOM     59  N   UNL A   1      44.442  26.671  29.548  1.00  0.00    -0.248 NA
ATOM     60  C   UNL A   1      45.188  24.545  28.925  1.00  0.00     0.031 C 
ATOM     61  C   UNL A   1      46.994  29.739  31.500  1.00  0.00     0.029 A 
ATOM     62  C   UNL A   1      46.220  28.766  30.890  1.00  0.00     0.049 A 
ATOM     63  H   UNL A   1      44.203  28.862  30.280  1.00  0.00     0.167 HD
ATOM     64  C   UNL A   1      45.778  26.530  29.910  1.00  0.00     0.074 A 
ATOM     65  C   UNL A   1      46.176  25.190  29.531  1.00  0.00     0.031 C 
ATOM     66  C   UNL A   1      46.600  27.430  30.506  1.00  0.00     0.031 A 
BRANCH  53  67
ATOM     67  C   UNL A   1      43.951  32.898  31.666  1.00  0.00    -0.014 A 
ATOM     68  C   UNL A   1      44.209  33.970  30.792  1.00  0.00     0.010 A 
ATOM     69  C   UNL A   1      43.803  33.157  33.040  1.00  0.00     0.010 A 
ATOM     70  C   UNL A   1      44.363  35.267  31.288  1.00  0.00     0.020 A 
ATOM     71  C   UNL A   1      43.927  34.458  33.537  1.00  0.00     0.020 A 
ATOM     72  C   UNL A   1      44.226  35.502  32.659  1.00  0.00     0.054 A 
BRANCH  72  73
ATOM     73  S   UNL A   1      44.416  37.198  33.274  1.00  0.00     0.124 S 
ATOM     74  O   UNL A   1      43.671  37.147  34.530  1.00  0.00    -0.237 OA
ATOM     75  O   UNL A   1      45.864  37.329  33.408  1.00  0.00    -0.237 OA
ATOM     76  O   UNL A   1      43.812  38.017  32.227  1.00  0.00    -0.744 OA
ENDBRANCH  72  73
ENDBRANCH  53  67
BRANCH  54  77
ATOM     77  C   UNL A   1      42.569  23.750  27.876  1.00  0.00    -0.014 A 
ATOM     78  C   UNL A   1      42.331  22.643  28.711  1.00  0.00     0.010 A 
ATOM     79  C   UNL A   1      42.608  23.558  26.483  1.00  0.00     0.010 A 
ATOM     80  C   UNL A   1      42.157  21.368  28.166  1.00  0.00     0.020 A 
ATOM     81  C   UNL A   1      42.407  22.289  25.933  1.00  0.00     0.020 A 
ATOM     82  C   UNL A   1      42.194  21.200  26.779  1.00  0.00     0.054 A 
BRANCH  82  83
ATOM     83  S   UNL A   1      41.915  19.544  26.091  1.00  0.00     0.124 S 
ATOM     84  O   UNL A   1      42.758  19.565  24.899  1.00  0.00    -0.237 OA
ATOM     85  O   UNL A   1      42.369  18.672  27.171  1.00  0.00    -0.237 OA
ATOM     86  O   UNL A   1      40.475  19.516  25.841  1.00  0.00    -0.744 OA
ENDBRANCH  82  83
ENDBRANCH  54  77
BRANCH  66  87
ATOM     87  C   UNL A   1      48.004  26.984  30.818  1.00  0.00    -0.014 A 
ATOM     88  C   UNL A   1      49.000  26.960  29.827  1.00  0.00     0.010 A 
ATOM     89  C   UNL A   1      48.342  26.636  32.140  1.00  0.00     0.010 A 
ATOM     90  C   UNL A   1      50.303  26.566  30.144  1.00  0.00     0.020 A 
ATOM     91  C   UNL A   1      49.649  26.268  32.466  1.00  0.00     0.020 A 
ATOM     92  C   UNL A   1      50.618  26.222  31.463  1.00  0.00     0.054 A 
BRANCH  92  93
ATOM     93  S   UNL A   1      52.326  25.755  31.859  1.00  0.00     0.124 S 
ATOM     94  O   UNL A   1      53.039  26.158  30.649  1.00  0.00    -0.237 OA
ATOM     95  O   UNL A   1      52.609  26.552  33.050  1.00  0.00    -0.237 OA
ATOM     96  O   UNL A   1      52.248  24.313  32.085  1.00  0.00    -0.744 OA
ENDBRANCH  92  93
ENDBRANCH  66  87
ENDBRANCH  40  41
ENDBRANCH  32  35
ENDBRANCH  30  31
ENDBRANCH  29  30
ENDBRANCH  28  29
ENDBRANCH   1  28
TORSDOF 21
ENDMDL
MODEL 3
REMARK VINA RESULT:     -10.0      1.091      2.285
REMARK SMILES Cc1nc(Nc2ccc(F)cc2)nc(OCC(=O)NCCCCNC(=O)c2ccc(-c3c4nc(c(-c5ccc(S(=O)(=O)[O-])cc5)c5ccc([nH]5)c(-c5ccc(S(=O)(=O)[O-])cc5)c5nc(c(-c6ccc(S(=O)(=O)[O-])cc6)c6ccc3[nH]6)C=C5)C=C4)cc2)c1CCO
REMARK SMILES IDX 20 1 19 2 17 3 18 4 16 6 15 7 14 8 1 9 2 10 3 11 87 12 4 13
REMARK SMILES IDX 13 14 88 15 89 16 90 17 5 19 6 21 7 22 12 23 8 24 11 25 9 26
REMARK SMILES IDX 10 27 21 28 22 29 23 30 24 31 25 32 26 34 27 35 28 36 86 37
REMARK SMILES IDX 29 38 85 39 30 40 31 41 32 42 79 43 33 44 84 45 78 46 80 47
REMARK SMILES IDX 34 48 83 49 77 50 76 51 35 53 65 54 46 55 64 56 47 57 50 58
REMARK SMILES IDX 63 59 81 60 48 61 49 62 62 64 82 65 51 66 36 67 37 68 45 69
REMARK SMILES IDX 38 70 44 71 39 72 40 73 41 74 42 75 43 76 66 77 67 78 75 79
REMARK SMILES IDX 68 80 74 81 69 82 70 83 71 84 72 85 73 86 52 87 53 88 61 89
REMARK SMILES IDX 54 90 60 91 55 92 56 93 57 94 58 95 59 96
REMARK H PARENT 19 5 90 18 5 20 24 33 80 52 50 63
REMARK Flexibility Score: inf
ROOT
ATOM      1  C   UNL A   1      33.881  26.073  24.023  1.00  0.00     0.116 C 
ENDROOT
BRANCH   1   2
ATOM      2  N   UNL A   1      34.761  24.927  24.002  1.00  0.00    -0.353 N 
ATOM      3  C   UNL A   1      34.662  23.796  23.257  1.00  0.00     0.258 C 
ATOM      4  O   UNL A   1      35.565  22.962  23.353  1.00  0.00    -0.271 OA
ATOM      5  H   UNL A   1      35.534  24.972  24.610  1.00  0.00     0.163 HD
BRANCH   3   6
ATOM      6  C   UNL A   1      33.494  23.622  22.275  1.00  0.00     0.331 C 
BRANCH   6   7
ATOM      7  O   UNL A   1      32.274  23.018  22.648  1.00  0.00    -0.467 OA
BRANCH   7   8
ATOM      8  C   UNL A   1      31.564  23.408  23.739  1.00  0.00     0.222 A 
ATOM      9  C   UNL A   1      30.459  22.962  27.313  1.00  0.00     0.067 C 
ATOM     10  C   UNL A   1      30.680  23.428  25.903  1.00  0.00     0.050 A 
ATOM     11  N   UNL A   1      29.950  24.512  25.593  1.00  0.00    -0.218 NA
ATOM     12  C   UNL A   1      31.469  22.761  24.967  1.00  0.00     0.038 A 
ATOM     13  C   UNL A   1      29.971  24.970  24.343  1.00  0.00     0.230 A 
ATOM     14  N   UNL A   1      30.787  24.468  23.413  1.00  0.00    -0.177 NA
BRANCH  12  15
ATOM     15  C   UNL A   1      32.023  21.394  25.275  1.00  0.00     0.071 C 
BRANCH  15  16
ATOM     16  C   UNL A   1      33.513  21.381  25.631  1.00  0.00     0.161 C 
BRANCH  16  17
ATOM     17  O   UNL A   1      33.903  22.455  26.477  1.00  0.00    -0.396 OA
ATOM     18  H   UNL A   1      33.540  22.313  27.366  1.00  0.00     0.210 HD
ENDBRANCH  16  17
ENDBRANCH  15  16
ENDBRANCH  12  15
BRANCH  13  19
ATOM     19  N   UNL A   1      29.006  25.896  23.941  1.00  0.00    -0.324 N 
ATOM     20  H   UNL A   1      28.074  25.577  23.933  1.00  0.00     0.170 HD
BRANCH  19  21
ATOM     21  C   UNL A   1      29.210  27.226  23.548  1.00  0.00     0.041 A 
ATOM     22  C   UNL A   1      28.134  28.051  23.188  1.00  0.00     0.029 A 
ATOM     23  C   UNL A   1      30.513  27.715  23.368  1.00  0.00     0.029 A 
ATOM     24  C   UNL A   1      28.344  29.333  22.674  1.00  0.00     0.041 A 
ATOM     25  C   UNL A   1      30.728  28.991  22.833  1.00  0.00     0.041 A 
ATOM     26  C   UNL A   1      29.641  29.787  22.490  1.00  0.00     0.123 A 
ATOM     27  F   UNL A   1      29.851  31.000  21.962  1.00  0.00    -0.207 F 
ENDBRANCH  19  21
ENDBRANCH  13  19
ENDBRANCH   7   8
ENDBRANCH   6   7
ENDBRANCH   3   6
ENDBRANCH   1   2
BRANCH   1  28
ATOM     28  C   UNL A   1      33.459  26.442  25.441  1.00  0.00     0.023 C 
BRANCH  28  29
ATOM     29  C   UNL A   1      33.578  27.927  25.795  1.00  0.00     0.023 C 
BRANCH  29  30
ATOM     30  C   UNL A   1      33.462  28.274  27.275  1.00  0.00     0.116 C 
BRANCH  30  31
ATOM     31  N   UNL A   1      33.390  29.704  27.528  1.00  0.00    -0.352 N 
ATOM     32  C   UNL A   1      34.369  30.545  27.996  1.00  0.00     0.251 C 
ATOM     33  H   UNL A   1      32.521  30.126  27.339  1.00  0.00     0.163 HD
ATOM     34  O   UNL A   1      34.107  31.721  28.235  1.00  0.00    -0.269 OA
BRANCH  32  35
ATOM     35  C   UNL A   1      35.725  30.016  28.248  1.00  0.00     0.039 A 
ATOM     36  C   UNL A   1      36.653  30.027  27.204  1.00  0.00     0.014 A 
ATOM     37  C   UNL A   1      36.090  29.549  29.514  1.00  0.00     0.014 A 
ATOM     38  C   UNL A   1      37.969  29.632  27.449  1.00  0.00     0.010 A 
ATOM     39  C   UNL A   1      37.419  29.223  29.771  1.00  0.00     0.010 A 
ATOM     40  C   UNL A   1      38.372  29.262  28.743  1.00  0.00    -0.014 A 
BRANCH  40  41
ATOM     41  C   UNL A   1      39.787  28.919  29.036  1.00  0.00     0.031 A 
ATOM     42  C   UNL A   1      40.701  29.942  29.654  1.00  0.00     0.074 A 
ATOM     43  C   UNL A   1      40.264  27.704  28.696  1.00  0.00     0.049 A 
ATOM     44  N   UNL A   1      41.973  29.843  29.943  1.00  0.00    -0.248 NA
ATOM     45  C   UNL A   1      40.114  31.256  29.966  1.00  0.00     0.031 C 
ATOM     46  C   UNL A   1      39.489  26.639  28.054  1.00  0.00     0.029 A 
ATOM     47  N   UNL A   1      41.517  27.162  28.839  1.00  0.00    -0.354 N 
ATOM     48  C   UNL A   1      42.341  31.082  30.456  1.00  0.00     0.074 A 
ATOM     49  C   UNL A   1      41.173  31.931  30.389  1.00  0.00     0.031 C 
ATOM     50  C   UNL A   1      40.276  25.563  27.886  1.00  0.00     0.029 A 
ATOM     51  C   UNL A   1      41.618  25.873  28.370  1.00  0.00     0.049 A 
ATOM     52  H   UNL A   1      42.272  27.650  29.239  1.00  0.00     0.167 HD
ATOM     53  C   UNL A   1      43.538  31.472  30.955  1.00  0.00     0.031 A 
ATOM     54  C   UNL A   1      42.672  25.035  28.330  1.00  0.00     0.031 A 
ATOM     55  C   UNL A   1      44.696  30.621  31.028  1.00  0.00     0.049 A 
ATOM     56  C   UNL A   1      43.994  25.494  28.881  1.00  0.00     0.074 A 
ATOM     57  C   UNL A   1      45.940  30.906  31.564  1.00  0.00     0.029 A 
ATOM     58  N   UNL A   1      44.755  29.321  30.549  1.00  0.00    -0.354 N 
ATOM     59  N   UNL A   1      44.305  26.648  29.421  1.00  0.00    -0.248 NA
ATOM     60  C   UNL A   1      45.104  24.533  28.830  1.00  0.00     0.031 C 
ATOM     61  C   UNL A   1      46.766  29.795  31.364  1.00  0.00     0.029 A 
ATOM     62  C   UNL A   1      46.020  28.798  30.757  1.00  0.00     0.049 A 
ATOM     63  H   UNL A   1      44.008  28.842  30.124  1.00  0.00     0.167 HD
ATOM     64  C   UNL A   1      45.639  26.541  29.798  1.00  0.00     0.074 A 
ATOM     65  C   UNL A   1      46.070  25.206  29.439  1.00  0.00     0.031 C 
ATOM     66  C   UNL A   1      46.434  27.466  30.392  1.00  0.00     0.031 A 
BRANCH  53  67
ATOM     67  C   UNL A   1      43.652  32.887  31.458  1.00  0.00    -0.014 A 
ATOM     68  C   UNL A   1      44.059  33.930  30.606  1.00  0.00     0.010 A 
ATOM     69  C   UNL A   1      43.320  33.185  32.792  1.00  0.00     0.010 A 
ATOM     70  C   UNL A   1      44.177  35.236  31.091  1.00  0.00     0.020 A 
ATOM     71  C   UNL A   1      43.408  34.495  33.273  1.00  0.00     0.020 A 
ATOM     72  C   UNL A   1      43.854  35.509  32.423  1.00  0.00     0.054 A 
BRANCH  72  73
ATOM     73  S   UNL A   1      44.002  37.215  33.021  1.00  0.00     0.124 S 
ATOM     74  O   UNL A   1      43.816  37.981  31.791  1.00  0.00    -0.237 OA
ATOM     75  O   UNL A   1      42.914  37.310  33.989  1.00  0.00    -0.237 OA
ATOM     76  O   UNL A   1      45.346  37.269  33.589  1.00  0.00    -0.744 OA
ENDBRANCH  72  73
ENDBRANCH  53  67
BRANCH  54  77
ATOM     77  C   UNL A   1      42.515  23.667  27.763  1.00  0.00    -0.014 A 
ATOM     78  C   UNL A   1      42.799  23.419  26.408  1.00  0.00     0.010 A 
ATOM     79  C   UNL A   1      42.092  22.602  28.578  1.00  0.00     0.010 A 
ATOM     80  C   UNL A   1      42.645  22.136  25.874  1.00  0.00     0.020 A 
ATOM     81  C   UNL A   1      41.962  21.312  28.055  1.00  0.00     0.020 A 
ATOM     82  C   UNL A   1      42.229  21.090  26.702  1.00  0.00     0.054 A 
BRANCH  82  83
ATOM     83  S   UNL A   1      42.083  19.423  26.000  1.00  0.00     0.124 S 
ATOM     84  O   UNL A   1      42.597  18.592  27.084  1.00  0.00    -0.237 OA
ATOM     85  O   UNL A   1      40.649  19.313  25.744  1.00  0.00    -0.237 OA
ATOM     86  O   UNL A   1      42.920  19.482  24.803  1.00  0.00    -0.744 OA
ENDBRANCH  82  83
ENDBRANCH  54  77
BRANCH  66  87
ATOM     87  C   UNL A   1      47.845  27.055  30.725  1.00  0.00    -0.014 A 
ATOM     88  C   UNL A   1      48.909  27.321  29.847  1.00  0.00     0.010 A 
ATOM     89  C   UNL A   1      48.113  26.442  31.963  1.00  0.00     0.010 A 
ATOM     90  C   UNL A   1      50.214  26.952  30.187  1.00  0.00     0.020 A 
ATOM     91  C   UNL A   1      49.419  26.096  32.318  1.00  0.00     0.020 A 
ATOM     92  C   UNL A   1      50.459  26.342  31.421  1.00  0.00     0.054 A 
BRANCH  92  93
ATOM     93  S   UNL A   1      52.167  25.912  31.858  1.00  0.00     0.124 S 
ATOM     94  O   UNL A   1      52.866  26.125  30.593  1.00  0.00    -0.237 OA
ATOM     95  O   UNL A   1      52.478  26.868  32.917  1.00  0.00    -0.237 OA
ATOM     96  O   UNL A   1      52.073  24.519  32.292  1.00  0.00    -0.744 OA
ENDBRANCH  92  93
ENDBRANCH  66  87
ENDBRANCH  40  41
ENDBRANCH  32  35
ENDBRANCH  30  31
ENDBRANCH  29  30
ENDBRANCH  28  29
ENDBRANCH   1  28
TORSDOF 21
ENDMDL
