MODEL 1
REMARK VINA RESULT:     -11.3      0.000      0.000
REMARK SMILES CC[C@H](C(=O)NCCCCNC(=O)c1ccc(-c2c3nc(c(-c4ccc(S(=O)(=O)[O-])cc4)c4ccc([nH]4)c(-c4ccc(S(=O)(=O)[O-])cc4)c4nc(c(-c5ccc(S(=O)(=O)[O-])cc5)c5ccc2[nH]5)C=C4)C=C3)cc1)N1C(=O)c2ccc([N+](=O)[O-])cc2C1=O
REMARK SMILES IDX 9 1 8 2 7 3 6 4 4 5 5 6 3 8 2 9 1 10 74 11 75 12 86 13 76 14
REMARK SMILES IDX 77 15 85 16 87 17 78 18 84 19 79 20 80 21 81 22 82 23 83 24
REMARK SMILES IDX 10 25 11 26 12 27 13 29 14 30 15 31 73 32 16 33 72 34 17 35
REMARK SMILES IDX 18 36 19 37 66 38 20 39 71 40 65 41 67 42 21 43 70 44 64 45
REMARK SMILES IDX 63 46 22 48 52 49 33 50 51 51 34 52 37 53 50 54 68 55 35 56
REMARK SMILES IDX 36 57 49 59 69 60 38 61 23 62 24 63 32 64 25 65 31 66 26 67
REMARK SMILES IDX 27 68 28 69 29 70 30 71 53 72 54 73 62 74 55 75 61 76 56 77
REMARK SMILES IDX 57 78 58 79 59 80 60 81 39 82 40 83 48 84 41 85 47 86 42 87
REMARK SMILES IDX 43 88 44 89 45 90 46 91
REMARK H PARENT 6 7 11 28 67 47 37 58
REMARK Flexibility Score: inf
ROOT
ATOM      1  C   UNL A   1      37.474  21.435  25.502  1.00  0.00     0.023 C 
ENDROOT
BRANCH   1   2
ATOM      2  C   UNL A   1      36.935  22.239  24.317  1.00  0.00     0.023 C 
BRANCH   2   3
ATOM      3  C   UNL A   1      36.006  23.398  24.669  1.00  0.00     0.116 C 
BRANCH   3   4
ATOM      4  N   UNL A   1      35.091  23.760  23.612  1.00  0.00    -0.354 N 
ATOM      5  C   UNL A   1      33.740  23.635  23.519  1.00  0.00     0.243 C 
ATOM      6  O   UNL A   1      33.236  24.062  22.470  1.00  0.00    -0.273 OA
ATOM      7  H   UNL A   1      35.519  24.165  22.822  1.00  0.00     0.163 HD
BRANCH   5   8
ATOM      8  C   UNL A   1      32.857  22.870  24.545  1.00  0.00     0.183 C 
BRANCH   8   9
ATOM      9  C   UNL A   1      31.384  23.191  24.831  1.00  0.00     0.032 C 
ATOM     10  C   UNL A   1      31.074  24.361  25.750  1.00  0.00     0.006 C 
ENDBRANCH   8   9
BRANCH   8  11
ATOM     11  N   UNL A   1      33.037  21.428  24.320  1.00  0.00    -0.262 N 
ATOM     12  C   UNL A   1      32.488  20.722  23.285  1.00  0.00     0.262 C 
ATOM     13  C   UNL A   1      33.633  20.597  25.232  1.00  0.00     0.262 C 
ATOM     14  O   UNL A   1      31.758  21.095  22.386  1.00  0.00    -0.269 OA
ATOM     15  C   UNL A   1      32.870  19.325  23.480  1.00  0.00     0.053 A 
ATOM     16  C   UNL A   1      33.532  19.241  24.693  1.00  0.00     0.060 A 
ATOM     17  O   UNL A   1      34.106  20.854  26.318  1.00  0.00    -0.269 OA
ATOM     18  C   UNL A   1      32.613  18.208  22.706  1.00  0.00     0.022 A 
ATOM     19  C   UNL A   1      33.927  18.034  25.237  1.00  0.00     0.100 A 
ATOM     20  C   UNL A   1      33.017  16.967  23.214  1.00  0.00     0.086 A 
ATOM     21  C   UNL A   1      33.649  16.884  24.481  1.00  0.00     0.270 A 
BRANCH  21  22
ATOM     22  N   UNL A   1      33.983  15.565  25.031  1.00  0.00     0.062 N 
ATOM     23  O   UNL A   1      33.052  14.776  25.244  1.00  0.00    -0.258 OA
ATOM     24  O   UNL A   1      35.177  15.328  25.265  1.00  0.00    -0.258 OA
ENDBRANCH  21  22
ENDBRANCH   8  11
ENDBRANCH   5   8
ENDBRANCH   3   4
ENDBRANCH   2   3
ENDBRANCH   1   2
BRANCH   1  25
ATOM     25  C   UNL A   1      38.962  21.596  25.802  1.00  0.00     0.116 C 
BRANCH  25  26
ATOM     26  N   UNL A   1      39.683  20.330  25.864  1.00  0.00    -0.352 N 
ATOM     27  C   UNL A   1      41.019  20.084  26.092  1.00  0.00     0.251 C 
ATOM     28  H   UNL A   1      39.130  19.528  25.723  1.00  0.00     0.163 HD
ATOM     29  O   UNL A   1      41.458  18.941  25.996  1.00  0.00    -0.269 OA
BRANCH  27  30
ATOM     30  C   UNL A   1      41.932  21.204  26.406  1.00  0.00     0.039 A 
ATOM     31  C   UNL A   1      42.359  22.043  25.373  1.00  0.00     0.014 A 
ATOM     32  C   UNL A   1      42.325  21.455  27.721  1.00  0.00     0.014 A 
ATOM     33  C   UNL A   1      43.083  23.201  25.676  1.00  0.00     0.010 A 
ATOM     34  C   UNL A   1      42.975  22.647  28.029  1.00  0.00     0.010 A 
ATOM     35  C   UNL A   1      43.342  23.545  27.013  1.00  0.00    -0.014 A 
BRANCH  35  36
ATOM     36  C   UNL A   1      43.952  24.849  27.389  1.00  0.00     0.031 A 
ATOM     37  C   UNL A   1      43.081  25.973  27.879  1.00  0.00     0.074 A 
ATOM     38  C   UNL A   1      45.267  25.059  27.180  1.00  0.00     0.049 A 
ATOM     39  N   UNL A   1      43.394  27.226  28.094  1.00  0.00    -0.248 NA
ATOM     40  C   UNL A   1      41.666  25.654  28.132  1.00  0.00     0.031 C 
ATOM     41  C   UNL A   1      46.220  24.065  26.677  1.00  0.00     0.029 A 
ATOM     42  N   UNL A   1      46.030  26.191  27.343  1.00  0.00    -0.354 N 
ATOM     43  C   UNL A   1      42.212  27.851  28.474  1.00  0.00     0.074 A 
ATOM     44  C   UNL A   1      41.170  26.848  28.425  1.00  0.00     0.031 C 
ATOM     45  C   UNL A   1      47.437  24.626  26.589  1.00  0.00     0.029 A 
ATOM     46  C   UNL A   1      47.346  26.030  26.976  1.00  0.00     0.049 A 
ATOM     47  H   UNL A   1      45.668  27.039  27.691  1.00  0.00     0.167 HD
ATOM     48  C   UNL A   1      42.013  29.138  28.843  1.00  0.00     0.031 A 
ATOM     49  C   UNL A   1      48.364  26.913  26.933  1.00  0.00     0.031 A 
ATOM     50  C   UNL A   1      43.054  30.129  28.912  1.00  0.00     0.049 A 
ATOM     51  C   UNL A   1      48.116  28.341  27.339  1.00  0.00     0.074 A 
ATOM     52  C   UNL A   1      42.960  31.446  29.328  1.00  0.00     0.029 A 
ATOM     53  N   UNL A   1      44.377  29.915  28.557  1.00  0.00    -0.354 N 
ATOM     54  N   UNL A   1      47.001  28.900  27.742  1.00  0.00    -0.248 NA
ATOM     55  C   UNL A   1      49.267  29.255  27.289  1.00  0.00     0.031 C 
ATOM     56  C   UNL A   1      44.218  32.040  29.185  1.00  0.00     0.029 A 
ATOM     57  C   UNL A   1      45.106  31.078  28.731  1.00  0.00     0.049 A 
ATOM     58  H   UNL A   1      44.743  29.061  28.232  1.00  0.00     0.167 HD
ATOM     59  C   UNL A   1      47.322  30.223  28.021  1.00  0.00     0.074 A 
ATOM     60  C   UNL A   1      48.735  30.380  27.749  1.00  0.00     0.031 C 
ATOM     61  C   UNL A   1      46.516  31.218  28.467  1.00  0.00     0.031 A 
BRANCH  48  62
ATOM     62  C   UNL A   1      40.608  29.552  29.194  1.00  0.00    -0.014 A 
ATOM     63  C   UNL A   1      39.635  29.736  28.195  1.00  0.00     0.010 A 
ATOM     64  C   UNL A   1      40.247  29.725  30.543  1.00  0.00     0.010 A 
ATOM     65  C   UNL A   1      38.339  30.133  28.536  1.00  0.00     0.020 A 
ATOM     66  C   UNL A   1      38.944  30.094  30.889  1.00  0.00     0.020 A 
ATOM     67  C   UNL A   1      38.003  30.315  29.881  1.00  0.00     0.054 A 
BRANCH  67  68
ATOM     68  S   UNL A   1      36.311  30.817  30.295  1.00  0.00     0.124 S 
ATOM     69  O   UNL A   1      36.486  32.236  30.598  1.00  0.00    -0.237 OA
ATOM     70  O   UNL A   1      35.579  30.525  29.065  1.00  0.00    -0.237 OA
ATOM     71  O   UNL A   1      35.967  29.974  31.437  1.00  0.00    -0.744 OA
ENDBRANCH  67  68
ENDBRANCH  48  62
BRANCH  49  72
ATOM     72  C   UNL A   1      49.715  26.471  26.492  1.00  0.00    -0.014 A 
ATOM     73  C   UNL A   1      50.600  25.874  27.406  1.00  0.00     0.010 A 
ATOM     74  C   UNL A   1      50.120  26.633  25.154  1.00  0.00     0.010 A 
ATOM     75  C   UNL A   1      51.871  25.462  26.996  1.00  0.00     0.020 A 
ATOM     76  C   UNL A   1      51.380  26.197  24.735  1.00  0.00     0.020 A 
ATOM     77  C   UNL A   1      52.253  25.624  25.662  1.00  0.00     0.054 A 
BRANCH  77  78
ATOM     78  S   UNL A   1      53.888  25.032  25.140  1.00  0.00     0.124 S 
ATOM     79  O   UNL A   1      53.631  23.618  24.886  1.00  0.00    -0.237 OA
ATOM     80  O   UNL A   1      54.156  25.849  23.959  1.00  0.00    -0.237 OA
ATOM     81  O   UNL A   1      54.738  25.320  26.292  1.00  0.00    -0.744 OA
ENDBRANCH  77  78
ENDBRANCH  49  72
BRANCH  61  82
ATOM     82  C   UNL A   1      47.142  32.559  28.739  1.00  0.00    -0.014 A 
ATOM     83  C   UNL A   1      47.172  33.562  27.754  1.00  0.00     0.010 A 
ATOM     84  C   UNL A   1      47.628  32.846  30.027  1.00  0.00     0.010 A 
ATOM     85  C   UNL A   1      47.688  34.826  28.053  1.00  0.00     0.020 A 
ATOM     86  C   UNL A   1      48.122  34.115  30.336  1.00  0.00     0.020 A 
ATOM     87  C   UNL A   1      48.156  35.097  29.343  1.00  0.00     0.054 A 
BRANCH  87  88
ATOM     88  S   UNL A   1      48.749  36.767  29.727  1.00  0.00     0.124 S 
ATOM     89  O   UNL A   1      49.916  36.883  28.856  1.00  0.00    -0.237 OA
ATOM     90  O   UNL A   1      47.608  37.605  29.362  1.00  0.00    -0.237 OA
ATOM     91  O   UNL A   1      49.041  36.712  31.157  1.00  0.00    -0.744 OA
ENDBRANCH  87  88
ENDBRANCH  61  82
ENDBRANCH  35  36
ENDBRANCH  27  30
ENDBRANCH  25  26
ENDBRANCH   1  25
TORSDOF 17
ENDMDL
MODEL 2
REMARK VINA RESULT:     -11.1      3.178      7.425
REMARK SMILES CC[C@H](C(=O)NCCCCNC(=O)c1ccc(-c2c3nc(c(-c4ccc(S(=O)(=O)[O-])cc4)c4ccc([nH]4)c(-c4ccc(S(=O)(=O)[O-])cc4)c4nc(c(-c5ccc(S(=O)(=O)[O-])cc5)c5ccc2[nH]5)C=C4)C=C3)cc1)N1C(=O)c2ccc([N+](=O)[O-])cc2C1=O
REMARK SMILES IDX 9 1 8 2 7 3 6 4 4 5 5 6 3 8 2 9 1 10 74 11 75 12 86 13 76 14
REMARK SMILES IDX 77 15 85 16 87 17 78 18 84 19 79 20 80 21 81 22 82 23 83 24
REMARK SMILES IDX 10 25 11 26 12 27 13 29 14 30 15 31 73 32 16 33 72 34 17 35
REMARK SMILES IDX 18 36 19 37 66 38 20 39 71 40 65 41 67 42 21 43 70 44 64 45
REMARK SMILES IDX 63 46 22 48 52 49 33 50 51 51 34 52 37 53 50 54 68 55 35 56
REMARK SMILES IDX 36 57 49 59 69 60 38 61 23 62 24 63 32 64 25 65 31 66 26 67
REMARK SMILES IDX 27 68 28 69 29 70 30 71 53 72 54 73 62 74 55 75 61 76 56 77
REMARK SMILES IDX 57 78 58 79 59 80 60 81 39 82 40 83 48 84 41 85 47 86 42 87
REMARK SMILES IDX 43 88 44 89 45 90 46 91
REMARK H PARENT 6 7 11 28 67 47 37 58
REMARK Flexibility Score: inf
ROOT
ATOM      1  C   UNL A   1      33.030  28.514  25.837  1.00  0.00     0.023 C 
ENDROOT
BRANCH   1   2
ATOM      2  C   UNL A   1      33.648  27.248  25.239  1.00  0.00     0.023 C 
BRANCH   2   3
ATOM      3  C   UNL A   1      32.984  26.724  23.968  1.00  0.00     0.116 C 
BRANCH   3   4
ATOM      4  N   UNL A   1      33.761  25.728  23.267  1.00  0.00    -0.354 N 
ATOM      5  C   UNL A   1      33.885  24.388  23.470  1.00  0.00     0.243 C 
ATOM      6  O   UNL A   1      34.631  23.796  22.675  1.00  0.00    -0.273 OA
ATOM      7  H   UNL A   1      34.293  26.078  22.516  1.00  0.00     0.163 HD
BRANCH   5   8
ATOM      8  C   UNL A   1      33.297  23.627  24.690  1.00  0.00     0.183 C 
BRANCH   8   9
ATOM      9  C   UNL A   1      31.984  23.997  25.395  1.00  0.00     0.032 C 
ATOM     10  C   UNL A   1      31.842  23.651  26.866  1.00  0.00     0.006 C 
ENDBRANCH   8   9
BRANCH   8  11
ATOM     11  N   UNL A   1      33.335  22.187  24.395  1.00  0.00    -0.262 N 
ATOM     12  C   UNL A   1      32.471  21.535  23.559  1.00  0.00     0.262 C 
ATOM     13  C   UNL A   1      34.138  21.305  25.071  1.00  0.00     0.262 C 
ATOM     14  O   UNL A   1      31.524  21.963  22.928  1.00  0.00    -0.269 OA
ATOM     15  C   UNL A   1      32.830  20.119  23.605  1.00  0.00     0.053 A 
ATOM     16  C   UNL A   1      33.819  19.972  24.562  1.00  0.00     0.060 A 
ATOM     17  O   UNL A   1      34.925  21.510  25.970  1.00  0.00    -0.269 OA
ATOM     18  C   UNL A   1      32.303  19.038  22.923  1.00  0.00     0.022 A 
ATOM     19  C   UNL A   1      34.302  18.734  24.940  1.00  0.00     0.100 A 
ATOM     20  C   UNL A   1      32.783  17.767  23.263  1.00  0.00     0.086 A 
ATOM     21  C   UNL A   1      33.759  17.620  24.281  1.00  0.00     0.270 A 
BRANCH  21  22
ATOM     22  N   UNL A   1      34.182  16.272  24.681  1.00  0.00     0.062 N 
ATOM     23  O   UNL A   1      33.359  15.353  24.568  1.00  0.00    -0.258 OA
ATOM     24  O   UNL A   1      35.332  16.140  25.123  1.00  0.00    -0.258 OA
ENDBRANCH  21  22
ENDBRANCH   8  11
ENDBRANCH   5   8
ENDBRANCH   3   4
ENDBRANCH   2   3
ENDBRANCH   1   2
BRANCH   1  25
ATOM     25  C   UNL A   1      33.302  28.757  27.320  1.00  0.00     0.116 C 
BRANCH  25  26
ATOM     26  N   UNL A   1      33.377  30.169  27.673  1.00  0.00    -0.352 N 
ATOM     27  C   UNL A   1      34.418  30.890  28.216  1.00  0.00     0.251 C 
ATOM     28  H   UNL A   1      32.559  30.687  27.496  1.00  0.00     0.163 HD
ATOM     29  O   UNL A   1      34.247  32.060  28.546  1.00  0.00    -0.269 OA
BRANCH  27  30
ATOM     30  C   UNL A   1      35.726  30.239  28.443  1.00  0.00     0.039 A 
ATOM     31  C   UNL A   1      36.638  30.161  27.388  1.00  0.00     0.014 A 
ATOM     32  C   UNL A   1      36.070  29.751  29.705  1.00  0.00     0.014 A 
ATOM     33  C   UNL A   1      37.938  29.703  27.628  1.00  0.00     0.010 A 
ATOM     34  C   UNL A   1      37.385  29.371  29.960  1.00  0.00     0.010 A 
ATOM     35  C   UNL A   1      38.340  29.364  28.930  1.00  0.00    -0.014 A 
BRANCH  35  36
ATOM     36  C   UNL A   1      39.753  29.040  29.262  1.00  0.00     0.031 A 
ATOM     37  C   UNL A   1      40.652  30.098  29.841  1.00  0.00     0.074 A 
ATOM     38  C   UNL A   1      40.260  27.834  28.934  1.00  0.00     0.049 A 
ATOM     39  N   UNL A   1      41.946  30.065  30.038  1.00  0.00    -0.248 NA
ATOM     40  C   UNL A   1      40.017  31.371  30.219  1.00  0.00     0.031 C 
ATOM     41  C   UNL A   1      39.507  26.727  28.336  1.00  0.00     0.029 A 
ATOM     42  N   UNL A   1      41.539  27.342  29.038  1.00  0.00    -0.354 N 
ATOM     43  C   UNL A   1      42.284  31.319  30.532  1.00  0.00     0.074 A 
ATOM     44  C   UNL A   1      41.067  32.102  30.569  1.00  0.00     0.031 C 
ATOM     45  C   UNL A   1      40.333  25.686  28.141  1.00  0.00     0.029 A 
ATOM     46  C   UNL A   1      41.683  26.063  28.549  1.00  0.00     0.049 A 
ATOM     47  H   UNL A   1      42.284  27.856  29.426  1.00  0.00     0.167 HD
ATOM     48  C   UNL A   1      43.496  31.776  30.929  1.00  0.00     0.031 A 
ATOM     49  C   UNL A   1      42.776  25.286  28.421  1.00  0.00     0.031 A 
ATOM     50  C   UNL A   1      44.701  30.991  30.912  1.00  0.00     0.049 A 
ATOM     51  C   UNL A   1      44.113  25.819  28.862  1.00  0.00     0.074 A 
ATOM     52  C   UNL A   1      45.965  31.348  31.348  1.00  0.00     0.029 A 
ATOM     53  N   UNL A   1      44.794  29.693  30.435  1.00  0.00    -0.354 N 
ATOM     54  N   UNL A   1      44.404  26.991  29.371  1.00  0.00    -0.248 NA
ATOM     55  C   UNL A   1      45.268  24.920  28.715  1.00  0.00     0.031 C 
ATOM     56  C   UNL A   1      46.832  30.280  31.096  1.00  0.00     0.029 A 
ATOM     57  C   UNL A   1      46.097  29.239  30.552  1.00  0.00     0.049 A 
ATOM     58  H   UNL A   1      44.044  29.170  30.070  1.00  0.00     0.167 HD
ATOM     59  C   UNL A   1      45.769  26.961  29.633  1.00  0.00     0.074 A 
ATOM     60  C   UNL A   1      46.245  25.653  29.233  1.00  0.00     0.031 C 
ATOM     61  C   UNL A   1      46.555  27.930  30.161  1.00  0.00     0.031 A 
BRANCH  48  62
ATOM     62  C   UNL A   1      43.577  33.200  31.413  1.00  0.00    -0.014 A 
ATOM     63  C   UNL A   1      43.382  33.517  32.770  1.00  0.00     0.010 A 
ATOM     64  C   UNL A   1      43.885  34.230  30.506  1.00  0.00     0.010 A 
ATOM     65  C   UNL A   1      43.447  34.845  33.202  1.00  0.00     0.020 A 
ATOM     66  C   UNL A   1      43.980  35.556  30.940  1.00  0.00     0.020 A 
ATOM     67  C   UNL A   1      43.740  35.857  32.282  1.00  0.00     0.054 A 
BRANCH  67  68
ATOM     68  S   UNL A   1      43.831  37.569  32.873  1.00  0.00     0.124 S 
ATOM     69  O   UNL A   1      42.699  37.627  33.794  1.00  0.00    -0.237 OA
ATOM     70  O   UNL A   1      45.150  37.624  33.496  1.00  0.00    -0.237 OA
ATOM     71  O   UNL A   1      43.686  38.364  31.656  1.00  0.00    -0.744 OA
ENDBRANCH  67  68
ENDBRANCH  48  62
BRANCH  49  72
ATOM     72  C   UNL A   1      42.653  23.916  27.853  1.00  0.00    -0.014 A 
ATOM     73  C   UNL A   1      42.395  22.819  28.694  1.00  0.00     0.010 A 
ATOM     74  C   UNL A   1      42.781  23.700  26.468  1.00  0.00     0.010 A 
ATOM     75  C   UNL A   1      42.284  21.531  28.165  1.00  0.00     0.020 A 
ATOM     76  C   UNL A   1      42.643  22.417  25.933  1.00  0.00     0.020 A 
ATOM     77  C   UNL A   1      42.406  21.337  26.786  1.00  0.00     0.054 A 
BRANCH  77  78
ATOM     78  S   UNL A   1      42.204  19.663  26.115  1.00  0.00     0.124 S 
ATOM     79  O   UNL A   1      43.153  19.664  25.007  1.00  0.00    -0.237 OA
ATOM     80  O   UNL A   1      42.560  18.821  27.254  1.00  0.00    -0.237 OA
ATOM     81  O   UNL A   1      40.794  19.617  25.734  1.00  0.00    -0.744 OA
ENDBRANCH  77  78
ENDBRANCH  49  72
BRANCH  61  82
ATOM     82  C   UNL A   1      48.008  27.609  30.387  1.00  0.00    -0.014 A 
ATOM     83  C   UNL A   1      48.407  26.690  31.374  1.00  0.00     0.010 A 
ATOM     84  C   UNL A   1      48.979  28.171  29.539  1.00  0.00     0.010 A 
ATOM     85  C   UNL A   1      49.755  26.349  31.513  1.00  0.00     0.020 A 
ATOM     86  C   UNL A   1      50.324  27.814  29.659  1.00  0.00     0.020 A 
ATOM     87  C   UNL A   1      50.704  26.909  30.653  1.00  0.00     0.054 A 
BRANCH  87  88
ATOM     88  S   UNL A   1      52.436  26.392  30.804  1.00  0.00     0.124 S 
ATOM     89  O   UNL A   1      52.339  25.270  31.735  1.00  0.00    -0.237 OA
ATOM     90  O   UNL A   1      52.787  26.038  29.430  1.00  0.00    -0.237 OA
ATOM     91  O   UNL A   1      53.109  27.579  31.325  1.00  0.00    -0.744 OA
ENDBRANCH  87  88
ENDBRANCH  61  82
ENDBRANCH  35  36
ENDBRANCH  27  30
ENDBRANCH  25  26
ENDBRANCH   1  25
TORSDOF 17
ENDMDL
MODEL 3
REMARK VINA RESULT:     -11.0      5.915     10.663
REMARK SMILES CC[C@H](C(=O)NCCCCNC(=O)c1ccc(-c2c3nc(c(-c4ccc(S(=O)(=O)[O-])cc4)c4ccc([nH]4)c(-c4ccc(S(=O)(=O)[O-])cc4)c4nc(c(-c5ccc(S(=O)(=O)[O-])cc5)c5ccc2[nH]5)C=C4)C=C3)cc1)N1C(=O)c2ccc([N+](=O)[O-])cc2C1=O
REMARK SMILES IDX 9 1 8 2 7 3 6 4 4 5 5 6 3 8 2 9 1 10 74 11 75 12 86 13 76 14
REMARK SMILES IDX 77 15 85 16 87 17 78 18 84 19 79 20 80 21 81 22 82 23 83 24
REMARK SMILES IDX 10 25 11 26 12 27 13 29 14 30 15 31 73 32 16 33 72 34 17 35
REMARK SMILES IDX 18 36 19 37 66 38 20 39 71 40 65 41 67 42 21 43 70 44 64 45
REMARK SMILES IDX 63 46 22 48 52 49 33 50 51 51 34 52 37 53 50 54 68 55 35 56
REMARK SMILES IDX 36 57 49 59 69 60 38 61 23 62 24 63 32 64 25 65 31 66 26 67
REMARK SMILES IDX 27 68 28 69 29 70 30 71 53 72 54 73 62 74 55 75 61 76 56 77
REMARK SMILES IDX 57 78 58 79 59 80 60 81 39 82 40 83 48 84 41 85 47 86 42 87
REMARK SMILES IDX 43 88 44 89 45 90 46 91
REMARK H PARENT 6 7 11 28 67 47 37 58
REMARK Flexibility Score: inf
ROOT
ATOM      1  C   UNL A   1      40.272  22.722  27.522  1.00  0.00     0.023 C 
ENDROOT
BRANCH   1   2
ATOM      2  C   UNL A   1      39.341  22.311  26.379  1.00  0.00     0.023 C 
BRANCH   2   3
ATOM      3  C   UNL A   1      38.245  23.313  26.023  1.00  0.00     0.116 C 
BRANCH   3   4
ATOM      4  N   UNL A   1      37.794  23.229  24.654  1.00  0.00    -0.354 N 
ATOM      5  C   UNL A   1      36.541  23.161  24.130  1.00  0.00     0.243 C 
ATOM      6  O   UNL A   1      36.483  23.113  22.892  1.00  0.00    -0.273 OA
ATOM      7  H   UNL A   1      38.518  23.218  23.985  1.00  0.00     0.163 HD
BRANCH   5   8
ATOM      8  C   UNL A   1      35.246  22.983  24.971  1.00  0.00     0.183 C 
BRANCH   8   9
ATOM      9  C   UNL A   1      34.079  23.980  24.991  1.00  0.00     0.032 C 
ATOM     10  C   UNL A   1      34.077  25.097  23.962  1.00  0.00     0.006 C 
ENDBRANCH   8   9
BRANCH   8  11
ATOM     11  N   UNL A   1      34.751  21.613  24.767  1.00  0.00    -0.262 N 
ATOM     12  C   UNL A   1      33.452  21.281  24.499  1.00  0.00     0.262 C 
ATOM     13  C   UNL A   1      35.513  20.499  25.002  1.00  0.00     0.262 C 
ATOM     14  O   UNL A   1      32.470  21.993  24.396  1.00  0.00    -0.269 OA
ATOM     15  C   UNL A   1      33.395  19.823  24.432  1.00  0.00     0.053 A 
ATOM     16  C   UNL A   1      34.645  19.343  24.783  1.00  0.00     0.060 A 
ATOM     17  O   UNL A   1      36.660  20.414  25.385  1.00  0.00    -0.269 OA
ATOM     18  C   UNL A   1      32.337  18.978  24.153  1.00  0.00     0.022 A 
ATOM     19  C   UNL A   1      34.902  17.994  24.935  1.00  0.00     0.100 A 
ATOM     20  C   UNL A   1      32.564  17.601  24.275  1.00  0.00     0.086 A 
ATOM     21  C   UNL A   1      33.833  17.119  24.685  1.00  0.00     0.270 A 
BRANCH  21  22
ATOM     22  N   UNL A   1      34.020  15.678  24.891  1.00  0.00     0.062 N 
ATOM     23  O   UNL A   1      33.011  14.960  24.896  1.00  0.00    -0.258 OA
ATOM     24  O   UNL A   1      35.178  15.270  25.064  1.00  0.00    -0.258 OA
ENDBRANCH  21  22
ENDBRANCH   8  11
ENDBRANCH   5   8
ENDBRANCH   3   4
ENDBRANCH   2   3
ENDBRANCH   1   2
BRANCH   1  25
ATOM     25  C   UNL A   1      41.665  23.198  27.115  1.00  0.00     0.116 C 
BRANCH  25  26
ATOM     26  N   UNL A   1      41.654  24.144  26.006  1.00  0.00    -0.352 N 
ATOM     27  C   UNL A   1      41.555  25.518  26.018  1.00  0.00     0.251 C 
ATOM     28  H   UNL A   1      41.732  23.740  25.112  1.00  0.00     0.163 HD
ATOM     29  O   UNL A   1      41.454  26.135  24.961  1.00  0.00    -0.269 OA
BRANCH  27  30
ATOM     30  C   UNL A   1      41.524  26.244  27.306  1.00  0.00     0.039 A 
ATOM     31  C   UNL A   1      42.632  27.006  27.684  1.00  0.00     0.014 A 
ATOM     32  C   UNL A   1      40.386  26.212  28.114  1.00  0.00     0.014 A 
ATOM     33  C   UNL A   1      42.555  27.829  28.811  1.00  0.00     0.010 A 
ATOM     34  C   UNL A   1      40.282  27.091  29.189  1.00  0.00     0.010 A 
ATOM     35  C   UNL A   1      41.356  27.926  29.537  1.00  0.00    -0.014 A 
BRANCH  35  36
ATOM     36  C   UNL A   1      41.174  28.915  30.633  1.00  0.00     0.031 A 
ATOM     37  C   UNL A   1      42.014  28.823  31.877  1.00  0.00     0.074 A 
ATOM     38  C   UNL A   1      40.178  29.822  30.560  1.00  0.00     0.049 A 
ATOM     39  N   UNL A   1      41.894  29.477  33.005  1.00  0.00    -0.248 NA
ATOM     40  C   UNL A   1      43.113  27.844  31.863  1.00  0.00     0.031 C 
ATOM     41  C   UNL A   1      39.268  29.998  29.425  1.00  0.00     0.029 A 
ATOM     42  N   UNL A   1      39.747  30.755  31.473  1.00  0.00    -0.354 N 
ATOM     43  C   UNL A   1      42.879  28.968  33.843  1.00  0.00     0.074 A 
ATOM     44  C   UNL A   1      43.562  27.926  33.108  1.00  0.00     0.031 C 
ATOM     45  C   UNL A   1      38.401  30.985  29.704  1.00  0.00     0.029 A 
ATOM     46  C   UNL A   1      38.655  31.478  31.053  1.00  0.00     0.049 A 
ATOM     47  H   UNL A   1      40.181  30.892  32.347  1.00  0.00     0.167 HD
ATOM     48  C   UNL A   1      43.194  29.342  35.106  1.00  0.00     0.031 A 
ATOM     49  C   UNL A   1      37.924  32.417  31.686  1.00  0.00     0.031 A 
ATOM     50  C   UNL A   1      42.528  30.392  35.828  1.00  0.00     0.049 A 
ATOM     51  C   UNL A   1      38.288  32.810  33.092  1.00  0.00     0.074 A 
ATOM     52  C   UNL A   1      42.813  30.881  37.091  1.00  0.00     0.029 A 
ATOM     53  N   UNL A   1      41.445  31.117  35.354  1.00  0.00    -0.354 N 
ATOM     54  N   UNL A   1      39.254  32.350  33.850  1.00  0.00    -0.248 NA
ATOM     55  C   UNL A   1      37.467  33.852  33.726  1.00  0.00     0.031 C 
ATOM     56  C   UNL A   1      41.876  31.873  37.398  1.00  0.00     0.029 A 
ATOM     57  C   UNL A   1      41.041  32.038  36.304  1.00  0.00     0.049 A 
ATOM     58  H   UNL A   1      41.027  30.996  34.471  1.00  0.00     0.167 HD
ATOM     59  C   UNL A   1      39.174  33.067  35.039  1.00  0.00     0.074 A 
ATOM     60  C   UNL A   1      38.072  33.995  34.897  1.00  0.00     0.031 C 
ATOM     61  C   UNL A   1      39.949  32.966  36.146  1.00  0.00     0.031 A 
BRANCH  48  62
ATOM     62  C   UNL A   1      44.310  28.600  35.792  1.00  0.00    -0.014 A 
ATOM     63  C   UNL A   1      44.047  27.474  36.595  1.00  0.00     0.010 A 
ATOM     64  C   UNL A   1      45.642  29.011  35.605  1.00  0.00     0.010 A 
ATOM     65  C   UNL A   1      45.093  26.804  37.236  1.00  0.00     0.020 A 
ATOM     66  C   UNL A   1      46.693  28.325  36.222  1.00  0.00     0.020 A 
ATOM     67  C   UNL A   1      46.409  27.238  37.050  1.00  0.00     0.054 A 
BRANCH  67  68
ATOM     68  S   UNL A   1      47.746  26.341  37.884  1.00  0.00     0.124 S 
ATOM     69  O   UNL A   1      47.134  25.033  38.108  1.00  0.00    -0.237 OA
ATOM     70  O   UNL A   1      48.818  26.369  36.893  1.00  0.00    -0.237 OA
ATOM     71  O   UNL A   1      47.994  27.128  39.089  1.00  0.00    -0.744 OA
ENDBRANCH  67  68
ENDBRANCH  48  62
BRANCH  49  72
ATOM     72  C   UNL A   1      36.773  33.057  30.992  1.00  0.00    -0.014 A 
ATOM     73  C   UNL A   1      35.466  32.888  31.480  1.00  0.00     0.010 A 
ATOM     74  C   UNL A   1      36.978  33.849  29.847  1.00  0.00     0.010 A 
ATOM     75  C   UNL A   1      34.383  33.484  30.828  1.00  0.00     0.020 A 
ATOM     76  C   UNL A   1      35.900  34.469  29.208  1.00  0.00     0.020 A 
ATOM     77  C   UNL A   1      34.607  34.273  29.696  1.00  0.00     0.054 A 
BRANCH  77  78
ATOM     78  S   UNL A   1      33.192  35.082  28.898  1.00  0.00     0.124 S 
ATOM     79  O   UNL A   1      32.760  34.065  27.944  1.00  0.00    -0.237 OA
ATOM     80  O   UNL A   1      32.289  35.320  30.022  1.00  0.00    -0.237 OA
ATOM     81  O   UNL A   1      33.775  36.286  28.311  1.00  0.00    -0.744 OA
ENDBRANCH  77  78
ENDBRANCH  49  72
BRANCH  61  82
ATOM     82  C   UNL A   1      39.673  33.911  37.284  1.00  0.00    -0.014 A 
ATOM     83  C   UNL A   1      38.922  33.505  38.402  1.00  0.00     0.010 A 
ATOM     84  C   UNL A   1      40.248  35.195  37.271  1.00  0.00     0.010 A 
ATOM     85  C   UNL A   1      38.744  34.375  39.482  1.00  0.00     0.020 A 
ATOM     86  C   UNL A   1      40.092  36.057  38.359  1.00  0.00     0.020 A 
ATOM     87  C   UNL A   1      39.333  35.642  39.456  1.00  0.00     0.054 A 
BRANCH  87  88
ATOM     88  S   UNL A   1      39.151  36.722  40.902  1.00  0.00     0.124 S 
ATOM     89  O   UNL A   1      40.542  36.991  41.258  1.00  0.00    -0.237 OA
ATOM     90  O   UNL A   1      38.410  37.861  40.361  1.00  0.00    -0.237 OA
ATOM     91  O   UNL A   1      38.409  35.903  41.857  1.00  0.00    -0.744 OA
ENDBRANCH  87  88
ENDBRANCH  61  82
ENDBRANCH  35  36
ENDBRANCH  27  30
ENDBRANCH  25  26
ENDBRANCH   1  25
TORSDOF 17
ENDMDL
