MODEL 1
REMARK VINA RESULT:     -13.2      0.000      0.000
REMARK SMILES O=C(NCCCCNC(=O)c1cc(N2CCN(c3ccc(F)cc3)CC2)ccc1NC(=O)C1CCCC1)c1ccc(-c2c3nc(c(-c4ccc(S(=O)(=O)[O-])cc4)c4ccc([nH]4)c(-c4ccc(S(=O)(=O)[O-])cc4)c4nc(c(-c5ccc(S(=O)(=O)[O-])cc5)c5ccc2[nH]5)C=C4)C=C3)cc1
REMARK SMILES IDX 5 1 4 2 3 3 1 4 2 5 38 7 39 8 97 9 40 10 96 11 41 12 42 13
REMARK SMILES IDX 43 14 90 15 44 16 95 17 89 18 91 19 45 20 94 21 88 22 87 23
REMARK SMILES IDX 46 25 76 26 57 27 75 28 58 29 61 30 74 31 92 32 59 33 60 34
REMARK SMILES IDX 73 36 93 37 62 38 47 39 48 40 56 41 49 42 55 43 50 44 51 45
REMARK SMILES IDX 52 46 53 47 54 48 77 49 78 50 86 51 79 52 85 53 80 54 81 55
REMARK SMILES IDX 82 56 83 57 84 58 63 59 64 60 72 61 65 62 71 63 66 64 67 65
REMARK SMILES IDX 68 66 69 67 70 68 6 69 7 70 8 71 9 72 10 74 11 75 12 76
REMARK SMILES IDX 29 77 13 78 28 79 27 80 30 81 31 82 32 84 33 85 34 86 37 87
REMARK SMILES IDX 35 88 36 89 14 90 15 91 26 92 16 93 25 94 17 95 18 96 19 97
REMARK SMILES IDX 24 98 20 99 23 100 21 101 22 102
REMARK H PARENT 3 6 91 24 61 35 8 73 30 83
REMARK Flexibility Score: inf
ROOT
ATOM      1  C   UNL A   1      39.049  22.885  26.439  1.00  0.00     0.023 C 
ENDROOT
BRANCH   1   2
ATOM      2  C   UNL A   1      40.394  23.277  27.040  1.00  0.00     0.116 C 
BRANCH   2   3
ATOM      3  N   UNL A   1      41.295  23.911  26.088  1.00  0.00    -0.352 N 
ATOM      4  O   UNL A   1      42.412  25.584  25.068  1.00  0.00    -0.269 OA
ATOM      5  C   UNL A   1      41.734  25.215  26.021  1.00  0.00     0.251 C 
ATOM      6  H   UNL A   1      41.646  23.317  25.386  1.00  0.00     0.163 HD
BRANCH   5   7
ATOM      7  C   UNL A   1      41.351  26.178  27.077  1.00  0.00     0.039 A 
ATOM      8  C   UNL A   1      41.877  27.470  27.093  1.00  0.00     0.014 A 
ATOM      9  C   UNL A   1      40.471  25.770  28.084  1.00  0.00     0.014 A 
ATOM     10  C   UNL A   1      41.687  28.277  28.208  1.00  0.00     0.010 A 
ATOM     11  C   UNL A   1      40.201  26.623  29.159  1.00  0.00     0.010 A 
ATOM     12  C   UNL A   1      40.851  27.863  29.258  1.00  0.00    -0.014 A 
BRANCH  12  13
ATOM     13  C   UNL A   1      40.663  28.752  30.434  1.00  0.00     0.031 A 
ATOM     14  C   UNL A   1      41.600  28.694  31.613  1.00  0.00     0.074 A 
ATOM     15  C   UNL A   1      39.663  29.655  30.415  1.00  0.00     0.049 A 
ATOM     16  N   UNL A   1      41.605  29.431  32.695  1.00  0.00    -0.248 NA
ATOM     17  C   UNL A   1      42.661  27.675  31.579  1.00  0.00     0.031 C 
ATOM     18  C   UNL A   1      38.692  29.813  29.329  1.00  0.00     0.029 A 
ATOM     19  N   UNL A   1      39.316  30.629  31.316  1.00  0.00    -0.354 N 
ATOM     20  C   UNL A   1      42.645  28.948  33.483  1.00  0.00     0.074 A 
ATOM     21  C   UNL A   1      43.237  27.842  32.761  1.00  0.00     0.031 C 
ATOM     22  C   UNL A   1      37.902  30.863  29.597  1.00  0.00     0.029 A 
ATOM     23  C   UNL A   1      38.267  31.411  30.898  1.00  0.00     0.049 A 
ATOM     24  H   UNL A   1      39.774  30.755  32.177  1.00  0.00     0.167 HD
ATOM     25  C   UNL A   1      43.069  29.385  34.694  1.00  0.00     0.031 A 
ATOM     26  C   UNL A   1      37.658  32.454  31.492  1.00  0.00     0.031 A 
ATOM     27  C   UNL A   1      42.485  30.492  35.407  1.00  0.00     0.049 A 
ATOM     28  C   UNL A   1      38.138  32.914  32.836  1.00  0.00     0.074 A 
ATOM     29  C   UNL A   1      42.865  31.030  36.625  1.00  0.00     0.029 A 
ATOM     30  N   UNL A   1      41.396  31.231  34.967  1.00  0.00    -0.354 N 
ATOM     31  N   UNL A   1      39.134  32.454  33.554  1.00  0.00    -0.248 NA
ATOM     32  C   UNL A   1      37.412  34.032  33.451  1.00  0.00     0.031 C 
ATOM     33  C   UNL A   1      41.978  32.067  36.942  1.00  0.00     0.029 A 
ATOM     34  C   UNL A   1      41.077  32.206  35.899  1.00  0.00     0.049 A 
ATOM     35  H   UNL A   1      40.921  31.084  34.118  1.00  0.00     0.167 HD
ATOM     36  C   UNL A   1      39.165  33.237  34.700  1.00  0.00     0.074 A 
ATOM     37  C   UNL A   1      38.096  34.209  34.573  1.00  0.00     0.031 C 
ATOM     38  C   UNL A   1      40.004  33.159  35.762  1.00  0.00     0.031 A 
BRANCH  25  39
ATOM     39  C   UNL A   1      44.201  28.633  35.344  1.00  0.00    -0.014 A 
ATOM     40  C   UNL A   1      45.538  28.843  34.961  1.00  0.00     0.010 A 
ATOM     41  C   UNL A   1      43.922  27.707  36.367  1.00  0.00     0.010 A 
ATOM     42  C   UNL A   1      46.568  28.102  35.550  1.00  0.00     0.020 A 
ATOM     43  C   UNL A   1      44.951  26.982  36.974  1.00  0.00     0.020 A 
ATOM     44  C   UNL A   1      46.266  27.167  36.544  1.00  0.00     0.054 A 
BRANCH  44  45
ATOM     45  S   UNL A   1      47.617  26.206  37.281  1.00  0.00     0.124 S 
ATOM     46  O   UNL A   1      47.249  24.841  36.913  1.00  0.00    -0.237 OA
ATOM     47  O   UNL A   1      48.799  26.740  36.610  1.00  0.00    -0.237 OA
ATOM     48  O   UNL A   1      47.522  26.514  38.707  1.00  0.00    -0.744 OA
ENDBRANCH  44  45
ENDBRANCH  25  39
BRANCH  26  49
ATOM     49  C   UNL A   1      36.533  33.133  30.797  1.00  0.00    -0.014 A 
ATOM     50  C   UNL A   1      35.245  33.127  31.358  1.00  0.00     0.010 A 
ATOM     51  C   UNL A   1      36.762  33.845  29.605  1.00  0.00     0.010 A 
ATOM     52  C   UNL A   1      34.203  33.825  30.739  1.00  0.00     0.020 A 
ATOM     53  C   UNL A   1      35.728  34.563  28.998  1.00  0.00     0.020 A 
ATOM     54  C   UNL A   1      34.454  34.543  29.566  1.00  0.00     0.054 A 
BRANCH  54  55
ATOM     55  S   UNL A   1      33.110  35.514  28.828  1.00  0.00     0.124 S 
ATOM     56  O   UNL A   1      32.404  34.506  28.044  1.00  0.00    -0.237 OA
ATOM     57  O   UNL A   1      32.400  36.016  30.002  1.00  0.00    -0.237 OA
ATOM     58  O   UNL A   1      33.814  36.534  28.053  1.00  0.00    -0.744 OA
ENDBRANCH  54  55
ENDBRANCH  26  49
BRANCH  38  59
ATOM     59  C   UNL A   1      39.815  34.170  36.859  1.00  0.00    -0.014 A 
ATOM     60  C   UNL A   1      39.107  33.848  38.030  1.00  0.00     0.010 A 
ATOM     61  C   UNL A   1      40.379  35.451  36.726  1.00  0.00     0.010 A 
ATOM     62  C   UNL A   1      38.938  34.803  39.036  1.00  0.00     0.020 A 
ATOM     63  C   UNL A   1      40.232  36.401  37.739  1.00  0.00     0.020 A 
ATOM     64  C   UNL A   1      39.498  36.076  38.883  1.00  0.00     0.054 A 
BRANCH  64  65
ATOM     65  S   UNL A   1      39.294  37.290  40.214  1.00  0.00     0.124 S 
ATOM     66  O   UNL A   1      38.571  36.518  41.220  1.00  0.00    -0.237 OA
ATOM     67  O   UNL A   1      40.673  37.632  40.555  1.00  0.00    -0.237 OA
ATOM     68  O   UNL A   1      38.530  38.366  39.585  1.00  0.00    -0.744 OA
ENDBRANCH  64  65
ENDBRANCH  38  59
ENDBRANCH  12  13
ENDBRANCH   5   7
ENDBRANCH   2   3
ENDBRANCH   1   2
BRANCH   1  69
ATOM     69  C   UNL A   1      37.959  23.948  26.500  1.00  0.00     0.023 C 
BRANCH  69  70
ATOM     70  C   UNL A   1      36.758  23.725  25.590  1.00  0.00     0.116 C 
BRANCH  70  71
ATOM     71  N   UNL A   1      37.081  23.459  24.193  1.00  0.00    -0.352 N 
ATOM     72  C   UNL A   1      36.232  23.153  23.145  1.00  0.00     0.253 C 
ATOM     73  H   UNL A   1      38.038  23.502  23.963  1.00  0.00     0.163 HD
ATOM     74  O   UNL A   1      36.673  22.952  22.024  1.00  0.00    -0.269 OA
BRANCH  72  75
ATOM     75  C   UNL A   1      34.780  23.007  23.410  1.00  0.00     0.065 A 
ATOM     76  C   UNL A   1      33.970  24.118  23.136  1.00  0.00     0.042 A 
ATOM     77  C   UNL A   1      34.206  21.814  23.873  1.00  0.00     0.054 A 
ATOM     78  C   UNL A   1      32.585  23.996  23.189  1.00  0.00     0.038 A 
ATOM     79  C   UNL A   1      32.864  21.625  23.608  1.00  0.00     0.029 A 
ATOM     80  C   UNL A   1      32.047  22.716  23.315  1.00  0.00     0.028 A 
BRANCH  77  81
ATOM     81  N   UNL A   1      34.996  20.870  24.546  1.00  0.00    -0.325 N 
ATOM     82  C   UNL A   1      34.938  19.538  24.776  1.00  0.00     0.227 C 
ATOM     83  H   UNL A   1      35.793  21.281  24.953  1.00  0.00     0.169 HD
ATOM     84  O   UNL A   1      35.945  19.079  25.340  1.00  0.00    -0.274 OA
BRANCH  82  85
ATOM     85  C   UNL A   1      33.797  18.564  24.445  1.00  0.00     0.079 C 
ATOM     86  C   UNL A   1      34.445  17.275  23.898  1.00  0.00     0.013 C 
ATOM     87  C   UNL A   1      32.853  17.968  25.481  1.00  0.00     0.013 C 
ATOM     88  C   UNL A   1      33.328  16.249  23.830  1.00  0.00     0.001 C 
ATOM     89  C   UNL A   1      32.326  16.668  24.888  1.00  0.00     0.001 C 
ENDBRANCH  82  85
ENDBRANCH  77  81
BRANCH  78  90
ATOM     90  N   UNL A   1      31.765  25.088  23.144  1.00  0.00    -0.368 N 
ATOM     91  C   UNL A   1      30.578  25.223  23.985  1.00  0.00     0.138 C 
ATOM     92  C   UNL A   1      32.083  26.203  22.244  1.00  0.00     0.138 C 
ATOM     93  C   UNL A   1      30.645  26.551  24.780  1.00  0.00     0.138 C 
ATOM     94  C   UNL A   1      32.105  27.539  23.013  1.00  0.00     0.138 C 
ATOM     95  N   UNL A   1      30.926  27.693  23.883  1.00  0.00    -0.368 N 
BRANCH  95  96
ATOM     96  C   UNL A   1      29.941  28.626  23.638  1.00  0.00     0.037 A 
ATOM     97  C   UNL A   1      30.182  29.984  23.900  1.00  0.00     0.029 A 
ATOM     98  C   UNL A   1      28.684  28.276  23.126  1.00  0.00     0.029 A 
ATOM     99  C   UNL A   1      29.212  30.959  23.660  1.00  0.00     0.041 A 
ATOM    100  C   UNL A   1      27.700  29.244  22.897  1.00  0.00     0.041 A 
ATOM    101  C   UNL A   1      27.975  30.577  23.164  1.00  0.00     0.123 A 
ATOM    102  F   UNL A   1      27.037  31.507  22.939  1.00  0.00    -0.207 F 
ENDBRANCH  95  96
ENDBRANCH  78  90
ENDBRANCH  72  75
ENDBRANCH  70  71
ENDBRANCH  69  70
ENDBRANCH   1  69
TORSDOF 18
ENDMDL
MODEL 2
REMARK VINA RESULT:     -12.5      3.624     10.104
REMARK SMILES O=C(NCCCCNC(=O)c1cc(N2CCN(c3ccc(F)cc3)CC2)ccc1NC(=O)C1CCCC1)c1ccc(-c2c3nc(c(-c4ccc(S(=O)(=O)[O-])cc4)c4ccc([nH]4)c(-c4ccc(S(=O)(=O)[O-])cc4)c4nc(c(-c5ccc(S(=O)(=O)[O-])cc5)c5ccc2[nH]5)C=C4)C=C3)cc1
REMARK SMILES IDX 5 1 4 2 3 3 1 4 2 5 38 7 39 8 97 9 40 10 96 11 41 12 42 13
REMARK SMILES IDX 43 14 90 15 44 16 95 17 89 18 91 19 45 20 94 21 88 22 87 23
REMARK SMILES IDX 46 25 76 26 57 27 75 28 58 29 61 30 74 31 92 32 59 33 60 34
REMARK SMILES IDX 73 36 93 37 62 38 47 39 48 40 56 41 49 42 55 43 50 44 51 45
REMARK SMILES IDX 52 46 53 47 54 48 77 49 78 50 86 51 79 52 85 53 80 54 81 55
REMARK SMILES IDX 82 56 83 57 84 58 63 59 64 60 72 61 65 62 71 63 66 64 67 65
REMARK SMILES IDX 68 66 69 67 70 68 6 69 7 70 8 71 9 72 10 74 11 75 12 76
REMARK SMILES IDX 29 77 13 78 28 79 27 80 30 81 31 82 32 84 33 85 34 86 37 87
REMARK SMILES IDX 35 88 36 89 14 90 15 91 26 92 16 93 25 94 17 95 18 96 19 97
REMARK SMILES IDX 24 98 20 99 23 100 21 101 22 102
REMARK H PARENT 3 6 91 24 61 35 8 73 30 83
REMARK Flexibility Score: inf
ROOT
ATOM      1  C   UNL A   1      33.936  28.594  27.395  1.00  0.00     0.023 C 
ENDROOT
BRANCH   1   2
ATOM      2  C   UNL A   1      34.454  29.925  26.863  1.00  0.00     0.116 C 
BRANCH   2   3
ATOM      3  N   UNL A   1      34.130  31.060  27.717  1.00  0.00    -0.352 N 
ATOM      4  O   UNL A   1      34.316  32.479  29.460  1.00  0.00    -0.269 OA
ATOM      5  C   UNL A   1      34.815  31.577  28.795  1.00  0.00     0.251 C 
ATOM      6  H   UNL A   1      33.296  31.530  27.489  1.00  0.00     0.163 HD
BRANCH   5   7
ATOM      7  C   UNL A   1      36.129  31.014  29.174  1.00  0.00     0.039 A 
ATOM      8  C   UNL A   1      36.216  29.878  29.978  1.00  0.00     0.014 A 
ATOM      9  C   UNL A   1      37.295  31.654  28.740  1.00  0.00     0.014 A 
ATOM     10  C   UNL A   1      37.445  29.502  30.509  1.00  0.00     0.010 A 
ATOM     11  C   UNL A   1      38.541  31.213  29.196  1.00  0.00     0.010 A 
ATOM     12  C   UNL A   1      38.622  30.167  30.129  1.00  0.00    -0.014 A 
BRANCH  12  13
ATOM     13  C   UNL A   1      39.921  29.737  30.709  1.00  0.00     0.031 A 
ATOM     14  C   UNL A   1      40.437  30.333  31.993  1.00  0.00     0.074 A 
ATOM     15  C   UNL A   1      40.619  28.762  30.093  1.00  0.00     0.049 A 
ATOM     16  N   UNL A   1      41.525  30.036  32.658  1.00  0.00    -0.248 NA
ATOM     17  C   UNL A   1      39.636  31.403  32.607  1.00  0.00     0.031 C 
ATOM     18  C   UNL A   1      40.223  28.102  28.847  1.00  0.00     0.029 A 
ATOM     19  N   UNL A   1      41.786  28.135  30.445  1.00  0.00    -0.354 N 
ATOM     20  C   UNL A   1      41.556  30.899  33.748  1.00  0.00     0.074 A 
ATOM     21  C   UNL A   1      40.386  31.744  33.645  1.00  0.00     0.031 C 
ATOM     22  C   UNL A   1      41.096  27.122  28.573  1.00  0.00     0.029 A 
ATOM     23  C   UNL A   1      42.144  27.124  29.586  1.00  0.00     0.049 A 
ATOM     24  H   UNL A   1      42.316  28.384  31.236  1.00  0.00     0.167 HD
ATOM     25  C   UNL A   1      42.474  30.981  34.743  1.00  0.00     0.031 A 
ATOM     26  C   UNL A   1      43.200  26.289  29.604  1.00  0.00     0.031 A 
ATOM     27  C   UNL A   1      43.632  30.132  34.851  1.00  0.00     0.049 A 
ATOM     28  C   UNL A   1      44.207  26.404  30.709  1.00  0.00     0.074 A 
ATOM     29  C   UNL A   1      44.602  30.117  35.838  1.00  0.00     0.029 A 
ATOM     30  N   UNL A   1      43.980  29.148  33.936  1.00  0.00    -0.354 N 
ATOM     31  N   UNL A   1      44.207  27.217  31.739  1.00  0.00    -0.248 NA
ATOM     32  C   UNL A   1      45.355  25.492  30.655  1.00  0.00     0.031 C 
ATOM     33  C   UNL A   1      45.559  29.153  35.499  1.00  0.00     0.029 A 
ATOM     34  C   UNL A   1      45.160  28.535  34.325  1.00  0.00     0.049 A 
ATOM     35  H   UNL A   1      43.464  28.920  33.129  1.00  0.00     0.167 HD
ATOM     36  C   UNL A   1      45.347  26.903  32.465  1.00  0.00     0.074 A 
ATOM     37  C   UNL A   1      46.005  25.817  31.765  1.00  0.00     0.031 C 
ATOM     38  C   UNL A   1      45.807  27.463  33.611  1.00  0.00     0.031 A 
BRANCH  25  39
ATOM     39  C   UNL A   1      42.277  32.057  35.779  1.00  0.00    -0.014 A 
ATOM     40  C   UNL A   1      41.556  31.814  36.963  1.00  0.00     0.010 A 
ATOM     41  C   UNL A   1      42.835  33.332  35.569  1.00  0.00     0.010 A 
ATOM     42  C   UNL A   1      41.352  32.841  37.890  1.00  0.00     0.020 A 
ATOM     43  C   UNL A   1      42.653  34.354  36.505  1.00  0.00     0.020 A 
ATOM     44  C   UNL A   1      41.891  34.109  37.649  1.00  0.00     0.054 A 
BRANCH  44  45
ATOM     45  S   UNL A   1      41.598  35.430  38.858  1.00  0.00     0.124 S 
ATOM     46  O   UNL A   1      40.174  35.264  39.142  1.00  0.00    -0.237 OA
ATOM     47  O   UNL A   1      42.501  35.076  39.950  1.00  0.00    -0.237 OA
ATOM     48  O   UNL A   1      41.951  36.648  38.132  1.00  0.00    -0.744 OA
ENDBRANCH  44  45
ENDBRANCH  25  39
BRANCH  26  49
ATOM     49  C   UNL A   1      43.337  25.266  28.535  1.00  0.00    -0.014 A 
ATOM     50  C   UNL A   1      44.037  25.562  27.353  1.00  0.00     0.010 A 
ATOM     51  C   UNL A   1      42.824  23.969  28.724  1.00  0.00     0.010 A 
ATOM     52  C   UNL A   1      44.225  24.577  26.379  1.00  0.00     0.020 A 
ATOM     53  C   UNL A   1      43.031  22.977  27.763  1.00  0.00     0.020 A 
ATOM     54  C   UNL A   1      43.726  23.289  26.594  1.00  0.00     0.054 A 
BRANCH  54  55
ATOM     55  S   UNL A   1      44.057  22.003  25.357  1.00  0.00     0.124 S 
ATOM     56  O   UNL A   1      43.401  22.546  24.172  1.00  0.00    -0.237 OA
ATOM     57  O   UNL A   1      45.517  21.971  25.316  1.00  0.00    -0.237 OA
ATOM     58  O   UNL A   1      43.434  20.812  25.931  1.00  0.00    -0.744 OA
ENDBRANCH  54  55
ENDBRANCH  26  49
BRANCH  38  59
ATOM     59  C   UNL A   1      47.072  26.892  34.192  1.00  0.00    -0.014 A 
ATOM     60  C   UNL A   1      47.036  25.802  35.080  1.00  0.00     0.010 A 
ATOM     61  C   UNL A   1      48.314  27.436  33.819  1.00  0.00     0.010 A 
ATOM     62  C   UNL A   1      48.222  25.288  35.612  1.00  0.00     0.020 A 
ATOM     63  C   UNL A   1      49.502  26.911  34.332  1.00  0.00     0.020 A 
ATOM     64  C   UNL A   1      49.448  25.849  35.238  1.00  0.00     0.054 A 
BRANCH  64  65
ATOM     65  S   UNL A   1      50.976  25.147  35.916  1.00  0.00     0.124 S 
ATOM     66  O   UNL A   1      50.656  23.723  35.975  1.00  0.00    -0.237 OA
ATOM     67  O   UNL A   1      51.976  25.526  34.921  1.00  0.00    -0.237 OA
ATOM     68  O   UNL A   1      51.114  25.809  37.212  1.00  0.00    -0.744 OA
ENDBRANCH  64  65
ENDBRANCH  38  59
ENDBRANCH  12  13
ENDBRANCH   5   7
ENDBRANCH   2   3
ENDBRANCH   1   2
BRANCH   1  69
ATOM     69  C   UNL A   1      32.422  28.469  27.513  1.00  0.00     0.023 C 
BRANCH  69  70
ATOM     70  C   UNL A   1      31.728  27.688  26.404  1.00  0.00     0.116 C 
BRANCH  70  71
ATOM     71  N   UNL A   1      30.643  26.819  26.846  1.00  0.00    -0.352 N 
ATOM     72  C   UNL A   1      30.301  25.556  26.397  1.00  0.00     0.253 C 
ATOM     73  H   UNL A   1      30.075  27.182  27.563  1.00  0.00     0.163 HD
ATOM     74  O   UNL A   1      29.349  24.962  26.878  1.00  0.00    -0.269 OA
BRANCH  72  75
ATOM     75  C   UNL A   1      31.065  24.955  25.278  1.00  0.00     0.065 A 
ATOM     76  C   UNL A   1      32.152  24.138  25.618  1.00  0.00     0.042 A 
ATOM     77  C   UNL A   1      30.718  25.140  23.931  1.00  0.00     0.054 A 
ATOM     78  C   UNL A   1      32.799  23.400  24.632  1.00  0.00     0.038 A 
ATOM     79  C   UNL A   1      31.146  24.177  23.039  1.00  0.00     0.029 A 
ATOM     80  C   UNL A   1      32.213  23.343  23.368  1.00  0.00     0.028 A 
BRANCH  77  81
ATOM     81  N   UNL A   1      29.947  26.249  23.552  1.00  0.00    -0.325 N 
ATOM     82  C   UNL A   1      30.170  27.413  22.898  1.00  0.00     0.227 C 
ATOM     83  H   UNL A   1      29.008  26.158  23.832  1.00  0.00     0.169 HD
ATOM     84  O   UNL A   1      29.141  28.071  22.674  1.00  0.00    -0.274 OA
BRANCH  82  85
ATOM     85  C   UNL A   1      31.511  28.000  22.433  1.00  0.00     0.079 C 
ATOM     86  C   UNL A   1      32.081  28.818  23.610  1.00  0.00     0.013 C 
ATOM     87  C   UNL A   1      32.733  27.164  22.074  1.00  0.00     0.013 C 
ATOM     88  C   UNL A   1      33.508  29.161  23.221  1.00  0.00     0.001 C 
ATOM     89  C   UNL A   1      33.946  28.065  22.270  1.00  0.00     0.001 C 
ENDBRANCH  82  85
ENDBRANCH  77  81
BRANCH  78  90
ATOM     90  N   UNL A   1      33.986  22.766  24.872  1.00  0.00    -0.368 N 
ATOM     91  C   UNL A   1      34.698  22.003  23.848  1.00  0.00     0.138 C 
ATOM     92  C   UNL A   1      34.610  22.862  26.197  1.00  0.00     0.138 C 
ATOM     93  C   UNL A   1      36.151  22.527  23.720  1.00  0.00     0.138 C 
ATOM     94  C   UNL A   1      36.073  23.335  26.080  1.00  0.00     0.138 C 
ATOM     95  N   UNL A   1      36.810  22.593  25.042  1.00  0.00    -0.368 N 
BRANCH  95  96
ATOM     96  C   UNL A   1      37.827  21.713  25.342  1.00  0.00     0.037 A 
ATOM     97  C   UNL A   1      38.949  22.157  26.061  1.00  0.00     0.029 A 
ATOM     98  C   UNL A   1      37.794  20.365  24.957  1.00  0.00     0.029 A 
ATOM     99  C   UNL A   1      39.997  21.295  26.388  1.00  0.00     0.041 A 
ATOM    100  C   UNL A   1      38.846  19.497  25.268  1.00  0.00     0.041 A 
ATOM    101  C   UNL A   1      39.937  19.970  25.982  1.00  0.00     0.123 A 
ATOM    102  F   UNL A   1      40.943  19.139  26.286  1.00  0.00    -0.207 F 
ENDBRANCH  95  96
ENDBRANCH  78  90
ENDBRANCH  72  75
ENDBRANCH  70  71
ENDBRANCH  69  70
ENDBRANCH   1  69
TORSDOF 18
ENDMDL
MODEL 3
REMARK VINA RESULT:     -12.3      0.750      7.767
REMARK SMILES O=C(NCCCCNC(=O)c1cc(N2CCN(c3ccc(F)cc3)CC2)ccc1NC(=O)C1CCCC1)c1ccc(-c2c3nc(c(-c4ccc(S(=O)(=O)[O-])cc4)c4ccc([nH]4)c(-c4ccc(S(=O)(=O)[O-])cc4)c4nc(c(-c5ccc(S(=O)(=O)[O-])cc5)c5ccc2[nH]5)C=C4)C=C3)cc1
REMARK SMILES IDX 5 1 4 2 3 3 1 4 2 5 38 7 39 8 97 9 40 10 96 11 41 12 42 13
REMARK SMILES IDX 43 14 90 15 44 16 95 17 89 18 91 19 45 20 94 21 88 22 87 23
REMARK SMILES IDX 46 25 76 26 57 27 75 28 58 29 61 30 74 31 92 32 59 33 60 34
REMARK SMILES IDX 73 36 93 37 62 38 47 39 48 40 56 41 49 42 55 43 50 44 51 45
REMARK SMILES IDX 52 46 53 47 54 48 77 49 78 50 86 51 79 52 85 53 80 54 81 55
REMARK SMILES IDX 82 56 83 57 84 58 63 59 64 60 72 61 65 62 71 63 66 64 67 65
REMARK SMILES IDX 68 66 69 67 70 68 6 69 7 70 8 71 9 72 10 74 11 75 12 76
REMARK SMILES IDX 29 77 13 78 28 79 27 80 30 81 31 82 32 84 33 85 34 86 37 87
REMARK SMILES IDX 35 88 36 89 14 90 15 91 26 92 16 93 25 94 17 95 18 96 19 97
REMARK SMILES IDX 24 98 20 99 23 100 21 101 22 102
REMARK H PARENT 3 6 91 24 61 35 8 73 30 83
REMARK Flexibility Score: inf
ROOT
ATOM      1  C   UNL A   1      39.328  22.835  26.472  1.00  0.00     0.023 C 
ENDROOT
BRANCH   1   2
ATOM      2  C   UNL A   1      40.675  23.048  27.152  1.00  0.00     0.116 C 
BRANCH   2   3
ATOM      3  N   UNL A   1      41.680  23.640  26.281  1.00  0.00    -0.352 N 
ATOM      4  O   UNL A   1      42.955  25.261  25.366  1.00  0.00    -0.269 OA
ATOM      5  C   UNL A   1      42.185  24.922  26.259  1.00  0.00     0.251 C 
ATOM      6  H   UNL A   1      42.059  23.032  25.606  1.00  0.00     0.163 HD
BRANCH   5   7
ATOM      7  C   UNL A   1      41.763  25.900  27.286  1.00  0.00     0.039 A 
ATOM      8  C   UNL A   1      42.114  27.246  27.180  1.00  0.00     0.014 A 
ATOM      9  C   UNL A   1      41.028  25.454  28.389  1.00  0.00     0.014 A 
ATOM     10  C   UNL A   1      41.909  28.098  28.259  1.00  0.00     0.010 A 
ATOM     11  C   UNL A   1      40.734  26.338  29.432  1.00  0.00     0.010 A 
ATOM     12  C   UNL A   1      41.221  27.654  29.401  1.00  0.00    -0.014 A 
BRANCH  12  13
ATOM     13  C   UNL A   1      41.011  28.592  30.535  1.00  0.00     0.031 A 
ATOM     14  C   UNL A   1      39.878  29.585  30.526  1.00  0.00     0.074 A 
ATOM     15  C   UNL A   1      41.826  28.511  31.606  1.00  0.00     0.049 A 
ATOM     16  N   UNL A   1      39.527  30.439  31.455  1.00  0.00    -0.248 NA
ATOM     17  C   UNL A   1      39.035  29.633  29.321  1.00  0.00     0.031 C 
ATOM     18  C   UNL A   1      42.955  27.588  31.737  1.00  0.00     0.029 A 
ATOM     19  N   UNL A   1      41.811  29.190  32.797  1.00  0.00    -0.354 N 
ATOM     20  C   UNL A   1      38.446  31.146  30.937  1.00  0.00     0.074 A 
ATOM     21  C   UNL A   1      38.211  30.631  29.605  1.00  0.00     0.031 C 
ATOM     22  C   UNL A   1      43.484  27.713  32.963  1.00  0.00     0.029 A 
ATOM     23  C   UNL A   1      42.774  28.766  33.680  1.00  0.00     0.049 A 
ATOM     24  H   UNL A   1      41.172  29.910  33.000  1.00  0.00     0.167 HD
ATOM     25  C   UNL A   1      37.717  32.130  31.517  1.00  0.00     0.031 A 
ATOM     26  C   UNL A   1      43.062  29.175  34.929  1.00  0.00     0.031 A 
ATOM     27  C   UNL A   1      37.946  32.634  32.847  1.00  0.00     0.049 A 
ATOM     28  C   UNL A   1      42.248  30.273  35.547  1.00  0.00     0.074 A 
ATOM     29  C   UNL A   1      37.241  33.608  33.533  1.00  0.00     0.029 A 
ATOM     30  N   UNL A   1      38.960  32.206  33.692  1.00  0.00    -0.354 N 
ATOM     31  N   UNL A   1      41.219  30.914  35.045  1.00  0.00    -0.248 NA
ATOM     32  C   UNL A   1      42.632  30.702  36.896  1.00  0.00     0.031 C 
ATOM     33  C   UNL A   1      37.854  33.798  34.778  1.00  0.00     0.029 A 
ATOM     34  C   UNL A   1      38.911  32.909  34.884  1.00  0.00     0.049 A 
ATOM     35  H   UNL A   1      39.616  31.504  33.475  1.00  0.00     0.167 HD
ATOM     36  C   UNL A   1      40.823  31.814  36.025  1.00  0.00     0.074 A 
ATOM     37  C   UNL A   1      41.714  31.624  37.154  1.00  0.00     0.031 C 
ATOM     38  C   UNL A   1      39.811  32.716  35.994  1.00  0.00     0.031 A 
BRANCH  25  39
ATOM     39  C   UNL A   1      36.621  32.757  30.693  1.00  0.00    -0.014 A 
ATOM     40  C   UNL A   1      35.320  32.221  30.674  1.00  0.00     0.010 A 
ATOM     41  C   UNL A   1      36.896  33.910  29.935  1.00  0.00     0.010 A 
ATOM     42  C   UNL A   1      34.331  32.796  29.869  1.00  0.00     0.020 A 
ATOM     43  C   UNL A   1      35.903  34.501  29.148  1.00  0.00     0.020 A 
ATOM     44  C   UNL A   1      34.633  33.925  29.101  1.00  0.00     0.054 A 
BRANCH  44  45
ATOM     45  S   UNL A   1      33.338  34.642  28.052  1.00  0.00     0.124 S 
ATOM     46  O   UNL A   1      32.511  33.473  27.758  1.00  0.00    -0.237 OA
ATOM     47  O   UNL A   1      32.727  35.639  28.927  1.00  0.00    -0.237 OA
ATOM     48  O   UNL A   1      34.076  35.185  26.914  1.00  0.00    -0.744 OA
ENDBRANCH  44  45
ENDBRANCH  25  39
BRANCH  26  49
ATOM     49  C   UNL A   1      44.172  28.523  35.672  1.00  0.00    -0.014 A 
ATOM     50  C   UNL A   1      45.482  29.023  35.574  1.00  0.00     0.010 A 
ATOM     51  C   UNL A   1      43.911  27.440  36.532  1.00  0.00     0.010 A 
ATOM     52  C   UNL A   1      46.512  28.451  36.327  1.00  0.00     0.020 A 
ATOM     53  C   UNL A   1      44.934  26.883  37.303  1.00  0.00     0.020 A 
ATOM     54  C   UNL A   1      46.230  27.389  37.191  1.00  0.00     0.054 A 
BRANCH  54  55
ATOM     55  S   UNL A   1      47.564  26.722  38.225  1.00  0.00     0.124 S 
ATOM     56  O   UNL A   1      46.854  26.383  39.454  1.00  0.00    -0.237 OA
ATOM     57  O   UNL A   1      48.040  25.589  37.435  1.00  0.00    -0.237 OA
ATOM     58  O   UNL A   1      48.503  27.836  38.328  1.00  0.00    -0.744 OA
ENDBRANCH  54  55
ENDBRANCH  26  49
BRANCH  38  59
ATOM     59  C   UNL A   1      39.598  33.548  37.228  1.00  0.00    -0.014 A 
ATOM     60  C   UNL A   1      40.289  34.757  37.417  1.00  0.00     0.010 A 
ATOM     61  C   UNL A   1      38.671  33.125  38.198  1.00  0.00     0.010 A 
ATOM     62  C   UNL A   1      40.080  35.514  38.573  1.00  0.00     0.020 A 
ATOM     63  C   UNL A   1      38.444  33.890  39.344  1.00  0.00     0.020 A 
ATOM     64  C   UNL A   1      39.162  35.074  39.532  1.00  0.00     0.054 A 
BRANCH  64  65
ATOM     65  S   UNL A   1      38.883  36.087  41.010  1.00  0.00     0.124 S 
ATOM     66  O   UNL A   1      38.603  37.398  40.431  1.00  0.00    -0.237 OA
ATOM     67  O   UNL A   1      37.748  35.425  41.647  1.00  0.00    -0.237 OA
ATOM     68  O   UNL A   1      40.145  35.985  41.741  1.00  0.00    -0.744 OA
ENDBRANCH  64  65
ENDBRANCH  38  59
ENDBRANCH  12  13
ENDBRANCH   5   7
ENDBRANCH   2   3
ENDBRANCH   1   2
BRANCH   1  69
ATOM     69  C   UNL A   1      38.331  23.981  26.597  1.00  0.00     0.023 C 
BRANCH  69  70
ATOM     70  C   UNL A   1      37.082  23.875  25.733  1.00  0.00     0.116 C 
BRANCH  70  71
ATOM     71  N   UNL A   1      37.324  23.573  24.327  1.00  0.00    -0.352 N 
ATOM     72  C   UNL A   1      36.416  23.246  23.336  1.00  0.00     0.253 C 
ATOM     73  H   UNL A   1      38.267  23.605  24.043  1.00  0.00     0.163 HD
ATOM     74  O   UNL A   1      36.794  23.015  22.198  1.00  0.00    -0.269 OA
BRANCH  72  75
ATOM     75  C   UNL A   1      34.981  23.115  23.686  1.00  0.00     0.065 A 
ATOM     76  C   UNL A   1      34.173  24.240  23.480  1.00  0.00     0.042 A 
ATOM     77  C   UNL A   1      34.419  21.921  24.161  1.00  0.00     0.054 A 
ATOM     78  C   UNL A   1      32.792  24.135  23.614  1.00  0.00     0.038 A 
ATOM     79  C   UNL A   1      33.061  21.753  23.974  1.00  0.00     0.029 A 
ATOM     80  C   UNL A   1      32.244  22.861  23.750  1.00  0.00     0.028 A 
BRANCH  77  81
ATOM     81  N   UNL A   1      35.235  20.954  24.769  1.00  0.00    -0.325 N 
ATOM     82  C   UNL A   1      35.242  19.604  24.860  1.00  0.00     0.227 C 
ATOM     83  H   UNL A   1      35.992  21.361  25.248  1.00  0.00     0.169 HD
ATOM     84  O   UNL A   1      36.252  19.142  25.417  1.00  0.00    -0.274 OA
BRANCH  82  85
ATOM     85  C   UNL A   1      34.170  18.613  24.385  1.00  0.00     0.079 C 
ATOM     86  C   UNL A   1      34.767  17.197  24.524  1.00  0.00     0.013 C 
ATOM     87  C   UNL A   1      32.829  18.404  25.078  1.00  0.00     0.013 C 
ATOM     88  C   UNL A   1      33.611  16.238  24.303  1.00  0.00     0.001 C 
ATOM     89  C   UNL A   1      32.365  17.001  24.710  1.00  0.00     0.001 C 
ENDBRANCH  82  85
ENDBRANCH  77  81
BRANCH  78  90
ATOM     90  N   UNL A   1      31.986  25.239  23.639  1.00  0.00    -0.368 N 
ATOM     91  C   UNL A   1      31.937  26.160  24.773  1.00  0.00     0.138 C 
ATOM     92  C   UNL A   1      31.146  25.554  22.477  1.00  0.00     0.138 C 
ATOM     93  C   UNL A   1      32.213  27.605  24.287  1.00  0.00     0.138 C 
ATOM     94  C   UNL A   1      31.374  27.008  22.014  1.00  0.00     0.138 C 
ATOM     95  N   UNL A   1      31.347  27.955  23.141  1.00  0.00    -0.368 N 
BRANCH  95  96
ATOM     96  C   UNL A   1      30.338  28.881  23.306  1.00  0.00     0.037 A 
ATOM     97  C   UNL A   1      29.067  28.636  22.762  1.00  0.00     0.029 A 
ATOM     98  C   UNL A   1      30.525  30.079  24.010  1.00  0.00     0.029 A 
ATOM     99  C   UNL A   1      28.019  29.546  22.912  1.00  0.00     0.041 A 
ATOM    100  C   UNL A   1      29.485  31.004  24.153  1.00  0.00     0.041 A 
ATOM    101  C   UNL A   1      28.241  30.728  23.604  1.00  0.00     0.123 A 
ATOM    102  F   UNL A   1      27.242  31.609  23.746  1.00  0.00    -0.207 F 
ENDBRANCH  95  96
ENDBRANCH  78  90
ENDBRANCH  72  75
ENDBRANCH  70  71
ENDBRANCH  69  70
ENDBRANCH   1  69
TORSDOF 18
ENDMDL
