MODEL 1
REMARK VINA RESULT:     -10.9      0.000      0.000
REMARK SMILES CCOc1ccccc1Nc1ccc(C(=O)NCCCCNC(=O)c2ccc(-c3c4nc(c(-c5ccc(S(=O)(=O)[O-])cc5)c5ccc([nH]5)c(-c5ccc(S(=O)(=O)[O-])cc5)c5nc(c(-c6ccc(S(=O)(=O)[O-])cc6)c6ccc3[nH]6)C=C5)C=C4)cc2)cc1N
REMARK SMILES IDX 19 1 18 2 17 3 15 4 16 5 14 7 11 8 12 9 86 10 13 11 85 12
REMARK SMILES IDX 10 13 9 15 4 16 5 17 6 18 8 19 7 20 3 21 2 22 1 23 87 24
REMARK SMILES IDX 20 27 21 28 22 29 23 30 24 32 25 33 26 34 84 35 27 36 83 37
REMARK SMILES IDX 28 38 29 39 30 40 77 41 31 42 82 43 76 44 78 45 32 46 81 47
REMARK SMILES IDX 75 48 74 49 33 51 63 52 44 53 62 54 45 55 48 56 61 57 79 58
REMARK SMILES IDX 46 59 47 60 60 62 80 63 49 64 34 65 35 66 43 67 36 68 42 69
REMARK SMILES IDX 37 70 38 71 39 72 40 73 41 74 64 75 65 76 73 77 66 78 72 79
REMARK SMILES IDX 67 80 68 81 69 82 70 83 71 84 50 85 51 86 59 87 52 88 58 89
REMARK SMILES IDX 53 90 54 91 55 92 56 93 57 94
REMARK H PARENT 17 6 10 14 87 25 87 26 22 31 78 50 48 61
REMARK Flexibility Score: inf
ROOT
ATOM      1  C   UNL A   1      31.476  28.940  26.002  1.00  0.00     0.023 C 
ENDROOT
BRANCH   1   2
ATOM      2  C   UNL A   1      32.105  29.535  24.740  1.00  0.00     0.116 C 
BRANCH   2   3
ATOM      3  N   UNL A   1      31.181  29.439  23.626  1.00  0.00    -0.352 N 
ATOM      4  C   UNL A   1      30.933  28.428  22.733  1.00  0.00     0.251 C 
ATOM      5  O   UNL A   1      30.078  28.607  21.868  1.00  0.00    -0.269 OA
ATOM      6  H   UNL A   1      30.634  30.245  23.484  1.00  0.00     0.163 HD
BRANCH   4   7
ATOM      7  C   UNL A   1      31.598  27.103  22.826  1.00  0.00     0.041 A 
ATOM      8  C   UNL A   1      32.986  24.649  22.830  1.00  0.00     0.062 A 
ATOM      9  C   UNL A   1      33.679  25.866  22.760  1.00  0.00     0.029 A 
ATOM     10  C   UNL A   1      31.578  24.667  22.949  1.00  0.00     0.056 A 
ATOM     11  C   UNL A   1      32.993  27.080  22.743  1.00  0.00     0.016 A 
ATOM     12  C   UNL A   1      30.916  25.898  23.013  1.00  0.00     0.041 A 
BRANCH   8  13
ATOM     13  N   UNL A   1      33.740  23.465  22.747  1.00  0.00    -0.351 N 
ATOM     14  H   UNL A   1      33.569  22.934  21.936  1.00  0.00     0.167 HD
BRANCH  13  15
ATOM     15  C   UNL A   1      34.692  22.904  23.613  1.00  0.00     0.081 A 
ATOM     16  C   UNL A   1      34.260  22.245  24.776  1.00  0.00     0.142 A 
ATOM     17  C   UNL A   1      35.170  21.664  25.659  1.00  0.00     0.048 A 
ATOM     18  C   UNL A   1      36.533  21.699  25.364  1.00  0.00     0.004 A 
ATOM     19  C   UNL A   1      36.060  22.907  23.321  1.00  0.00     0.030 A 
ATOM     20  C   UNL A   1      36.977  22.315  24.193  1.00  0.00     0.002 A 
BRANCH  16  21
ATOM     21  O   UNL A   1      32.920  22.221  25.077  1.00  0.00    -0.492 OA
BRANCH  21  22
ATOM     22  C   UNL A   1      32.679  22.579  26.446  1.00  0.00     0.226 C 
ATOM     23  C   UNL A   1      32.252  24.036  26.545  1.00  0.00     0.049 C 
ENDBRANCH  21  22
ENDBRANCH  16  21
ENDBRANCH  13  15
ENDBRANCH   8  13
BRANCH  10  24
ATOM     24  N   UNL A   1      30.837  23.509  23.197  1.00  0.00    -0.397 N 
ATOM     25  H   UNL A   1      29.957  23.386  22.772  1.00  0.00     0.156 HD
ATOM     26  H   UNL A   1      31.194  22.815  23.796  1.00  0.00     0.156 HD
ENDBRANCH  10  24
ENDBRANCH   4   7
ENDBRANCH   2   3
ENDBRANCH   1   2
BRANCH   1  27
ATOM     27  C   UNL A   1      32.370  27.925  26.720  1.00  0.00     0.023 C 
BRANCH  27  28
ATOM     28  C   UNL A   1      33.673  28.500  27.261  1.00  0.00     0.116 C 
BRANCH  28  29
ATOM     29  N   UNL A   1      33.558  29.895  27.658  1.00  0.00    -0.352 N 
ATOM     30  C   UNL A   1      34.508  30.692  28.251  1.00  0.00     0.251 C 
ATOM     31  H   UNL A   1      32.688  30.322  27.479  1.00  0.00     0.163 HD
ATOM     32  O   UNL A   1      34.221  31.818  28.631  1.00  0.00    -0.269 OA
BRANCH  30  33
ATOM     33  C   UNL A   1      35.867  30.148  28.460  1.00  0.00     0.039 A 
ATOM     34  C   UNL A   1      36.780  30.201  27.406  1.00  0.00     0.014 A 
ATOM     35  C   UNL A   1      36.244  29.632  29.702  1.00  0.00     0.014 A 
ATOM     36  C   UNL A   1      38.097  29.792  27.617  1.00  0.00     0.010 A 
ATOM     37  C   UNL A   1      37.572  29.284  29.928  1.00  0.00     0.010 A 
ATOM     38  C   UNL A   1      38.511  29.363  28.889  1.00  0.00    -0.014 A 
BRANCH  38  39
ATOM     39  C   UNL A   1      39.925  28.992  29.151  1.00  0.00     0.031 A 
ATOM     40  C   UNL A   1      40.861  29.991  29.772  1.00  0.00     0.074 A 
ATOM     41  C   UNL A   1      40.374  27.777  28.782  1.00  0.00     0.049 A 
ATOM     42  N   UNL A   1      42.138  29.873  30.027  1.00  0.00    -0.248 NA
ATOM     43  C   UNL A   1      40.294  31.301  30.133  1.00  0.00     0.031 C 
ATOM     44  C   UNL A   1      39.570  26.733  28.137  1.00  0.00     0.029 A 
ATOM     45  N   UNL A   1      41.620  27.213  28.892  1.00  0.00    -0.354 N 
ATOM     46  C   UNL A   1      42.529  31.091  30.571  1.00  0.00     0.074 A 
ATOM     47  C   UNL A   1      41.367  31.952  30.559  1.00  0.00     0.031 C 
ATOM     48  C   UNL A   1      40.337  25.648  27.938  1.00  0.00     0.029 A 
ATOM     49  C   UNL A   1      41.692  25.929  28.404  1.00  0.00     0.049 A 
ATOM     50  H   UNL A   1      42.391  27.683  29.284  1.00  0.00     0.167 HD
ATOM     51  C   UNL A   1      43.739  31.455  31.057  1.00  0.00     0.031 A 
ATOM     52  C   UNL A   1      42.732  25.076  28.337  1.00  0.00     0.031 A 
ATOM     53  C   UNL A   1      44.891  30.594  31.077  1.00  0.00     0.049 A 
ATOM     54  C   UNL A   1      44.070  25.510  28.871  1.00  0.00     0.074 A 
ATOM     55  C   UNL A   1      46.154  30.857  31.580  1.00  0.00     0.029 A 
ATOM     56  N   UNL A   1      44.920  29.300  30.581  1.00  0.00    -0.354 N 
ATOM     57  N   UNL A   1      44.407  26.651  29.422  1.00  0.00    -0.248 NA
ATOM     58  C   UNL A   1      45.167  24.535  28.782  1.00  0.00     0.031 C 
ATOM     59  C   UNL A   1      46.958  29.735  31.353  1.00  0.00     0.029 A 
ATOM     60  C   UNL A   1      46.181  28.755  30.754  1.00  0.00     0.049 A 
ATOM     61  H   UNL A   1      44.156  28.837  30.165  1.00  0.00     0.167 HD
ATOM     62  C   UNL A   1      45.745  26.520  29.774  1.00  0.00     0.074 A 
ATOM     63  C   UNL A   1      46.152  25.185  29.386  1.00  0.00     0.031 C 
ATOM     64  C   UNL A   1      46.565  27.422  30.367  1.00  0.00     0.031 A 
BRANCH  51  65
ATOM     65  C   UNL A   1      43.873  32.845  31.617  1.00  0.00    -0.014 A 
ATOM     66  C   UNL A   1      43.635  33.098  32.981  1.00  0.00     0.010 A 
ATOM     67  C   UNL A   1      44.281  33.903  30.785  1.00  0.00     0.010 A 
ATOM     68  C   UNL A   1      43.767  34.389  33.495  1.00  0.00     0.020 A 
ATOM     69  C   UNL A   1      44.439  35.193  31.302  1.00  0.00     0.020 A 
ATOM     70  C   UNL A   1      44.166  35.430  32.651  1.00  0.00     0.054 A 
BRANCH  70  71
ATOM     71  S   UNL A   1      44.355  37.092  33.353  1.00  0.00     0.124 S 
ATOM     72  O   UNL A   1      45.397  36.878  34.354  1.00  0.00    -0.237 OA
ATOM     73  O   UNL A   1      44.752  37.887  32.194  1.00  0.00    -0.237 OA
ATOM     74  O   UNL A   1      43.030  37.395  33.889  1.00  0.00    -0.744 OA
ENDBRANCH  70  71
ENDBRANCH  51  65
BRANCH  52  75
ATOM     75  C   UNL A   1      42.552  23.716  27.761  1.00  0.00    -0.014 A 
ATOM     76  C   UNL A   1      42.313  22.614  28.601  1.00  0.00     0.010 A 
ATOM     77  C   UNL A   1      42.631  23.512  26.372  1.00  0.00     0.010 A 
ATOM     78  C   UNL A   1      42.190  21.328  28.068  1.00  0.00     0.020 A 
ATOM     79  C   UNL A   1      42.482  22.231  25.831  1.00  0.00     0.020 A 
ATOM     80  C   UNL A   1      42.279  21.144  26.685  1.00  0.00     0.054 A 
BRANCH  80  81
ATOM     81  S   UNL A   1      42.092  19.471  26.009  1.00  0.00     0.124 S 
ATOM     82  O   UNL A   1      42.555  18.643  27.118  1.00  0.00    -0.237 OA
ATOM     83  O   UNL A   1      40.662  19.402  25.721  1.00  0.00    -0.237 OA
ATOM     84  O   UNL A   1      42.957  19.482  24.830  1.00  0.00    -0.744 OA
ENDBRANCH  80  81
ENDBRANCH  52  75
BRANCH  64  85
ATOM     85  C   UNL A   1      47.971  26.982  30.672  1.00  0.00    -0.014 A 
ATOM     86  C   UNL A   1      49.046  27.353  29.845  1.00  0.00     0.010 A 
ATOM     87  C   UNL A   1      48.224  26.229  31.832  1.00  0.00     0.010 A 
ATOM     88  C   UNL A   1      50.346  26.950  30.156  1.00  0.00     0.020 A 
ATOM     89  C   UNL A   1      49.526  25.845  32.160  1.00  0.00     0.020 A 
ATOM     90  C   UNL A   1      50.578  26.196  31.312  1.00  0.00     0.054 A 
BRANCH  90  91
ATOM     91  S   UNL A   1      52.280  25.720  31.718  1.00  0.00     0.124 S 
ATOM     92  O   UNL A   1      52.110  24.340  32.168  1.00  0.00    -0.237 OA
ATOM     93  O   UNL A   1      52.974  25.884  30.443  1.00  0.00    -0.237 OA
ATOM     94  O   UNL A   1      52.667  26.672  32.756  1.00  0.00    -0.744 OA
ENDBRANCH  90  91
ENDBRANCH  64  85
ENDBRANCH  38  39
ENDBRANCH  30  33
ENDBRANCH  28  29
ENDBRANCH  27  28
ENDBRANCH   1  27
TORSDOF 19
ENDMDL
MODEL 2
REMARK VINA RESULT:     -10.8      2.655      9.282
REMARK SMILES CCOc1ccccc1Nc1ccc(C(=O)NCCCCNC(=O)c2ccc(-c3c4nc(c(-c5ccc(S(=O)(=O)[O-])cc5)c5ccc([nH]5)c(-c5ccc(S(=O)(=O)[O-])cc5)c5nc(c(-c6ccc(S(=O)(=O)[O-])cc6)c6ccc3[nH]6)C=C5)C=C4)cc2)cc1N
REMARK SMILES IDX 19 1 18 2 17 3 15 4 16 5 14 7 11 8 12 9 86 10 13 11 85 12
REMARK SMILES IDX 10 13 9 15 4 16 5 17 6 18 8 19 7 20 3 21 2 22 1 23 87 24
REMARK SMILES IDX 20 27 21 28 22 29 23 30 24 32 25 33 26 34 84 35 27 36 83 37
REMARK SMILES IDX 28 38 29 39 30 40 77 41 31 42 82 43 76 44 78 45 32 46 81 47
REMARK SMILES IDX 75 48 74 49 33 51 63 52 44 53 62 54 45 55 48 56 61 57 79 58
REMARK SMILES IDX 46 59 47 60 60 62 80 63 49 64 34 65 35 66 43 67 36 68 42 69
REMARK SMILES IDX 37 70 38 71 39 72 40 73 41 74 64 75 65 76 73 77 66 78 72 79
REMARK SMILES IDX 67 80 68 81 69 82 70 83 71 84 50 85 51 86 59 87 52 88 58 89
REMARK SMILES IDX 53 90 54 91 55 92 56 93 57 94
REMARK H PARENT 17 6 10 14 87 25 87 26 22 31 78 50 48 61
REMARK Flexibility Score: inf
ROOT
ATOM      1  C   UNL A   1      35.438  21.865  26.430  1.00  0.00     0.023 C 
ENDROOT
BRANCH   1   2
ATOM      2  C   UNL A   1      34.122  21.550  27.145  1.00  0.00     0.116 C 
BRANCH   2   3
ATOM      3  N   UNL A   1      33.457  20.430  26.505  1.00  0.00    -0.352 N 
ATOM      4  C   UNL A   1      32.567  20.375  25.463  1.00  0.00     0.251 C 
ATOM      5  O   UNL A   1      32.150  19.274  25.107  1.00  0.00    -0.269 OA
ATOM      6  H   UNL A   1      33.685  19.553  26.888  1.00  0.00     0.163 HD
BRANCH   4   7
ATOM      7  C   UNL A   1      32.156  21.582  24.701  1.00  0.00     0.041 A 
ATOM      8  C   UNL A   1      31.588  23.899  23.199  1.00  0.00     0.062 A 
ATOM      9  C   UNL A   1      32.388  22.878  22.668  1.00  0.00     0.029 A 
ATOM     10  C   UNL A   1      31.026  23.733  24.485  1.00  0.00     0.056 A 
ATOM     11  C   UNL A   1      32.681  21.737  23.416  1.00  0.00     0.016 A 
ATOM     12  C   UNL A   1      31.266  22.545  25.184  1.00  0.00     0.041 A 
BRANCH   8  13
ATOM     13  N   UNL A   1      31.414  25.058  22.423  1.00  0.00    -0.351 N 
ATOM     14  H   UNL A   1      30.721  24.979  21.728  1.00  0.00     0.167 HD
BRANCH  13  15
ATOM     15  C   UNL A   1      32.051  26.308  22.459  1.00  0.00     0.081 A 
ATOM     16  C   UNL A   1      31.368  27.413  22.993  1.00  0.00     0.142 A 
ATOM     17  C   UNL A   1      31.967  28.672  23.059  1.00  0.00     0.048 A 
ATOM     18  C   UNL A   1      33.283  28.831  22.626  1.00  0.00     0.004 A 
ATOM     19  C   UNL A   1      33.379  26.481  22.054  1.00  0.00     0.030 A 
ATOM     20  C   UNL A   1      33.991  27.736  22.129  1.00  0.00     0.002 A 
BRANCH  16  21
ATOM     21  O   UNL A   1      30.067  27.265  23.407  1.00  0.00    -0.492 OA
BRANCH  21  22
ATOM     22  C   UNL A   1      29.401  28.530  23.523  1.00  0.00     0.226 C 
ATOM     23  C   UNL A   1      28.026  28.468  22.874  1.00  0.00     0.049 C 
ENDBRANCH  21  22
ENDBRANCH  16  21
ENDBRANCH  13  15
ENDBRANCH   8  13
BRANCH  10  24
ATOM     24  N   UNL A   1      30.085  24.623  25.007  1.00  0.00    -0.397 N 
ATOM     25  H   UNL A   1      29.597  24.398  25.832  1.00  0.00     0.156 HD
ATOM     26  H   UNL A   1      29.909  25.478  24.550  1.00  0.00     0.156 HD
ENDBRANCH  10  24
ENDBRANCH   4   7
ENDBRANCH   2   3
ENDBRANCH   1   2
BRANCH   1  27
ATOM     27  C   UNL A   1      35.430  23.199  25.678  1.00  0.00     0.023 C 
BRANCH  27  28
ATOM     28  C   UNL A   1      36.809  23.715  25.289  1.00  0.00     0.116 C 
BRANCH  28  29
ATOM     29  N   UNL A   1      37.866  22.741  25.517  1.00  0.00    -0.352 N 
ATOM     30  C   UNL A   1      39.074  22.927  26.147  1.00  0.00     0.251 C 
ATOM     31  H   UNL A   1      37.693  21.832  25.177  1.00  0.00     0.163 HD
ATOM     32  O   UNL A   1      39.909  22.036  26.159  1.00  0.00    -0.269 OA
BRANCH  30  33
ATOM     33  C   UNL A   1      39.360  24.238  26.769  1.00  0.00     0.039 A 
ATOM     34  C   UNL A   1      38.939  24.464  28.080  1.00  0.00     0.014 A 
ATOM     35  C   UNL A   1      40.076  25.215  26.073  1.00  0.00     0.014 A 
ATOM     36  C   UNL A   1      39.293  25.653  28.719  1.00  0.00     0.010 A 
ATOM     37  C   UNL A   1      40.482  26.371  26.733  1.00  0.00     0.010 A 
ATOM     38  C   UNL A   1      40.097  26.600  28.062  1.00  0.00    -0.014 A 
BRANCH  38  39
ATOM     39  C   UNL A   1      40.543  27.837  28.751  1.00  0.00     0.031 A 
ATOM     40  C   UNL A   1      41.925  27.912  29.339  1.00  0.00     0.074 A 
ATOM     41  C   UNL A   1      39.687  28.867  28.891  1.00  0.00     0.049 A 
ATOM     42  N   UNL A   1      42.476  28.881  30.022  1.00  0.00    -0.248 NA
ATOM     43  C   UNL A   1      42.792  26.737  29.155  1.00  0.00     0.031 C 
ATOM     44  C   UNL A   1      38.308  28.900  28.394  1.00  0.00     0.029 A 
ATOM     45  N   UNL A   1      39.850  30.089  29.495  1.00  0.00    -0.354 N 
ATOM     46  C   UNL A   1      43.749  28.433  30.355  1.00  0.00     0.074 A 
ATOM     47  C   UNL A   1      43.869  27.084  29.845  1.00  0.00     0.031 C 
ATOM     48  C   UNL A   1      37.762  30.092  28.690  1.00  0.00     0.029 A 
ATOM     49  C   UNL A   1      38.736  30.893  29.426  1.00  0.00     0.049 A 
ATOM     50  H   UNL A   1      40.685  30.363  29.937  1.00  0.00     0.167 HD
ATOM     51  C   UNL A   1      44.737  29.090  31.006  1.00  0.00     0.031 A 
ATOM     52  C   UNL A   1      38.522  32.134  29.904  1.00  0.00     0.031 A 
ATOM     53  C   UNL A   1      44.620  30.435  31.503  1.00  0.00     0.049 A 
ATOM     54  C   UNL A   1      39.633  32.836  30.637  1.00  0.00     0.074 A 
ATOM     55  C   UNL A   1      45.577  31.201  32.146  1.00  0.00     0.029 A 
ATOM     56  N   UNL A   1      43.479  31.216  31.406  1.00  0.00    -0.354 N 
ATOM     57  N   UNL A   1      40.845  32.411  30.901  1.00  0.00    -0.248 NA
ATOM     58  C   UNL A   1      39.348  34.193  31.127  1.00  0.00     0.031 C 
ATOM     59  C   UNL A   1      45.001  32.435  32.472  1.00  0.00     0.029 A 
ATOM     60  C   UNL A   1      43.703  32.453  31.988  1.00  0.00     0.049 A 
ATOM     61  H   UNL A   1      42.634  30.934  30.986  1.00  0.00     0.167 HD
ATOM     62  C   UNL A   1      41.477  33.459  31.561  1.00  0.00     0.074 A 
ATOM     63  C   UNL A   1      40.519  34.542  31.643  1.00  0.00     0.031 C 
ATOM     64  C   UNL A   1      42.739  33.521  32.053  1.00  0.00     0.031 A 
BRANCH  51  65
ATOM     65  C   UNL A   1      46.039  28.362  31.208  1.00  0.00    -0.014 A 
ATOM     66  C   UNL A   1      46.243  27.554  32.342  1.00  0.00     0.010 A 
ATOM     67  C   UNL A   1      47.052  28.449  30.237  1.00  0.00     0.010 A 
ATOM     68  C   UNL A   1      47.451  26.877  32.520  1.00  0.00     0.020 A 
ATOM     69  C   UNL A   1      48.254  27.750  30.399  1.00  0.00     0.020 A 
ATOM     70  C   UNL A   1      48.451  26.981  31.548  1.00  0.00     0.054 A 
BRANCH  70  71
ATOM     71  S   UNL A   1      49.998  26.067  31.793  1.00  0.00     0.124 S 
ATOM     72  O   UNL A   1      49.805  25.500  33.124  1.00  0.00    -0.237 OA
ATOM     73  O   UNL A   1      49.982  25.107  30.693  1.00  0.00    -0.237 OA
ATOM     74  O   UNL A   1      51.029  27.100  31.700  1.00  0.00    -0.744 OA
ENDBRANCH  70  71
ENDBRANCH  51  65
BRANCH  52  75
ATOM     75  C   UNL A   1      37.212  32.806  29.691  1.00  0.00    -0.014 A 
ATOM     76  C   UNL A   1      36.830  33.224  28.404  1.00  0.00     0.010 A 
ATOM     77  C   UNL A   1      36.346  33.044  30.773  1.00  0.00     0.010 A 
ATOM     78  C   UNL A   1      35.621  33.898  28.207  1.00  0.00     0.020 A 
ATOM     79  C   UNL A   1      35.124  33.693  30.576  1.00  0.00     0.020 A 
ATOM     80  C   UNL A   1      34.776  34.131  29.296  1.00  0.00     0.054 A 
BRANCH  80  81
ATOM     81  S   UNL A   1      33.200  34.985  29.017  1.00  0.00     0.124 S 
ATOM     82  O   UNL A   1      33.644  36.311  28.598  1.00  0.00    -0.237 OA
ATOM     83  O   UNL A   1      32.577  34.169  27.978  1.00  0.00    -0.237 OA
ATOM     84  O   UNL A   1      32.545  34.924  30.322  1.00  0.00    -0.744 OA
ENDBRANCH  80  81
ENDBRANCH  52  75
BRANCH  64  85
ATOM     85  C   UNL A   1      43.171  34.816  32.686  1.00  0.00    -0.014 A 
ATOM     86  C   UNL A   1      43.775  35.832  31.926  1.00  0.00     0.010 A 
ATOM     87  C   UNL A   1      42.921  35.035  34.053  1.00  0.00     0.010 A 
ATOM     88  C   UNL A   1      44.152  37.034  32.530  1.00  0.00     0.020 A 
ATOM     89  C   UNL A   1      43.273  36.245  34.654  1.00  0.00     0.020 A 
ATOM     90  C   UNL A   1      43.900  37.232  33.891  1.00  0.00     0.054 A 
BRANCH  90  91
ATOM     91  S   UNL A   1      44.359  38.817  34.644  1.00  0.00     0.124 S 
ATOM     92  O   UNL A   1      44.189  38.538  36.068  1.00  0.00    -0.237 OA
ATOM     93  O   UNL A   1      45.739  38.998  34.199  1.00  0.00    -0.237 OA
ATOM     94  O   UNL A   1      43.400  39.761  34.074  1.00  0.00    -0.744 OA
ENDBRANCH  90  91
ENDBRANCH  64  85
ENDBRANCH  38  39
ENDBRANCH  30  33
ENDBRANCH  28  29
ENDBRANCH  27  28
ENDBRANCH   1  27
TORSDOF 19
ENDMDL
MODEL 3
REMARK VINA RESULT:     -10.3      3.387      8.466
REMARK SMILES CCOc1ccccc1Nc1ccc(C(=O)NCCCCNC(=O)c2ccc(-c3c4nc(c(-c5ccc(S(=O)(=O)[O-])cc5)c5ccc([nH]5)c(-c5ccc(S(=O)(=O)[O-])cc5)c5nc(c(-c6ccc(S(=O)(=O)[O-])cc6)c6ccc3[nH]6)C=C5)C=C4)cc2)cc1N
REMARK SMILES IDX 19 1 18 2 17 3 15 4 16 5 14 7 11 8 12 9 86 10 13 11 85 12
REMARK SMILES IDX 10 13 9 15 4 16 5 17 6 18 8 19 7 20 3 21 2 22 1 23 87 24
REMARK SMILES IDX 20 27 21 28 22 29 23 30 24 32 25 33 26 34 84 35 27 36 83 37
REMARK SMILES IDX 28 38 29 39 30 40 77 41 31 42 82 43 76 44 78 45 32 46 81 47
REMARK SMILES IDX 75 48 74 49 33 51 63 52 44 53 62 54 45 55 48 56 61 57 79 58
REMARK SMILES IDX 46 59 47 60 60 62 80 63 49 64 34 65 35 66 43 67 36 68 42 69
REMARK SMILES IDX 37 70 38 71 39 72 40 73 41 74 64 75 65 76 73 77 66 78 72 79
REMARK SMILES IDX 67 80 68 81 69 82 70 83 71 84 50 85 51 86 59 87 52 88 58 89
REMARK SMILES IDX 53 90 54 91 55 92 56 93 57 94
REMARK H PARENT 17 6 10 14 87 25 87 26 22 31 78 50 48 61
REMARK Flexibility Score: inf
ROOT
ATOM      1  C   UNL A   1      37.212  21.636  24.965  1.00  0.00     0.023 C 
ENDROOT
BRANCH   1   2
ATOM      2  C   UNL A   1      35.909  21.467  25.750  1.00  0.00     0.116 C 
BRANCH   2   3
ATOM      3  N   UNL A   1      35.100  20.418  25.159  1.00  0.00    -0.352 N 
ATOM      4  C   UNL A   1      33.814  20.420  24.682  1.00  0.00     0.251 C 
ATOM      5  O   UNL A   1      33.358  19.375  24.221  1.00  0.00    -0.269 OA
ATOM      6  H   UNL A   1      35.555  19.549  25.089  1.00  0.00     0.163 HD
BRANCH   4   7
ATOM      7  C   UNL A   1      32.986  21.653  24.628  1.00  0.00     0.041 A 
ATOM      8  C   UNL A   1      31.603  24.106  24.521  1.00  0.00     0.062 A 
ATOM      9  C   UNL A   1      32.665  23.842  23.644  1.00  0.00     0.029 A 
ATOM     10  C   UNL A   1      31.199  23.105  25.433  1.00  0.00     0.056 A 
ATOM     11  C   UNL A   1      33.359  22.634  23.707  1.00  0.00     0.016 A 
ATOM     12  C   UNL A   1      31.857  21.870  25.421  1.00  0.00     0.041 A 
BRANCH   8  13
ATOM     13  N   UNL A   1      31.013  25.382  24.462  1.00  0.00    -0.351 N 
ATOM     14  H   UNL A   1      30.273  25.455  23.817  1.00  0.00     0.167 HD
BRANCH  13  15
ATOM     15  C   UNL A   1      31.291  26.569  25.157  1.00  0.00     0.081 A 
ATOM     16  C   UNL A   1      31.199  27.798  24.482  1.00  0.00     0.142 A 
ATOM     17  C   UNL A   1      31.456  29.004  25.135  1.00  0.00     0.048 A 
ATOM     18  C   UNL A   1      31.768  28.996  26.494  1.00  0.00     0.004 A 
ATOM     19  C   UNL A   1      31.581  26.584  26.525  1.00  0.00     0.030 A 
ATOM     20  C   UNL A   1      31.826  27.788  27.190  1.00  0.00     0.002 A 
BRANCH  16  21
ATOM     21  O   UNL A   1      30.904  27.809  23.140  1.00  0.00    -0.492 OA
BRANCH  21  22
ATOM     22  C   UNL A   1      29.638  28.432  22.882  1.00  0.00     0.226 C 
ATOM     23  C   UNL A   1      29.820  29.659  22.002  1.00  0.00     0.049 C 
ENDBRANCH  21  22
ENDBRANCH  16  21
ENDBRANCH  13  15
ENDBRANCH   8  13
BRANCH  10  24
ATOM     24  N   UNL A   1      30.047  23.229  26.213  1.00  0.00    -0.397 N 
ATOM     25  H   UNL A   1      30.122  23.352  27.187  1.00  0.00     0.156 HD
ATOM     26  H   UNL A   1      29.159  23.194  25.789  1.00  0.00     0.156 HD
ENDBRANCH  10  24
ENDBRANCH   4   7
ENDBRANCH   2   3
ENDBRANCH   1   2
BRANCH   1  27
ATOM     27  C   UNL A   1      38.159  20.437  25.071  1.00  0.00     0.023 C 
BRANCH  27  28
ATOM     28  C   UNL A   1      39.332  20.638  26.022  1.00  0.00     0.116 C 
BRANCH  28  29
ATOM     29  N   UNL A   1      40.220  19.487  26.078  1.00  0.00    -0.352 N 
ATOM     30  C   UNL A   1      41.587  19.473  26.227  1.00  0.00     0.251 C 
ATOM     31  H   UNL A   1      39.787  18.605  26.000  1.00  0.00     0.163 HD
ATOM     32  O   UNL A   1      42.209  18.425  26.140  1.00  0.00    -0.269 OA
BRANCH  30  33
ATOM     33  C   UNL A   1      42.293  20.753  26.448  1.00  0.00     0.039 A 
ATOM     34  C   UNL A   1      42.721  21.484  25.339  1.00  0.00     0.014 A 
ATOM     35  C   UNL A   1      42.490  21.244  27.742  1.00  0.00     0.014 A 
ATOM     36  C   UNL A   1      43.293  22.743  25.525  1.00  0.00     0.010 A 
ATOM     37  C   UNL A   1      43.001  22.526  27.921  1.00  0.00     0.010 A 
ATOM     38  C   UNL A   1      43.406  23.288  26.815  1.00  0.00    -0.014 A 
BRANCH  38  39
ATOM     39  C   UNL A   1      43.945  24.655  27.026  1.00  0.00     0.031 A 
ATOM     40  C   UNL A   1      43.023  25.771  27.432  1.00  0.00     0.074 A 
ATOM     41  C   UNL A   1      45.251  24.898  26.802  1.00  0.00     0.049 A 
ATOM     42  N   UNL A   1      43.295  27.038  27.610  1.00  0.00    -0.248 NA
ATOM     43  C   UNL A   1      41.608  25.424  27.643  1.00  0.00     0.031 C 
ATOM     44  C   UNL A   1      46.239  23.904  26.370  1.00  0.00     0.029 A 
ATOM     45  N   UNL A   1      45.974  26.060  26.903  1.00  0.00    -0.354 N 
ATOM     46  C   UNL A   1      42.088  27.640  27.947  1.00  0.00     0.074 A 
ATOM     47  C   UNL A   1      41.073  26.610  27.895  1.00  0.00     0.031 C 
ATOM     48  C   UNL A   1      47.442  24.493  26.272  1.00  0.00     0.029 A 
ATOM     49  C   UNL A   1      47.307  25.910  26.597  1.00  0.00     0.049 A 
ATOM     50  H   UNL A   1      45.576  26.920  27.168  1.00  0.00     0.167 HD
ATOM     51  C   UNL A   1      41.848  28.927  28.290  1.00  0.00     0.031 A 
ATOM     52  C   UNL A   1      48.306  26.813  26.578  1.00  0.00     0.031 A 
ATOM     53  C   UNL A   1      42.860  29.948  28.350  1.00  0.00     0.049 A 
ATOM     54  C   UNL A   1      48.009  28.241  26.949  1.00  0.00     0.074 A 
ATOM     55  C   UNL A   1      42.724  31.274  28.721  1.00  0.00     0.029 A 
ATOM     56  N   UNL A   1      44.197  29.753  28.041  1.00  0.00    -0.354 N 
ATOM     57  N   UNL A   1      46.869  28.779  27.308  1.00  0.00    -0.248 NA
ATOM     58  C   UNL A   1      49.139  29.181  26.922  1.00  0.00     0.031 C 
ATOM     59  C   UNL A   1      43.973  31.893  28.599  1.00  0.00     0.029 A 
ATOM     60  C   UNL A   1      44.896  30.938  28.200  1.00  0.00     0.049 A 
ATOM     61  H   UNL A   1      44.592  28.899  27.751  1.00  0.00     0.167 HD
ATOM     62  C   UNL A   1      47.150  30.114  27.580  1.00  0.00     0.074 A 
ATOM     63  C   UNL A   1      48.569  30.296  27.357  1.00  0.00     0.031 C 
ATOM     64  C   UNL A   1      46.310  31.099  27.980  1.00  0.00     0.031 A 
BRANCH  51  65
ATOM     65  C   UNL A   1      40.432  29.301  28.636  1.00  0.00    -0.014 A 
ATOM     66  C   UNL A   1      39.448  29.400  27.634  1.00  0.00     0.010 A 
ATOM     67  C   UNL A   1      40.067  29.512  29.977  1.00  0.00     0.010 A 
ATOM     68  C   UNL A   1      38.135  29.741  27.964  1.00  0.00     0.020 A 
ATOM     69  C   UNL A   1      38.747  29.828  30.314  1.00  0.00     0.020 A 
ATOM     70  C   UNL A   1      37.793  29.955  29.302  1.00  0.00     0.054 A 
BRANCH  70  71
ATOM     71  S   UNL A   1      36.073  30.369  29.702  1.00  0.00     0.124 S 
ATOM     72  O   UNL A   1      35.902  29.721  31.000  1.00  0.00    -0.237 OA
ATOM     73  O   UNL A   1      36.090  31.829  29.727  1.00  0.00    -0.237 OA
ATOM     74  O   UNL A   1      35.309  29.776  28.606  1.00  0.00    -0.744 OA
ENDBRANCH  70  71
ENDBRANCH  51  65
BRANCH  52  75
ATOM     75  C   UNL A   1      49.687  26.397  26.214  1.00  0.00    -0.014 A 
ATOM     76  C   UNL A   1      50.560  25.895  27.196  1.00  0.00     0.010 A 
ATOM     77  C   UNL A   1      50.143  26.512  24.889  1.00  0.00     0.010 A 
ATOM     78  C   UNL A   1      51.873  25.548  26.868  1.00  0.00     0.020 A 
ATOM     79  C   UNL A   1      51.448  26.140  24.550  1.00  0.00     0.020 A 
ATOM     80  C   UNL A   1      52.310  25.675  25.546  1.00  0.00     0.054 A 
BRANCH  80  81
ATOM     81  S   UNL A   1      54.011  25.196  25.134  1.00  0.00     0.124 S 
ATOM     82  O   UNL A   1      53.894  23.747  25.002  1.00  0.00    -0.237 OA
ATOM     83  O   UNL A   1      54.255  25.927  23.894  1.00  0.00    -0.237 OA
ATOM     84  O   UNL A   1      54.782  25.661  26.286  1.00  0.00    -0.744 OA
ENDBRANCH  80  81
ENDBRANCH  52  75
BRANCH  64  85
ATOM     85  C   UNL A   1      46.910  32.454  28.244  1.00  0.00    -0.014 A 
ATOM     86  C   UNL A   1      46.976  33.430  27.234  1.00  0.00     0.010 A 
ATOM     87  C   UNL A   1      47.368  32.768  29.536  1.00  0.00     0.010 A 
ATOM     88  C   UNL A   1      47.520  34.688  27.506  1.00  0.00     0.020 A 
ATOM     89  C   UNL A   1      47.889  34.032  29.817  1.00  0.00     0.020 A 
ATOM     90  C   UNL A   1      47.976  34.980  28.796  1.00  0.00     0.054 A 
BRANCH  90  91
ATOM     91  S   UNL A   1      48.639  36.634  29.135  1.00  0.00     0.124 S 
ATOM     92  O   UNL A   1      47.828  37.058  30.274  1.00  0.00    -0.237 OA
ATOM     93  O   UNL A   1      50.044  36.363  29.431  1.00  0.00    -0.237 OA
ATOM     94  O   UNL A   1      48.400  37.364  27.892  1.00  0.00    -0.744 OA
ENDBRANCH  90  91
ENDBRANCH  64  85
ENDBRANCH  38  39
ENDBRANCH  30  33
ENDBRANCH  28  29
ENDBRANCH  27  28
ENDBRANCH   1  27
TORSDOF 19
ENDMDL
