MODEL 1
REMARK VINA RESULT:     -12.1      0.000      0.000
REMARK SMILES C[N@H+]1[C@H](C(=O)NCCCCNC(=O)c2ccc(-c3c4nc(c(-c5ccc(S(=O)(=O)[O-])cc5)c5ccc([nH]5)c(-c5ccc(S(=O)(=O)[O-])cc5)c5nc(c(-c6ccc(S(=O)(=O)[O-])cc6)c6ccc3[nH]6)C=C5)C=C4)cc2)C[C@H](C(=O)NCC2(CO)CCCC2)[C@@H]1c1ccccc1F
REMARK SMILES IDX 7 1 6 2 4 3 5 4 3 6 1 7 2 8 87 9 74 11 75 12 88 13 89 14
REMARK SMILES IDX 93 15 90 16 92 17 94 18 91 19 76 20 77 21 78 22 79 24 80 25
REMARK SMILES IDX 83 26 86 27 84 28 85 29 81 30 82 31 8 33 9 34 10 35 11 36
REMARK SMILES IDX 12 37 13 39 14 40 15 41 73 42 16 43 72 44 17 45 18 46 19 47
REMARK SMILES IDX 66 48 20 49 71 50 65 51 67 52 21 53 70 54 64 55 63 56 22 58
REMARK SMILES IDX 52 59 33 60 51 61 34 62 37 63 50 64 68 65 35 66 36 67 49 69
REMARK SMILES IDX 69 70 38 71 23 72 24 73 32 74 25 75 31 76 26 77 27 78 28 79
REMARK SMILES IDX 29 80 30 81 53 82 54 83 62 84 55 85 61 86 56 87 57 88 58 89
REMARK SMILES IDX 59 90 60 91 39 92 40 93 48 94 41 95 47 96 42 97 43 98 44 99
REMARK SMILES IDX 45 100 46 101
REMARK H PARENT 6 5 2 10 78 23 82 32 11 38 67 57 37 68
REMARK Flexibility Score: inf
ROOT
ATOM      1  C   UNL A   1      34.305  23.890  23.199  1.00  0.00     0.116 C 
ENDROOT
BRANCH   1   2
ATOM      2  N   UNL A   1      33.613  22.659  22.879  1.00  0.00    -0.351 N 
ATOM      3  C   UNL A   1      32.381  22.238  23.294  1.00  0.00     0.278 C 
ATOM      4  O   UNL A   1      31.966  21.154  22.866  1.00  0.00    -0.268 OA
ATOM      5  H   UNL A   1      34.095  22.041  22.284  1.00  0.00     0.163 HD
BRANCH   3   6
ATOM      6  C   UNL A   1      31.485  23.098  24.205  1.00  0.00     0.275 C 
ATOM      7  C   UNL A   1      32.708  23.238  26.289  1.00  0.00     0.333 C 
ATOM      8  N   UNL A   1      32.259  23.971  25.108  1.00  0.00    -0.320 N 
ATOM      9  C   UNL A   1      31.398  25.134  25.398  1.00  0.00     0.231 C 
ATOM     10  H   UNL A   1      33.125  24.302  24.683  1.00  0.00     0.349 HD
ATOM     11  C   UNL A   1      30.548  24.015  23.427  1.00  0.00     0.095 C 
ATOM     12  C   UNL A   1      30.668  25.414  24.057  1.00  0.00     0.148 C 
BRANCH   9  13
ATOM     13  C   UNL A   1      32.024  26.350  26.049  1.00  0.00     0.046 A 
ATOM     14  C   UNL A   1      31.184  27.238  26.751  1.00  0.00     0.013 A 
ATOM     15  C   UNL A   1      33.376  26.702  25.926  1.00  0.00     0.132 A 
ATOM     16  C   UNL A   1      31.676  28.431  27.287  1.00  0.00     0.001 A 
ATOM     17  C   UNL A   1      33.873  27.886  26.471  1.00  0.00     0.040 A 
ATOM     18  F   UNL A   1      34.241  25.924  25.261  1.00  0.00    -0.206 F 
ATOM     19  C   UNL A   1      33.022  28.757  27.144  1.00  0.00     0.003 A 
ENDBRANCH   9  13
BRANCH  12  20
ATOM     20  C   UNL A   1      31.309  26.424  23.087  1.00  0.00     0.229 C 
ATOM     21  O   UNL A   1      32.439  26.323  22.617  1.00  0.00    -0.275 OA
ATOM     22  N   UNL A   1      30.606  27.537  22.728  1.00  0.00    -0.355 N 
ATOM     23  H   UNL A   1      31.039  28.097  22.045  1.00  0.00     0.163 HD
BRANCH  22  24
ATOM     24  C   UNL A   1      29.325  28.026  23.193  1.00  0.00     0.125 C 
BRANCH  24  25
ATOM     25  C   UNL A   1      29.138  29.528  22.918  1.00  0.00     0.011 C 
ATOM     26  C   UNL A   1      27.657  29.909  23.080  1.00  0.00     0.011 C 
ATOM     27  C   UNL A   1      29.800  30.398  24.002  1.00  0.00     0.011 C 
ATOM     28  C   UNL A   1      27.660  31.403  23.388  1.00  0.00     0.001 C 
ATOM     29  C   UNL A   1      29.028  31.712  23.990  1.00  0.00     0.001 C 
BRANCH  25  30
ATOM     30  C   UNL A   1      29.643  29.884  21.503  1.00  0.00     0.164 C 
BRANCH  30  31
ATOM     31  O   UNL A   1      31.052  30.087  21.495  1.00  0.00    -0.396 OA
ATOM     32  H   UNL A   1      31.448  29.640  22.260  1.00  0.00     0.210 HD
ENDBRANCH  30  31
ENDBRANCH  25  30
ENDBRANCH  24  25
ENDBRANCH  22  24
ENDBRANCH  12  20
ENDBRANCH   3   6
ENDBRANCH   1   2
BRANCH   1  33
ATOM     33  C   UNL A   1      35.774  23.701  23.539  1.00  0.00     0.023 C 
BRANCH  33  34
ATOM     34  C   UNL A   1      36.044  22.746  24.696  1.00  0.00     0.023 C 
BRANCH  34  35
ATOM     35  C   UNL A   1      36.953  23.288  25.795  1.00  0.00     0.116 C 
BRANCH  35  36
ATOM     36  N   UNL A   1      38.177  22.517  25.973  1.00  0.00    -0.352 N 
ATOM     37  C   UNL A   1      39.388  22.920  26.489  1.00  0.00     0.251 C 
ATOM     38  H   UNL A   1      38.130  21.578  25.686  1.00  0.00     0.163 HD
ATOM     39  O   UNL A   1      40.354  22.164  26.478  1.00  0.00    -0.269 OA
BRANCH  37  40
ATOM     40  C   UNL A   1      39.532  24.294  27.013  1.00  0.00     0.039 A 
ATOM     41  C   UNL A   1      39.082  24.571  28.306  1.00  0.00     0.014 A 
ATOM     42  C   UNL A   1      40.170  25.283  26.260  1.00  0.00     0.014 A 
ATOM     43  C   UNL A   1      39.370  25.808  28.886  1.00  0.00     0.010 A 
ATOM     44  C   UNL A   1      40.515  26.490  26.862  1.00  0.00     0.010 A 
ATOM     45  C   UNL A   1      40.142  26.753  28.190  1.00  0.00    -0.014 A 
BRANCH  45  46
ATOM     46  C   UNL A   1      40.636  27.987  28.855  1.00  0.00     0.031 A 
ATOM     47  C   UNL A   1      42.006  28.028  29.469  1.00  0.00     0.074 A 
ATOM     48  C   UNL A   1      39.804  29.041  28.986  1.00  0.00     0.049 A 
ATOM     49  N   UNL A   1      42.564  28.983  30.170  1.00  0.00    -0.248 NA
ATOM     50  C   UNL A   1      42.851  26.837  29.293  1.00  0.00     0.031 C 
ATOM     51  C   UNL A   1      38.433  29.109  28.473  1.00  0.00     0.029 A 
ATOM     52  N   UNL A   1      39.983  30.252  29.607  1.00  0.00    -0.354 N 
ATOM     53  C   UNL A   1      43.817  28.504  30.531  1.00  0.00     0.074 A 
ATOM     54  C   UNL A   1      43.922  27.159  30.004  1.00  0.00     0.031 C 
ATOM     55  C   UNL A   1      37.904  30.303  28.784  1.00  0.00     0.029 A 
ATOM     56  C   UNL A   1      38.877  31.067  29.557  1.00  0.00     0.049 A 
ATOM     57  H   UNL A   1      40.825  30.513  30.045  1.00  0.00     0.167 HD
ATOM     58  C   UNL A   1      44.795  29.131  31.226  1.00  0.00     0.031 A 
ATOM     59  C   UNL A   1      38.658  32.286  30.088  1.00  0.00     0.031 A 
ATOM     60  C   UNL A   1      44.690  30.469  31.746  1.00  0.00     0.049 A 
ATOM     61  C   UNL A   1      39.750  32.950  30.879  1.00  0.00     0.074 A 
ATOM     62  C   UNL A   1      45.653  31.215  32.405  1.00  0.00     0.029 A 
ATOM     63  N   UNL A   1      43.553  31.261  31.676  1.00  0.00    -0.354 N 
ATOM     64  N   UNL A   1      40.955  32.508  31.148  1.00  0.00    -0.248 NA
ATOM     65  C   UNL A   1      39.452  34.275  31.440  1.00  0.00     0.031 C 
ATOM     66  C   UNL A   1      45.082  32.436  32.779  1.00  0.00     0.029 A 
ATOM     67  C   UNL A   1      43.778  32.472  32.309  1.00  0.00     0.049 A 
ATOM     68  H   UNL A   1      42.709  31.000  31.240  1.00  0.00     0.167 HD
ATOM     69  C   UNL A   1      41.564  33.506  31.899  1.00  0.00     0.074 A 
ATOM     70  C   UNL A   1      40.603  34.583  32.024  1.00  0.00     0.031 C 
ATOM     71  C   UNL A   1      42.807  33.528  32.440  1.00  0.00     0.031 A 
BRANCH  58  72
ATOM     72  C   UNL A   1      46.069  28.369  31.475  1.00  0.00    -0.014 A 
ATOM     73  C   UNL A   1      47.148  28.446  30.576  1.00  0.00     0.010 A 
ATOM     74  C   UNL A   1      46.207  27.599  32.645  1.00  0.00     0.010 A 
ATOM     75  C   UNL A   1      48.326  27.737  30.822  1.00  0.00     0.020 A 
ATOM     76  C   UNL A   1      47.393  26.909  32.907  1.00  0.00     0.020 A 
ATOM     77  C   UNL A   1      48.440  26.969  31.985  1.00  0.00     0.054 A 
BRANCH  77  78
ATOM     78  S   UNL A   1      49.989  26.077  32.290  1.00  0.00     0.124 S 
ATOM     79  O   UNL A   1      49.911  25.824  33.728  1.00  0.00    -0.237 OA
ATOM     80  O   UNL A   1      49.856  24.897  31.438  1.00  0.00    -0.237 OA
ATOM     81  O   UNL A   1      51.023  27.024  31.880  1.00  0.00    -0.744 OA
ENDBRANCH  77  78
ENDBRANCH  58  72
BRANCH  59  82
ATOM     82  C   UNL A   1      37.344  32.954  29.893  1.00  0.00    -0.014 A 
ATOM     83  C   UNL A   1      37.077  33.671  28.714  1.00  0.00     0.010 A 
ATOM     84  C   UNL A   1      36.344  32.863  30.880  1.00  0.00     0.010 A 
ATOM     85  C   UNL A   1      35.839  34.295  28.529  1.00  0.00     0.020 A 
ATOM     86  C   UNL A   1      35.097  33.464  30.687  1.00  0.00     0.020 A 
ATOM     87  C   UNL A   1      34.856  34.185  29.516  1.00  0.00     0.054 A 
BRANCH  87  88
ATOM     88  S   UNL A   1      33.237  34.954  29.230  1.00  0.00     0.124 S 
ATOM     89  O   UNL A   1      32.645  34.916  30.563  1.00  0.00    -0.237 OA
ATOM     90  O   UNL A   1      33.599  36.280  28.736  1.00  0.00    -0.237 OA
ATOM     91  O   UNL A   1      32.614  34.077  28.241  1.00  0.00    -0.744 OA
ENDBRANCH  87  88
ENDBRANCH  59  82
BRANCH  71  92
ATOM     92  C   UNL A   1      43.202  34.757  33.212  1.00  0.00    -0.014 A 
ATOM     93  C   UNL A   1      43.010  34.828  34.603  1.00  0.00     0.010 A 
ATOM     94  C   UNL A   1      43.819  35.832  32.548  1.00  0.00     0.010 A 
ATOM     95  C   UNL A   1      43.406  35.963  35.314  1.00  0.00     0.020 A 
ATOM     96  C   UNL A   1      44.240  36.960  33.259  1.00  0.00     0.020 A 
ATOM     97  C   UNL A   1      44.019  37.023  34.637  1.00  0.00     0.054 A 
BRANCH  97  98
ATOM     98  S   UNL A   1      44.569  38.466  35.589  1.00  0.00     0.124 S 
ATOM     99  O   UNL A   1      44.002  38.194  36.907  1.00  0.00    -0.237 OA
ATOM    100  O   UNL A   1      46.024  38.375  35.500  1.00  0.00    -0.237 OA
ATOM    101  O   UNL A   1      43.976  39.596  34.876  1.00  0.00    -0.744 OA
ENDBRANCH  97  98
ENDBRANCH  71  92
ENDBRANCH  45  46
ENDBRANCH  37  40
ENDBRANCH  35  36
ENDBRANCH  34  35
ENDBRANCH  33  34
ENDBRANCH   1  33
TORSDOF 20
ENDMDL
MODEL 2
REMARK VINA RESULT:     -11.1      2.002      2.536
REMARK SMILES C[N@H+]1[C@H](C(=O)NCCCCNC(=O)c2ccc(-c3c4nc(c(-c5ccc(S(=O)(=O)[O-])cc5)c5ccc([nH]5)c(-c5ccc(S(=O)(=O)[O-])cc5)c5nc(c(-c6ccc(S(=O)(=O)[O-])cc6)c6ccc3[nH]6)C=C5)C=C4)cc2)C[C@H](C(=O)NCC2(CO)CCCC2)[C@@H]1c1ccccc1F
REMARK SMILES IDX 7 1 6 2 4 3 5 4 3 6 1 7 2 8 87 9 74 11 75 12 88 13 89 14
REMARK SMILES IDX 93 15 90 16 92 17 94 18 91 19 76 20 77 21 78 22 79 24 80 25
REMARK SMILES IDX 83 26 86 27 84 28 85 29 81 30 82 31 8 33 9 34 10 35 11 36
REMARK SMILES IDX 12 37 13 39 14 40 15 41 73 42 16 43 72 44 17 45 18 46 19 47
REMARK SMILES IDX 66 48 20 49 71 50 65 51 67 52 21 53 70 54 64 55 63 56 22 58
REMARK SMILES IDX 52 59 33 60 51 61 34 62 37 63 50 64 68 65 35 66 36 67 49 69
REMARK SMILES IDX 69 70 38 71 23 72 24 73 32 74 25 75 31 76 26 77 27 78 28 79
REMARK SMILES IDX 29 80 30 81 53 82 54 83 62 84 55 85 61 86 56 87 57 88 58 89
REMARK SMILES IDX 59 90 60 91 39 92 40 93 48 94 41 95 47 96 42 97 43 98 44 99
REMARK SMILES IDX 45 100 46 101
REMARK H PARENT 6 5 2 10 78 23 82 32 11 38 67 57 37 68
REMARK Flexibility Score: inf
ROOT
ATOM      1  C   UNL A   1      34.482  23.737  23.142  1.00  0.00     0.116 C 
ENDROOT
BRANCH   1   2
ATOM      2  N   UNL A   1      33.730  22.565  22.748  1.00  0.00    -0.351 N 
ATOM      3  C   UNL A   1      32.465  22.198  23.115  1.00  0.00     0.278 C 
ATOM      4  O   UNL A   1      32.000  21.162  22.626  1.00  0.00    -0.268 OA
ATOM      5  H   UNL A   1      34.190  21.949  22.134  1.00  0.00     0.163 HD
BRANCH   3   6
ATOM      6  C   UNL A   1      31.598  23.065  24.048  1.00  0.00     0.275 C 
ATOM      7  C   UNL A   1      32.930  23.304  26.054  1.00  0.00     0.333 C 
ATOM      8  N   UNL A   1      32.397  23.986  24.878  1.00  0.00    -0.320 N 
ATOM      9  C   UNL A   1      31.523  25.136  25.179  1.00  0.00     0.231 C 
ATOM     10  H   UNL A   1      33.230  24.325  24.395  1.00  0.00     0.349 HD
ATOM     11  C   UNL A   1      30.596  23.933  23.295  1.00  0.00     0.095 C 
ATOM     12  C   UNL A   1      30.714  25.354  23.873  1.00  0.00     0.148 C 
BRANCH   9  13
ATOM     13  C   UNL A   1      32.151  26.388  25.756  1.00  0.00     0.046 A 
ATOM     14  C   UNL A   1      33.512  26.639  25.483  1.00  0.00     0.013 A 
ATOM     15  C   UNL A   1      31.492  27.275  26.620  1.00  0.00     0.132 A 
ATOM     16  C   UNL A   1      34.181  27.718  26.065  1.00  0.00     0.001 A 
ATOM     17  C   UNL A   1      32.155  28.360  27.194  1.00  0.00     0.040 A 
ATOM     18  F   UNL A   1      30.204  27.101  26.947  1.00  0.00    -0.206 F 
ATOM     19  C   UNL A   1      33.502  28.579  26.925  1.00  0.00     0.003 A 
ENDBRANCH   9  13
BRANCH  12  20
ATOM     20  C   UNL A   1      31.272  26.347  22.837  1.00  0.00     0.229 C 
ATOM     21  O   UNL A   1      32.359  26.236  22.277  1.00  0.00    -0.275 OA
ATOM     22  N   UNL A   1      30.543  27.456  22.520  1.00  0.00    -0.355 N 
ATOM     23  H   UNL A   1      30.919  28.005  21.795  1.00  0.00     0.163 HD
BRANCH  22  24
ATOM     24  C   UNL A   1      29.306  27.955  23.082  1.00  0.00     0.125 C 
BRANCH  24  25
ATOM     25  C   UNL A   1      29.273  29.492  23.148  1.00  0.00     0.011 C 
ATOM     26  C   UNL A   1      29.592  30.081  21.764  1.00  0.00     0.011 C 
ATOM     27  C   UNL A   1      27.849  30.026  23.389  1.00  0.00     0.011 C 
ATOM     28  C   UNL A   1      28.966  31.472  21.767  1.00  0.00     0.001 C 
ATOM     29  C   UNL A   1      27.841  31.432  22.798  1.00  0.00     0.001 C 
BRANCH  25  30
ATOM     30  C   UNL A   1      30.271  30.009  24.206  1.00  0.00     0.164 C 
BRANCH  30  31
ATOM     31  O   UNL A   1      31.611  29.682  23.854  1.00  0.00    -0.396 OA
ATOM     32  H   UNL A   1      31.658  29.497  22.902  1.00  0.00     0.210 HD
ENDBRANCH  30  31
ENDBRANCH  25  30
ENDBRANCH  24  25
ENDBRANCH  22  24
ENDBRANCH  12  20
ENDBRANCH   3   6
ENDBRANCH   1   2
BRANCH   1  33
ATOM     33  C   UNL A   1      35.935  23.450  23.485  1.00  0.00     0.023 C 
BRANCH  33  34
ATOM     34  C   UNL A   1      36.138  22.496  24.656  1.00  0.00     0.023 C 
BRANCH  34  35
ATOM     35  C   UNL A   1      37.064  23.000  25.759  1.00  0.00     0.116 C 
BRANCH  35  36
ATOM     36  N   UNL A   1      38.216  22.138  25.993  1.00  0.00    -0.352 N 
ATOM     37  C   UNL A   1      39.466  22.470  26.465  1.00  0.00     0.251 C 
ATOM     38  H   UNL A   1      38.081  21.186  25.784  1.00  0.00     0.163 HD
ATOM     39  O   UNL A   1      40.359  21.630  26.512  1.00  0.00    -0.269 OA
BRANCH  37  40
ATOM     40  C   UNL A   1      39.741  23.863  26.873  1.00  0.00     0.039 A 
ATOM     41  C   UNL A   1      39.744  24.177  28.234  1.00  0.00     0.014 A 
ATOM     42  C   UNL A   1      40.060  24.836  25.922  1.00  0.00     0.014 A 
ATOM     43  C   UNL A   1      40.176  25.438  28.649  1.00  0.00     0.010 A 
ATOM     44  C   UNL A   1      40.554  26.069  26.340  1.00  0.00     0.010 A 
ATOM     45  C   UNL A   1      40.643  26.371  27.708  1.00  0.00    -0.014 A 
BRANCH  45  46
ATOM     46  C   UNL A   1      41.298  27.635  28.134  1.00  0.00     0.031 A 
ATOM     47  C   UNL A   1      42.795  27.758  28.136  1.00  0.00     0.074 A 
ATOM     48  C   UNL A   1      40.537  28.642  28.611  1.00  0.00     0.049 A 
ATOM     49  N   UNL A   1      43.539  28.747  28.564  1.00  0.00    -0.248 NA
ATOM     50  C   UNL A   1      43.557  26.615  27.611  1.00  0.00     0.031 C 
ATOM     51  C   UNL A   1      39.074  28.629  28.703  1.00  0.00     0.029 A 
ATOM     52  N   UNL A   1      40.888  29.866  29.125  1.00  0.00    -0.354 N 
ATOM     53  C   UNL A   1      44.853  28.342  28.374  1.00  0.00     0.074 A 
ATOM     54  C   UNL A   1      44.807  27.002  27.828  1.00  0.00     0.031 C 
ATOM     55  C   UNL A   1      38.655  29.794  29.224  1.00  0.00     0.029 A 
ATOM     56  C   UNL A   1      39.816  30.617  29.545  1.00  0.00     0.049 A 
ATOM     57  H   UNL A   1      41.820  30.177  29.186  1.00  0.00     0.167 HD
ATOM     58  C   UNL A   1      45.995  29.028  28.619  1.00  0.00     0.031 A 
ATOM     59  C   UNL A   1      39.767  31.825  30.138  1.00  0.00     0.031 A 
ATOM     60  C   UNL A   1      46.039  30.362  29.159  1.00  0.00     0.049 A 
ATOM     61  C   UNL A   1      41.049  32.555  30.426  1.00  0.00     0.074 A 
ATOM     62  C   UNL A   1      47.145  31.164  29.380  1.00  0.00     0.029 A 
ATOM     63  N   UNL A   1      44.931  31.087  29.573  1.00  0.00    -0.354 N 
ATOM     64  N   UNL A   1      42.282  32.184  30.172  1.00  0.00    -0.248 NA
ATOM     65  C   UNL A   1      40.935  33.865  31.082  1.00  0.00     0.031 C 
ATOM     66  C   UNL A   1      46.711  32.354  29.975  1.00  0.00     0.029 A 
ATOM     67  C   UNL A   1      45.330  32.314  30.078  1.00  0.00     0.049 A 
ATOM     68  H   UNL A   1      43.999  30.776  29.515  1.00  0.00     0.167 HD
ATOM     69  C   UNL A   1      43.089  33.219  30.626  1.00  0.00     0.074 A 
ATOM     70  C   UNL A   1      42.206  34.241  31.150  1.00  0.00     0.031 C 
ATOM     71  C   UNL A   1      44.441  33.315  30.612  1.00  0.00     0.031 A 
BRANCH  58  72
ATOM     72  C   UNL A   1      47.298  28.340  28.314  1.00  0.00    -0.014 A 
ATOM     73  C   UNL A   1      47.965  27.583  29.294  1.00  0.00     0.010 A 
ATOM     74  C   UNL A   1      47.842  28.414  27.018  1.00  0.00     0.010 A 
ATOM     75  C   UNL A   1      49.172  26.945  28.995  1.00  0.00     0.020 A 
ATOM     76  C   UNL A   1      49.036  27.757  26.709  1.00  0.00     0.020 A 
ATOM     77  C   UNL A   1      49.702  27.040  27.705  1.00  0.00     0.054 A 
BRANCH  77  78
ATOM     78  S   UNL A   1      51.258  26.184  27.339  1.00  0.00     0.124 S 
ATOM     79  O   UNL A   1      50.803  24.811  27.128  1.00  0.00    -0.237 OA
ATOM     80  O   UNL A   1      51.735  26.877  26.144  1.00  0.00    -0.237 OA
ATOM     81  O   UNL A   1      52.063  26.395  28.540  1.00  0.00    -0.744 OA
ENDBRANCH  77  78
ENDBRANCH  58  72
BRANCH  59  82
ATOM     82  C   UNL A   1      38.454  32.417  30.509  1.00  0.00    -0.014 A 
ATOM     83  C   UNL A   1      37.715  33.156  29.568  1.00  0.00     0.010 A 
ATOM     84  C   UNL A   1      37.926  32.231  31.800  1.00  0.00     0.010 A 
ATOM     85  C   UNL A   1      36.478  33.707  29.915  1.00  0.00     0.020 A 
ATOM     86  C   UNL A   1      36.679  32.760  32.142  1.00  0.00     0.020 A 
ATOM     87  C   UNL A   1      35.966  33.504  31.199  1.00  0.00     0.054 A 
BRANCH  87  88
ATOM     88  S   UNL A   1      34.333  34.181  31.610  1.00  0.00     0.124 S 
ATOM     89  O   UNL A   1      33.704  34.271  30.296  1.00  0.00    -0.237 OA
ATOM     90  O   UNL A   1      33.785  33.165  32.505  1.00  0.00    -0.237 OA
ATOM     91  O   UNL A   1      34.645  35.458  32.247  1.00  0.00    -0.744 OA
ENDBRANCH  87  88
ENDBRANCH  59  82
BRANCH  71  92
ATOM     92  C   UNL A   1      45.050  34.569  31.176  1.00  0.00    -0.014 A 
ATOM     93  C   UNL A   1      45.245  34.717  32.561  1.00  0.00     0.010 A 
ATOM     94  C   UNL A   1      45.480  35.589  30.309  1.00  0.00     0.010 A 
ATOM     95  C   UNL A   1      45.837  35.875  33.071  1.00  0.00     0.020 A 
ATOM     96  C   UNL A   1      46.095  36.739  30.813  1.00  0.00     0.020 A 
ATOM     97  C   UNL A   1      46.259  36.879  32.193  1.00  0.00     0.054 A 
BRANCH  97  98
ATOM     98  S   UNL A   1      47.069  38.352  32.876  1.00  0.00     0.124 S 
ATOM     99  O   UNL A   1      46.398  38.498  34.165  1.00  0.00    -0.237 OA
ATOM    100  O   UNL A   1      48.471  37.947  32.939  1.00  0.00    -0.237 OA
ATOM    101  O   UNL A   1      46.771  39.395  31.896  1.00  0.00    -0.744 OA
ENDBRANCH  97  98
ENDBRANCH  71  92
ENDBRANCH  45  46
ENDBRANCH  37  40
ENDBRANCH  35  36
ENDBRANCH  34  35
ENDBRANCH  33  34
ENDBRANCH   1  33
TORSDOF 20
ENDMDL
MODEL 3
REMARK VINA RESULT:     -11.0      3.292      4.421
REMARK SMILES C[N@H+]1[C@H](C(=O)NCCCCNC(=O)c2ccc(-c3c4nc(c(-c5ccc(S(=O)(=O)[O-])cc5)c5ccc([nH]5)c(-c5ccc(S(=O)(=O)[O-])cc5)c5nc(c(-c6ccc(S(=O)(=O)[O-])cc6)c6ccc3[nH]6)C=C5)C=C4)cc2)C[C@H](C(=O)NCC2(CO)CCCC2)[C@@H]1c1ccccc1F
REMARK SMILES IDX 7 1 6 2 4 3 5 4 3 6 1 7 2 8 87 9 74 11 75 12 88 13 89 14
REMARK SMILES IDX 93 15 90 16 92 17 94 18 91 19 76 20 77 21 78 22 79 24 80 25
REMARK SMILES IDX 83 26 86 27 84 28 85 29 81 30 82 31 8 33 9 34 10 35 11 36
REMARK SMILES IDX 12 37 13 39 14 40 15 41 73 42 16 43 72 44 17 45 18 46 19 47
REMARK SMILES IDX 66 48 20 49 71 50 65 51 67 52 21 53 70 54 64 55 63 56 22 58
REMARK SMILES IDX 52 59 33 60 51 61 34 62 37 63 50 64 68 65 35 66 36 67 49 69
REMARK SMILES IDX 69 70 38 71 23 72 24 73 32 74 25 75 31 76 26 77 27 78 28 79
REMARK SMILES IDX 29 80 30 81 53 82 54 83 62 84 55 85 61 86 56 87 57 88 58 89
REMARK SMILES IDX 59 90 60 91 39 92 40 93 48 94 41 95 47 96 42 97 43 98 44 99
REMARK SMILES IDX 45 100 46 101
REMARK H PARENT 6 5 2 10 78 23 82 32 11 38 67 57 37 68
REMARK Flexibility Score: inf
ROOT
ATOM      1  C   UNL A   1      37.553  21.227  24.805  1.00  0.00     0.116 C 
ENDROOT
BRANCH   1   2
ATOM      2  N   UNL A   1      36.194  20.755  24.961  1.00  0.00    -0.351 N 
ATOM      3  C   UNL A   1      35.026  21.388  24.637  1.00  0.00     0.278 C 
ATOM      4  O   UNL A   1      33.967  20.779  24.826  1.00  0.00    -0.268 OA
ATOM      5  H   UNL A   1      36.096  19.858  25.353  1.00  0.00     0.163 HD
BRANCH   3   6
ATOM      6  C   UNL A   1      35.004  22.785  23.988  1.00  0.00     0.275 C 
ATOM      7  C   UNL A   1      33.398  22.583  22.189  1.00  0.00     0.333 C 
ATOM      8  N   UNL A   1      33.665  23.167  23.500  1.00  0.00    -0.320 N 
ATOM      9  C   UNL A   1      33.617  24.641  23.538  1.00  0.00     0.231 C 
ATOM     10  H   UNL A   1      32.917  22.799  24.088  1.00  0.00     0.349 HD
ATOM     11  C   UNL A   1      35.443  23.892  24.939  1.00  0.00     0.095 C 
ATOM     12  C   UNL A   1      34.399  25.018  24.823  1.00  0.00     0.148 C 
BRANCH   9  13
ATOM     13  C   UNL A   1      32.272  25.323  23.388  1.00  0.00     0.046 A 
ATOM     14  C   UNL A   1      32.213  26.531  22.664  1.00  0.00     0.013 A 
ATOM     15  C   UNL A   1      31.090  24.877  23.996  1.00  0.00     0.132 A 
ATOM     16  C   UNL A   1      31.027  27.265  22.574  1.00  0.00     0.001 A 
ATOM     17  C   UNL A   1      29.902  25.600  23.898  1.00  0.00     0.040 A 
ATOM     18  F   UNL A   1      31.061  23.747  24.717  1.00  0.00    -0.206 F 
ATOM     19  C   UNL A   1      29.870  26.801  23.195  1.00  0.00     0.003 A 
ENDBRANCH   9  13
BRANCH  12  20
ATOM     20  C   UNL A   1      33.599  25.190  26.128  1.00  0.00     0.229 C 
ATOM     21  O   UNL A   1      33.220  24.267  26.843  1.00  0.00    -0.275 OA
ATOM     22  N   UNL A   1      33.246  26.445  26.529  1.00  0.00    -0.355 N 
ATOM     23  H   UNL A   1      32.808  26.491  27.409  1.00  0.00     0.163 HD
BRANCH  22  24
ATOM     24  C   UNL A   1      33.410  27.721  25.865  1.00  0.00     0.125 C 
BRANCH  24  25
ATOM     25  C   UNL A   1      32.316  28.729  26.257  1.00  0.00     0.011 C 
ATOM     26  C   UNL A   1      32.919  29.842  27.131  1.00  0.00     0.011 C 
ATOM     27  C   UNL A   1      31.811  29.530  25.044  1.00  0.00     0.011 C 
ATOM     28  C   UNL A   1      31.984  31.035  26.961  1.00  0.00     0.001 C 
ATOM     29  C   UNL A   1      31.284  30.841  25.618  1.00  0.00     0.001 C 
BRANCH  25  30
ATOM     30  C   UNL A   1      31.165  28.015  26.999  1.00  0.00     0.164 C 
BRANCH  30  31
ATOM     31  O   UNL A   1      31.408  27.963  28.400  1.00  0.00    -0.396 OA
ATOM     32  H   UNL A   1      31.903  27.156  28.613  1.00  0.00     0.210 HD
ENDBRANCH  30  31
ENDBRANCH  25  30
ENDBRANCH  24  25
ENDBRANCH  22  24
ENDBRANCH  12  20
ENDBRANCH   3   6
ENDBRANCH   1   2
BRANCH   1  33
ATOM     33  C   UNL A   1      37.982  22.229  25.865  1.00  0.00     0.023 C 
BRANCH  33  34
ATOM     34  C   UNL A   1      39.375  21.994  26.439  1.00  0.00     0.023 C 
BRANCH  34  35
ATOM     35  C   UNL A   1      40.075  23.234  26.989  1.00  0.00     0.116 C 
BRANCH  35  36
ATOM     36  N   UNL A   1      40.623  24.102  25.955  1.00  0.00    -0.352 N 
ATOM     37  C   UNL A   1      41.054  25.405  26.055  1.00  0.00     0.251 C 
ATOM     38  H   UNL A   1      40.697  23.699  25.060  1.00  0.00     0.163 HD
ATOM     39  O   UNL A   1      41.401  26.027  25.055  1.00  0.00    -0.269 OA
BRANCH  37  40
ATOM     40  C   UNL A   1      41.049  26.071  27.373  1.00  0.00     0.039 A 
ATOM     41  C   UNL A   1      42.226  26.671  27.828  1.00  0.00     0.014 A 
ATOM     42  C   UNL A   1      39.874  26.163  28.123  1.00  0.00     0.014 A 
ATOM     43  C   UNL A   1      42.197  27.457  28.982  1.00  0.00     0.010 A 
ATOM     44  C   UNL A   1      39.831  27.001  29.235  1.00  0.00     0.010 A 
ATOM     45  C   UNL A   1      40.986  27.678  29.658  1.00  0.00    -0.014 A 
BRANCH  45  46
ATOM     46  C   UNL A   1      40.886  28.669  30.761  1.00  0.00     0.031 A 
ATOM     47  C   UNL A   1      41.742  28.536  31.988  1.00  0.00     0.074 A 
ATOM     48  C   UNL A   1      39.951  29.639  30.691  1.00  0.00     0.049 A 
ATOM     49  N   UNL A   1      41.723  29.249  33.085  1.00  0.00    -0.248 NA
ATOM     50  C   UNL A   1      42.732  27.448  31.995  1.00  0.00     0.031 C 
ATOM     51  C   UNL A   1      39.027  29.847  29.572  1.00  0.00     0.029 A 
ATOM     52  N   UNL A   1      39.609  30.620  31.588  1.00  0.00    -0.354 N 
ATOM     53  C   UNL A   1      42.684  28.690  33.917  1.00  0.00     0.074 A 
ATOM     54  C   UNL A   1      43.242  27.555  33.214  1.00  0.00     0.031 C 
ATOM     55  C   UNL A   1      38.238  30.900  29.842  1.00  0.00     0.029 A 
ATOM     56  C   UNL A   1      38.566  31.412  31.169  1.00  0.00     0.049 A 
ATOM     57  H   UNL A   1      40.068  30.746  32.450  1.00  0.00     0.167 HD
ATOM     58  C   UNL A   1      43.075  29.093  35.150  1.00  0.00     0.031 A 
ATOM     59  C   UNL A   1      37.928  32.425  31.785  1.00  0.00     0.031 A 
ATOM     60  C   UNL A   1      42.521  30.225  35.846  1.00  0.00     0.049 A 
ATOM     61  C   UNL A   1      38.363  32.836  33.164  1.00  0.00     0.074 A 
ATOM     62  C   UNL A   1      42.900  30.751  37.070  1.00  0.00     0.029 A 
ATOM     63  N   UNL A   1      41.466  31.000  35.388  1.00  0.00    -0.354 N 
ATOM     64  N   UNL A   1      39.324  32.339  33.906  1.00  0.00    -0.248 NA
ATOM     65  C   UNL A   1      37.626  33.943  33.790  1.00  0.00     0.031 C 
ATOM     66  C   UNL A   1      42.039  31.811  37.375  1.00  0.00     0.029 A 
ATOM     67  C   UNL A   1      41.157  31.978  36.319  1.00  0.00     0.049 A 
ATOM     68  H   UNL A   1      41.004  30.873  34.528  1.00  0.00     0.167 HD
ATOM     69  C   UNL A   1      39.315  33.080  35.081  1.00  0.00     0.074 A 
ATOM     70  C   UNL A   1      38.269  34.073  34.944  1.00  0.00     0.031 C 
ATOM     71  C   UNL A   1      40.102  32.949  36.177  1.00  0.00     0.031 A 
BRANCH  58  72
ATOM     72  C   UNL A   1      44.153  28.295  35.832  1.00  0.00    -0.014 A 
ATOM     73  C   UNL A   1      43.831  27.251  36.717  1.00  0.00     0.010 A 
ATOM     74  C   UNL A   1      45.506  28.563  35.552  1.00  0.00     0.010 A 
ATOM     75  C   UNL A   1      44.842  26.514  37.340  1.00  0.00     0.020 A 
ATOM     76  C   UNL A   1      46.519  27.811  36.153  1.00  0.00     0.020 A 
ATOM     77  C   UNL A   1      46.181  26.802  37.057  1.00  0.00     0.054 A 
BRANCH  77  78
ATOM     78  S   UNL A   1      47.472  25.815  37.862  1.00  0.00     0.124 S 
ATOM     79  O   UNL A   1      46.686  24.955  38.744  1.00  0.00    -0.237 OA
ATOM     80  O   UNL A   1      48.112  25.140  36.735  1.00  0.00    -0.237 OA
ATOM     81  O   UNL A   1      48.300  26.811  38.539  1.00  0.00    -0.744 OA
ENDBRANCH  77  78
ENDBRANCH  58  72
BRANCH  59  82
ATOM     82  C   UNL A   1      36.802  33.118  31.103  1.00  0.00    -0.014 A 
ATOM     83  C   UNL A   1      37.053  34.033  30.065  1.00  0.00     0.010 A 
ATOM     84  C   UNL A   1      35.471  32.853  31.476  1.00  0.00     0.010 A 
ATOM     85  C   UNL A   1      35.994  34.679  29.421  1.00  0.00     0.020 A 
ATOM     86  C   UNL A   1      34.410  33.479  30.817  1.00  0.00     0.020 A 
ATOM     87  C   UNL A   1      34.678  34.397  29.799  1.00  0.00     0.054 A 
BRANCH  87  88
ATOM     88  S   UNL A   1      33.317  35.204  28.911  1.00  0.00     0.124 S 
ATOM     89  O   UNL A   1      32.796  34.110  28.097  1.00  0.00    -0.237 OA
ATOM     90  O   UNL A   1      32.451  35.653  29.998  1.00  0.00    -0.237 OA
ATOM     91  O   UNL A   1      33.982  36.275  28.172  1.00  0.00    -0.744 OA
ENDBRANCH  87  88
ENDBRANCH  59  82
BRANCH  71  92
ATOM     92  C   UNL A   1      39.866  33.904  37.315  1.00  0.00    -0.014 A 
ATOM     93  C   UNL A   1      40.499  35.159  37.348  1.00  0.00     0.010 A 
ATOM     94  C   UNL A   1      38.960  33.565  38.336  1.00  0.00     0.010 A 
ATOM     95  C   UNL A   1      40.251  36.049  38.395  1.00  0.00     0.020 A 
ATOM     96  C   UNL A   1      38.689  34.462  39.373  1.00  0.00     0.020 A 
ATOM     97  C   UNL A   1      39.346  35.694  39.402  1.00  0.00     0.054 A 
BRANCH  97  98
ATOM     98  S   UNL A   1      39.002  36.887  40.726  1.00  0.00     0.124 S 
ATOM     99  O   UNL A   1      40.347  37.244  41.171  1.00  0.00    -0.237 OA
ATOM    100  O   UNL A   1      38.271  37.940  40.028  1.00  0.00    -0.237 OA
ATOM    101  O   UNL A   1      38.212  36.118  41.686  1.00  0.00    -0.744 OA
ENDBRANCH  97  98
ENDBRANCH  71  92
ENDBRANCH  45  46
ENDBRANCH  37  40
ENDBRANCH  35  36
ENDBRANCH  34  35
ENDBRANCH  33  34
ENDBRANCH   1  33
TORSDOF 20
ENDMDL
