MODEL 1
REMARK VINA RESULT:     -12.5      0.000      0.000
REMARK SMILES O=C(NCCCCNC(=O)[C@@H]1CC2(CC[NH2+]CC2)C[N@@H+]1Cc1cccc2nonc12)c1ccc(-c2c3nc(c(-c4ccc(S(=O)(=O)[O-])cc4)c4ccc([nH]4)c(-c4ccc(S(=O)(=O)[O-])cc4)c4nc(c(-c5ccc(S(=O)(=O)[O-])cc5)c5ccc2[nH]5)C=C4)C=C3)cc1
REMARK SMILES IDX 5 1 4 2 3 3 1 4 2 5 31 7 32 8 90 9 33 10 89 11 34 12 35 13
REMARK SMILES IDX 36 14 83 15 37 16 88 17 82 18 84 19 38 20 87 21 81 22 80 23
REMARK SMILES IDX 39 25 69 26 50 27 68 28 51 29 54 30 67 31 85 32 52 33 53 34
REMARK SMILES IDX 66 36 86 37 55 38 40 39 41 40 49 41 42 42 48 43 43 44 44 45
REMARK SMILES IDX 45 46 46 47 47 48 70 49 71 50 79 51 72 52 78 53 73 54 74 55
REMARK SMILES IDX 75 56 76 57 77 58 56 59 57 60 65 61 58 62 64 63 59 64 60 65
REMARK SMILES IDX 61 66 62 67 63 68 6 69 7 70 8 71 9 72 10 74 11 75 12 76
REMARK SMILES IDX 20 77 13 78 19 79 14 81 18 82 15 83 17 84 16 85 21 88 22 89
REMARK SMILES IDX 23 90 30 91 24 92 26 93 29 94 25 95 27 96 28 97
REMARK H PARENT 3 6 84 24 54 35 8 73 20 80 16 86 16 87
REMARK Flexibility Score: inf
ROOT
ATOM      1  C   UNL A   1      37.125  22.299  25.641  1.00  0.00     0.023 C 
ENDROOT
BRANCH   1   2
ATOM      2  C   UNL A   1      38.634  22.099  25.412  1.00  0.00     0.116 C 
BRANCH   2   3
ATOM      3  N   UNL A   1      39.223  21.456  26.573  1.00  0.00    -0.352 N 
ATOM      4  O   UNL A   1      40.898  20.701  27.809  1.00  0.00    -0.269 OA
ATOM      5  C   UNL A   1      40.403  21.667  27.226  1.00  0.00     0.251 C 
ATOM      6  H   UNL A   1      38.671  20.737  26.958  1.00  0.00     0.163 HD
BRANCH   5   7
ATOM      7  C   UNL A   1      41.068  22.988  27.331  1.00  0.00     0.039 A 
ATOM      8  C   UNL A   1      40.400  23.977  28.073  1.00  0.00     0.014 A 
ATOM      9  C   UNL A   1      42.180  23.345  26.568  1.00  0.00     0.014 A 
ATOM     10  C   UNL A   1      40.823  25.307  28.047  1.00  0.00     0.010 A 
ATOM     11  C   UNL A   1      42.603  24.683  26.542  1.00  0.00     0.010 A 
ATOM     12  C   UNL A   1      41.929  25.676  27.279  1.00  0.00    -0.014 A 
BRANCH  12  13
ATOM     13  C   UNL A   1      42.402  27.080  27.373  1.00  0.00     0.031 A 
ATOM     14  C   UNL A   1      41.304  28.086  27.304  1.00  0.00     0.074 A 
ATOM     15  C   UNL A   1      43.558  27.431  27.988  1.00  0.00     0.049 A 
ATOM     16  N   UNL A   1      40.550  28.286  28.341  1.00  0.00    -0.248 NA
ATOM     17  C   UNL A   1      40.785  28.698  26.086  1.00  0.00     0.031 C 
ATOM     18  C   UNL A   1      44.210  26.605  29.017  1.00  0.00     0.029 A 
ATOM     19  N   UNL A   1      44.269  28.614  28.014  1.00  0.00    -0.354 N 
ATOM     20  C   UNL A   1      39.435  28.993  27.932  1.00  0.00     0.074 A 
ATOM     21  C   UNL A   1      39.634  29.243  26.524  1.00  0.00     0.031 C 
ATOM     22  C   UNL A   1      45.115  27.359  29.674  1.00  0.00     0.029 A 
ATOM     23  C   UNL A   1      45.227  28.666  29.030  1.00  0.00     0.049 A 
ATOM     24  H   UNL A   1      44.116  29.351  27.378  1.00  0.00     0.167 HD
ATOM     25  C   UNL A   1      38.473  29.345  28.831  1.00  0.00     0.031 A 
ATOM     26  C   UNL A   1      45.638  29.790  29.682  1.00  0.00     0.031 A 
ATOM     27  C   UNL A   1      38.768  28.997  30.204  1.00  0.00     0.049 A 
ATOM     28  C   UNL A   1      44.404  30.168  30.455  1.00  0.00     0.074 A 
ATOM     29  C   UNL A   1      38.211  28.340  31.279  1.00  0.00     0.029 A 
ATOM     30  N   UNL A   1      40.015  29.384  30.608  1.00  0.00    -0.354 N 
ATOM     31  N   UNL A   1      43.999  29.616  31.567  1.00  0.00    -0.248 NA
ATOM     32  C   UNL A   1      43.426  31.075  29.837  1.00  0.00     0.031 C 
ATOM     33  C   UNL A   1      39.216  28.297  32.308  1.00  0.00     0.029 A 
ATOM     34  C   UNL A   1      40.356  28.947  31.850  1.00  0.00     0.049 A 
ATOM     35  H   UNL A   1      40.613  29.932  30.049  1.00  0.00     0.167 HD
ATOM     36  C   UNL A   1      42.635  29.874  31.621  1.00  0.00     0.074 A 
ATOM     37  C   UNL A   1      42.388  30.922  30.650  1.00  0.00     0.031 C 
ATOM     38  C   UNL A   1      41.742  29.066  32.263  1.00  0.00     0.031 A 
BRANCH  25  39
ATOM     39  C   UNL A   1      37.394  30.321  28.543  1.00  0.00    -0.014 A 
ATOM     40  C   UNL A   1      36.125  29.967  28.071  1.00  0.00     0.010 A 
ATOM     41  C   UNL A   1      37.642  31.661  28.905  1.00  0.00     0.010 A 
ATOM     42  C   UNL A   1      35.117  30.943  27.978  1.00  0.00     0.020 A 
ATOM     43  C   UNL A   1      36.645  32.633  28.817  1.00  0.00     0.020 A 
ATOM     44  C   UNL A   1      35.384  32.266  28.357  1.00  0.00     0.054 A 
BRANCH  44  45
ATOM     45  S   UNL A   1      34.052  33.497  28.281  1.00  0.00     0.124 S 
ATOM     46  O   UNL A   1      34.675  34.575  27.518  1.00  0.00    -0.237 OA
ATOM     47  O   UNL A   1      32.989  32.771  27.594  1.00  0.00    -0.237 OA
ATOM     48  O   UNL A   1      33.782  33.807  29.685  1.00  0.00    -0.744 OA
ENDBRANCH  44  45
ENDBRANCH  25  39
BRANCH  26  49
ATOM     49  C   UNL A   1      46.439  30.798  28.915  1.00  0.00    -0.014 A 
ATOM     50  C   UNL A   1      46.860  32.034  29.438  1.00  0.00     0.010 A 
ATOM     51  C   UNL A   1      46.817  30.502  27.588  1.00  0.00     0.010 A 
ATOM     52  C   UNL A   1      47.399  33.026  28.609  1.00  0.00     0.020 A 
ATOM     53  C   UNL A   1      47.399  31.469  26.760  1.00  0.00     0.020 A 
ATOM     54  C   UNL A   1      47.613  32.752  27.259  1.00  0.00     0.054 A 
BRANCH  54  55
ATOM     55  S   UNL A   1      48.090  34.111  26.161  1.00  0.00     0.124 S 
ATOM     56  O   UNL A   1      48.443  35.154  27.122  1.00  0.00    -0.237 OA
ATOM     57  O   UNL A   1      49.200  33.543  25.407  1.00  0.00    -0.237 OA
ATOM     58  O   UNL A   1      46.875  34.369  25.385  1.00  0.00    -0.744 OA
ENDBRANCH  54  55
ENDBRANCH  26  49
BRANCH  38  59
ATOM     59  C   UNL A   1      42.287  28.200  33.349  1.00  0.00    -0.014 A 
ATOM     60  C   UNL A   1      43.064  27.063  33.076  1.00  0.00     0.010 A 
ATOM     61  C   UNL A   1      41.897  28.462  34.675  1.00  0.00     0.010 A 
ATOM     62  C   UNL A   1      43.377  26.164  34.101  1.00  0.00     0.020 A 
ATOM     63  C   UNL A   1      42.217  27.578  35.700  1.00  0.00     0.020 A 
ATOM     64  C   UNL A   1      42.925  26.416  35.400  1.00  0.00     0.054 A 
BRANCH  64  65
ATOM     65  S   UNL A   1      43.203  25.166  36.680  1.00  0.00     0.124 S 
ATOM     66  O   UNL A   1      41.997  25.287  37.496  1.00  0.00    -0.237 OA
ATOM     67  O   UNL A   1      43.318  23.934  35.908  1.00  0.00    -0.237 OA
ATOM     68  O   UNL A   1      44.438  25.604  37.336  1.00  0.00    -0.744 OA
ENDBRANCH  64  65
ENDBRANCH  38  59
ENDBRANCH  12  13
ENDBRANCH   5   7
ENDBRANCH   2   3
ENDBRANCH   1   2
BRANCH   1  69
ATOM     69  C   UNL A   1      36.658  23.763  25.814  1.00  0.00     0.023 C 
BRANCH  69  70
ATOM     70  C   UNL A   1      35.530  24.207  24.873  1.00  0.00     0.116 C 
BRANCH  70  71
ATOM     71  N   UNL A   1      34.729  25.215  25.529  1.00  0.00    -0.351 N 
ATOM     72  C   UNL A   1      33.863  26.113  24.986  1.00  0.00     0.278 C 
ATOM     73  H   UNL A   1      34.823  25.259  26.508  1.00  0.00     0.163 HD
ATOM     74  O   UNL A   1      33.812  27.210  25.545  1.00  0.00    -0.268 OA
BRANCH  72  75
ATOM     75  C   UNL A   1      32.987  25.718  23.779  1.00  0.00     0.275 C 
ATOM     76  C   UNL A   1      32.413  26.963  23.100  1.00  0.00     0.089 C 
ATOM     77  N   UNL A   1      31.781  24.952  24.118  1.00  0.00    -0.320 N 
ATOM     78  C   UNL A   1      30.981  27.150  23.659  1.00  0.00     0.036 C 
ATOM     79  C   UNL A   1      30.555  25.713  23.996  1.00  0.00     0.270 C 
ATOM     80  H   UNL A   1      31.784  24.267  23.362  1.00  0.00     0.349 HD
ATOM     81  C   UNL A   1      30.049  27.798  22.616  1.00  0.00     0.074 C 
ATOM     82  C   UNL A   1      30.902  28.048  24.919  1.00  0.00     0.074 C 
ATOM     83  C   UNL A   1      30.409  29.266  22.369  1.00  0.00     0.261 C 
ATOM     84  C   UNL A   1      31.267  29.501  24.621  1.00  0.00     0.261 C 
ATOM     85  N   UNL A   1      30.380  30.064  23.598  1.00  0.00    -0.346 N 
ATOM     86  H   UNL A   1      29.427  30.084  23.959  1.00  0.00     0.346 HD
ATOM     87  H   UNL A   1      30.703  31.006  23.376  1.00  0.00     0.346 HD
BRANCH  77  88
ATOM     88  C   UNL A   1      31.816  23.741  24.921  1.00  0.00     0.302 C 
BRANCH  88  89
ATOM     89  C   UNL A   1      32.148  22.497  24.148  1.00  0.00     0.038 A 
ATOM     90  C   UNL A   1      31.856  22.358  22.765  1.00  0.00     0.012 A 
ATOM     91  C   UNL A   1      32.607  21.297  24.742  1.00  0.00     0.144 A 
ATOM     92  C   UNL A   1      31.902  21.123  22.065  1.00  0.00     0.003 A 
ATOM     93  C   UNL A   1      32.644  20.029  24.025  1.00  0.00     0.135 A 
ATOM     94  N   UNL A   1      33.004  21.071  26.003  1.00  0.00    -0.049 NA
ATOM     95  C   UNL A   1      32.272  19.912  22.674  1.00  0.00     0.034 A 
ATOM     96  N   UNL A   1      33.034  19.075  24.878  1.00  0.00    -0.050 NA
ATOM     97  O   UNL A   1      33.280  19.718  26.077  1.00  0.00    -0.243 OA
ENDBRANCH  88  89
ENDBRANCH  77  88
ENDBRANCH  72  75
ENDBRANCH  70  71
ENDBRANCH  69  70
ENDBRANCH   1  69
TORSDOF 16
ENDMDL
MODEL 2
REMARK VINA RESULT:     -12.5      2.493      8.185
REMARK SMILES O=C(NCCCCNC(=O)[C@@H]1CC2(CC[NH2+]CC2)C[N@@H+]1Cc1cccc2nonc12)c1ccc(-c2c3nc(c(-c4ccc(S(=O)(=O)[O-])cc4)c4ccc([nH]4)c(-c4ccc(S(=O)(=O)[O-])cc4)c4nc(c(-c5ccc(S(=O)(=O)[O-])cc5)c5ccc2[nH]5)C=C4)C=C3)cc1
REMARK SMILES IDX 5 1 4 2 3 3 1 4 2 5 31 7 32 8 90 9 33 10 89 11 34 12 35 13
REMARK SMILES IDX 36 14 83 15 37 16 88 17 82 18 84 19 38 20 87 21 81 22 80 23
REMARK SMILES IDX 39 25 69 26 50 27 68 28 51 29 54 30 67 31 85 32 52 33 53 34
REMARK SMILES IDX 66 36 86 37 55 38 40 39 41 40 49 41 42 42 48 43 43 44 44 45
REMARK SMILES IDX 45 46 46 47 47 48 70 49 71 50 79 51 72 52 78 53 73 54 74 55
REMARK SMILES IDX 75 56 76 57 77 58 56 59 57 60 65 61 58 62 64 63 59 64 60 65
REMARK SMILES IDX 61 66 62 67 63 68 6 69 7 70 8 71 9 72 10 74 11 75 12 76
REMARK SMILES IDX 20 77 13 78 19 79 14 81 18 82 15 83 17 84 16 85 21 88 22 89
REMARK SMILES IDX 23 90 30 91 24 92 26 93 29 94 25 95 27 96 28 97
REMARK H PARENT 3 6 84 24 54 35 8 73 20 80 16 86 16 87
REMARK Flexibility Score: inf
ROOT
ATOM      1  C   UNL A   1      32.807  30.809  26.664  1.00  0.00     0.023 C 
ENDROOT
BRANCH   1   2
ATOM      2  C   UNL A   1      33.801  31.101  27.802  1.00  0.00     0.116 C 
BRANCH   2   3
ATOM      3  N   UNL A   1      34.274  32.470  27.698  1.00  0.00    -0.352 N 
ATOM      4  O   UNL A   1      34.915  34.433  28.497  1.00  0.00    -0.269 OA
ATOM      5  C   UNL A   1      35.087  33.213  28.505  1.00  0.00     0.251 C 
ATOM      6  H   UNL A   1      33.950  32.948  26.901  1.00  0.00     0.163 HD
BRANCH   5   7
ATOM      7  C   UNL A   1      36.191  32.647  29.318  1.00  0.00     0.039 A 
ATOM      8  C   UNL A   1      37.174  31.917  28.630  1.00  0.00     0.014 A 
ATOM      9  C   UNL A   1      36.175  32.622  30.713  1.00  0.00     0.014 A 
ATOM     10  C   UNL A   1      38.124  31.161  29.318  1.00  0.00     0.010 A 
ATOM     11  C   UNL A   1      37.130  31.859  31.403  1.00  0.00     0.010 A 
ATOM     12  C   UNL A   1      38.111  31.121  30.713  1.00  0.00    -0.014 A 
BRANCH  12  13
ATOM     13  C   UNL A   1      39.208  30.391  31.397  1.00  0.00     0.031 A 
ATOM     14  C   UNL A   1      39.371  28.984  30.931  1.00  0.00     0.074 A 
ATOM     15  C   UNL A   1      40.278  31.012  31.950  1.00  0.00     0.049 A 
ATOM     16  N   UNL A   1      39.942  28.747  29.791  1.00  0.00    -0.248 NA
ATOM     17  C   UNL A   1      38.699  27.817  31.493  1.00  0.00     0.031 C 
ATOM     18  C   UNL A   1      40.736  32.350  31.542  1.00  0.00     0.029 A 
ATOM     19  N   UNL A   1      41.281  30.561  32.786  1.00  0.00    -0.354 N 
ATOM     20  C   UNL A   1      39.678  27.437  29.440  1.00  0.00     0.074 A 
ATOM     21  C   UNL A   1      38.915  26.892  30.539  1.00  0.00     0.031 C 
ATOM     22  C   UNL A   1      41.990  32.542  32.000  1.00  0.00     0.029 A 
ATOM     23  C   UNL A   1      42.377  31.424  32.858  1.00  0.00     0.049 A 
ATOM     24  H   UNL A   1      41.228  29.713  33.283  1.00  0.00     0.167 HD
ATOM     25  C   UNL A   1      40.170  26.920  28.279  1.00  0.00     0.031 A 
ATOM     26  C   UNL A   1      43.672  31.053  33.067  1.00  0.00     0.031 A 
ATOM     27  C   UNL A   1      41.029  27.813  27.533  1.00  0.00     0.049 A 
ATOM     28  C   UNL A   1      43.992  30.316  31.794  1.00  0.00     0.074 A 
ATOM     29  C   UNL A   1      41.178  28.337  26.268  1.00  0.00     0.029 A 
ATOM     30  N   UNL A   1      42.008  28.390  28.294  1.00  0.00    -0.354 N 
ATOM     31  N   UNL A   1      44.286  30.863  30.647  1.00  0.00    -0.248 NA
ATOM     32  C   UNL A   1      43.752  28.866  31.732  1.00  0.00     0.031 C 
ATOM     33  C   UNL A   1      42.243  29.302  26.339  1.00  0.00     0.029 A 
ATOM     34  C   UNL A   1      42.737  29.331  27.638  1.00  0.00     0.049 A 
ATOM     35  H   UNL A   1      42.170  28.144  29.234  1.00  0.00     0.167 HD
ATOM     36  C   UNL A   1      43.980  29.896  29.697  1.00  0.00     0.074 A 
ATOM     37  C   UNL A   1      43.847  28.649  30.426  1.00  0.00     0.031 C 
ATOM     38  C   UNL A   1      43.609  30.190  28.417  1.00  0.00     0.031 A 
BRANCH  25  39
ATOM     39  C   UNL A   1      40.168  25.473  27.956  1.00  0.00    -0.014 A 
ATOM     40  C   UNL A   1      39.148  24.833  27.242  1.00  0.00     0.010 A 
ATOM     41  C   UNL A   1      41.336  24.751  28.278  1.00  0.00     0.010 A 
ATOM     42  C   UNL A   1      39.307  23.494  26.845  1.00  0.00     0.020 A 
ATOM     43  C   UNL A   1      41.499  23.423  27.886  1.00  0.00     0.020 A 
ATOM     44  C   UNL A   1      40.483  22.801  27.166  1.00  0.00     0.054 A 
BRANCH  44  45
ATOM     45  S   UNL A   1      40.690  21.090  26.596  1.00  0.00     0.124 S 
ATOM     46  O   UNL A   1      41.882  21.190  25.759  1.00  0.00    -0.237 OA
ATOM     47  O   UNL A   1      40.858  20.358  27.848  1.00  0.00    -0.237 OA
ATOM     48  O   UNL A   1      39.448  20.809  25.876  1.00  0.00    -0.744 OA
ENDBRANCH  44  45
ENDBRANCH  25  39
BRANCH  26  49
ATOM     49  C   UNL A   1      44.044  30.515  34.415  1.00  0.00    -0.014 A 
ATOM     50  C   UNL A   1      45.366  30.384  34.875  1.00  0.00     0.010 A 
ATOM     51  C   UNL A   1      43.016  30.124  35.299  1.00  0.00     0.010 A 
ATOM     52  C   UNL A   1      45.660  29.665  36.040  1.00  0.00     0.020 A 
ATOM     53  C   UNL A   1      43.296  29.443  36.491  1.00  0.00     0.020 A 
ATOM     54  C   UNL A   1      44.619  29.150  36.811  1.00  0.00     0.054 A 
BRANCH  54  55
ATOM     55  S   UNL A   1      45.020  28.033  38.179  1.00  0.00     0.124 S 
ATOM     56  O   UNL A   1      46.311  27.497  37.751  1.00  0.00    -0.237 OA
ATOM     57  O   UNL A   1      45.056  28.927  39.329  1.00  0.00    -0.237 OA
ATOM     58  O   UNL A   1      43.917  27.070  38.172  1.00  0.00    -0.744 OA
ENDBRANCH  54  55
ENDBRANCH  26  49
BRANCH  38  59
ATOM     59  C   UNL A   1      44.042  31.515  27.885  1.00  0.00    -0.014 A 
ATOM     60  C   UNL A   1      45.128  31.646  27.005  1.00  0.00     0.010 A 
ATOM     61  C   UNL A   1      43.422  32.674  28.387  1.00  0.00     0.010 A 
ATOM     62  C   UNL A   1      45.634  32.913  26.696  1.00  0.00     0.020 A 
ATOM     63  C   UNL A   1      43.913  33.938  28.072  1.00  0.00     0.020 A 
ATOM     64  C   UNL A   1      45.038  34.047  27.257  1.00  0.00     0.054 A 
BRANCH  64  65
ATOM     65  S   UNL A   1      45.801  35.665  26.974  1.00  0.00     0.124 S 
ATOM     66  O   UNL A   1      46.414  35.490  25.660  1.00  0.00    -0.237 OA
ATOM     67  O   UNL A   1      44.660  36.571  27.020  1.00  0.00    -0.237 OA
ATOM     68  O   UNL A   1      46.749  35.804  28.082  1.00  0.00    -0.744 OA
ENDBRANCH  64  65
ENDBRANCH  38  59
ENDBRANCH  12  13
ENDBRANCH   5   7
ENDBRANCH   2   3
ENDBRANCH   1   2
BRANCH   1  69
ATOM     69  C   UNL A   1      31.829  29.635  26.909  1.00  0.00     0.023 C 
BRANCH  69  70
ATOM     70  C   UNL A   1      32.394  28.472  27.732  1.00  0.00     0.116 C 
BRANCH  70  71
ATOM     71  N   UNL A   1      31.515  27.330  27.612  1.00  0.00    -0.351 N 
ATOM     72  C   UNL A   1      31.431  26.411  26.612  1.00  0.00     0.278 C 
ATOM     73  H   UNL A   1      30.889  27.198  28.361  1.00  0.00     0.163 HD
ATOM     74  O   UNL A   1      30.300  25.980  26.380  1.00  0.00    -0.268 OA
BRANCH  72  75
ATOM     75  C   UNL A   1      32.704  25.935  25.882  1.00  0.00     0.275 C 
ATOM     76  C   UNL A   1      33.190  27.001  24.898  1.00  0.00     0.089 C 
ATOM     77  N   UNL A   1      32.517  24.762  25.019  1.00  0.00    -0.320 N 
ATOM     78  C   UNL A   1      32.640  26.601  23.506  1.00  0.00     0.036 C 
ATOM     79  C   UNL A   1      32.544  25.071  23.605  1.00  0.00     0.270 C 
ATOM     80  H   UNL A   1      33.371  24.246  25.229  1.00  0.00     0.349 HD
ATOM     81  C   UNL A   1      33.588  27.048  22.376  1.00  0.00     0.074 C 
ATOM     82  C   UNL A   1      31.256  27.210  23.170  1.00  0.00     0.074 C 
ATOM     83  C   UNL A   1      33.591  28.570  22.209  1.00  0.00     0.261 C 
ATOM     84  C   UNL A   1      31.313  28.728  23.011  1.00  0.00     0.261 C 
ATOM     85  N   UNL A   1      32.253  29.109  21.952  1.00  0.00    -0.346 N 
ATOM     86  H   UNL A   1      31.915  28.747  21.061  1.00  0.00     0.346 HD
ATOM     87  H   UNL A   1      32.316  30.126  21.928  1.00  0.00     0.346 HD
BRANCH  77  88
ATOM     88  C   UNL A   1      31.914  23.526  25.489  1.00  0.00     0.302 C 
BRANCH  88  89
ATOM     89  C   UNL A   1      32.668  22.286  25.103  1.00  0.00     0.038 A 
ATOM     90  C   UNL A   1      32.016  21.096  24.685  1.00  0.00     0.012 A 
ATOM     91  C   UNL A   1      34.062  22.121  25.285  1.00  0.00     0.144 A 
ATOM     92  C   UNL A   1      32.661  19.836  24.572  1.00  0.00     0.003 A 
ATOM     93  C   UNL A   1      34.721  20.825  25.178  1.00  0.00     0.135 A 
ATOM     94  N   UNL A   1      34.987  23.027  25.635  1.00  0.00    -0.049 NA
ATOM     95  C   UNL A   1      34.028  19.649  24.838  1.00  0.00     0.034 A 
ATOM     96  N   UNL A   1      36.012  20.982  25.493  1.00  0.00    -0.050 NA
ATOM     97  O   UNL A   1      36.178  22.332  25.744  1.00  0.00    -0.243 OA
ENDBRANCH  88  89
ENDBRANCH  77  88
ENDBRANCH  72  75
ENDBRANCH  70  71
ENDBRANCH  69  70
ENDBRANCH   1  69
TORSDOF 16
ENDMDL
MODEL 3
REMARK VINA RESULT:     -12.4      2.442      8.870
REMARK SMILES O=C(NCCCCNC(=O)[C@@H]1CC2(CC[NH2+]CC2)C[N@@H+]1Cc1cccc2nonc12)c1ccc(-c2c3nc(c(-c4ccc(S(=O)(=O)[O-])cc4)c4ccc([nH]4)c(-c4ccc(S(=O)(=O)[O-])cc4)c4nc(c(-c5ccc(S(=O)(=O)[O-])cc5)c5ccc2[nH]5)C=C4)C=C3)cc1
REMARK SMILES IDX 5 1 4 2 3 3 1 4 2 5 31 7 32 8 90 9 33 10 89 11 34 12 35 13
REMARK SMILES IDX 36 14 83 15 37 16 88 17 82 18 84 19 38 20 87 21 81 22 80 23
REMARK SMILES IDX 39 25 69 26 50 27 68 28 51 29 54 30 67 31 85 32 52 33 53 34
REMARK SMILES IDX 66 36 86 37 55 38 40 39 41 40 49 41 42 42 48 43 43 44 44 45
REMARK SMILES IDX 45 46 46 47 47 48 70 49 71 50 79 51 72 52 78 53 73 54 74 55
REMARK SMILES IDX 75 56 76 57 77 58 56 59 57 60 65 61 58 62 64 63 59 64 60 65
REMARK SMILES IDX 61 66 62 67 63 68 6 69 7 70 8 71 9 72 10 74 11 75 12 76
REMARK SMILES IDX 20 77 13 78 19 79 14 81 18 82 15 83 17 84 16 85 21 88 22 89
REMARK SMILES IDX 23 90 30 91 24 92 26 93 29 94 25 95 27 96 28 97
REMARK H PARENT 3 6 84 24 54 35 8 73 20 80 16 86 16 87
REMARK Flexibility Score: inf
ROOT
ATOM      1  C   UNL A   1      33.726  30.706  26.823  1.00  0.00     0.023 C 
ENDROOT
BRANCH   1   2
ATOM      2  C   UNL A   1      33.397  31.690  27.961  1.00  0.00     0.116 C 
BRANCH   2   3
ATOM      3  N   UNL A   1      34.242  32.865  27.849  1.00  0.00    -0.352 N 
ATOM      4  O   UNL A   1      35.549  34.473  28.630  1.00  0.00    -0.269 OA
ATOM      5  C   UNL A   1      35.344  33.261  28.552  1.00  0.00     0.251 C 
ATOM      6  H   UNL A   1      33.972  33.489  27.138  1.00  0.00     0.163 HD
BRANCH   5   7
ATOM      7  C   UNL A   1      36.326  32.325  29.151  1.00  0.00     0.039 A 
ATOM      8  C   UNL A   1      36.407  32.305  30.553  1.00  0.00     0.014 A 
ATOM      9  C   UNL A   1      37.292  31.652  28.403  1.00  0.00     0.014 A 
ATOM     10  C   UNL A   1      37.443  31.633  31.206  1.00  0.00     0.010 A 
ATOM     11  C   UNL A   1      38.334  30.979  29.061  1.00  0.00     0.010 A 
ATOM     12  C   UNL A   1      38.419  30.964  30.466  1.00  0.00    -0.014 A 
BRANCH  12  13
ATOM     13  C   UNL A   1      39.435  30.177  31.210  1.00  0.00     0.031 A 
ATOM     14  C   UNL A   1      39.531  28.757  30.766  1.00  0.00     0.074 A 
ATOM     15  C   UNL A   1      40.515  30.738  31.806  1.00  0.00     0.049 A 
ATOM     16  N   UNL A   1      40.141  28.470  29.657  1.00  0.00    -0.248 NA
ATOM     17  C   UNL A   1      38.762  27.641  31.307  1.00  0.00     0.031 C 
ATOM     18  C   UNL A   1      41.074  32.040  31.407  1.00  0.00     0.029 A 
ATOM     19  N   UNL A   1      41.446  30.237  32.694  1.00  0.00    -0.354 N 
ATOM     20  C   UNL A   1      39.812  27.174  29.307  1.00  0.00     0.074 A 
ATOM     21  C   UNL A   1      38.965  26.692  30.374  1.00  0.00     0.031 C 
ATOM     22  C   UNL A   1      42.314  32.160  31.924  1.00  0.00     0.029 A 
ATOM     23  C   UNL A   1      42.590  31.031  32.810  1.00  0.00     0.049 A 
ATOM     24  H   UNL A   1      41.317  29.400  33.197  1.00  0.00     0.167 HD
ATOM     25  C   UNL A   1      40.325  26.612  28.176  1.00  0.00     0.031 A 
ATOM     26  C   UNL A   1      43.848  30.584  33.084  1.00  0.00     0.031 A 
ATOM     27  C   UNL A   1      41.273  27.441  27.463  1.00  0.00     0.049 A 
ATOM     28  C   UNL A   1      44.181  29.812  31.836  1.00  0.00     0.074 A 
ATOM     29  C   UNL A   1      41.513  27.939  26.202  1.00  0.00     0.029 A 
ATOM     30  N   UNL A   1      42.248  27.966  28.264  1.00  0.00    -0.354 N 
ATOM     31  N   UNL A   1      44.562  30.325  30.698  1.00  0.00    -0.248 NA
ATOM     32  C   UNL A   1      43.854  28.379  31.777  1.00  0.00     0.031 C 
ATOM     33  C   UNL A   1      42.631  28.837  26.314  1.00  0.00     0.029 A 
ATOM     34  C   UNL A   1      43.065  28.852  27.634  1.00  0.00     0.049 A 
ATOM     35  H   UNL A   1      42.350  27.724  29.213  1.00  0.00     0.167 HD
ATOM     36  C   UNL A   1      44.242  29.366  29.745  1.00  0.00     0.074 A 
ATOM     37  C   UNL A   1      43.998  28.139  30.479  1.00  0.00     0.031 C 
ATOM     38  C   UNL A   1      43.951  29.666  28.446  1.00  0.00     0.031 A 
BRANCH  25  39
ATOM     39  C   UNL A   1      40.248  25.164  27.868  1.00  0.00    -0.014 A 
ATOM     40  C   UNL A   1      39.200  24.572  27.154  1.00  0.00     0.010 A 
ATOM     41  C   UNL A   1      41.374  24.385  28.205  1.00  0.00     0.010 A 
ATOM     42  C   UNL A   1      39.289  23.222  26.773  1.00  0.00     0.020 A 
ATOM     43  C   UNL A   1      41.469  23.046  27.827  1.00  0.00     0.020 A 
ATOM     44  C   UNL A   1      40.425  22.472  27.108  1.00  0.00     0.054 A 
BRANCH  44  45
ATOM     45  S   UNL A   1      40.545  20.746  26.556  1.00  0.00     0.124 S 
ATOM     46  O   UNL A   1      39.286  20.567  25.839  1.00  0.00    -0.237 OA
ATOM     47  O   UNL A   1      41.746  20.762  25.727  1.00  0.00    -0.237 OA
ATOM     48  O   UNL A   1      40.662  19.989  27.802  1.00  0.00    -0.744 OA
ENDBRANCH  44  45
ENDBRANCH  25  39
BRANCH  26  49
ATOM     49  C   UNL A   1      44.121  30.042  34.455  1.00  0.00    -0.014 A 
ATOM     50  C   UNL A   1      45.372  30.109  35.095  1.00  0.00     0.010 A 
ATOM     51  C   UNL A   1      43.067  29.434  35.170  1.00  0.00     0.010 A 
ATOM     52  C   UNL A   1      45.626  29.386  36.266  1.00  0.00     0.020 A 
ATOM     53  C   UNL A   1      43.297  28.745  36.367  1.00  0.00     0.020 A 
ATOM     54  C   UNL A   1      44.595  28.662  36.864  1.00  0.00     0.054 A 
BRANCH  54  55
ATOM     55  S   UNL A   1      44.996  27.553  38.239  1.00  0.00     0.124 S 
ATOM     56  O   UNL A   1      45.000  28.478  39.370  1.00  0.00    -0.237 OA
ATOM     57  O   UNL A   1      43.901  26.593  38.211  1.00  0.00    -0.237 OA
ATOM     58  O   UNL A   1      46.309  27.014  37.876  1.00  0.00    -0.744 OA
ENDBRANCH  54  55
ENDBRANCH  26  49
BRANCH  38  59
ATOM     59  C   UNL A   1      44.490  30.954  27.922  1.00  0.00    -0.014 A 
ATOM     60  C   UNL A   1      43.781  32.160  28.031  1.00  0.00     0.010 A 
ATOM     61  C   UNL A   1      45.687  30.927  27.181  1.00  0.00     0.010 A 
ATOM     62  C   UNL A   1      44.218  33.298  27.347  1.00  0.00     0.020 A 
ATOM     63  C   UNL A   1      46.134  32.060  26.508  1.00  0.00     0.020 A 
ATOM     64  C   UNL A   1      45.377  33.229  26.566  1.00  0.00     0.054 A 
BRANCH  64  65
ATOM     65  S   UNL A   1      45.841  34.663  25.563  1.00  0.00     0.124 S 
ATOM     66  O   UNL A   1      45.100  34.426  24.327  1.00  0.00    -0.237 OA
ATOM     67  O   UNL A   1      45.377  35.785  26.370  1.00  0.00    -0.237 OA
ATOM     68  O   UNL A   1      47.297  34.548  25.439  1.00  0.00    -0.744 OA
ENDBRANCH  64  65
ENDBRANCH  38  59
ENDBRANCH  12  13
ENDBRANCH   5   7
ENDBRANCH   2   3
ENDBRANCH   1   2
BRANCH   1  69
ATOM     69  C   UNL A   1      34.000  29.246  27.253  1.00  0.00     0.023 C 
BRANCH  69  70
ATOM     70  C   UNL A   1      33.031  28.202  26.685  1.00  0.00     0.116 C 
BRANCH  70  71
ATOM     71  N   UNL A   1      33.608  27.608  25.500  1.00  0.00    -0.351 N 
ATOM     72  C   UNL A   1      33.482  26.338  25.028  1.00  0.00     0.278 C 
ATOM     73  H   UNL A   1      34.172  28.206  24.959  1.00  0.00     0.163 HD
ATOM     74  O   UNL A   1      34.478  25.878  24.465  1.00  0.00    -0.268 OA
BRANCH  72  75
ATOM     75  C   UNL A   1      32.143  25.584  25.165  1.00  0.00     0.275 C 
ATOM     76  C   UNL A   1      32.375  24.167  25.690  1.00  0.00     0.089 C 
ATOM     77  N   UNL A   1      31.436  25.347  23.900  1.00  0.00    -0.320 N 
ATOM     78  C   UNL A   1      32.394  23.235  24.452  1.00  0.00     0.036 C 
ATOM     79  C   UNL A   1      31.480  23.969  23.460  1.00  0.00     0.270 C 
ATOM     80  H   UNL A   1      30.478  25.538  24.191  1.00  0.00     0.349 HD
ATOM     81  C   UNL A   1      31.861  21.830  24.797  1.00  0.00     0.074 C 
ATOM     82  C   UNL A   1      33.799  23.021  23.839  1.00  0.00     0.074 C 
ATOM     83  C   UNL A   1      32.833  21.061  25.696  1.00  0.00     0.261 C 
ATOM     84  C   UNL A   1      34.729  22.248  24.771  1.00  0.00     0.261 C 
ATOM     85  N   UNL A   1      34.167  20.935  25.102  1.00  0.00    -0.346 N 
ATOM     86  H   UNL A   1      34.099  20.378  24.250  1.00  0.00     0.346 HD
ATOM     87  H   UNL A   1      34.779  20.484  25.781  1.00  0.00     0.346 HD
BRANCH  77  88
ATOM     88  C   UNL A   1      31.131  26.410  22.957  1.00  0.00     0.302 C 
BRANCH  88  89
ATOM     89  C   UNL A   1      29.836  27.121  23.227  1.00  0.00     0.038 A 
ATOM     90  C   UNL A   1      28.768  26.516  23.941  1.00  0.00     0.012 A 
ATOM     91  C   UNL A   1      29.486  28.367  22.654  1.00  0.00     0.144 A 
ATOM     92  C   UNL A   1      27.448  27.038  23.986  1.00  0.00     0.003 A 
ATOM     93  C   UNL A   1      28.128  28.896  22.693  1.00  0.00     0.135 A 
ATOM     94  N   UNL A   1      30.243  29.222  21.951  1.00  0.00    -0.049 NA
ATOM     95  C   UNL A   1      27.074  28.231  23.344  1.00  0.00     0.034 A 
ATOM     96  N   UNL A   1      28.101  30.036  21.992  1.00  0.00    -0.050 NA
ATOM     97  O   UNL A   1      29.399  30.247  21.564  1.00  0.00    -0.243 OA
ENDBRANCH  88  89
ENDBRANCH  77  88
ENDBRANCH  72  75
ENDBRANCH  70  71
ENDBRANCH  69  70
ENDBRANCH   1  69
TORSDOF 16
ENDMDL
