MODEL 1
REMARK VINA RESULT:     -11.4      0.000      0.000
REMARK SMILES Cn1ccc(NC(=O)[C@@H]2CCCC[C@@H]2C(=O)NCCCCNC(=O)c2ccc(-c3c4nc(c(-c5ccc(S(=O)(=O)[O-])cc5)c5ccc([nH]5)c(-c5ccc(S(=O)(=O)[O-])cc5)c5nc(c(-c6ccc(S(=O)(=O)[O-])cc6)c6ccc3[nH]6)C=C5)C=C4)cc2)n1
REMARK SMILES IDX 20 1 19 2 18 3 17 4 15 5 16 6 14 8 9 9 10 10 11 11 13 12
REMARK SMILES IDX 12 13 7 14 6 15 8 17 5 18 1 19 2 20 3 21 85 22 4 23 21 24
REMARK SMILES IDX 22 25 23 26 24 28 25 29 26 30 84 31 27 32 83 33 28 34 29 35
REMARK SMILES IDX 30 36 77 37 31 38 82 39 76 40 78 41 32 42 81 43 75 44 74 45
REMARK SMILES IDX 33 47 63 48 44 49 62 50 45 51 48 52 61 53 79 54 46 55 47 56
REMARK SMILES IDX 60 58 80 59 49 60 34 61 35 62 43 63 36 64 42 65 37 66 38 67
REMARK SMILES IDX 39 68 40 69 41 70 64 71 65 72 73 73 66 74 72 75 67 76 68 77
REMARK SMILES IDX 69 78 70 79 71 80 50 81 51 82 59 83 52 84 58 85 53 86 54 87
REMARK SMILES IDX 55 88 56 89 57 90
REMARK H PARENT 17 7 6 16 22 27 78 46 48 57
REMARK Flexibility Score: inf
ROOT
ATOM      1  C   UNL A   1      33.127  27.788  26.862  1.00  0.00     0.023 C 
ENDROOT
BRANCH   1   2
ATOM      2  C   UNL A   1      32.246  26.979  25.915  1.00  0.00     0.023 C 
BRANCH   2   3
ATOM      3  C   UNL A   1      32.668  25.521  25.750  1.00  0.00     0.116 C 
BRANCH   3   4
ATOM      4  N   UNL A   1      34.096  25.391  25.893  1.00  0.00    -0.356 N 
ATOM      5  C   UNL A   1      34.941  24.396  25.518  1.00  0.00     0.223 C 
ATOM      6  O   UNL A   1      36.129  24.576  25.791  1.00  0.00    -0.275 OA
ATOM      7  H   UNL A   1      34.534  26.151  26.337  1.00  0.00     0.163 HD
BRANCH   5   8
ATOM      8  C   UNL A   1      34.449  23.170  24.722  1.00  0.00     0.091 C 
ATOM      9  C   UNL A   1      34.729  21.762  25.306  1.00  0.00     0.091 C 
ATOM     10  C   UNL A   1      36.242  21.617  25.547  1.00  0.00     0.014 C 
ATOM     11  C   UNL A   1      36.993  21.669  24.217  1.00  0.00     0.001 C 
ATOM     12  C   UNL A   1      35.107  23.180  23.316  1.00  0.00     0.014 C 
ATOM     13  C   UNL A   1      36.610  22.857  23.334  1.00  0.00     0.001 C 
BRANCH   9  14
ATOM     14  C   UNL A   1      33.906  21.254  26.490  1.00  0.00     0.229 C 
ATOM     15  N   UNL A   1      33.115  20.145  26.418  1.00  0.00    -0.309 N 
ATOM     16  H   UNL A   1      32.599  19.948  27.233  1.00  0.00     0.171 HD
ATOM     17  O   UNL A   1      33.940  21.830  27.584  1.00  0.00    -0.274 OA
BRANCH  15  18
ATOM     18  C   UNL A   1      32.929  19.261  25.385  1.00  0.00     0.154 A 
ATOM     19  C   UNL A   1      33.578  16.272  23.721  1.00  0.00     0.173 C 
ATOM     20  N   UNL A   1      33.107  17.575  24.120  1.00  0.00    -0.274 N 
ATOM     21  C   UNL A   1      32.494  18.509  23.344  1.00  0.00     0.110 A 
ATOM     22  N   UNL A   1      33.334  17.994  25.375  1.00  0.00    -0.155 NA
ATOM     23  C   UNL A   1      32.320  19.608  24.154  1.00  0.00     0.068 A 
ENDBRANCH  15  18
ENDBRANCH   9  14
ENDBRANCH   5   8
ENDBRANCH   3   4
ENDBRANCH   2   3
ENDBRANCH   1   2
BRANCH   1  24
ATOM     24  C   UNL A   1      33.808  28.984  26.216  1.00  0.00     0.116 C 
BRANCH  24  25
ATOM     25  N   UNL A   1      33.633  30.227  26.955  1.00  0.00    -0.352 N 
ATOM     26  C   UNL A   1      34.508  30.789  27.857  1.00  0.00     0.251 C 
ATOM     27  H   UNL A   1      32.797  30.720  26.792  1.00  0.00     0.163 HD
ATOM     28  O   UNL A   1      34.217  31.810  28.470  1.00  0.00    -0.269 OA
BRANCH  26  29
ATOM     29  C   UNL A   1      35.785  30.091  28.106  1.00  0.00     0.039 A 
ATOM     30  C   UNL A   1      36.781  30.135  27.130  1.00  0.00     0.014 A 
ATOM     31  C   UNL A   1      36.033  29.523  29.358  1.00  0.00     0.014 A 
ATOM     32  C   UNL A   1      38.062  29.677  27.441  1.00  0.00     0.010 A 
ATOM     33  C   UNL A   1      37.326  29.139  29.688  1.00  0.00     0.010 A 
ATOM     34  C   UNL A   1      38.355  29.221  28.736  1.00  0.00    -0.014 A 
BRANCH  34  35
ATOM     35  C   UNL A   1      39.730  28.826  29.132  1.00  0.00     0.031 A 
ATOM     36  C   UNL A   1      40.621  29.825  29.817  1.00  0.00     0.074 A 
ATOM     37  C   UNL A   1      40.207  27.612  28.791  1.00  0.00     0.049 A 
ATOM     38  N   UNL A   1      41.887  29.724  30.126  1.00  0.00    -0.248 NA
ATOM     39  C   UNL A   1      40.016  31.120  30.166  1.00  0.00     0.031 C 
ATOM     40  C   UNL A   1      39.458  26.570  28.085  1.00  0.00     0.029 A 
ATOM     41  N   UNL A   1      41.447  27.055  28.984  1.00  0.00    -0.354 N 
ATOM     42  C   UNL A   1      42.237  30.952  30.676  1.00  0.00     0.074 A 
ATOM     43  C   UNL A   1      41.063  31.794  30.617  1.00  0.00     0.031 C 
ATOM     44  C   UNL A   1      40.246  25.493  27.923  1.00  0.00     0.029 A 
ATOM     45  C   UNL A   1      41.565  25.781  28.478  1.00  0.00     0.049 A 
ATOM     46  H   UNL A   1      42.182  27.523  29.442  1.00  0.00     0.167 HD
ATOM     47  C   UNL A   1      43.425  31.339  31.198  1.00  0.00     0.031 A 
ATOM     48  C   UNL A   1      42.619  24.942  28.457  1.00  0.00     0.031 A 
ATOM     49  C   UNL A   1      44.582  30.489  31.283  1.00  0.00     0.049 A 
ATOM     50  C   UNL A   1      43.920  25.382  29.070  1.00  0.00     0.074 A 
ATOM     51  C   UNL A   1      45.815  30.768  31.846  1.00  0.00     0.029 A 
ATOM     52  N   UNL A   1      44.645  29.191  30.802  1.00  0.00    -0.354 N 
ATOM     53  N   UNL A   1      44.218  26.531  29.629  1.00  0.00    -0.248 NA
ATOM     54  C   UNL A   1      45.022  24.411  29.061  1.00  0.00     0.031 C 
ATOM     55  C   UNL A   1      46.634  29.647  31.678  1.00  0.00     0.029 A 
ATOM     56  C   UNL A   1      45.897  28.656  31.049  1.00  0.00     0.049 A 
ATOM     57  H   UNL A   1      43.908  28.720  30.350  1.00  0.00     0.167 HD
ATOM     58  C   UNL A   1      45.534  26.409  30.063  1.00  0.00     0.074 A 
ATOM     59  C   UNL A   1      45.970  25.074  29.709  1.00  0.00     0.031 C 
ATOM     60  C   UNL A   1      46.309  27.321  30.700  1.00  0.00     0.031 A 
BRANCH  47  61
ATOM     61  C   UNL A   1      43.525  32.748  31.715  1.00  0.00    -0.014 A 
ATOM     62  C   UNL A   1      43.948  33.797  30.878  1.00  0.00     0.010 A 
ATOM     63  C   UNL A   1      43.179  33.030  33.048  1.00  0.00     0.010 A 
ATOM     64  C   UNL A   1      44.072  35.095  31.381  1.00  0.00     0.020 A 
ATOM     65  C   UNL A   1      43.275  34.332  33.546  1.00  0.00     0.020 A 
ATOM     66  C   UNL A   1      43.742  35.352  32.715  1.00  0.00     0.054 A 
BRANCH  66  67
ATOM     67  S   UNL A   1      43.906  37.046  33.341  1.00  0.00     0.124 S 
ATOM     68  O   UNL A   1      45.170  36.975  34.069  1.00  0.00    -0.237 OA
ATOM     69  O   UNL A   1      43.930  37.842  32.117  1.00  0.00    -0.237 OA
ATOM     70  O   UNL A   1      42.717  37.224  34.172  1.00  0.00    -0.744 OA
ENDBRANCH  66  67
ENDBRANCH  47  61
BRANCH  48  71
ATOM     71  C   UNL A   1      42.480  23.588  27.857  1.00  0.00    -0.014 A 
ATOM     72  C   UNL A   1      42.901  23.352  26.536  1.00  0.00     0.010 A 
ATOM     73  C   UNL A   1      41.939  22.526  28.603  1.00  0.00     0.010 A 
ATOM     74  C   UNL A   1      42.769  22.082  25.966  1.00  0.00     0.020 A 
ATOM     75  C   UNL A   1      41.828  21.249  28.045  1.00  0.00     0.020 A 
ATOM     76  C   UNL A   1      42.233  21.039  26.725  1.00  0.00     0.054 A 
BRANCH  76  77
ATOM     77  S   UNL A   1      42.120  19.385  25.984  1.00  0.00     0.124 S 
ATOM     78  O   UNL A   1      42.654  18.540  27.046  1.00  0.00    -0.237 OA
ATOM     79  O   UNL A   1      40.687  19.250  25.727  1.00  0.00    -0.237 OA
ATOM     80  O   UNL A   1      42.951  19.492  24.787  1.00  0.00    -0.744 OA
ENDBRANCH  76  77
ENDBRANCH  48  71
BRANCH  60  81
ATOM     81  C   UNL A   1      47.693  26.895  31.100  1.00  0.00    -0.014 A 
ATOM     82  C   UNL A   1      47.947  26.337  32.365  1.00  0.00     0.010 A 
ATOM     83  C   UNL A   1      48.742  26.993  30.168  1.00  0.00     0.010 A 
ATOM     84  C   UNL A   1      49.232  25.900  32.696  1.00  0.00     0.020 A 
ATOM     85  C   UNL A   1      50.023  26.537  30.489  1.00  0.00     0.020 A 
ATOM     86  C   UNL A   1      50.261  26.003  31.756  1.00  0.00     0.054 A 
BRANCH  86  87
ATOM     87  S   UNL A   1      51.908  25.375  32.186  1.00  0.00     0.124 S 
ATOM     88  O   UNL A   1      51.698  23.930  32.161  1.00  0.00    -0.237 OA
ATOM     89  O   UNL A   1      52.746  25.907  31.113  1.00  0.00    -0.237 OA
ATOM     90  O   UNL A   1      52.161  25.945  33.507  1.00  0.00    -0.744 OA
ENDBRANCH  86  87
ENDBRANCH  60  81
ENDBRANCH  34  35
ENDBRANCH  26  29
ENDBRANCH  24  25
ENDBRANCH   1  24
TORSDOF 16
ENDMDL
MODEL 2
REMARK VINA RESULT:     -11.0      1.817      2.701
REMARK SMILES Cn1ccc(NC(=O)[C@@H]2CCCC[C@@H]2C(=O)NCCCCNC(=O)c2ccc(-c3c4nc(c(-c5ccc(S(=O)(=O)[O-])cc5)c5ccc([nH]5)c(-c5ccc(S(=O)(=O)[O-])cc5)c5nc(c(-c6ccc(S(=O)(=O)[O-])cc6)c6ccc3[nH]6)C=C5)C=C4)cc2)n1
REMARK SMILES IDX 20 1 19 2 18 3 17 4 15 5 16 6 14 8 9 9 10 10 11 11 13 12
REMARK SMILES IDX 12 13 7 14 6 15 8 17 5 18 1 19 2 20 3 21 85 22 4 23 21 24
REMARK SMILES IDX 22 25 23 26 24 28 25 29 26 30 84 31 27 32 83 33 28 34 29 35
REMARK SMILES IDX 30 36 77 37 31 38 82 39 76 40 78 41 32 42 81 43 75 44 74 45
REMARK SMILES IDX 33 47 63 48 44 49 62 50 45 51 48 52 61 53 79 54 46 55 47 56
REMARK SMILES IDX 60 58 80 59 49 60 34 61 35 62 43 63 36 64 42 65 37 66 38 67
REMARK SMILES IDX 39 68 40 69 41 70 64 71 65 72 73 73 66 74 72 75 67 76 68 77
REMARK SMILES IDX 69 78 70 79 71 80 50 81 51 82 59 83 52 84 58 85 53 86 54 87
REMARK SMILES IDX 55 88 56 89 57 90
REMARK H PARENT 17 7 6 16 22 27 78 46 48 57
REMARK Flexibility Score: inf
ROOT
ATOM      1  C   UNL A   1      33.107  28.440  25.677  1.00  0.00     0.023 C 
ENDROOT
BRANCH   1   2
ATOM      2  C   UNL A   1      31.583  28.435  25.617  1.00  0.00     0.023 C 
BRANCH   2   3
ATOM      3  C   UNL A   1      30.937  27.119  26.043  1.00  0.00     0.116 C 
BRANCH   3   4
ATOM      4  N   UNL A   1      30.656  26.301  24.889  1.00  0.00    -0.356 N 
ATOM      5  C   UNL A   1      31.295  25.208  24.397  1.00  0.00     0.223 C 
ATOM      6  O   UNL A   1      30.809  24.726  23.371  1.00  0.00    -0.275 OA
ATOM      7  H   UNL A   1      29.868  26.581  24.371  1.00  0.00     0.163 HD
BRANCH   5   8
ATOM      8  C   UNL A   1      32.490  24.567  25.130  1.00  0.00     0.091 C 
ATOM      9  C   UNL A   1      33.266  23.436  24.408  1.00  0.00     0.091 C 
ATOM     10  C   UNL A   1      32.276  22.326  24.018  1.00  0.00     0.014 C 
ATOM     11  C   UNL A   1      31.685  21.685  25.272  1.00  0.00     0.001 C 
ATOM     12  C   UNL A   1      31.995  23.949  26.465  1.00  0.00     0.014 C 
ATOM     13  C   UNL A   1      31.132  22.690  26.282  1.00  0.00     0.001 C 
BRANCH   9  14
ATOM     14  C   UNL A   1      34.224  23.783  23.267  1.00  0.00     0.229 C 
ATOM     15  N   UNL A   1      35.554  23.485  23.302  1.00  0.00    -0.309 N 
ATOM     16  H   UNL A   1      36.073  23.801  22.528  1.00  0.00     0.171 HD
ATOM     17  O   UNL A   1      33.817  24.340  22.241  1.00  0.00    -0.274 OA
BRANCH  15  18
ATOM     18  C   UNL A   1      36.280  22.810  24.252  1.00  0.00     0.154 A 
ATOM     19  C   UNL A   1      39.046  22.429  26.333  1.00  0.00     0.173 C 
ATOM     20  N   UNL A   1      37.814  22.264  25.602  1.00  0.00    -0.274 N 
ATOM     21  C   UNL A   1      37.098  21.120  25.433  1.00  0.00     0.110 A 
ATOM     22  N   UNL A   1      37.306  23.312  24.934  1.00  0.00    -0.155 NA
ATOM     23  C   UNL A   1      36.060  21.453  24.593  1.00  0.00     0.068 A 
ENDBRANCH  15  18
ENDBRANCH   9  14
ENDBRANCH   5   8
ENDBRANCH   3   4
ENDBRANCH   2   3
ENDBRANCH   1   2
BRANCH   1  24
ATOM     24  C   UNL A   1      33.679  28.611  27.075  1.00  0.00     0.116 C 
BRANCH  24  25
ATOM     25  N   UNL A   1      33.627  29.983  27.564  1.00  0.00    -0.352 N 
ATOM     26  C   UNL A   1      34.643  30.691  28.165  1.00  0.00     0.251 C 
ATOM     27  H   UNL A   1      32.771  30.456  27.453  1.00  0.00     0.163 HD
ATOM     28  O   UNL A   1      34.456  31.823  28.598  1.00  0.00    -0.269 OA
BRANCH  26  29
ATOM     29  C   UNL A   1      35.950  30.023  28.324  1.00  0.00     0.039 A 
ATOM     30  C   UNL A   1      36.877  30.095  27.283  1.00  0.00     0.014 A 
ATOM     31  C   UNL A   1      36.295  29.456  29.553  1.00  0.00     0.014 A 
ATOM     32  C   UNL A   1      38.187  29.667  27.505  1.00  0.00     0.010 A 
ATOM     33  C   UNL A   1      37.616  29.101  29.793  1.00  0.00     0.010 A 
ATOM     34  C   UNL A   1      38.576  29.212  28.775  1.00  0.00    -0.014 A 
BRANCH  34  35
ATOM     35  C   UNL A   1      39.984  28.848  29.075  1.00  0.00     0.031 A 
ATOM     36  C   UNL A   1      40.906  29.877  29.669  1.00  0.00     0.074 A 
ATOM     37  C   UNL A   1      40.456  27.634  28.727  1.00  0.00     0.049 A 
ATOM     38  N   UNL A   1      42.193  29.804  29.884  1.00  0.00    -0.248 NA
ATOM     39  C   UNL A   1      40.305  31.171  30.033  1.00  0.00     0.031 C 
ATOM     40  C   UNL A   1      39.675  26.564  28.102  1.00  0.00     0.029 A 
ATOM     41  N   UNL A   1      41.716  27.101  28.839  1.00  0.00    -0.354 N 
ATOM     42  C   UNL A   1      42.562  31.050  30.378  1.00  0.00     0.074 A 
ATOM     43  C   UNL A   1      41.372  31.871  30.389  1.00  0.00     0.031 C 
ATOM     44  C   UNL A   1      40.467  25.497  27.906  1.00  0.00     0.029 A 
ATOM     45  C   UNL A   1      41.818  25.818  28.353  1.00  0.00     0.049 A 
ATOM     46  H   UNL A   1      42.474  27.592  29.229  1.00  0.00     0.167 HD
ATOM     47  C   UNL A   1      43.778  31.468  30.800  1.00  0.00     0.031 A 
ATOM     48  C   UNL A   1      42.882  24.996  28.272  1.00  0.00     0.031 A 
ATOM     49  C   UNL A   1      44.953  30.639  30.818  1.00  0.00     0.049 A 
ATOM     50  C   UNL A   1      44.217  25.471  28.776  1.00  0.00     0.074 A 
ATOM     51  C   UNL A   1      46.219  30.951  31.281  1.00  0.00     0.029 A 
ATOM     52  N   UNL A   1      45.002  29.331  30.362  1.00  0.00    -0.354 N 
ATOM     53  N   UNL A   1      44.536  26.638  29.285  1.00  0.00    -0.248 NA
ATOM     54  C   UNL A   1      45.332  24.517  28.706  1.00  0.00     0.031 C 
ATOM     55  C   UNL A   1      47.043  29.839  31.077  1.00  0.00     0.029 A 
ATOM     56  C   UNL A   1      46.279  28.822  30.527  1.00  0.00     0.049 A 
ATOM     57  H   UNL A   1      44.243  28.837  29.978  1.00  0.00     0.167 HD
ATOM     58  C   UNL A   1      45.883  26.546  29.622  1.00  0.00     0.074 A 
ATOM     59  C   UNL A   1      46.314  25.210  29.267  1.00  0.00     0.031 C 
ATOM     60  C   UNL A   1      46.687  27.485  30.179  1.00  0.00     0.031 A 
BRANCH  47  61
ATOM     61  C   UNL A   1      43.891  32.890  31.277  1.00  0.00    -0.014 A 
ATOM     62  C   UNL A   1      44.321  33.911  30.410  1.00  0.00     0.010 A 
ATOM     63  C   UNL A   1      43.552  33.213  32.602  1.00  0.00     0.010 A 
ATOM     64  C   UNL A   1      44.457  35.222  30.875  1.00  0.00     0.020 A 
ATOM     65  C   UNL A   1      43.661  34.528  33.063  1.00  0.00     0.020 A 
ATOM     66  C   UNL A   1      44.134  35.520  32.201  1.00  0.00     0.054 A 
BRANCH  66  67
ATOM     67  S   UNL A   1      44.314  37.230  32.779  1.00  0.00     0.124 S 
ATOM     68  O   UNL A   1      43.895  37.987  31.602  1.00  0.00    -0.237 OA
ATOM     69  O   UNL A   1      43.401  37.284  33.917  1.00  0.00    -0.237 OA
ATOM     70  O   UNL A   1      45.732  37.334  33.115  1.00  0.00    -0.744 OA
ENDBRANCH  66  67
ENDBRANCH  47  61
BRANCH  48  71
ATOM     71  C   UNL A   1      42.722  23.626  27.715  1.00  0.00    -0.014 A 
ATOM     72  C   UNL A   1      42.362  22.557  28.555  1.00  0.00     0.010 A 
ATOM     73  C   UNL A   1      42.915  23.384  26.343  1.00  0.00     0.010 A 
ATOM     74  C   UNL A   1      42.214  21.267  28.037  1.00  0.00     0.020 A 
ATOM     75  C   UNL A   1      42.745  22.100  25.817  1.00  0.00     0.020 A 
ATOM     76  C   UNL A   1      42.406  21.047  26.671  1.00  0.00     0.054 A 
BRANCH  76  77
ATOM     77  S   UNL A   1      42.157  19.375  26.009  1.00  0.00     0.124 S 
ATOM     78  O   UNL A   1      40.719  19.357  25.765  1.00  0.00    -0.237 OA
ATOM     79  O   UNL A   1      43.002  19.376  24.816  1.00  0.00    -0.237 OA
ATOM     80  O   UNL A   1      42.621  18.509  27.090  1.00  0.00    -0.744 OA
ENDBRANCH  76  77
ENDBRANCH  48  71
BRANCH  60  81
ATOM     81  C   UNL A   1      48.105  27.092  30.483  1.00  0.00    -0.014 A 
ATOM     82  C   UNL A   1      49.139  27.322  29.558  1.00  0.00     0.010 A 
ATOM     83  C   UNL A   1      48.416  26.546  31.742  1.00  0.00     0.010 A 
ATOM     84  C   UNL A   1      50.458  26.996  29.883  1.00  0.00     0.020 A 
ATOM     85  C   UNL A   1      49.736  26.239  32.077  1.00  0.00     0.020 A 
ATOM     86  C   UNL A   1      50.747  26.457  31.140  1.00  0.00     0.054 A 
BRANCH  86  87
ATOM     87  S   UNL A   1      52.475  26.096  31.563  1.00  0.00     0.124 S 
ATOM     88  O   UNL A   1      52.372  24.762  32.147  1.00  0.00    -0.237 OA
ATOM     89  O   UNL A   1      53.144  26.164  30.266  1.00  0.00    -0.237 OA
ATOM     90  O   UNL A   1      52.832  27.160  32.498  1.00  0.00    -0.744 OA
ENDBRANCH  86  87
ENDBRANCH  60  81
ENDBRANCH  34  35
ENDBRANCH  26  29
ENDBRANCH  24  25
ENDBRANCH   1  24
TORSDOF 16
ENDMDL
MODEL 3
REMARK VINA RESULT:     -10.9      4.597      6.093
REMARK SMILES Cn1ccc(NC(=O)[C@@H]2CCCC[C@@H]2C(=O)NCCCCNC(=O)c2ccc(-c3c4nc(c(-c5ccc(S(=O)(=O)[O-])cc5)c5ccc([nH]5)c(-c5ccc(S(=O)(=O)[O-])cc5)c5nc(c(-c6ccc(S(=O)(=O)[O-])cc6)c6ccc3[nH]6)C=C5)C=C4)cc2)n1
REMARK SMILES IDX 20 1 19 2 18 3 17 4 15 5 16 6 14 8 9 9 10 10 11 11 13 12
REMARK SMILES IDX 12 13 7 14 6 15 8 17 5 18 1 19 2 20 3 21 85 22 4 23 21 24
REMARK SMILES IDX 22 25 23 26 24 28 25 29 26 30 84 31 27 32 83 33 28 34 29 35
REMARK SMILES IDX 30 36 77 37 31 38 82 39 76 40 78 41 32 42 81 43 75 44 74 45
REMARK SMILES IDX 33 47 63 48 44 49 62 50 45 51 48 52 61 53 79 54 46 55 47 56
REMARK SMILES IDX 60 58 80 59 49 60 34 61 35 62 43 63 36 64 42 65 37 66 38 67
REMARK SMILES IDX 39 68 40 69 41 70 64 71 65 72 73 73 66 74 72 75 67 76 68 77
REMARK SMILES IDX 69 78 70 79 71 80 50 81 51 82 59 83 52 84 58 85 53 86 54 87
REMARK SMILES IDX 55 88 56 89 57 90
REMARK H PARENT 17 7 6 16 22 27 78 46 48 57
REMARK Flexibility Score: inf
ROOT
ATOM      1  C   UNL A   1      34.619  29.345  26.705  1.00  0.00     0.023 C 
ENDROOT
BRANCH   1   2
ATOM      2  C   UNL A   1      33.569  30.256  27.331  1.00  0.00     0.023 C 
BRANCH   2   3
ATOM      3  C   UNL A   1      32.140  29.988  26.865  1.00  0.00     0.116 C 
BRANCH   3   4
ATOM      4  N   UNL A   1      31.941  28.579  26.638  1.00  0.00    -0.356 N 
ATOM      5  C   UNL A   1      31.413  27.914  25.578  1.00  0.00     0.223 C 
ATOM      6  O   UNL A   1      31.370  26.687  25.688  1.00  0.00    -0.275 OA
ATOM      7  H   UNL A   1      32.237  28.000  27.376  1.00  0.00     0.163 HD
BRANCH   5   8
ATOM      8  C   UNL A   1      30.985  28.647  24.292  1.00  0.00     0.091 C 
ATOM      9  C   UNL A   1      30.209  27.843  23.218  1.00  0.00     0.091 C 
ATOM     10  C   UNL A   1      31.039  26.609  22.826  1.00  0.00     0.014 C 
ATOM     11  C   UNL A   1      32.341  27.043  22.156  1.00  0.00     0.001 C 
ATOM     12  C   UNL A   1      32.249  29.194  23.574  1.00  0.00     0.014 C 
ATOM     13  C   UNL A   1      33.121  28.100  22.938  1.00  0.00     0.001 C 
BRANCH   9  14
ATOM     14  C   UNL A   1      28.736  27.499  23.445  1.00  0.00     0.229 C 
ATOM     15  N   UNL A   1      27.726  28.387  23.218  1.00  0.00    -0.309 N 
ATOM     16  H   UNL A   1      26.826  28.062  23.446  1.00  0.00     0.171 HD
ATOM     17  O   UNL A   1      28.397  26.375  23.833  1.00  0.00    -0.274 OA
BRANCH  15  18
ATOM     18  C   UNL A   1      27.773  29.664  22.718  1.00  0.00     0.154 A 
ATOM     19  C   UNL A   1      28.305  31.964  20.157  1.00  0.00     0.173 C 
ATOM     20  N   UNL A   1      28.041  31.309  21.415  1.00  0.00    -0.274 N 
ATOM     21  C   UNL A   1      28.044  31.865  22.656  1.00  0.00     0.110 A 
ATOM     22  N   UNL A   1      27.828  29.983  21.427  1.00  0.00    -0.155 NA
ATOM     23  C   UNL A   1      27.824  30.825  23.529  1.00  0.00     0.068 A 
ENDBRANCH  15  18
ENDBRANCH   9  14
ENDBRANCH   5   8
ENDBRANCH   3   4
ENDBRANCH   2   3
ENDBRANCH   1   2
BRANCH   1  24
ATOM     24  C   UNL A   1      35.966  29.363  27.411  1.00  0.00     0.116 C 
BRANCH  24  25
ATOM     25  N   UNL A   1      35.865  29.473  28.861  1.00  0.00    -0.352 N 
ATOM     26  C   UNL A   1      36.857  29.234  29.785  1.00  0.00     0.251 C 
ATOM     27  H   UNL A   1      34.991  29.750  29.219  1.00  0.00     0.163 HD
ATOM     28  O   UNL A   1      36.630  29.296  30.988  1.00  0.00    -0.269 OA
BRANCH  26  29
ATOM     29  C   UNL A   1      38.189  28.845  29.282  1.00  0.00     0.039 A 
ATOM     30  C   UNL A   1      38.628  29.358  28.060  1.00  0.00     0.014 A 
ATOM     31  C   UNL A   1      39.042  28.091  30.091  1.00  0.00     0.014 A 
ATOM     32  C   UNL A   1      39.960  29.182  27.685  1.00  0.00     0.010 A 
ATOM     33  C   UNL A   1      40.384  27.982  29.750  1.00  0.00     0.010 A 
ATOM     34  C   UNL A   1      40.858  28.534  28.549  1.00  0.00    -0.014 A 
BRANCH  34  35
ATOM     35  C   UNL A   1      42.303  28.421  28.229  1.00  0.00     0.031 A 
ATOM     36  C   UNL A   1      43.204  29.606  28.438  1.00  0.00     0.074 A 
ATOM     37  C   UNL A   1      42.783  27.294  27.666  1.00  0.00     0.049 A 
ATOM     38  N   UNL A   1      44.459  29.757  28.103  1.00  0.00    -0.248 NA
ATOM     39  C   UNL A   1      42.603  30.791  29.072  1.00  0.00     0.031 C 
ATOM     40  C   UNL A   1      42.003  26.090  27.369  1.00  0.00     0.029 A 
ATOM     41  N   UNL A   1      44.047  26.984  27.227  1.00  0.00    -0.354 N 
ATOM     42  C   UNL A   1      44.787  31.060  28.456  1.00  0.00     0.074 A 
ATOM     43  C   UNL A   1      43.590  31.670  28.990  1.00  0.00     0.031 C 
ATOM     44  C   UNL A   1      42.808  25.167  26.819  1.00  0.00     0.029 A 
ATOM     45  C   UNL A   1      44.151  25.723  26.687  1.00  0.00     0.049 A 
ATOM     46  H   UNL A   1      44.807  27.606  27.294  1.00  0.00     0.167 HD
ATOM     47  C   UNL A   1      45.983  31.689  28.361  1.00  0.00     0.031 A 
ATOM     48  C   UNL A   1      45.207  25.090  26.141  1.00  0.00     0.031 A 
ATOM     49  C   UNL A   1      47.180  31.070  27.859  1.00  0.00     0.049 A 
ATOM     50  C   UNL A   1      46.532  25.797  26.073  1.00  0.00     0.074 A 
ATOM     51  C   UNL A   1      48.454  31.604  27.776  1.00  0.00     0.029 A 
ATOM     52  N   UNL A   1      47.252  29.777  27.366  1.00  0.00    -0.354 N 
ATOM     53  N   UNL A   1      46.835  27.014  26.458  1.00  0.00    -0.248 NA
ATOM     54  C   UNL A   1      47.661  25.042  25.510  1.00  0.00     0.031 C 
ATOM     55  C   UNL A   1      49.292  30.641  27.203  1.00  0.00     0.029 A 
ATOM     56  C   UNL A   1      48.548  29.495  26.971  1.00  0.00     0.049 A 
ATOM     57  H   UNL A   1      46.495  29.152  27.306  1.00  0.00     0.167 HD
ATOM     58  C   UNL A   1      48.196  27.161  26.209  1.00  0.00     0.074 A 
ATOM     59  C   UNL A   1      48.657  25.906  25.649  1.00  0.00     0.031 C 
ATOM     60  C   UNL A   1      48.991  28.237  26.427  1.00  0.00     0.031 A 
BRANCH  47  61
ATOM     61  C   UNL A   1      46.046  33.123  28.811  1.00  0.00    -0.014 A 
ATOM     62  C   UNL A   1      46.369  33.449  30.141  1.00  0.00     0.010 A 
ATOM     63  C   UNL A   1      45.793  34.157  27.893  1.00  0.00     0.010 A 
ATOM     64  C   UNL A   1      46.387  34.784  30.556  1.00  0.00     0.020 A 
ATOM     65  C   UNL A   1      45.838  35.494  28.298  1.00  0.00     0.020 A 
ATOM     66  C   UNL A   1      46.114  35.797  29.633  1.00  0.00     0.054 A 
BRANCH  66  67
ATOM     67  S   UNL A   1      46.151  37.521  30.195  1.00  0.00     0.124 S 
ATOM     68  O   UNL A   1      47.521  37.910  29.872  1.00  0.00    -0.237 OA
ATOM     69  O   UNL A   1      45.112  38.148  29.383  1.00  0.00    -0.237 OA
ATOM     70  O   UNL A   1      45.849  37.426  31.622  1.00  0.00    -0.744 OA
ENDBRANCH  66  67
ENDBRANCH  47  61
BRANCH  48  71
ATOM     71  C   UNL A   1      45.060  23.697  25.638  1.00  0.00    -0.014 A 
ATOM     72  C   UNL A   1      45.402  22.608  26.460  1.00  0.00     0.010 A 
ATOM     73  C   UNL A   1      44.566  23.451  24.345  1.00  0.00     0.010 A 
ATOM     74  C   UNL A   1      45.270  21.298  25.991  1.00  0.00     0.020 A 
ATOM     75  C   UNL A   1      44.410  22.141  23.882  1.00  0.00     0.020 A 
ATOM     76  C   UNL A   1      44.774  21.073  24.704  1.00  0.00     0.054 A 
BRANCH  76  77
ATOM     77  S   UNL A   1      44.559  19.363  24.135  1.00  0.00     0.124 S 
ATOM     78  O   UNL A   1      44.574  19.522  22.685  1.00  0.00    -0.237 OA
ATOM     79  O   UNL A   1      45.721  18.688  24.710  1.00  0.00    -0.237 OA
ATOM     80  O   UNL A   1      43.274  18.972  24.711  1.00  0.00    -0.744 OA
ENDBRANCH  76  77
ENDBRANCH  48  71
BRANCH  60  81
ATOM     81  C   UNL A   1      50.452  28.096  26.106  1.00  0.00    -0.014 A 
ATOM     82  C   UNL A   1      51.389  27.772  27.103  1.00  0.00     0.010 A 
ATOM     83  C   UNL A   1      50.882  28.221  24.773  1.00  0.00     0.010 A 
ATOM     84  C   UNL A   1      52.735  27.594  26.772  1.00  0.00     0.020 A 
ATOM     85  C   UNL A   1      52.222  28.023  24.436  1.00  0.00     0.020 A 
ATOM     86  C   UNL A   1      53.142  27.720  25.441  1.00  0.00     0.054 A 
BRANCH  86  87
ATOM     87  S   UNL A   1      54.884  27.427  25.025  1.00  0.00     0.124 S 
ATOM     88  O   UNL A   1      55.428  26.974  26.302  1.00  0.00    -0.237 OA
ATOM     89  O   UNL A   1      54.798  26.408  23.981  1.00  0.00    -0.237 OA
ATOM     90  O   UNL A   1      55.356  28.734  24.575  1.00  0.00    -0.744 OA
ENDBRANCH  86  87
ENDBRANCH  60  81
ENDBRANCH  34  35
ENDBRANCH  26  29
ENDBRANCH  24  25
ENDBRANCH   1  24
TORSDOF 16
ENDMDL
