MODEL 1
REMARK VINA RESULT:     -10.4      0.000      0.000
REMARK SMILES C[NH+](C)[C@H](CC(=O)Nc1cccc(Cl)c1)C(=O)NCCCCNC(=O)c1ccc(-c2c3nc(c(-c4ccc(S(=O)(=O)[O-])cc4)c4ccc([nH]4)c(-c4ccc(S(=O)(=O)[O-])cc4)c4nc(c(-c5ccc(S(=O)(=O)[O-])cc5)c5ccc2[nH]5)C=C4)C=C3)cc1
REMARK SMILES IDX 20 1 19 2 18 3 16 4 17 5 4 7 2 8 1 9 3 10 5 12 6 13 7 14
REMARK SMILES IDX 8 15 9 17 10 18 15 19 11 20 13 21 12 22 14 23 21 24 22 25
REMARK SMILES IDX 23 26 24 27 25 29 26 30 27 31 85 32 28 33 84 34 29 35 30 36
REMARK SMILES IDX 31 37 78 38 32 39 83 40 77 41 79 42 33 43 82 44 76 45 75 46
REMARK SMILES IDX 34 48 64 49 45 50 63 51 46 52 49 53 62 54 80 55 47 56 48 57
REMARK SMILES IDX 61 59 81 60 50 61 35 62 36 63 44 64 37 65 43 66 38 67 39 68
REMARK SMILES IDX 40 69 41 70 42 71 65 72 66 73 74 74 67 75 73 76 68 77 69 78
REMARK SMILES IDX 70 79 71 80 72 81 51 82 52 83 60 84 53 85 59 86 54 87 55 88
REMARK SMILES IDX 56 89 57 90 58 91
REMARK H PARENT 18 6 2 11 8 16 23 28 79 47 49 58
REMARK Flexibility Score: inf
ROOT
ATOM      1  C   UNL A   1      35.159  24.647  25.519  1.00  0.00     0.023 C 
ENDROOT
BRANCH   1   2
ATOM      2  C   UNL A   1      33.644  24.532  25.583  1.00  0.00     0.116 C 
BRANCH   2   3
ATOM      3  N   UNL A   1      32.921  25.636  26.191  1.00  0.00    -0.351 N 
ATOM      4  C   UNL A   1      31.811  26.262  25.659  1.00  0.00     0.278 C 
ATOM      5  O   UNL A   1      30.840  26.371  26.416  1.00  0.00    -0.268 OA
ATOM      6  H   UNL A   1      33.251  25.965  27.058  1.00  0.00     0.163 HD
BRANCH   4   7
ATOM      7  C   UNL A   1      31.847  26.974  24.259  1.00  0.00     0.283 C 
BRANCH   7   8
ATOM      8  N   UNL A   1      33.204  27.026  23.627  1.00  0.00    -0.329 N 
ATOM      9  C   UNL A   1      33.979  28.244  23.793  1.00  0.00     0.333 C 
ATOM     10  C   UNL A   1      33.187  26.638  22.216  1.00  0.00     0.333 C 
ATOM     11  H   UNL A   1      33.702  26.328  24.180  1.00  0.00     0.348 HD
ENDBRANCH   7   8
BRANCH   7  12
ATOM     12  C   UNL A   1      30.829  28.072  23.957  1.00  0.00     0.175 C 
BRANCH  12  13
ATOM     13  C   UNL A   1      29.393  27.861  23.502  1.00  0.00     0.230 C 
ATOM     14  O   UNL A   1      28.884  26.756  23.764  1.00  0.00    -0.274 OA
ATOM     15  N   UNL A   1      28.504  28.761  23.019  1.00  0.00    -0.326 N 
ATOM     16  H   UNL A   1      27.586  28.439  23.171  1.00  0.00     0.169 HD
BRANCH  15  17
ATOM     17  C   UNL A   1      28.468  30.007  22.369  1.00  0.00     0.042 A 
ATOM     18  C   UNL A   1      27.976  30.242  21.094  1.00  0.00     0.026 A 
ATOM     19  C   UNL A   1      28.892  31.118  23.109  1.00  0.00     0.046 A 
ATOM     20  C   UNL A   1      27.907  31.528  20.546  1.00  0.00     0.004 A 
ATOM     21  C   UNL A   1      28.826  32.409  22.571  1.00  0.00     0.043 A 
ATOM     22  C   UNL A   1      28.336  32.618  21.288  1.00  0.00     0.020 A 
ATOM     23  Cl  UNL A   1      29.329  33.755  23.515  1.00  0.00    -0.084 Cl
ENDBRANCH  15  17
ENDBRANCH  12  13
ENDBRANCH   7  12
ENDBRANCH   4   7
ENDBRANCH   2   3
ENDBRANCH   1   2
BRANCH   1  24
ATOM     24  C   UNL A   1      35.912  23.313  25.526  1.00  0.00     0.023 C 
BRANCH  24  25
ATOM     25  C   UNL A   1      37.272  23.247  24.820  1.00  0.00     0.116 C 
BRANCH  25  26
ATOM     26  N   UNL A   1      38.255  22.369  25.434  1.00  0.00    -0.352 N 
ATOM     27  C   UNL A   1      39.245  22.704  26.339  1.00  0.00     0.251 C 
ATOM     28  H   UNL A   1      38.209  21.421  25.175  1.00  0.00     0.163 HD
ATOM     29  O   UNL A   1      40.038  21.850  26.726  1.00  0.00    -0.269 OA
BRANCH  27  30
ATOM     30  C   UNL A   1      39.388  24.113  26.781  1.00  0.00     0.039 A 
ATOM     31  C   UNL A   1      38.889  24.474  28.035  1.00  0.00     0.014 A 
ATOM     32  C   UNL A   1      40.094  25.044  26.014  1.00  0.00     0.014 A 
ATOM     33  C   UNL A   1      39.208  25.726  28.573  1.00  0.00     0.010 A 
ATOM     34  C   UNL A   1      40.465  26.266  26.579  1.00  0.00     0.010 A 
ATOM     35  C   UNL A   1      40.057  26.604  27.880  1.00  0.00    -0.014 A 
BRANCH  35  36
ATOM     36  C   UNL A   1      40.600  27.825  28.537  1.00  0.00     0.031 A 
ATOM     37  C   UNL A   1      42.017  27.873  29.037  1.00  0.00     0.074 A 
ATOM     38  C   UNL A   1      39.781  28.876  28.756  1.00  0.00     0.049 A 
ATOM     39  N   UNL A   1      42.635  28.839  29.669  1.00  0.00    -0.248 NA
ATOM     40  C   UNL A   1      42.842  26.675  28.817  1.00  0.00     0.031 C 
ATOM     41  C   UNL A   1      38.366  28.942  28.372  1.00  0.00     0.029 A 
ATOM     42  N   UNL A   1      40.013  30.088  29.359  1.00  0.00    -0.354 N 
ATOM     43  C   UNL A   1      43.915  28.367  29.929  1.00  0.00     0.074 A 
ATOM     44  C   UNL A   1      43.971  27.009  29.427  1.00  0.00     0.031 C 
ATOM     45  C   UNL A   1      37.869  30.138  28.726  1.00  0.00     0.029 A 
ATOM     46  C   UNL A   1      38.910  30.911  29.393  1.00  0.00     0.049 A 
ATOM     47  H   UNL A   1      40.887  30.344  29.733  1.00  0.00     0.167 HD
ATOM     48  C   UNL A   1      44.956  29.007  30.517  1.00  0.00     0.031 A 
ATOM     49  C   UNL A   1      38.748  32.147  29.906  1.00  0.00     0.031 A 
ATOM     50  C   UNL A   1      44.903  30.357  31.016  1.00  0.00     0.049 A 
ATOM     51  C   UNL A   1      39.916  32.835  30.558  1.00  0.00     0.074 A 
ATOM     52  C   UNL A   1      45.922  31.105  31.580  1.00  0.00     0.029 A 
ATOM     53  N   UNL A   1      43.773  31.160  31.017  1.00  0.00    -0.354 N 
ATOM     54  N   UNL A   1      41.139  32.394  30.729  1.00  0.00    -0.248 NA
ATOM     55  C   UNL A   1      39.685  34.191  31.075  1.00  0.00     0.031 C 
ATOM     56  C   UNL A   1      45.397  32.343  31.964  1.00  0.00     0.029 A 
ATOM     57  C   UNL A   1      44.063  32.387  31.590  1.00  0.00     0.049 A 
ATOM     58  H   UNL A   1      42.893  30.896  30.662  1.00  0.00     0.167 HD
ATOM     59  C   UNL A   1      41.829  33.429  31.349  1.00  0.00     0.074 A 
ATOM     60  C   UNL A   1      40.893  34.522  31.511  1.00  0.00     0.031 C 
ATOM     61  C   UNL A   1      43.125  33.468  31.747  1.00  0.00     0.031 A 
BRANCH  48  62
ATOM     62  C   UNL A   1      46.249  28.248  30.653  1.00  0.00    -0.014 A 
ATOM     63  C   UNL A   1      47.223  28.291  29.638  1.00  0.00     0.010 A 
ATOM     64  C   UNL A   1      46.516  27.521  31.827  1.00  0.00     0.010 A 
ATOM     65  C   UNL A   1      48.420  27.584  29.776  1.00  0.00     0.020 A 
ATOM     66  C   UNL A   1      47.725  26.834  31.981  1.00  0.00     0.020 A 
ATOM     67  C   UNL A   1      48.662  26.855  30.945  1.00  0.00     0.054 A 
BRANCH  67  68
ATOM     68  S   UNL A   1      50.231  25.962  31.103  1.00  0.00     0.124 S 
ATOM     69  O   UNL A   1      50.673  25.885  29.712  1.00  0.00    -0.237 OA
ATOM     70  O   UNL A   1      51.018  26.842  31.963  1.00  0.00    -0.237 OA
ATOM     71  O   UNL A   1      49.846  24.688  31.705  1.00  0.00    -0.744 OA
ENDBRANCH  67  68
ENDBRANCH  48  62
BRANCH  49  72
ATOM     72  C   UNL A   1      37.425  32.824  29.811  1.00  0.00    -0.014 A 
ATOM     73  C   UNL A   1      37.105  33.612  28.692  1.00  0.00     0.010 A 
ATOM     74  C   UNL A   1      36.475  32.678  30.839  1.00  0.00     0.010 A 
ATOM     75  C   UNL A   1      35.868  34.258  28.610  1.00  0.00     0.020 A 
ATOM     76  C   UNL A   1      35.227  33.301  30.748  1.00  0.00     0.020 A 
ATOM     77  C   UNL A   1      34.936  34.098  29.638  1.00  0.00     0.054 A 
BRANCH  77  78
ATOM     78  S   UNL A   1      33.316  34.903  29.489  1.00  0.00     0.124 S 
ATOM     79  O   UNL A   1      33.670  36.187  28.891  1.00  0.00    -0.237 OA
ATOM     80  O   UNL A   1      32.583  33.981  28.624  1.00  0.00    -0.237 OA
ATOM     81  O   UNL A   1      32.837  34.963  30.868  1.00  0.00    -0.744 OA
ENDBRANCH  77  78
ENDBRANCH  49  72
BRANCH  61  82
ATOM     82  C   UNL A   1      43.620  34.747  32.369  1.00  0.00    -0.014 A 
ATOM     83  C   UNL A   1      44.137  35.790  31.579  1.00  0.00     0.010 A 
ATOM     84  C   UNL A   1      43.516  34.927  33.760  1.00  0.00     0.010 A 
ATOM     85  C   UNL A   1      44.569  36.979  32.175  1.00  0.00     0.020 A 
ATOM     86  C   UNL A   1      43.923  36.123  34.356  1.00  0.00     0.020 A 
ATOM     87  C   UNL A   1      44.460  37.138  33.561  1.00  0.00     0.054 A 
BRANCH  87  88
ATOM     88  S   UNL A   1      44.982  38.707  34.305  1.00  0.00     0.124 S 
ATOM     89  O   UNL A   1      46.036  38.274  35.219  1.00  0.00    -0.237 OA
ATOM     90  O   UNL A   1      45.431  39.479  33.148  1.00  0.00    -0.237 OA
ATOM     91  O   UNL A   1      43.768  39.208  34.946  1.00  0.00    -0.744 OA
ENDBRANCH  87  88
ENDBRANCH  61  82
ENDBRANCH  35  36
ENDBRANCH  27  30
ENDBRANCH  25  26
ENDBRANCH  24  25
ENDBRANCH   1  24
TORSDOF 18
ENDMDL
MODEL 2
REMARK VINA RESULT:     -10.3      1.641      2.657
REMARK SMILES C[NH+](C)[C@H](CC(=O)Nc1cccc(Cl)c1)C(=O)NCCCCNC(=O)c1ccc(-c2c3nc(c(-c4ccc(S(=O)(=O)[O-])cc4)c4ccc([nH]4)c(-c4ccc(S(=O)(=O)[O-])cc4)c4nc(c(-c5ccc(S(=O)(=O)[O-])cc5)c5ccc2[nH]5)C=C4)C=C3)cc1
REMARK SMILES IDX 20 1 19 2 18 3 16 4 17 5 4 7 2 8 1 9 3 10 5 12 6 13 7 14
REMARK SMILES IDX 8 15 9 17 10 18 15 19 11 20 13 21 12 22 14 23 21 24 22 25
REMARK SMILES IDX 23 26 24 27 25 29 26 30 27 31 85 32 28 33 84 34 29 35 30 36
REMARK SMILES IDX 31 37 78 38 32 39 83 40 77 41 79 42 33 43 82 44 76 45 75 46
REMARK SMILES IDX 34 48 64 49 45 50 63 51 46 52 49 53 62 54 80 55 47 56 48 57
REMARK SMILES IDX 61 59 81 60 50 61 35 62 36 63 44 64 37 65 43 66 38 67 39 68
REMARK SMILES IDX 40 69 41 70 42 71 65 72 66 73 74 74 67 75 73 76 68 77 69 78
REMARK SMILES IDX 70 79 71 80 72 81 51 82 52 83 60 84 53 85 59 86 54 87 55 88
REMARK SMILES IDX 56 89 57 90 58 91
REMARK H PARENT 18 6 2 11 8 16 23 28 79 47 49 58
REMARK Flexibility Score: inf
ROOT
ATOM      1  C   UNL A   1      34.741  23.779  24.986  1.00  0.00     0.023 C 
ENDROOT
BRANCH   1   2
ATOM      2  C   UNL A   1      33.903  22.999  23.985  1.00  0.00     0.116 C 
BRANCH   2   3
ATOM      3  N   UNL A   1      32.472  22.931  24.227  1.00  0.00    -0.351 N 
ATOM      4  C   UNL A   1      31.514  23.718  23.619  1.00  0.00     0.278 C 
ATOM      5  O   UNL A   1      30.560  23.114  23.116  1.00  0.00    -0.268 OA
ATOM      6  H   UNL A   1      32.159  22.265  24.880  1.00  0.00     0.163 HD
BRANCH   4   7
ATOM      7  C   UNL A   1      31.524  25.285  23.739  1.00  0.00     0.283 C 
BRANCH   7   8
ATOM      8  N   UNL A   1      31.434  26.006  22.429  1.00  0.00    -0.329 N 
ATOM      9  C   UNL A   1      32.615  26.015  21.582  1.00  0.00     0.333 C 
ATOM     10  C   UNL A   1      30.911  27.366  22.566  1.00  0.00     0.333 C 
ATOM     11  H   UNL A   1      30.766  25.418  21.930  1.00  0.00     0.348 HD
ENDBRANCH   7   8
BRANCH   7  12
ATOM     12  C   UNL A   1      32.253  25.935  24.913  1.00  0.00     0.175 C 
BRANCH  12  13
ATOM     13  C   UNL A   1      31.665  26.217  26.287  1.00  0.00     0.230 C 
ATOM     14  O   UNL A   1      30.906  25.349  26.755  1.00  0.00    -0.274 OA
ATOM     15  N   UNL A   1      31.989  27.185  27.178  1.00  0.00    -0.326 N 
ATOM     16  H   UNL A   1      31.736  26.901  28.086  1.00  0.00     0.169 HD
BRANCH  15  17
ATOM     17  C   UNL A   1      32.568  28.465  27.225  1.00  0.00     0.042 A 
ATOM     18  C   UNL A   1      33.906  28.739  27.468  1.00  0.00     0.026 A 
ATOM     19  C   UNL A   1      31.735  29.548  26.918  1.00  0.00     0.046 A 
ATOM     20  C   UNL A   1      34.420  30.041  27.424  1.00  0.00     0.004 A 
ATOM     21  C   UNL A   1      32.239  30.853  26.871  1.00  0.00     0.043 A 
ATOM     22  C   UNL A   1      33.582  31.104  27.125  1.00  0.00     0.020 A 
ATOM     23  Cl  UNL A   1      31.196  32.158  26.464  1.00  0.00    -0.084 Cl
ENDBRANCH  15  17
ENDBRANCH  12  13
ENDBRANCH   7  12
ENDBRANCH   4   7
ENDBRANCH   2   3
ENDBRANCH   1   2
BRANCH   1  24
ATOM     24  C   UNL A   1      35.916  23.005  25.591  1.00  0.00     0.023 C 
BRANCH  24  25
ATOM     25  C   UNL A   1      37.320  23.271  25.033  1.00  0.00     0.116 C 
BRANCH  25  26
ATOM     26  N   UNL A   1      38.376  22.426  25.566  1.00  0.00    -0.352 N 
ATOM     27  C   UNL A   1      39.402  22.785  26.421  1.00  0.00     0.251 C 
ATOM     28  H   UNL A   1      38.358  21.483  25.285  1.00  0.00     0.163 HD
ATOM     29  O   UNL A   1      40.254  21.960  26.738  1.00  0.00    -0.269 OA
BRANCH  27  30
ATOM     30  C   UNL A   1      39.507  24.188  26.890  1.00  0.00     0.039 A 
ATOM     31  C   UNL A   1      39.061  24.496  28.179  1.00  0.00     0.014 A 
ATOM     32  C   UNL A   1      40.128  25.168  26.112  1.00  0.00     0.014 A 
ATOM     33  C   UNL A   1      39.354  25.748  28.732  1.00  0.00     0.010 A 
ATOM     34  C   UNL A   1      40.476  26.392  26.688  1.00  0.00     0.010 A 
ATOM     35  C   UNL A   1      40.125  26.680  28.017  1.00  0.00    -0.014 A 
BRANCH  35  36
ATOM     36  C   UNL A   1      40.649  27.909  28.676  1.00  0.00     0.031 A 
ATOM     37  C   UNL A   1      42.061  27.972  29.189  1.00  0.00     0.074 A 
ATOM     38  C   UNL A   1      39.816  28.951  28.883  1.00  0.00     0.049 A 
ATOM     39  N   UNL A   1      42.662  28.947  29.824  1.00  0.00    -0.248 NA
ATOM     40  C   UNL A   1      42.899  26.783  28.981  1.00  0.00     0.031 C 
ATOM     41  C   UNL A   1      38.405  29.002  28.486  1.00  0.00     0.029 A 
ATOM     42  N   UNL A   1      40.030  30.167  29.486  1.00  0.00    -0.354 N 
ATOM     43  C   UNL A   1      43.944  28.489  30.098  1.00  0.00     0.074 A 
ATOM     44  C   UNL A   1      44.019  27.130  29.601  1.00  0.00     0.031 C 
ATOM     45  C   UNL A   1      37.892  30.193  28.831  1.00  0.00     0.029 A 
ATOM     46  C   UNL A   1      38.919  30.980  29.506  1.00  0.00     0.049 A 
ATOM     47  H   UNL A   1      40.898  30.434  29.867  1.00  0.00     0.167 HD
ATOM     48  C   UNL A   1      44.972  29.141  30.693  1.00  0.00     0.031 A 
ATOM     49  C   UNL A   1      38.739  32.215  30.014  1.00  0.00     0.031 A 
ATOM     50  C   UNL A   1      44.901  30.491  31.188  1.00  0.00     0.049 A 
ATOM     51  C   UNL A   1      39.893  32.916  30.675  1.00  0.00     0.074 A 
ATOM     52  C   UNL A   1      45.907  31.252  31.760  1.00  0.00     0.029 A 
ATOM     53  N   UNL A   1      43.763  31.283  31.176  1.00  0.00    -0.354 N 
ATOM     54  N   UNL A   1      41.119  32.489  30.859  1.00  0.00    -0.248 NA
ATOM     55  C   UNL A   1      39.643  34.272  31.186  1.00  0.00     0.031 C 
ATOM     56  C   UNL A   1      45.365  32.486  32.135  1.00  0.00     0.029 A 
ATOM     57  C   UNL A   1      44.035  32.515  31.749  1.00  0.00     0.049 A 
ATOM     58  H   UNL A   1      42.889  31.009  30.813  1.00  0.00     0.167 HD
ATOM     59  C   UNL A   1      41.793  33.532  31.483  1.00  0.00     0.074 A 
ATOM     60  C   UNL A   1      40.843  34.616  31.632  1.00  0.00     0.031 C 
ATOM     61  C   UNL A   1      43.084  33.587  31.893  1.00  0.00     0.031 A 
BRANCH  48  62
ATOM     62  C   UNL A   1      46.272  28.396  30.844  1.00  0.00    -0.014 A 
ATOM     63  C   UNL A   1      47.232  28.400  29.815  1.00  0.00     0.010 A 
ATOM     64  C   UNL A   1      46.560  27.723  32.046  1.00  0.00     0.010 A 
ATOM     65  C   UNL A   1      48.435  27.706  29.966  1.00  0.00     0.020 A 
ATOM     66  C   UNL A   1      47.775  27.050  32.212  1.00  0.00     0.020 A 
ATOM     67  C   UNL A   1      48.697  27.031  31.162  1.00  0.00     0.054 A 
BRANCH  67  68
ATOM     68  S   UNL A   1      50.274  26.154  31.337  1.00  0.00     0.124 S 
ATOM     69  O   UNL A   1      50.993  27.014  32.275  1.00  0.00    -0.237 OA
ATOM     70  O   UNL A   1      49.864  24.856  31.867  1.00  0.00    -0.237 OA
ATOM     71  O   UNL A   1      50.811  26.129  29.979  1.00  0.00    -0.744 OA
ENDBRANCH  67  68
ENDBRANCH  48  62
BRANCH  49  72
ATOM     72  C   UNL A   1      37.410  32.878  29.904  1.00  0.00    -0.014 A 
ATOM     73  C   UNL A   1      36.563  32.971  31.023  1.00  0.00     0.010 A 
ATOM     74  C   UNL A   1      36.987  33.427  28.679  1.00  0.00     0.010 A 
ATOM     75  C   UNL A   1      35.310  33.582  30.916  1.00  0.00     0.020 A 
ATOM     76  C   UNL A   1      35.747  34.062  28.575  1.00  0.00     0.020 A 
ATOM     77  C   UNL A   1      34.910  34.125  29.692  1.00  0.00     0.054 A 
BRANCH  77  78
ATOM     78  S   UNL A   1      33.302  34.959  29.586  1.00  0.00     0.124 S 
ATOM     79  O   UNL A   1      32.573  34.096  28.662  1.00  0.00    -0.237 OA
ATOM     80  O   UNL A   1      32.841  34.936  30.972  1.00  0.00    -0.237 OA
ATOM     81  O   UNL A   1      33.640  36.285  29.072  1.00  0.00    -0.744 OA
ENDBRANCH  77  78
ENDBRANCH  49  72
BRANCH  61  82
ATOM     82  C   UNL A   1      43.560  34.872  32.516  1.00  0.00    -0.014 A 
ATOM     83  C   UNL A   1      43.515  35.069  33.908  1.00  0.00     0.010 A 
ATOM     84  C   UNL A   1      44.112  35.876  31.699  1.00  0.00     0.010 A 
ATOM     85  C   UNL A   1      43.986  36.261  34.468  1.00  0.00     0.020 A 
ATOM     86  C   UNL A   1      44.607  37.057  32.257  1.00  0.00     0.020 A 
ATOM     87  C   UNL A   1      44.528  37.248  33.638  1.00  0.00     0.054 A 
BRANCH  87  88
ATOM     88  S   UNL A   1      45.175  38.765  34.393  1.00  0.00     0.124 S 
ATOM     89  O   UNL A   1      45.600  39.529  33.223  1.00  0.00    -0.237 OA
ATOM     90  O   UNL A   1      44.013  39.294  35.102  1.00  0.00    -0.237 OA
ATOM     91  O   UNL A   1      46.257  38.290  35.253  1.00  0.00    -0.744 OA
ENDBRANCH  87  88
ENDBRANCH  61  82
ENDBRANCH  35  36
ENDBRANCH  27  30
ENDBRANCH  25  26
ENDBRANCH  24  25
ENDBRANCH   1  24
TORSDOF 18
ENDMDL
MODEL 3
REMARK VINA RESULT:     -10.3      4.911      7.845
REMARK SMILES C[NH+](C)[C@H](CC(=O)Nc1cccc(Cl)c1)C(=O)NCCCCNC(=O)c1ccc(-c2c3nc(c(-c4ccc(S(=O)(=O)[O-])cc4)c4ccc([nH]4)c(-c4ccc(S(=O)(=O)[O-])cc4)c4nc(c(-c5ccc(S(=O)(=O)[O-])cc5)c5ccc2[nH]5)C=C4)C=C3)cc1
REMARK SMILES IDX 20 1 19 2 18 3 16 4 17 5 4 7 2 8 1 9 3 10 5 12 6 13 7 14
REMARK SMILES IDX 8 15 9 17 10 18 15 19 11 20 13 21 12 22 14 23 21 24 22 25
REMARK SMILES IDX 23 26 24 27 25 29 26 30 27 31 85 32 28 33 84 34 29 35 30 36
REMARK SMILES IDX 31 37 78 38 32 39 83 40 77 41 79 42 33 43 82 44 76 45 75 46
REMARK SMILES IDX 34 48 64 49 45 50 63 51 46 52 49 53 62 54 80 55 47 56 48 57
REMARK SMILES IDX 61 59 81 60 50 61 35 62 36 63 44 64 37 65 43 66 38 67 39 68
REMARK SMILES IDX 40 69 41 70 42 71 65 72 66 73 74 74 67 75 73 76 68 77 69 78
REMARK SMILES IDX 70 79 71 80 72 81 51 82 52 83 60 84 53 85 59 86 54 87 55 88
REMARK SMILES IDX 56 89 57 90 58 91
REMARK H PARENT 18 6 2 11 8 16 23 28 79 47 49 58
REMARK Flexibility Score: inf
ROOT
ATOM      1  C   UNL A   1      43.459  23.087  28.735  1.00  0.00     0.023 C 
ENDROOT
BRANCH   1   2
ATOM      2  C   UNL A   1      44.286  23.866  27.724  1.00  0.00     0.116 C 
BRANCH   2   3
ATOM      3  N   UNL A   1      45.723  23.909  27.935  1.00  0.00    -0.351 N 
ATOM      4  C   UNL A   1      46.494  25.053  27.995  1.00  0.00     0.278 C 
ATOM      5  O   UNL A   1      47.241  25.148  28.976  1.00  0.00    -0.268 OA
ATOM      6  H   UNL A   1      46.186  23.048  28.045  1.00  0.00     0.163 HD
BRANCH   4   7
ATOM      7  C   UNL A   1      46.576  26.068  26.798  1.00  0.00     0.283 C 
BRANCH   7   8
ATOM      8  N   UNL A   1      47.608  25.726  25.768  1.00  0.00    -0.329 N 
ATOM      9  C   UNL A   1      48.337  26.824  25.154  1.00  0.00     0.333 C 
ATOM     10  C   UNL A   1      47.098  24.828  24.731  1.00  0.00     0.333 C 
ATOM     11  H   UNL A   1      48.303  25.247  26.341  1.00  0.00     0.348 HD
ENDBRANCH   7   8
BRANCH   7  12
ATOM     12  C   UNL A   1      46.196  27.528  27.035  1.00  0.00     0.175 C 
BRANCH  12  13
ATOM     13  C   UNL A   1      45.059  28.278  26.359  1.00  0.00     0.230 C 
ATOM     14  O   UNL A   1      44.412  27.650  25.501  1.00  0.00    -0.274 OA
ATOM     15  N   UNL A   1      44.506  29.472  26.681  1.00  0.00    -0.326 N 
ATOM     16  H   UNL A   1      43.586  29.519  26.334  1.00  0.00     0.169 HD
BRANCH  15  17
ATOM     17  C   UNL A   1      44.822  30.667  27.350  1.00  0.00     0.042 A 
ATOM     18  C   UNL A   1      43.933  31.691  27.643  1.00  0.00     0.026 A 
ATOM     19  C   UNL A   1      46.131  30.795  27.832  1.00  0.00     0.046 A 
ATOM     20  C   UNL A   1      44.312  32.819  28.381  1.00  0.00     0.004 A 
ATOM     21  C   UNL A   1      46.520  31.918  28.571  1.00  0.00     0.043 A 
ATOM     22  C   UNL A   1      45.613  32.934  28.847  1.00  0.00     0.020 A 
ATOM     23  Cl  UNL A   1      48.127  32.032  29.173  1.00  0.00    -0.084 Cl
ENDBRANCH  15  17
ENDBRANCH  12  13
ENDBRANCH   7  12
ENDBRANCH   4   7
ENDBRANCH   2   3
ENDBRANCH   1   2
BRANCH   1  24
ATOM     24  C   UNL A   1      42.288  22.296  28.144  1.00  0.00     0.023 C 
BRANCH  24  25
ATOM     25  C   UNL A   1      42.020  22.419  26.639  1.00  0.00     0.116 C 
BRANCH  25  26
ATOM     26  N   UNL A   1      40.681  22.048  26.209  1.00  0.00    -0.352 N 
ATOM     27  C   UNL A   1      39.535  22.822  26.236  1.00  0.00     0.251 C 
ATOM     28  H   UNL A   1      40.578  21.136  25.855  1.00  0.00     0.163 HD
ATOM     29  O   UNL A   1      38.461  22.341  25.886  1.00  0.00    -0.269 OA
BRANCH  27  30
ATOM     30  C   UNL A   1      39.600  24.208  26.758  1.00  0.00     0.039 A 
ATOM     31  C   UNL A   1      39.140  24.457  28.055  1.00  0.00     0.014 A 
ATOM     32  C   UNL A   1      40.198  25.234  26.020  1.00  0.00     0.014 A 
ATOM     33  C   UNL A   1      39.396  25.694  28.656  1.00  0.00     0.010 A 
ATOM     34  C   UNL A   1      40.509  26.444  26.643  1.00  0.00     0.010 A 
ATOM     35  C   UNL A   1      40.145  26.673  27.980  1.00  0.00    -0.014 A 
BRANCH  35  36
ATOM     36  C   UNL A   1      40.632  27.890  28.688  1.00  0.00     0.031 A 
ATOM     37  C   UNL A   1      42.010  27.939  29.288  1.00  0.00     0.074 A 
ATOM     38  C   UNL A   1      39.793  28.933  28.858  1.00  0.00     0.049 A 
ATOM     39  N   UNL A   1      42.575  28.902  29.973  1.00  0.00    -0.248 NA
ATOM     40  C   UNL A   1      42.855  26.748  29.116  1.00  0.00     0.031 C 
ATOM     41  C   UNL A   1      38.409  28.996  28.375  1.00  0.00     0.029 A 
ATOM     42  N   UNL A   1      39.974  30.140  29.490  1.00  0.00    -0.354 N 
ATOM     43  C   UNL A   1      43.836  28.433  30.319  1.00  0.00     0.074 A 
ATOM     44  C   UNL A   1      43.936  27.081  29.808  1.00  0.00     0.031 C 
ATOM     45  C   UNL A   1      37.881  30.186  28.705  1.00  0.00     0.029 A 
ATOM     46  C   UNL A   1      38.867  30.957  29.453  1.00  0.00     0.049 A 
ATOM     47  H   UNL A   1      40.818  30.397  29.928  1.00  0.00     0.167 HD
ATOM     48  C   UNL A   1      44.828  29.072  30.986  1.00  0.00     0.031 A 
ATOM     49  C   UNL A   1      38.661  32.186  29.966  1.00  0.00     0.031 A 
ATOM     50  C   UNL A   1      44.731  30.416  31.494  1.00  0.00     0.049 A 
ATOM     51  C   UNL A   1      39.775  32.873  30.707  1.00  0.00     0.074 A 
ATOM     52  C   UNL A   1      45.703  31.164  32.138  1.00  0.00     0.029 A 
ATOM     53  N   UNL A   1      43.599  31.213  31.423  1.00  0.00    -0.354 N 
ATOM     54  N   UNL A   1      40.986  32.436  30.960  1.00  0.00    -0.248 NA
ATOM     55  C   UNL A   1      39.500  34.223  31.221  1.00  0.00     0.031 C 
ATOM     56  C   UNL A   1      45.144  32.394  32.496  1.00  0.00     0.029 A 
ATOM     57  C   UNL A   1      43.841  32.436  32.029  1.00  0.00     0.049 A 
ATOM     58  H   UNL A   1      42.748  30.949  31.003  1.00  0.00     0.167 HD
ATOM     59  C   UNL A   1      41.624  33.468  31.639  1.00  0.00     0.074 A 
ATOM     60  C   UNL A   1      40.671  34.555  31.745  1.00  0.00     0.031 C 
ATOM     61  C   UNL A   1      42.887  33.510  32.129  1.00  0.00     0.031 A 
BRANCH  48  62
ATOM     62  C   UNL A   1      46.113  28.319  31.206  1.00  0.00    -0.014 A 
ATOM     63  C   UNL A   1      47.232  28.541  30.383  1.00  0.00     0.010 A 
ATOM     64  C   UNL A   1      46.220  27.412  32.277  1.00  0.00     0.010 A 
ATOM     65  C   UNL A   1      48.419  27.837  30.597  1.00  0.00     0.020 A 
ATOM     66  C   UNL A   1      47.416  26.726  32.512  1.00  0.00     0.020 A 
ATOM     67  C   UNL A   1      48.503  26.929  31.658  1.00  0.00     0.054 A 
BRANCH  67  68
ATOM     68  S   UNL A   1      50.062  26.043  31.923  1.00  0.00     0.124 S 
ATOM     69  O   UNL A   1      50.992  27.142  32.170  1.00  0.00    -0.237 OA
ATOM     70  O   UNL A   1      49.762  25.203  33.080  1.00  0.00    -0.237 OA
ATOM     71  O   UNL A   1      50.269  25.322  30.669  1.00  0.00    -0.744 OA
ENDBRANCH  67  68
ENDBRANCH  48  62
BRANCH  49  72
ATOM     72  C   UNL A   1      37.344  32.858  29.784  1.00  0.00    -0.014 A 
ATOM     73  C   UNL A   1      36.344  32.747  30.766  1.00  0.00     0.010 A 
ATOM     74  C   UNL A   1      37.086  33.617  28.628  1.00  0.00     0.010 A 
ATOM     75  C   UNL A   1      35.103  33.367  30.588  1.00  0.00     0.020 A 
ATOM     76  C   UNL A   1      35.857  34.261  28.458  1.00  0.00     0.020 A 
ATOM     77  C   UNL A   1      34.868  34.121  29.435  1.00  0.00     0.054 A 
BRANCH  77  78
ATOM     78  S   UNL A   1      33.270  34.960  29.246  1.00  0.00     0.124 S 
ATOM     79  O   UNL A   1      32.759  34.950  30.613  1.00  0.00    -0.237 OA
ATOM     80  O   UNL A   1      33.659  36.268  28.724  1.00  0.00    -0.237 OA
ATOM     81  O   UNL A   1      32.549  34.110  28.300  1.00  0.00    -0.744 OA
ENDBRANCH  77  78
ENDBRANCH  49  72
BRANCH  61  82
ATOM     82  C   UNL A   1      43.329  34.785  32.798  1.00  0.00    -0.014 A 
ATOM     83  C   UNL A   1      43.930  35.824  32.065  1.00  0.00     0.010 A 
ATOM     84  C   UNL A   1      43.090  34.965  34.173  1.00  0.00     0.010 A 
ATOM     85  C   UNL A   1      44.310  37.009  32.701  1.00  0.00     0.020 A 
ATOM     86  C   UNL A   1      43.445  36.158  34.807  1.00  0.00     0.020 A 
ATOM     87  C   UNL A   1      44.067  37.168  34.070  1.00  0.00     0.054 A 
BRANCH  87  88
ATOM     88  S   UNL A   1      44.526  38.733  34.863  1.00  0.00     0.124 S 
ATOM     89  O   UNL A   1      44.431  38.394  36.281  1.00  0.00    -0.237 OA
ATOM     90  O   UNL A   1      45.878  38.965  34.361  1.00  0.00    -0.237 OA
ATOM     91  O   UNL A   1      43.519  39.676  34.379  1.00  0.00    -0.744 OA
ENDBRANCH  87  88
ENDBRANCH  61  82
ENDBRANCH  35  36
ENDBRANCH  27  30
ENDBRANCH  25  26
ENDBRANCH  24  25
ENDBRANCH   1  24
TORSDOF 18
ENDMDL
