MODEL 1
REMARK VINA RESULT:     -11.8      0.000      0.000
REMARK SMILES CC1(C)[C@H](C(=O)NCCCCNC(=O)c2ccc(-c3c4nc(c(-c5ccc(S(=O)(=O)[O-])cc5)c5ccc([nH]5)c(-c5ccc(S(=O)(=O)[O-])cc5)c5nc(c(-c6ccc(S(=O)(=O)[O-])cc6)c6ccc3[nH]6)C=C5)C=C4)cc2)[C@H]1C(=O)Nc1cccc2[nH]ccc12
REMARK SMILES IDX 10 1 9 2 8 3 7 4 5 5 6 6 4 8 1 9 2 10 3 11 75 12 76 13 77 14
REMARK SMILES IDX 78 15 79 17 80 18 87 19 81 20 83 21 86 22 82 23 84 24 85 25
REMARK SMILES IDX 11 27 12 28 13 29 14 31 15 32 16 33 74 34 17 35 73 36 18 37
REMARK SMILES IDX 19 38 20 39 67 40 21 41 72 42 66 43 68 44 22 45 71 46 65 47
REMARK SMILES IDX 64 48 23 50 53 51 34 52 52 53 35 54 38 55 51 56 69 57 36 58
REMARK SMILES IDX 37 59 50 61 70 62 39 63 24 64 25 65 33 66 26 67 32 68 27 69
REMARK SMILES IDX 28 70 29 71 30 72 31 73 54 74 55 75 63 76 56 77 62 78 57 79
REMARK SMILES IDX 58 80 59 81 60 82 61 83 40 84 41 85 49 86 42 87 48 88 43 89
REMARK SMILES IDX 44 90 45 91 46 92 47 93
REMARK H PARENT 7 7 78 16 84 26 12 30 68 49 38 60
REMARK Flexibility Score: inf
ROOT
ATOM      1  C   UNL A   1      32.746  29.062  25.712  1.00  0.00     0.023 C 
ENDROOT
BRANCH   1   2
ATOM      2  C   UNL A   1      33.491  28.664  24.442  1.00  0.00     0.023 C 
BRANCH   2   3
ATOM      3  C   UNL A   1      32.742  28.908  23.135  1.00  0.00     0.116 C 
BRANCH   3   4
ATOM      4  N   UNL A   1      33.124  27.971  22.113  1.00  0.00    -0.356 N 
ATOM      5  C   UNL A   1      33.116  26.611  22.034  1.00  0.00     0.224 C 
ATOM      6  O   UNL A   1      33.444  26.143  20.941  1.00  0.00    -0.275 OA
ATOM      7  H   UNL A   1      33.464  28.405  21.297  1.00  0.00     0.163 HD
BRANCH   5   8
ATOM      8  C   UNL A   1      32.762  25.632  23.099  1.00  0.00     0.098 C 
ATOM      9  C   UNL A   1      31.422  23.553  23.565  1.00  0.00     0.013 C 
ATOM     10  C   UNL A   1      32.760  24.098  23.134  1.00  0.00    -0.011 C 
ATOM     11  C   UNL A   1      33.485  23.030  22.363  1.00  0.00     0.013 C 
ATOM     12  C   UNL A   1      33.722  24.943  23.994  1.00  0.00     0.098 C 
BRANCH  12  13
ATOM     13  C   UNL A   1      33.792  24.814  25.480  1.00  0.00     0.228 C 
ATOM     14  O   UNL A   1      33.159  25.636  26.145  1.00  0.00    -0.274 OA
ATOM     15  N   UNL A   1      34.262  23.684  26.105  1.00  0.00    -0.325 N 
ATOM     16  H   UNL A   1      33.677  23.301  26.797  1.00  0.00     0.169 HD
BRANCH  15  17
ATOM     17  C   UNL A   1      35.466  23.010  25.878  1.00  0.00     0.050 A 
ATOM     18  C   UNL A   1      36.653  23.746  25.961  1.00  0.00     0.027 A 
ATOM     19  C   UNL A   1      35.527  21.667  25.441  1.00  0.00     0.023 A 
ATOM     20  C   UNL A   1      37.888  23.117  25.813  1.00  0.00     0.004 A 
ATOM     21  C   UNL A   1      36.779  21.049  25.365  1.00  0.00     0.047 A 
ATOM     22  C   UNL A   1      34.583  20.708  24.966  1.00  0.00     0.030 A 
ATOM     23  C   UNL A   1      37.975  21.743  25.572  1.00  0.00     0.027 A 
ATOM     24  N   UNL A   1      36.561  19.718  25.088  1.00  0.00    -0.361 N 
ATOM     25  C   UNL A   1      35.240  19.508  24.797  1.00  0.00     0.083 A 
ATOM     26  H   UNL A   1      37.254  19.018  25.098  1.00  0.00     0.166 HD
ENDBRANCH  15  17
ENDBRANCH  12  13
ENDBRANCH   5   8
ENDBRANCH   3   4
ENDBRANCH   2   3
ENDBRANCH   1   2
BRANCH   1  27
ATOM     27  C   UNL A   1      33.591  29.101  26.977  1.00  0.00     0.116 C 
BRANCH  27  28
ATOM     28  N   UNL A   1      33.630  30.405  27.630  1.00  0.00    -0.352 N 
ATOM     29  C   UNL A   1      34.669  30.961  28.344  1.00  0.00     0.251 C 
ATOM     30  H   UNL A   1      32.816  30.953  27.552  1.00  0.00     0.163 HD
ATOM     31  O   UNL A   1      34.543  32.046  28.901  1.00  0.00    -0.269 OA
BRANCH  29  32
ATOM     32  C   UNL A   1      35.921  30.190  28.462  1.00  0.00     0.039 A 
ATOM     33  C   UNL A   1      36.849  30.247  27.421  1.00  0.00     0.014 A 
ATOM     34  C   UNL A   1      36.224  29.541  29.661  1.00  0.00     0.014 A 
ATOM     35  C   UNL A   1      38.133  29.742  27.626  1.00  0.00     0.010 A 
ATOM     36  C   UNL A   1      37.524  29.110  29.889  1.00  0.00     0.010 A 
ATOM     37  C   UNL A   1      38.496  29.227  28.882  1.00  0.00    -0.014 A 
BRANCH  37  38
ATOM     38  C   UNL A   1      39.898  28.851  29.192  1.00  0.00     0.031 A 
ATOM     39  C   UNL A   1      40.833  29.866  29.784  1.00  0.00     0.074 A 
ATOM     40  C   UNL A   1      40.350  27.629  28.844  1.00  0.00     0.049 A 
ATOM     41  N   UNL A   1      42.115  29.766  30.018  1.00  0.00    -0.248 NA
ATOM     42  C   UNL A   1      40.255  31.175  30.131  1.00  0.00     0.031 C 
ATOM     43  C   UNL A   1      39.549  26.571  28.223  1.00  0.00     0.029 A 
ATOM     44  N   UNL A   1      41.603  27.076  28.948  1.00  0.00    -0.354 N 
ATOM     45  C   UNL A   1      42.502  31.001  30.521  1.00  0.00     0.074 A 
ATOM     46  C   UNL A   1      41.330  31.849  30.514  1.00  0.00     0.031 C 
ATOM     47  C   UNL A   1      40.322  25.491  28.024  1.00  0.00     0.029 A 
ATOM     48  C   UNL A   1      41.683  25.794  28.456  1.00  0.00     0.049 A 
ATOM     49  H   UNL A   1      42.371  27.551  29.339  1.00  0.00     0.167 HD
ATOM     50  C   UNL A   1      43.720  31.389  30.968  1.00  0.00     0.031 A 
ATOM     51  C   UNL A   1      42.736  24.960  28.347  1.00  0.00     0.031 A 
ATOM     52  C   UNL A   1      44.879  30.539  30.980  1.00  0.00     0.049 A 
ATOM     53  C   UNL A   1      44.087  25.425  28.818  1.00  0.00     0.074 A 
ATOM     54  C   UNL A   1      46.143  30.815  31.471  1.00  0.00     0.029 A 
ATOM     55  N   UNL A   1      44.919  29.249  30.471  1.00  0.00    -0.354 N 
ATOM     56  N   UNL A   1      44.419  26.572  29.359  1.00  0.00    -0.248 NA
ATOM     57  C   UNL A   1      45.206  24.484  28.663  1.00  0.00     0.031 C 
ATOM     58  C   UNL A   1      46.962  29.713  31.208  1.00  0.00     0.029 A 
ATOM     59  C   UNL A   1      46.195  28.729  30.604  1.00  0.00     0.049 A 
ATOM     60  H   UNL A   1      44.154  28.774  30.073  1.00  0.00     0.167 HD
ATOM     61  C   UNL A   1      45.780  26.487  29.623  1.00  0.00     0.074 A 
ATOM     62  C   UNL A   1      46.208  25.169  29.197  1.00  0.00     0.031 C 
ATOM     63  C   UNL A   1      46.604  27.417  30.166  1.00  0.00     0.031 A 
BRANCH  50  64
ATOM     64  C   UNL A   1      43.855  32.800  31.473  1.00  0.00    -0.014 A 
ATOM     65  C   UNL A   1      44.250  33.843  30.614  1.00  0.00     0.010 A 
ATOM     66  C   UNL A   1      43.561  33.095  32.816  1.00  0.00     0.010 A 
ATOM     67  C   UNL A   1      44.396  35.143  31.101  1.00  0.00     0.020 A 
ATOM     68  C   UNL A   1      43.678  34.400  33.301  1.00  0.00     0.020 A 
ATOM     69  C   UNL A   1      44.114  35.413  32.443  1.00  0.00     0.054 A 
BRANCH  69  70
ATOM     70  S   UNL A   1      44.304  37.113  33.046  1.00  0.00     0.124 S 
ATOM     71  O   UNL A   1      43.493  37.093  34.260  1.00  0.00    -0.237 OA
ATOM     72  O   UNL A   1      45.747  37.218  33.258  1.00  0.00    -0.237 OA
ATOM     73  O   UNL A   1      43.777  37.929  31.956  1.00  0.00    -0.744 OA
ENDBRANCH  69  70
ENDBRANCH  50  64
BRANCH  51  74
ATOM     74  C   UNL A   1      42.552  23.601  27.769  1.00  0.00    -0.014 A 
ATOM     75  C   UNL A   1      42.877  23.350  26.426  1.00  0.00     0.010 A 
ATOM     76  C   UNL A   1      42.073  22.543  28.565  1.00  0.00     0.010 A 
ATOM     77  C   UNL A   1      42.721  22.071  25.885  1.00  0.00     0.020 A 
ATOM     78  C   UNL A   1      41.940  21.257  28.036  1.00  0.00     0.020 A 
ATOM     79  C   UNL A   1      42.257  21.030  26.695  1.00  0.00     0.054 A 
BRANCH  79  80
ATOM     80  S   UNL A   1      42.125  19.364  25.990  1.00  0.00     0.124 S 
ATOM     81  O   UNL A   1      42.942  19.477  24.785  1.00  0.00    -0.237 OA
ATOM     82  O   UNL A   1      42.676  18.526  27.052  1.00  0.00    -0.237 OA
ATOM     83  O   UNL A   1      40.691  19.201  25.762  1.00  0.00    -0.744 OA
ENDBRANCH  79  80
ENDBRANCH  51  74
BRANCH  63  84
ATOM     84  C   UNL A   1      48.050  27.046  30.342  1.00  0.00    -0.014 A 
ATOM     85  C   UNL A   1      49.002  27.365  29.357  1.00  0.00     0.010 A 
ATOM     86  C   UNL A   1      48.476  26.450  31.543  1.00  0.00     0.010 A 
ATOM     87  C   UNL A   1      50.354  27.083  29.567  1.00  0.00     0.020 A 
ATOM     88  C   UNL A   1      49.831  26.190  31.766  1.00  0.00     0.020 A 
ATOM     89  C   UNL A   1      50.761  26.503  30.772  1.00  0.00     0.054 A 
BRANCH  89  90
ATOM     90  S   UNL A   1      52.531  26.218  31.048  1.00  0.00     0.124 S 
ATOM     91  O   UNL A   1      52.526  24.945  31.764  1.00  0.00    -0.237 OA
ATOM     92  O   UNL A   1      53.064  26.173  29.689  1.00  0.00    -0.237 OA
ATOM     93  O   UNL A   1      52.949  27.375  31.837  1.00  0.00    -0.744 OA
ENDBRANCH  89  90
ENDBRANCH  63  84
ENDBRANCH  37  38
ENDBRANCH  29  32
ENDBRANCH  27  28
ENDBRANCH   1  27
TORSDOF 16
ENDMDL
MODEL 2
REMARK VINA RESULT:     -11.5      1.440      3.227
REMARK SMILES CC1(C)[C@H](C(=O)NCCCCNC(=O)c2ccc(-c3c4nc(c(-c5ccc(S(=O)(=O)[O-])cc5)c5ccc([nH]5)c(-c5ccc(S(=O)(=O)[O-])cc5)c5nc(c(-c6ccc(S(=O)(=O)[O-])cc6)c6ccc3[nH]6)C=C5)C=C4)cc2)[C@H]1C(=O)Nc1cccc2[nH]ccc12
REMARK SMILES IDX 10 1 9 2 8 3 7 4 5 5 6 6 4 8 1 9 2 10 3 11 75 12 76 13 77 14
REMARK SMILES IDX 78 15 79 17 80 18 87 19 81 20 83 21 86 22 82 23 84 24 85 25
REMARK SMILES IDX 11 27 12 28 13 29 14 31 15 32 16 33 74 34 17 35 73 36 18 37
REMARK SMILES IDX 19 38 20 39 67 40 21 41 72 42 66 43 68 44 22 45 71 46 65 47
REMARK SMILES IDX 64 48 23 50 53 51 34 52 52 53 35 54 38 55 51 56 69 57 36 58
REMARK SMILES IDX 37 59 50 61 70 62 39 63 24 64 25 65 33 66 26 67 32 68 27 69
REMARK SMILES IDX 28 70 29 71 30 72 31 73 54 74 55 75 63 76 56 77 62 78 57 79
REMARK SMILES IDX 58 80 59 81 60 82 61 83 40 84 41 85 49 86 42 87 48 88 43 89
REMARK SMILES IDX 44 90 45 91 46 92 47 93
REMARK H PARENT 7 7 78 16 84 26 12 30 68 49 38 60
REMARK Flexibility Score: inf
ROOT
ATOM      1  C   UNL A   1      31.990  28.330  26.956  1.00  0.00     0.023 C 
ENDROOT
BRANCH   1   2
ATOM      2  C   UNL A   1      31.884  26.895  26.448  1.00  0.00     0.023 C 
BRANCH   2   3
ATOM      3  C   UNL A   1      30.464  26.354  26.295  1.00  0.00     0.116 C 
BRANCH   3   4
ATOM      4  N   UNL A   1      30.444  24.919  26.201  1.00  0.00    -0.356 N 
ATOM      5  C   UNL A   1      31.244  24.006  25.584  1.00  0.00     0.224 C 
ATOM      6  O   UNL A   1      30.960  22.825  25.797  1.00  0.00    -0.275 OA
ATOM      7  H   UNL A   1      29.691  24.510  26.687  1.00  0.00     0.163 HD
BRANCH   5   8
ATOM      8  C   UNL A   1      32.407  24.261  24.690  1.00  0.00     0.098 C 
ATOM      9  C   UNL A   1      34.917  24.448  24.647  1.00  0.00     0.013 C 
ATOM     10  C   UNL A   1      33.738  23.522  24.487  1.00  0.00    -0.011 C 
ATOM     11  C   UNL A   1      34.201  22.112  24.724  1.00  0.00     0.013 C 
ATOM     12  C   UNL A   1      32.660  23.599  23.387  1.00  0.00     0.098 C 
BRANCH  12  13
ATOM     13  C   UNL A   1      32.942  24.142  22.025  1.00  0.00     0.228 C 
ATOM     14  O   UNL A   1      33.392  23.357  21.190  1.00  0.00    -0.274 OA
ATOM     15  N   UNL A   1      32.455  25.353  21.596  1.00  0.00    -0.325 N 
ATOM     16  H   UNL A   1      31.983  25.345  20.733  1.00  0.00     0.169 HD
BRANCH  15  17
ATOM     17  C   UNL A   1      32.545  26.594  22.233  1.00  0.00     0.050 A 
ATOM     18  C   UNL A   1      33.820  27.081  22.539  1.00  0.00     0.027 A 
ATOM     19  C   UNL A   1      31.416  27.308  22.695  1.00  0.00     0.023 A 
ATOM     20  C   UNL A   1      33.979  28.342  23.112  1.00  0.00     0.004 A 
ATOM     21  C   UNL A   1      31.606  28.595  23.205  1.00  0.00     0.047 A 
ATOM     22  C   UNL A   1      30.025  27.024  22.844  1.00  0.00     0.030 A 
ATOM     23  C   UNL A   1      32.874  29.149  23.400  1.00  0.00     0.027 A 
ATOM     24  N   UNL A   1      30.358  29.137  23.423  1.00  0.00    -0.361 N 
ATOM     25  C   UNL A   1      29.395  28.179  23.253  1.00  0.00     0.083 A 
ATOM     26  H   UNL A   1      30.184  30.075  23.665  1.00  0.00     0.166 HD
ENDBRANCH  15  17
ENDBRANCH  12  13
ENDBRANCH   5   8
ENDBRANCH   3   4
ENDBRANCH   2   3
ENDBRANCH   1   2
BRANCH   1  27
ATOM     27  C   UNL A   1      33.402  28.810  27.259  1.00  0.00     0.116 C 
BRANCH  27  28
ATOM     28  N   UNL A   1      33.474  30.184  27.746  1.00  0.00    -0.352 N 
ATOM     29  C   UNL A   1      34.552  30.820  28.320  1.00  0.00     0.251 C 
ATOM     30  H   UNL A   1      32.654  30.720  27.654  1.00  0.00     0.163 HD
ATOM     31  O   UNL A   1      34.455  31.965  28.749  1.00  0.00    -0.269 OA
BRANCH  29  32
ATOM     32  C   UNL A   1      35.814  30.067  28.451  1.00  0.00     0.039 A 
ATOM     33  C   UNL A   1      36.699  30.042  27.372  1.00  0.00     0.014 A 
ATOM     34  C   UNL A   1      36.170  29.521  29.686  1.00  0.00     0.014 A 
ATOM     35  C   UNL A   1      37.994  29.561  27.565  1.00  0.00     0.010 A 
ATOM     36  C   UNL A   1      37.482  29.116  29.896  1.00  0.00     0.010 A 
ATOM     37  C   UNL A   1      38.412  29.154  28.844  1.00  0.00    -0.014 A 
BRANCH  37  38
ATOM     38  C   UNL A   1      39.827  28.810  29.127  1.00  0.00     0.031 A 
ATOM     39  C   UNL A   1      40.753  29.852  29.686  1.00  0.00     0.074 A 
ATOM     40  C   UNL A   1      40.298  27.594  28.784  1.00  0.00     0.049 A 
ATOM     41  N   UNL A   1      42.042  29.782  29.893  1.00  0.00    -0.248 NA
ATOM     42  C   UNL A   1      40.156  31.153  30.031  1.00  0.00     0.031 C 
ATOM     43  C   UNL A   1      39.506  26.512  28.193  1.00  0.00     0.029 A 
ATOM     44  N   UNL A   1      41.563  27.068  28.866  1.00  0.00    -0.354 N 
ATOM     45  C   UNL A   1      42.414  31.030  30.373  1.00  0.00     0.074 A 
ATOM     46  C   UNL A   1      41.224  31.854  30.381  1.00  0.00     0.031 C 
ATOM     47  C   UNL A   1      40.297  25.446  27.990  1.00  0.00     0.029 A 
ATOM     48  C   UNL A   1      41.660  25.782  28.388  1.00  0.00     0.049 A 
ATOM     49  H   UNL A   1      42.330  27.565  29.235  1.00  0.00     0.167 HD
ATOM     50  C   UNL A   1      43.633  31.449  30.788  1.00  0.00     0.031 A 
ATOM     51  C   UNL A   1      42.728  24.969  28.266  1.00  0.00     0.031 A 
ATOM     52  C   UNL A   1      44.810  30.623  30.784  1.00  0.00     0.049 A 
ATOM     53  C   UNL A   1      44.079  25.468  28.701  1.00  0.00     0.074 A 
ATOM     54  C   UNL A   1      46.078  30.931  31.243  1.00  0.00     0.029 A 
ATOM     55  N   UNL A   1      44.866  29.328  30.289  1.00  0.00    -0.354 N 
ATOM     56  N   UNL A   1      44.397  26.629  29.221  1.00  0.00    -0.248 NA
ATOM     57  C   UNL A   1      45.213  24.549  28.531  1.00  0.00     0.031 C 
ATOM     58  C   UNL A   1      46.914  29.844  30.976  1.00  0.00     0.029 A 
ATOM     59  C   UNL A   1      46.155  28.837  30.400  1.00  0.00     0.049 A 
ATOM     60  H   UNL A   1      44.103  28.833  29.915  1.00  0.00     0.167 HD
ATOM     61  C   UNL A   1      45.766  26.575  29.455  1.00  0.00     0.074 A 
ATOM     62  C   UNL A   1      46.212  25.261  29.035  1.00  0.00     0.031 C 
ATOM     63  C   UNL A   1      46.581  27.529  29.969  1.00  0.00     0.031 A 
BRANCH  50  64
ATOM     64  C   UNL A   1      43.749  32.869  31.274  1.00  0.00    -0.014 A 
ATOM     65  C   UNL A   1      43.995  33.924  30.375  1.00  0.00     0.010 A 
ATOM     66  C   UNL A   1      43.588  33.157  32.640  1.00  0.00     0.010 A 
ATOM     67  C   UNL A   1      44.126  35.234  30.841  1.00  0.00     0.020 A 
ATOM     68  C   UNL A   1      43.690  34.471  33.107  1.00  0.00     0.020 A 
ATOM     69  C   UNL A   1      43.978  35.498  32.206  1.00  0.00     0.054 A 
BRANCH  69  70
ATOM     70  S   UNL A   1      44.145  37.210  32.782  1.00  0.00     0.124 S 
ATOM     71  O   UNL A   1      43.008  37.333  33.691  1.00  0.00    -0.237 OA
ATOM     72  O   UNL A   1      45.460  37.206  33.419  1.00  0.00    -0.237 OA
ATOM     73  O   UNL A   1      44.052  37.999  31.557  1.00  0.00    -0.744 OA
ENDBRANCH  69  70
ENDBRANCH  50  64
BRANCH  51  74
ATOM     74  C   UNL A   1      42.559  23.600  27.708  1.00  0.00    -0.014 A 
ATOM     75  C   UNL A   1      42.757  23.362  26.337  1.00  0.00     0.010 A 
ATOM     76  C   UNL A   1      42.224  22.521  28.547  1.00  0.00     0.010 A 
ATOM     77  C   UNL A   1      42.617  22.073  25.814  1.00  0.00     0.020 A 
ATOM     78  C   UNL A   1      42.107  21.227  28.033  1.00  0.00     0.020 A 
ATOM     79  C   UNL A   1      42.296  21.012  26.666  1.00  0.00     0.054 A 
BRANCH  79  80
ATOM     80  S   UNL A   1      42.184  19.338  25.976  1.00  0.00     0.124 S 
ATOM     81  O   UNL A   1      43.032  19.439  24.792  1.00  0.00    -0.237 OA
ATOM     82  O   UNL A   1      42.708  18.513  27.062  1.00  0.00    -0.237 OA
ATOM     83  O   UNL A   1      40.756  19.172  25.713  1.00  0.00    -0.744 OA
ENDBRANCH  79  80
ENDBRANCH  51  74
BRANCH  63  84
ATOM     84  C   UNL A   1      48.039  27.190  30.117  1.00  0.00    -0.014 A 
ATOM     85  C   UNL A   1      48.970  27.562  29.131  1.00  0.00     0.010 A 
ATOM     86  C   UNL A   1      48.495  26.570  31.294  1.00  0.00     0.010 A 
ATOM     87  C   UNL A   1      50.331  27.310  29.317  1.00  0.00     0.020 A 
ATOM     88  C   UNL A   1      49.858  26.338  31.494  1.00  0.00     0.020 A 
ATOM     89  C   UNL A   1      50.767  26.704  30.499  1.00  0.00     0.054 A 
BRANCH  89  90
ATOM     90  S   UNL A   1      52.548  26.457  30.746  1.00  0.00     0.124 S 
ATOM     91  O   UNL A   1      53.020  26.263  29.378  1.00  0.00    -0.237 OA
ATOM     92  O   UNL A   1      52.959  27.705  31.383  1.00  0.00    -0.237 OA
ATOM     93  O   UNL A   1      52.618  25.275  31.603  1.00  0.00    -0.744 OA
ENDBRANCH  89  90
ENDBRANCH  63  84
ENDBRANCH  37  38
ENDBRANCH  29  32
ENDBRANCH  27  28
ENDBRANCH   1  27
TORSDOF 16
ENDMDL
MODEL 3
REMARK VINA RESULT:     -11.3      2.807      8.989
REMARK SMILES CC1(C)[C@H](C(=O)NCCCCNC(=O)c2ccc(-c3c4nc(c(-c5ccc(S(=O)(=O)[O-])cc5)c5ccc([nH]5)c(-c5ccc(S(=O)(=O)[O-])cc5)c5nc(c(-c6ccc(S(=O)(=O)[O-])cc6)c6ccc3[nH]6)C=C5)C=C4)cc2)[C@H]1C(=O)Nc1cccc2[nH]ccc12
REMARK SMILES IDX 10 1 9 2 8 3 7 4 5 5 6 6 4 8 1 9 2 10 3 11 75 12 76 13 77 14
REMARK SMILES IDX 78 15 79 17 80 18 87 19 81 20 83 21 86 22 82 23 84 24 85 25
REMARK SMILES IDX 11 27 12 28 13 29 14 31 15 32 16 33 74 34 17 35 73 36 18 37
REMARK SMILES IDX 19 38 20 39 67 40 21 41 72 42 66 43 68 44 22 45 71 46 65 47
REMARK SMILES IDX 64 48 23 50 53 51 34 52 52 53 35 54 38 55 51 56 69 57 36 58
REMARK SMILES IDX 37 59 50 61 70 62 39 63 24 64 25 65 33 66 26 67 32 68 27 69
REMARK SMILES IDX 28 70 29 71 30 72 31 73 54 74 55 75 63 76 56 77 62 78 57 79
REMARK SMILES IDX 58 80 59 81 60 82 61 83 40 84 41 85 49 86 42 87 48 88 43 89
REMARK SMILES IDX 44 90 45 91 46 92 47 93
REMARK H PARENT 7 7 78 16 84 26 12 30 68 49 38 60
REMARK Flexibility Score: inf
ROOT
ATOM      1  C   UNL A   1      36.395  22.920  23.904  1.00  0.00     0.023 C 
ENDROOT
BRANCH   1   2
ATOM      2  C   UNL A   1      35.123  23.707  23.605  1.00  0.00     0.023 C 
BRANCH   2   3
ATOM      3  C   UNL A   1      34.088  22.984  22.746  1.00  0.00     0.116 C 
BRANCH   3   4
ATOM      4  N   UNL A   1      33.059  23.874  22.281  1.00  0.00    -0.356 N 
ATOM      5  C   UNL A   1      32.208  24.736  22.905  1.00  0.00     0.224 C 
ATOM      6  O   UNL A   1      31.502  25.416  22.157  1.00  0.00    -0.275 OA
ATOM      7  H   UNL A   1      32.945  23.858  21.303  1.00  0.00     0.163 HD
BRANCH   5   8
ATOM      8  C   UNL A   1      32.031  24.952  24.368  1.00  0.00     0.098 C 
ATOM      9  C   UNL A   1      32.558  26.534  26.254  1.00  0.00     0.013 C 
ATOM     10  C   UNL A   1      31.561  26.163  25.186  1.00  0.00    -0.011 C 
ATOM     11  C   UNL A   1      30.713  27.367  24.883  1.00  0.00     0.013 C 
ATOM     12  C   UNL A   1      30.750  24.852  25.108  1.00  0.00     0.098 C 
BRANCH  12  13
ATOM     13  C   UNL A   1      30.353  24.083  26.325  1.00  0.00     0.228 C 
ATOM     14  O   UNL A   1      29.374  24.490  26.952  1.00  0.00    -0.274 OA
ATOM     15  N   UNL A   1      30.825  22.821  26.589  1.00  0.00    -0.325 N 
ATOM     16  H   UNL A   1      30.144  22.139  26.789  1.00  0.00     0.169 HD
BRANCH  15  17
ATOM     17  C   UNL A   1      32.153  22.382  26.608  1.00  0.00     0.050 A 
ATOM     18  C   UNL A   1      33.061  23.081  27.410  1.00  0.00     0.027 A 
ATOM     19  C   UNL A   1      32.641  21.362  25.760  1.00  0.00     0.023 A 
ATOM     20  C   UNL A   1      34.383  22.651  27.525  1.00  0.00     0.004 A 
ATOM     21  C   UNL A   1      33.951  20.913  25.944  1.00  0.00     0.047 A 
ATOM     22  C   UNL A   1      32.131  20.644  24.636  1.00  0.00     0.030 A 
ATOM     23  C   UNL A   1      34.836  21.521  26.839  1.00  0.00     0.027 A 
ATOM     24  N   UNL A   1      34.127  19.818  25.128  1.00  0.00    -0.361 N 
ATOM     25  C   UNL A   1      33.049  19.674  24.296  1.00  0.00     0.083 A 
ATOM     26  H   UNL A   1      34.913  19.225  25.140  1.00  0.00     0.166 HD
ENDBRANCH  15  17
ENDBRANCH  12  13
ENDBRANCH   5   8
ENDBRANCH   3   4
ENDBRANCH   2   3
ENDBRANCH   1   2
BRANCH   1  27
ATOM     27  C   UNL A   1      37.246  23.467  25.041  1.00  0.00     0.116 C 
BRANCH  27  28
ATOM     28  N   UNL A   1      38.381  22.623  25.397  1.00  0.00    -0.352 N 
ATOM     29  C   UNL A   1      39.466  22.952  26.179  1.00  0.00     0.251 C 
ATOM     30  H   UNL A   1      38.371  21.708  25.035  1.00  0.00     0.163 HD
ATOM     31  O   UNL A   1      40.389  22.162  26.345  1.00  0.00    -0.269 OA
BRANCH  29  32
ATOM     32  C   UNL A   1      39.511  24.303  26.771  1.00  0.00     0.039 A 
ATOM     33  C   UNL A   1      38.964  24.502  28.040  1.00  0.00     0.014 A 
ATOM     34  C   UNL A   1      40.221  25.318  26.127  1.00  0.00     0.014 A 
ATOM     35  C   UNL A   1      39.226  25.695  28.714  1.00  0.00     0.010 A 
ATOM     36  C   UNL A   1      40.546  26.471  26.830  1.00  0.00     0.010 A 
ATOM     37  C   UNL A   1      40.070  26.659  28.139  1.00  0.00    -0.014 A 
BRANCH  37  38
ATOM     38  C   UNL A   1      40.517  27.854  28.898  1.00  0.00     0.031 A 
ATOM     39  C   UNL A   1      41.845  27.842  29.598  1.00  0.00     0.074 A 
ATOM     40  C   UNL A   1      39.682  28.903  29.039  1.00  0.00     0.049 A 
ATOM     41  N   UNL A   1      42.360  28.736  30.400  1.00  0.00    -0.248 NA
ATOM     42  C   UNL A   1      42.693  26.655  29.392  1.00  0.00     0.031 C 
ATOM     43  C   UNL A   1      38.348  29.014  28.442  1.00  0.00     0.029 A 
ATOM     44  N   UNL A   1      39.825  30.072  29.745  1.00  0.00    -0.354 N 
ATOM     45  C   UNL A   1      43.581  28.215  30.809  1.00  0.00     0.074 A 
ATOM     46  C   UNL A   1      43.708  26.906  30.205  1.00  0.00     0.031 C 
ATOM     47  C   UNL A   1      37.807  30.194  28.786  1.00  0.00     0.029 A 
ATOM     48  C   UNL A   1      38.731  30.902  29.667  1.00  0.00     0.049 A 
ATOM     49  H   UNL A   1      40.635  30.296  30.258  1.00  0.00     0.167 HD
ATOM     50  C   UNL A   1      44.521  28.783  31.601  1.00  0.00     0.031 A 
ATOM     51  C   UNL A   1      38.488  32.091  30.252  1.00  0.00     0.031 A 
ATOM     52  C   UNL A   1      44.392  30.086  32.192  1.00  0.00     0.049 A 
ATOM     53  C   UNL A   1      39.533  32.687  31.156  1.00  0.00     0.074 A 
ATOM     54  C   UNL A   1      45.314  30.779  32.958  1.00  0.00     0.029 A 
ATOM     55  N   UNL A   1      43.268  30.893  32.091  1.00  0.00    -0.354 N 
ATOM     56  N   UNL A   1      40.713  32.211  31.473  1.00  0.00    -0.248 NA
ATOM     57  C   UNL A   1      39.213  33.978  31.782  1.00  0.00     0.031 C 
ATOM     58  C   UNL A   1      44.727  31.980  33.366  1.00  0.00     0.029 A 
ATOM     59  C   UNL A   1      43.460  32.061  32.810  1.00  0.00     0.049 A 
ATOM     60  H   UNL A   1      42.455  30.668  31.585  1.00  0.00     0.167 HD
ATOM     61  C   UNL A   1      41.284  33.150  32.324  1.00  0.00     0.074 A 
ATOM     62  C   UNL A   1      40.326  34.230  32.459  1.00  0.00     0.031 C 
ATOM     63  C   UNL A   1      42.491  33.120  32.939  1.00  0.00     0.031 A 
BRANCH  50  64
ATOM     64  C   UNL A   1      45.768  27.985  31.876  1.00  0.00    -0.014 A 
ATOM     65  C   UNL A   1      46.899  28.100  31.046  1.00  0.00     0.010 A 
ATOM     66  C   UNL A   1      45.820  27.127  32.988  1.00  0.00     0.010 A 
ATOM     67  C   UNL A   1      48.041  27.336  31.296  1.00  0.00     0.020 A 
ATOM     68  C   UNL A   1      46.970  26.381  33.259  1.00  0.00     0.020 A 
ATOM     69  C   UNL A   1      48.067  26.476  32.399  1.00  0.00     0.054 A 
BRANCH  69  70
ATOM     70  S   UNL A   1      49.565  25.502  32.706  1.00  0.00     0.124 S 
ATOM     71  O   UNL A   1      50.467  26.505  33.264  1.00  0.00    -0.237 OA
ATOM     72  O   UNL A   1      49.099  24.485  33.645  1.00  0.00    -0.237 OA
ATOM     73  O   UNL A   1      49.931  25.002  31.383  1.00  0.00    -0.744 OA
ENDBRANCH  69  70
ENDBRANCH  50  64
BRANCH  51  74
ATOM     74  C   UNL A   1      37.202  32.796  29.998  1.00  0.00    -0.014 A 
ATOM     75  C   UNL A   1      36.133  32.670  30.901  1.00  0.00     0.010 A 
ATOM     76  C   UNL A   1      37.047  33.617  28.866  1.00  0.00     0.010 A 
ATOM     77  C   UNL A   1      34.930  33.344  30.674  1.00  0.00     0.020 A 
ATOM     78  C   UNL A   1      35.855  34.314  28.648  1.00  0.00     0.020 A 
ATOM     79  C   UNL A   1      34.800  34.166  29.551  1.00  0.00     0.054 A 
BRANCH  79  80
ATOM     80  S   UNL A   1      33.253  35.083  29.311  1.00  0.00     0.124 S 
ATOM     81  O   UNL A   1      33.737  36.387  28.867  1.00  0.00    -0.237 OA
ATOM     82  O   UNL A   1      32.565  34.285  28.298  1.00  0.00    -0.237 OA
ATOM     83  O   UNL A   1      32.633  35.061  30.634  1.00  0.00    -0.744 OA
ENDBRANCH  79  80
ENDBRANCH  51  74
BRANCH  63  84
ATOM     84  C   UNL A   1      42.855  34.291  33.811  1.00  0.00    -0.014 A 
ATOM     85  C   UNL A   1      42.687  34.232  35.205  1.00  0.00     0.010 A 
ATOM     86  C   UNL A   1      43.452  35.428  33.237  1.00  0.00     0.010 A 
ATOM     87  C   UNL A   1      43.100  35.296  36.010  1.00  0.00     0.020 A 
ATOM     88  C   UNL A   1      43.889  36.484  34.041  1.00  0.00     0.020 A 
ATOM     89  C   UNL A   1      43.703  36.413  35.424  1.00  0.00     0.054 A 
BRANCH  89  90
ATOM     90  S   UNL A   1      44.299  37.747  36.500  1.00  0.00     0.124 S 
ATOM     91  O   UNL A   1      45.630  37.272  36.865  1.00  0.00    -0.237 OA
ATOM     92  O   UNL A   1      44.266  38.910  35.617  1.00  0.00    -0.237 OA
ATOM     93  O   UNL A   1      43.326  37.773  37.591  1.00  0.00    -0.744 OA
ENDBRANCH  89  90
ENDBRANCH  63  84
ENDBRANCH  37  38
ENDBRANCH  29  32
ENDBRANCH  27  28
ENDBRANCH   1  27
TORSDOF 16
ENDMDL
