MODEL 1
REMARK VINA RESULT:     -11.5      0.000      0.000
REMARK SMILES O=C(NCCCCNC(=O)[C@H]1C[C@H]2CCCC[C@@H]2[N@@H+]1CC[C@@H]1CCCO1)c1ccc(-c2c3nc(c(-c4ccc(S(=O)(=O)[O-])cc4)c4ccc([nH]4)c(-c4ccc(S(=O)(=O)[O-])cc4)c4nc(c(-c5ccc(S(=O)(=O)[O-])cc5)c5ccc2[nH]5)C=C4)C=C3)cc1
REMARK SMILES IDX 5 1 4 2 3 3 1 4 2 5 27 7 28 8 86 9 29 10 85 11 30 12 31 13
REMARK SMILES IDX 32 14 79 15 33 16 84 17 78 18 80 19 34 20 83 21 77 22 76 23
REMARK SMILES IDX 35 25 65 26 46 27 64 28 47 29 50 30 63 31 81 32 48 33 49 34
REMARK SMILES IDX 62 36 82 37 51 38 36 39 37 40 45 41 38 42 44 43 39 44 40 45
REMARK SMILES IDX 41 46 42 47 43 48 66 49 67 50 75 51 68 52 74 53 69 54 70 55
REMARK SMILES IDX 71 56 72 57 73 58 52 59 53 60 61 61 54 62 60 63 55 64 56 65
REMARK SMILES IDX 57 66 58 67 59 68 6 69 7 70 8 71 9 72 10 74 11 75 12 76
REMARK SMILES IDX 19 77 13 78 18 79 14 81 17 82 15 83 16 84 20 85 21 86 22 87
REMARK SMILES IDX 23 88 26 89 24 90 25 91
REMARK H PARENT 3 6 80 24 50 35 8 73 19 80
REMARK Flexibility Score: inf
ROOT
ATOM      1  C   UNL A   1      32.395  27.541  27.091  1.00  0.00     0.023 C 
ENDROOT
BRANCH   1   2
ATOM      2  C   UNL A   1      33.659  28.382  27.012  1.00  0.00     0.116 C 
BRANCH   2   3
ATOM      3  N   UNL A   1      33.485  29.774  27.410  1.00  0.00    -0.352 N 
ATOM      4  O   UNL A   1      34.132  31.735  28.344  1.00  0.00    -0.269 OA
ATOM      5  C   UNL A   1      34.418  30.595  28.003  1.00  0.00     0.251 C 
ATOM      6  H   UNL A   1      32.601  30.171  27.235  1.00  0.00     0.163 HD
BRANCH   5   7
ATOM      7  C   UNL A   1      35.760  30.040  28.262  1.00  0.00     0.039 A 
ATOM      8  C   UNL A   1      36.088  29.568  29.536  1.00  0.00     0.014 A 
ATOM      9  C   UNL A   1      36.720  30.099  27.249  1.00  0.00     0.014 A 
ATOM     10  C   UNL A   1      37.413  29.288  29.841  1.00  0.00     0.010 A 
ATOM     11  C   UNL A   1      38.036  29.744  27.540  1.00  0.00     0.010 A 
ATOM     12  C   UNL A   1      38.397  29.371  28.845  1.00  0.00    -0.014 A 
BRANCH  12  13
ATOM     13  C   UNL A   1      39.800  29.015  29.158  1.00  0.00     0.031 A 
ATOM     14  C   UNL A   1      40.733  30.021  29.766  1.00  0.00     0.074 A 
ATOM     15  C   UNL A   1      40.229  27.775  28.858  1.00  0.00     0.049 A 
ATOM     16  N   UNL A   1      42.013  29.912  30.007  1.00  0.00    -0.248 NA
ATOM     17  C   UNL A   1      40.157  31.321  30.143  1.00  0.00     0.031 C 
ATOM     18  C   UNL A   1      39.401  26.716  28.275  1.00  0.00     0.029 A 
ATOM     19  N   UNL A   1      41.465  27.201  28.988  1.00  0.00    -0.354 N 
ATOM     20  C   UNL A   1      42.408  31.137  30.531  1.00  0.00     0.074 A 
ATOM     21  C   UNL A   1      41.229  31.978  30.566  1.00  0.00     0.031 C 
ATOM     22  C   UNL A   1      40.151  25.619  28.103  1.00  0.00     0.029 A 
ATOM     23  C   UNL A   1      41.522  25.919  28.499  1.00  0.00     0.049 A 
ATOM     24  H   UNL A   1      42.237  27.662  29.391  1.00  0.00     0.167 HD
ATOM     25  C   UNL A   1      43.642  31.523  30.935  1.00  0.00     0.031 A 
ATOM     26  C   UNL A   1      42.567  25.087  28.343  1.00  0.00     0.031 A 
ATOM     27  C   UNL A   1      44.804  30.676  30.887  1.00  0.00     0.049 A 
ATOM     28  C   UNL A   1      43.929  25.542  28.769  1.00  0.00     0.074 A 
ATOM     29  C   UNL A   1      46.095  30.959  31.299  1.00  0.00     0.029 A 
ATOM     30  N   UNL A   1      44.819  29.380  30.389  1.00  0.00    -0.354 N 
ATOM     31  N   UNL A   1      44.281  26.697  29.281  1.00  0.00    -0.248 NA
ATOM     32  C   UNL A   1      45.032  24.590  28.598  1.00  0.00     0.031 C 
ATOM     33  C   UNL A   1      46.898  29.851  31.008  1.00  0.00     0.029 A 
ATOM     34  C   UNL A   1      46.099  28.858  30.461  1.00  0.00     0.049 A 
ATOM     35  H   UNL A   1      44.034  28.903  30.036  1.00  0.00     0.167 HD
ATOM     36  C   UNL A   1      45.647  26.606  29.513  1.00  0.00     0.074 A 
ATOM     37  C   UNL A   1      46.055  25.280  29.089  1.00  0.00     0.031 C 
ATOM     38  C   UNL A   1      46.484  27.536  30.033  1.00  0.00     0.031 A 
BRANCH  25  39
ATOM     39  C   UNL A   1      43.801  32.943  31.413  1.00  0.00    -0.014 A 
ATOM     40  C   UNL A   1      43.595  33.292  32.759  1.00  0.00     0.010 A 
ATOM     41  C   UNL A   1      44.166  33.946  30.495  1.00  0.00     0.010 A 
ATOM     42  C   UNL A   1      43.693  34.627  33.167  1.00  0.00     0.020 A 
ATOM     43  C   UNL A   1      44.289  35.277  30.904  1.00  0.00     0.020 A 
ATOM     44  C   UNL A   1      44.025  35.612  32.233  1.00  0.00     0.054 A 
BRANCH  44  45
ATOM     45  S   UNL A   1      44.117  37.341  32.777  1.00  0.00     0.124 S 
ATOM     46  O   UNL A   1      45.488  37.424  33.274  1.00  0.00    -0.237 OA
ATOM     47  O   UNL A   1      43.851  38.082  31.546  1.00  0.00    -0.237 OA
ATOM     48  O   UNL A   1      43.076  37.440  33.796  1.00  0.00    -0.744 OA
ENDBRANCH  44  45
ENDBRANCH  25  39
BRANCH  26  49
ATOM     49  C   UNL A   1      42.332  23.754  27.729  1.00  0.00    -0.014 A 
ATOM     50  C   UNL A   1      42.723  23.501  26.404  1.00  0.00     0.010 A 
ATOM     51  C   UNL A   1      41.827  22.699  28.513  1.00  0.00     0.010 A 
ATOM     52  C   UNL A   1      42.629  22.210  25.878  1.00  0.00     0.020 A 
ATOM     53  C   UNL A   1      41.754  21.403  27.997  1.00  0.00     0.020 A 
ATOM     54  C   UNL A   1      42.157  21.168  26.682  1.00  0.00     0.054 A 
BRANCH  54  55
ATOM     55  S   UNL A   1      42.158  19.478  26.018  1.00  0.00     0.124 S 
ATOM     56  O   UNL A   1      40.742  19.260  25.742  1.00  0.00    -0.237 OA
ATOM     57  O   UNL A   1      43.021  19.601  24.844  1.00  0.00    -0.237 OA
ATOM     58  O   UNL A   1      42.717  18.683  27.109  1.00  0.00    -0.744 OA
ENDBRANCH  54  55
ENDBRANCH  26  49
BRANCH  38  59
ATOM     59  C   UNL A   1      47.925  27.148  30.209  1.00  0.00    -0.014 A 
ATOM     60  C   UNL A   1      48.880  27.440  29.219  1.00  0.00     0.010 A 
ATOM     61  C   UNL A   1      48.340  26.562  31.418  1.00  0.00     0.010 A 
ATOM     62  C   UNL A   1      50.229  27.147  29.437  1.00  0.00     0.020 A 
ATOM     63  C   UNL A   1      49.690  26.287  31.646  1.00  0.00     0.020 A 
ATOM     64  C   UNL A   1      50.625  26.576  30.652  1.00  0.00     0.054 A 
BRANCH  64  65
ATOM     65  S   UNL A   1      52.391  26.283  30.946  1.00  0.00     0.124 S 
ATOM     66  O   UNL A   1      52.786  27.496  31.657  1.00  0.00    -0.237 OA
ATOM     67  O   UNL A   1      52.386  25.059  31.744  1.00  0.00    -0.237 OA
ATOM     68  O   UNL A   1      52.945  26.139  29.602  1.00  0.00    -0.744 OA
ENDBRANCH  64  65
ENDBRANCH  38  59
ENDBRANCH  12  13
ENDBRANCH   5   7
ENDBRANCH   2   3
ENDBRANCH   1   2
BRANCH   1  69
ATOM     69  C   UNL A   1      31.803  27.149  25.747  1.00  0.00     0.023 C 
BRANCH  69  70
ATOM     70  C   UNL A   1      30.793  25.995  25.760  1.00  0.00     0.116 C 
BRANCH  70  71
ATOM     71  N   UNL A   1      31.173  24.925  26.664  1.00  0.00    -0.351 N 
ATOM     72  C   UNL A   1      32.146  23.973  26.609  1.00  0.00     0.278 C 
ATOM     73  H   UNL A   1      30.619  24.877  27.476  1.00  0.00     0.163 HD
ATOM     74  O   UNL A   1      32.283  23.295  27.640  1.00  0.00    -0.268 OA
BRANCH  72  75
ATOM     75  C   UNL A   1      32.980  23.589  25.360  1.00  0.00     0.274 C 
ATOM     76  C   UNL A   1      34.219  24.503  25.241  1.00  0.00     0.085 C 
ATOM     77  N   UNL A   1      33.475  22.184  25.335  1.00  0.00    -0.322 N 
ATOM     78  C   UNL A   1      35.349  23.555  24.859  1.00  0.00     0.054 C 
ATOM     79  C   UNL A   1      34.914  22.281  25.551  1.00  0.00     0.188 C 
ATOM     80  H   UNL A   1      33.053  21.625  26.077  1.00  0.00     0.349 HD
ATOM     81  C   UNL A   1      36.750  23.950  25.306  1.00  0.00     0.010 C 
ATOM     82  C   UNL A   1      35.833  21.084  25.405  1.00  0.00     0.065 C 
ATOM     83  C   UNL A   1      37.723  22.783  25.092  1.00  0.00     0.001 C 
ATOM     84  C   UNL A   1      37.265  21.486  25.771  1.00  0.00     0.006 C 
BRANCH  77  85
ATOM     85  C   UNL A   1      33.030  21.385  24.186  1.00  0.00     0.265 C 
BRANCH  85  86
ATOM     86  C   UNL A   1      32.274  20.046  24.365  1.00  0.00     0.093 C 
BRANCH  86  87
ATOM     87  C   UNL A   1      33.014  18.836  24.959  1.00  0.00     0.123 C 
ATOM     88  C   UNL A   1      33.959  18.069  24.040  1.00  0.00     0.034 C 
ATOM     89  O   UNL A   1      32.134  17.875  25.546  1.00  0.00    -0.378 OA
ATOM     90  C   UNL A   1      33.659  16.607  24.303  1.00  0.00     0.031 C 
ATOM     91  C   UNL A   1      32.816  16.619  25.556  1.00  0.00     0.160 C 
ENDBRANCH  86  87
ENDBRANCH  85  86
ENDBRANCH  77  85
ENDBRANCH  72  75
ENDBRANCH  70  71
ENDBRANCH  69  70
ENDBRANCH   1  69
TORSDOF 17
ENDMDL
MODEL 2
REMARK VINA RESULT:     -11.5      1.363      1.930
REMARK SMILES O=C(NCCCCNC(=O)[C@H]1C[C@H]2CCCC[C@@H]2[N@@H+]1CC[C@@H]1CCCO1)c1ccc(-c2c3nc(c(-c4ccc(S(=O)(=O)[O-])cc4)c4ccc([nH]4)c(-c4ccc(S(=O)(=O)[O-])cc4)c4nc(c(-c5ccc(S(=O)(=O)[O-])cc5)c5ccc2[nH]5)C=C4)C=C3)cc1
REMARK SMILES IDX 5 1 4 2 3 3 1 4 2 5 27 7 28 8 86 9 29 10 85 11 30 12 31 13
REMARK SMILES IDX 32 14 79 15 33 16 84 17 78 18 80 19 34 20 83 21 77 22 76 23
REMARK SMILES IDX 35 25 65 26 46 27 64 28 47 29 50 30 63 31 81 32 48 33 49 34
REMARK SMILES IDX 62 36 82 37 51 38 36 39 37 40 45 41 38 42 44 43 39 44 40 45
REMARK SMILES IDX 41 46 42 47 43 48 66 49 67 50 75 51 68 52 74 53 69 54 70 55
REMARK SMILES IDX 71 56 72 57 73 58 52 59 53 60 61 61 54 62 60 63 55 64 56 65
REMARK SMILES IDX 57 66 58 67 59 68 6 69 7 70 8 71 9 72 10 74 11 75 12 76
REMARK SMILES IDX 19 77 13 78 18 79 14 81 17 82 15 83 16 84 20 85 21 86 22 87
REMARK SMILES IDX 23 88 26 89 24 90 25 91
REMARK H PARENT 3 6 80 24 50 35 8 73 19 80
REMARK Flexibility Score: inf
ROOT
ATOM      1  C   UNL A   1      33.622  28.262  25.130  1.00  0.00     0.023 C 
ENDROOT
BRANCH   1   2
ATOM      2  C   UNL A   1      33.674  28.407  26.642  1.00  0.00     0.116 C 
BRANCH   2   3
ATOM      3  N   UNL A   1      33.461  29.766  27.127  1.00  0.00    -0.352 N 
ATOM      4  O   UNL A   1      34.034  31.663  28.226  1.00  0.00    -0.269 OA
ATOM      5  C   UNL A   1      34.352  30.553  27.822  1.00  0.00     0.251 C 
ATOM      6  H   UNL A   1      32.582  30.165  26.935  1.00  0.00     0.163 HD
BRANCH   5   7
ATOM      7  C   UNL A   1      35.687  29.995  28.110  1.00  0.00     0.039 A 
ATOM      8  C   UNL A   1      35.983  29.514  29.389  1.00  0.00     0.014 A 
ATOM      9  C   UNL A   1      36.671  30.058  27.122  1.00  0.00     0.014 A 
ATOM     10  C   UNL A   1      37.300  29.231  29.725  1.00  0.00     0.010 A 
ATOM     11  C   UNL A   1      37.979  29.699  27.442  1.00  0.00     0.010 A 
ATOM     12  C   UNL A   1      38.308  29.318  28.753  1.00  0.00    -0.014 A 
BRANCH  12  13
ATOM     13  C   UNL A   1      39.702  28.958  29.099  1.00  0.00     0.031 A 
ATOM     14  C   UNL A   1      40.626  29.964  29.720  1.00  0.00     0.074 A 
ATOM     15  C   UNL A   1      40.132  27.715  28.816  1.00  0.00     0.049 A 
ATOM     16  N   UNL A   1      41.901  29.851  29.989  1.00  0.00    -0.248 NA
ATOM     17  C   UNL A   1      40.048  31.269  30.076  1.00  0.00     0.031 C 
ATOM     18  C   UNL A   1      39.312  26.655  28.221  1.00  0.00     0.029 A 
ATOM     19  N   UNL A   1      41.363  27.136  28.975  1.00  0.00    -0.354 N 
ATOM     20  C   UNL A   1      42.289  31.077  30.514  1.00  0.00     0.074 A 
ATOM     21  C   UNL A   1      41.114  31.923  30.519  1.00  0.00     0.031 C 
ATOM     22  C   UNL A   1      40.061  25.554  28.072  1.00  0.00     0.029 A 
ATOM     23  C   UNL A   1      41.424  25.851  28.495  1.00  0.00     0.049 A 
ATOM     24  H   UNL A   1      42.127  27.596  29.392  1.00  0.00     0.167 HD
ATOM     25  C   UNL A   1      43.516  31.461  30.942  1.00  0.00     0.031 A 
ATOM     26  C   UNL A   1      42.469  25.013  28.366  1.00  0.00     0.031 A 
ATOM     27  C   UNL A   1      44.676  30.608  30.924  1.00  0.00     0.049 A 
ATOM     28  C   UNL A   1      43.824  25.465  28.818  1.00  0.00     0.074 A 
ATOM     29  C   UNL A   1      45.958  30.888  31.362  1.00  0.00     0.029 A 
ATOM     30  N   UNL A   1      44.695  29.310  30.434  1.00  0.00    -0.354 N 
ATOM     31  N   UNL A   1      44.170  26.622  29.331  1.00  0.00    -0.248 NA
ATOM     32  C   UNL A   1      44.926  24.507  28.678  1.00  0.00     0.031 C 
ATOM     33  C   UNL A   1      46.763  29.776  31.094  1.00  0.00     0.029 A 
ATOM     34  C   UNL A   1      45.971  28.783  30.537  1.00  0.00     0.049 A 
ATOM     35  H   UNL A   1      43.915  28.833  30.067  1.00  0.00     0.167 HD
ATOM     36  C   UNL A   1      45.530  26.527  29.593  1.00  0.00     0.074 A 
ATOM     37  C   UNL A   1      45.941  25.196  29.185  1.00  0.00     0.031 C 
ATOM     38  C   UNL A   1      46.360  27.456  30.125  1.00  0.00     0.031 A 
BRANCH  25  39
ATOM     39  C   UNL A   1      43.671  32.883  31.414  1.00  0.00    -0.014 A 
ATOM     40  C   UNL A   1      43.995  33.922  30.523  1.00  0.00     0.010 A 
ATOM     41  C   UNL A   1      43.486  33.184  32.776  1.00  0.00     0.010 A 
ATOM     42  C   UNL A   1      44.189  35.224  30.995  1.00  0.00     0.020 A 
ATOM     43  C   UNL A   1      43.655  34.489  33.248  1.00  0.00     0.020 A 
ATOM     44  C   UNL A   1      44.033  35.496  32.357  1.00  0.00     0.054 A 
BRANCH  44  45
ATOM     45  S   UNL A   1      44.318  37.185  32.953  1.00  0.00     0.124 S 
ATOM     46  O   UNL A   1      45.604  37.048  33.634  1.00  0.00    -0.237 OA
ATOM     47  O   UNL A   1      44.344  37.964  31.718  1.00  0.00    -0.237 OA
ATOM     48  O   UNL A   1      43.175  37.445  33.824  1.00  0.00    -0.744 OA
ENDBRANCH  44  45
ENDBRANCH  25  39
BRANCH  26  49
ATOM     49  C   UNL A   1      42.241  23.678  27.756  1.00  0.00    -0.014 A 
ATOM     50  C   UNL A   1      42.510  23.462  26.395  1.00  0.00     0.010 A 
ATOM     51  C   UNL A   1      41.870  22.588  28.567  1.00  0.00     0.010 A 
ATOM     52  C   UNL A   1      42.430  22.174  25.858  1.00  0.00     0.020 A 
ATOM     53  C   UNL A   1      41.811  21.297  28.039  1.00  0.00     0.020 A 
ATOM     54  C   UNL A   1      42.093  21.099  26.686  1.00  0.00     0.054 A 
BRANCH  54  55
ATOM     55  S   UNL A   1      42.113  19.420  25.996  1.00  0.00     0.124 S 
ATOM     56  O   UNL A   1      42.652  18.642  27.106  1.00  0.00    -0.237 OA
ATOM     57  O   UNL A   1      40.704  19.189  25.686  1.00  0.00    -0.237 OA
ATOM     58  O   UNL A   1      42.985  19.542  24.830  1.00  0.00    -0.744 OA
ENDBRANCH  54  55
ENDBRANCH  26  49
BRANCH  38  59
ATOM     59  C   UNL A   1      47.795  27.063  30.333  1.00  0.00    -0.014 A 
ATOM     60  C   UNL A   1      48.759  27.283  29.334  1.00  0.00     0.010 A 
ATOM     61  C   UNL A   1      48.195  26.548  31.579  1.00  0.00     0.010 A 
ATOM     62  C   UNL A   1      50.103  26.989  29.579  1.00  0.00     0.020 A 
ATOM     63  C   UNL A   1      49.540  26.271  31.833  1.00  0.00     0.020 A 
ATOM     64  C   UNL A   1      50.485  26.489  30.829  1.00  0.00     0.054 A 
BRANCH  64  65
ATOM     65  S   UNL A   1      52.246  26.194  31.152  1.00  0.00     0.124 S 
ATOM     66  O   UNL A   1      52.222  24.882  31.792  1.00  0.00    -0.237 OA
ATOM     67  O   UNL A   1      52.829  26.230  29.813  1.00  0.00    -0.237 OA
ATOM     68  O   UNL A   1      52.628  27.305  32.020  1.00  0.00    -0.744 OA
ENDBRANCH  64  65
ENDBRANCH  38  59
ENDBRANCH  12  13
ENDBRANCH   5   7
ENDBRANCH   2   3
ENDBRANCH   1   2
BRANCH   1  69
ATOM     69  C   UNL A   1      32.270  28.567  24.504  1.00  0.00     0.023 C 
BRANCH  69  70
ATOM     70  C   UNL A   1      31.609  27.425  23.723  1.00  0.00     0.116 C 
BRANCH  70  71
ATOM     71  N   UNL A   1      32.366  27.034  22.549  1.00  0.00    -0.351 N 
ATOM     72  C   UNL A   1      32.884  25.842  22.139  1.00  0.00     0.278 C 
ATOM     73  H   UNL A   1      32.540  27.776  21.925  1.00  0.00     0.163 HD
ATOM     74  O   UNL A   1      33.358  25.837  20.992  1.00  0.00    -0.268 OA
BRANCH  72  75
ATOM     75  C   UNL A   1      33.045  24.569  23.008  1.00  0.00     0.274 C 
ATOM     76  C   UNL A   1      34.065  23.606  22.363  1.00  0.00     0.085 C 
ATOM     77  N   UNL A   1      33.499  24.808  24.406  1.00  0.00    -0.322 N 
ATOM     78  C   UNL A   1      34.905  23.111  23.534  1.00  0.00     0.054 C 
ATOM     79  C   UNL A   1      34.871  24.313  24.454  1.00  0.00     0.188 C 
ATOM     80  H   UNL A   1      33.484  25.801  24.641  1.00  0.00     0.349 HD
ATOM     81  C   UNL A   1      36.344  22.722  23.224  1.00  0.00     0.010 C 
ATOM     82  C   UNL A   1      35.639  24.192  25.755  1.00  0.00     0.065 C 
ATOM     83  C   UNL A   1      37.128  22.510  24.526  1.00  0.00     0.001 C 
ATOM     84  C   UNL A   1      37.067  23.719  25.468  1.00  0.00     0.006 C 
BRANCH  77  85
ATOM     85  C   UNL A   1      32.585  24.328  25.451  1.00  0.00     0.265 C 
BRANCH  85  86
ATOM     86  C   UNL A   1      31.528  23.232  25.170  1.00  0.00     0.093 C 
BRANCH  86  87
ATOM     87  C   UNL A   1      31.904  21.754  25.360  1.00  0.00     0.123 C 
ATOM     88  C   UNL A   1      33.114  21.444  26.235  1.00  0.00     0.034 C 
ATOM     89  O   UNL A   1      32.096  21.062  24.124  1.00  0.00    -0.378 OA
ATOM     90  C   UNL A   1      33.890  20.391  25.469  1.00  0.00     0.031 C 
ATOM     91  C   UNL A   1      32.937  19.937  24.389  1.00  0.00     0.160 C 
ENDBRANCH  86  87
ENDBRANCH  85  86
ENDBRANCH  77  85
ENDBRANCH  72  75
ENDBRANCH  70  71
ENDBRANCH  69  70
ENDBRANCH   1  69
TORSDOF 17
ENDMDL
MODEL 3
REMARK VINA RESULT:     -11.4      1.112      2.405
REMARK SMILES O=C(NCCCCNC(=O)[C@H]1C[C@H]2CCCC[C@@H]2[N@@H+]1CC[C@@H]1CCCO1)c1ccc(-c2c3nc(c(-c4ccc(S(=O)(=O)[O-])cc4)c4ccc([nH]4)c(-c4ccc(S(=O)(=O)[O-])cc4)c4nc(c(-c5ccc(S(=O)(=O)[O-])cc5)c5ccc2[nH]5)C=C4)C=C3)cc1
REMARK SMILES IDX 5 1 4 2 3 3 1 4 2 5 27 7 28 8 86 9 29 10 85 11 30 12 31 13
REMARK SMILES IDX 32 14 79 15 33 16 84 17 78 18 80 19 34 20 83 21 77 22 76 23
REMARK SMILES IDX 35 25 65 26 46 27 64 28 47 29 50 30 63 31 81 32 48 33 49 34
REMARK SMILES IDX 62 36 82 37 51 38 36 39 37 40 45 41 38 42 44 43 39 44 40 45
REMARK SMILES IDX 41 46 42 47 43 48 66 49 67 50 75 51 68 52 74 53 69 54 70 55
REMARK SMILES IDX 71 56 72 57 73 58 52 59 53 60 61 61 54 62 60 63 55 64 56 65
REMARK SMILES IDX 57 66 58 67 59 68 6 69 7 70 8 71 9 72 10 74 11 75 12 76
REMARK SMILES IDX 19 77 13 78 18 79 14 81 17 82 15 83 16 84 20 85 21 86 22 87
REMARK SMILES IDX 23 88 26 89 24 90 25 91
REMARK H PARENT 3 6 80 24 50 35 8 73 19 80
REMARK Flexibility Score: inf
ROOT
ATOM      1  C   UNL A   1      32.555  27.799  25.840  1.00  0.00     0.023 C 
ENDROOT
BRANCH   1   2
ATOM      2  C   UNL A   1      33.584  28.369  26.803  1.00  0.00     0.116 C 
BRANCH   2   3
ATOM      3  N   UNL A   1      33.403  29.781  27.115  1.00  0.00    -0.352 N 
ATOM      4  O   UNL A   1      34.018  31.785  27.976  1.00  0.00    -0.269 OA
ATOM      5  C   UNL A   1      34.309  30.626  27.715  1.00  0.00     0.251 C 
ATOM      6  H   UNL A   1      32.535  30.175  26.868  1.00  0.00     0.163 HD
BRANCH   5   7
ATOM      7  C   UNL A   1      35.629  30.075  28.080  1.00  0.00     0.039 A 
ATOM      8  C   UNL A   1      35.860  29.618  29.380  1.00  0.00     0.014 A 
ATOM      9  C   UNL A   1      36.662  30.124  27.142  1.00  0.00     0.014 A 
ATOM     10  C   UNL A   1      37.158  29.343  29.788  1.00  0.00     0.010 A 
ATOM     11  C   UNL A   1      37.953  29.774  27.535  1.00  0.00     0.010 A 
ATOM     12  C   UNL A   1      38.214  29.415  28.867  1.00  0.00    -0.014 A 
BRANCH  12  13
ATOM     13  C   UNL A   1      39.589  29.064  29.289  1.00  0.00     0.031 A 
ATOM     14  C   UNL A   1      40.450  30.057  30.014  1.00  0.00     0.074 A 
ATOM     15  C   UNL A   1      40.063  27.843  28.981  1.00  0.00     0.049 A 
ATOM     16  N   UNL A   1      41.706  29.954  30.363  1.00  0.00    -0.248 NA
ATOM     17  C   UNL A   1      39.824  31.334  30.388  1.00  0.00     0.031 C 
ATOM     18  C   UNL A   1      39.305  26.797  28.287  1.00  0.00     0.029 A 
ATOM     19  N   UNL A   1      41.292  27.279  29.197  1.00  0.00    -0.354 N 
ATOM     20  C   UNL A   1      42.034  31.162  30.966  1.00  0.00     0.074 A 
ATOM     21  C   UNL A   1      40.844  31.987  30.929  1.00  0.00     0.031 C 
ATOM     22  C   UNL A   1      40.085  25.717  28.140  1.00  0.00     0.029 A 
ATOM     23  C   UNL A   1      41.411  26.018  28.666  1.00  0.00     0.049 A 
ATOM     24  H   UNL A   1      42.017  27.732  29.684  1.00  0.00     0.167 HD
ATOM     25  C   UNL A   1      43.222  31.547  31.492  1.00  0.00     0.031 A 
ATOM     26  C   UNL A   1      42.478  25.205  28.571  1.00  0.00     0.031 A 
ATOM     27  C   UNL A   1      44.397  30.716  31.515  1.00  0.00     0.049 A 
ATOM     28  C   UNL A   1      43.791  25.659  29.132  1.00  0.00     0.074 A 
ATOM     29  C   UNL A   1      45.642  30.998  32.049  1.00  0.00     0.029 A 
ATOM     30  N   UNL A   1      44.475  29.441  30.970  1.00  0.00    -0.354 N 
ATOM     31  N   UNL A   1      44.079  26.798  29.717  1.00  0.00    -0.248 NA
ATOM     32  C   UNL A   1      44.919  24.728  29.024  1.00  0.00     0.031 C 
ATOM     33  C   UNL A   1      46.485  29.913  31.787  1.00  0.00     0.029 A 
ATOM     34  C   UNL A   1      45.752  28.933  31.135  1.00  0.00     0.049 A 
ATOM     35  H   UNL A   1      43.731  28.969  30.531  1.00  0.00     0.167 HD
ATOM     36  C   UNL A   1      45.420  26.714  30.065  1.00  0.00     0.074 A 
ATOM     37  C   UNL A   1      45.884  25.410  29.628  1.00  0.00     0.031 C 
ATOM     38  C   UNL A   1      46.194  27.633  30.693  1.00  0.00     0.031 A 
BRANCH  25  39
ATOM     39  C   UNL A   1      43.316  32.949  32.036  1.00  0.00    -0.014 A 
ATOM     40  C   UNL A   1      43.737  34.022  31.230  1.00  0.00     0.010 A 
ATOM     41  C   UNL A   1      42.974  33.195  33.378  1.00  0.00     0.010 A 
ATOM     42  C   UNL A   1      43.871  35.304  31.773  1.00  0.00     0.020 A 
ATOM     43  C   UNL A   1      43.084  34.480  33.918  1.00  0.00     0.020 A 
ATOM     44  C   UNL A   1      43.558  35.521  33.118  1.00  0.00     0.054 A 
BRANCH  44  45
ATOM     45  S   UNL A   1      43.767  37.185  33.810  1.00  0.00     0.124 S 
ATOM     46  O   UNL A   1      42.597  37.297  34.677  1.00  0.00    -0.237 OA
ATOM     47  O   UNL A   1      45.051  37.090  34.500  1.00  0.00    -0.237 OA
ATOM     48  O   UNL A   1      43.759  38.053  32.635  1.00  0.00    -0.744 OA
ENDBRANCH  44  45
ENDBRANCH  25  39
BRANCH  26  49
ATOM     49  C   UNL A   1      42.318  23.895  27.888  1.00  0.00    -0.014 A 
ATOM     50  C   UNL A   1      42.654  23.753  26.532  1.00  0.00     0.010 A 
ATOM     51  C   UNL A   1      41.946  22.757  28.630  1.00  0.00     0.010 A 
ATOM     52  C   UNL A   1      42.637  22.490  25.933  1.00  0.00     0.020 A 
ATOM     53  C   UNL A   1      41.950  21.492  28.040  1.00  0.00     0.020 A 
ATOM     54  C   UNL A   1      42.296  21.367  26.693  1.00  0.00     0.054 A 
BRANCH  54  55
ATOM     55  S   UNL A   1      42.398  19.726  25.926  1.00  0.00     0.124 S 
ATOM     56  O   UNL A   1      41.050  19.555  25.395  1.00  0.00    -0.237 OA
ATOM     57  O   UNL A   1      43.453  19.907  24.930  1.00  0.00    -0.237 OA
ATOM     58  O   UNL A   1      42.752  18.850  27.041  1.00  0.00    -0.744 OA
ENDBRANCH  54  55
ENDBRANCH  26  49
BRANCH  38  59
ATOM     59  C   UNL A   1      47.620  27.255  30.979  1.00  0.00    -0.014 A 
ATOM     60  C   UNL A   1      47.960  26.540  32.140  1.00  0.00     0.010 A 
ATOM     61  C   UNL A   1      48.615  27.545  30.029  1.00  0.00     0.010 A 
ATOM     62  C   UNL A   1      49.278  26.124  32.347  1.00  0.00     0.020 A 
ATOM     63  C   UNL A   1      49.929  27.114  30.223  1.00  0.00     0.020 A 
ATOM     64  C   UNL A   1      50.253  26.410  31.384  1.00  0.00     0.054 A 
BRANCH  64  65
ATOM     65  S   UNL A   1      51.938  25.787  31.634  1.00  0.00     0.124 S 
ATOM     66  O   UNL A   1      52.537  25.993  30.318  1.00  0.00    -0.237 OA
ATOM     67  O   UNL A   1      52.447  26.651  32.697  1.00  0.00    -0.237 OA
ATOM     68  O   UNL A   1      51.738  24.392  32.018  1.00  0.00    -0.744 OA
ENDBRANCH  64  65
ENDBRANCH  38  59
ENDBRANCH  12  13
ENDBRANCH   5   7
ENDBRANCH   2   3
ENDBRANCH   1   2
BRANCH   1  69
ATOM     69  C   UNL A   1      31.298  27.249  26.498  1.00  0.00     0.023 C 
BRANCH  69  70
ATOM     70  C   UNL A   1      30.456  26.285  25.654  1.00  0.00     0.116 C 
BRANCH  70  71
ATOM     71  N   UNL A   1      30.086  25.082  26.375  1.00  0.00    -0.351 N 
ATOM     72  C   UNL A   1      30.766  23.940  26.674  1.00  0.00     0.278 C 
ATOM     73  H   UNL A   1      29.162  25.093  26.715  1.00  0.00     0.163 HD
ATOM     74  O   UNL A   1      30.181  23.161  27.444  1.00  0.00    -0.268 OA
BRANCH  72  75
ATOM     75  C   UNL A   1      32.108  23.484  26.046  1.00  0.00     0.274 C 
ATOM     76  C   UNL A   1      32.583  22.166  26.696  1.00  0.00     0.085 C 
ATOM     77  N   UNL A   1      32.074  23.255  24.574  1.00  0.00    -0.322 N 
ATOM     78  C   UNL A   1      33.079  21.328  25.523  1.00  0.00     0.054 C 
ATOM     79  C   UNL A   1      32.172  21.808  24.410  1.00  0.00     0.188 C 
ATOM     80  H   UNL A   1      31.203  23.589  24.163  1.00  0.00     0.349 HD
ATOM     81  C   UNL A   1      32.978  19.817  25.675  1.00  0.00     0.010 C 
ATOM     82  C   UNL A   1      32.368  21.163  23.052  1.00  0.00     0.065 C 
ATOM     83  C   UNL A   1      33.254  19.130  24.331  1.00  0.00     0.001 C 
ATOM     84  C   UNL A   1      32.353  19.638  23.199  1.00  0.00     0.006 C 
BRANCH  77  85
ATOM     85  C   UNL A   1      33.010  24.075  23.793  1.00  0.00     0.265 C 
BRANCH  85  86
ATOM     86  C   UNL A   1      34.211  24.795  24.452  1.00  0.00     0.093 C 
BRANCH  86  87
ATOM     87  C   UNL A   1      35.570  24.080  24.530  1.00  0.00     0.123 C 
ATOM     88  C   UNL A   1      35.850  22.991  23.500  1.00  0.00     0.034 C 
ATOM     89  O   UNL A   1      35.831  23.513  25.816  1.00  0.00    -0.378 OA
ATOM     90  C   UNL A   1      36.459  21.851  24.292  1.00  0.00     0.031 C 
ATOM     91  C   UNL A   1      36.782  22.461  25.636  1.00  0.00     0.160 C 
ENDBRANCH  86  87
ENDBRANCH  85  86
ENDBRANCH  77  85
ENDBRANCH  72  75
ENDBRANCH  70  71
ENDBRANCH  69  70
ENDBRANCH   1  69
TORSDOF 17
ENDMDL
