MODEL 1
REMARK VINA RESULT:     -10.7      0.000      0.000
REMARK SMILES C[C@H](C(=O)NCCCCNC(=O)c1ccc(-c2c3nc(c(-c4ccc(S(=O)(=O)[O-])cc4)c4ccc([nH]4)c(-c4ccc(S(=O)(=O)[O-])cc4)c4nc(c(-c5ccc(S(=O)(=O)[O-])cc5)c5ccc2[nH]5)C=C4)C=C3)cc1)[C@H](C)[N@@H+]1CC[C@H]([NH+]2CCCCC2)C1
REMARK SMILES IDX 7 1 6 2 5 3 3 4 4 5 2 7 1 8 73 9 74 10 75 11 76 12 85 13
REMARK SMILES IDX 77 15 78 16 79 17 80 18 84 19 81 21 83 22 82 23 8 24 9 25
REMARK SMILES IDX 10 26 11 27 12 29 13 30 14 31 72 32 15 33 71 34 16 35 17 36
REMARK SMILES IDX 18 37 65 38 19 39 70 40 64 41 66 42 20 43 69 44 63 45 62 46
REMARK SMILES IDX 21 48 51 49 32 50 50 51 33 52 36 53 49 54 67 55 34 56 35 57
REMARK SMILES IDX 48 59 68 60 37 61 22 62 23 63 31 64 24 65 30 66 25 67 26 68
REMARK SMILES IDX 27 69 28 70 29 71 52 72 53 73 61 74 54 75 60 76 55 77 56 78
REMARK SMILES IDX 57 79 58 80 59 81 38 82 39 83 47 84 40 85 46 86 41 87 42 88
REMARK SMILES IDX 43 89 44 90 45 91
REMARK H PARENT 5 6 75 14 79 20 10 28 66 47 36 58
REMARK Flexibility Score: inf
ROOT
ATOM      1  C   UNL A   1      32.469  26.687  26.074  1.00  0.00     0.023 C 
ENDROOT
BRANCH   1   2
ATOM      2  C   UNL A   1      33.808  25.995  25.826  1.00  0.00     0.116 C 
BRANCH   2   3
ATOM      3  N   UNL A   1      34.123  25.896  24.413  1.00  0.00    -0.356 N 
ATOM      4  C   UNL A   1      33.469  25.213  23.426  1.00  0.00     0.228 C 
ATOM      5  O   UNL A   1      33.887  25.323  22.273  1.00  0.00    -0.275 OA
ATOM      6  H   UNL A   1      34.923  26.391  24.124  1.00  0.00     0.163 HD
BRANCH   4   7
ATOM      7  C   UNL A   1      32.289  24.310  23.788  1.00  0.00     0.133 C 
ATOM      8  C   UNL A   1      31.148  24.488  22.780  1.00  0.00     0.024 C 
BRANCH   7   9
ATOM      9  C   UNL A   1      32.793  22.840  23.919  1.00  0.00     0.193 C 
ATOM     10  C   UNL A   1      32.526  22.064  22.620  1.00  0.00     0.076 C 
BRANCH   9  11
ATOM     11  N   UNL A   1      32.261  22.276  25.196  1.00  0.00    -0.327 N 
ATOM     12  C   UNL A   1      33.243  22.423  26.293  1.00  0.00     0.269 C 
ATOM     13  C   UNL A   1      31.918  20.839  25.244  1.00  0.00     0.328 C 
ATOM     14  H   UNL A   1      31.402  22.816  25.286  1.00  0.00     0.348 HD
ATOM     15  C   UNL A   1      34.115  21.181  26.192  1.00  0.00     0.132 C 
ATOM     16  C   UNL A   1      33.075  20.085  25.962  1.00  0.00     0.245 C 
BRANCH  16  17
ATOM     17  N   UNL A   1      33.531  18.801  25.391  1.00  0.00    -0.328 N 
ATOM     18  C   UNL A   1      32.864  17.625  25.961  1.00  0.00     0.262 C 
ATOM     19  C   UNL A   1      33.441  18.795  23.922  1.00  0.00     0.262 C 
ATOM     20  H   UNL A   1      34.513  18.724  25.657  1.00  0.00     0.348 HD
ATOM     21  C   UNL A   1      33.423  16.313  25.417  1.00  0.00     0.062 C 
ATOM     22  C   UNL A   1      34.034  17.517  23.325  1.00  0.00     0.062 C 
ATOM     23  C   UNL A   1      33.363  16.275  23.900  1.00  0.00     0.012 C 
ENDBRANCH  16  17
ENDBRANCH   9  11
ENDBRANCH   7   9
ENDBRANCH   4   7
ENDBRANCH   2   3
ENDBRANCH   1   2
BRANCH   1  24
ATOM     24  C   UNL A   1      32.537  28.206  26.189  1.00  0.00     0.023 C 
BRANCH  24  25
ATOM     25  C   UNL A   1      33.854  28.754  26.723  1.00  0.00     0.116 C 
BRANCH  25  26
ATOM     26  N   UNL A   1      33.715  30.040  27.393  1.00  0.00    -0.352 N 
ATOM     27  C   UNL A   1      34.613  30.683  28.211  1.00  0.00     0.251 C 
ATOM     28  H   UNL A   1      32.865  30.512  27.237  1.00  0.00     0.163 HD
ATOM     29  O   UNL A   1      34.291  31.717  28.788  1.00  0.00    -0.269 OA
BRANCH  27  30
ATOM     30  C   UNL A   1      35.952  30.094  28.418  1.00  0.00     0.039 A 
ATOM     31  C   UNL A   1      36.883  30.143  27.377  1.00  0.00     0.014 A 
ATOM     32  C   UNL A   1      36.302  29.544  29.654  1.00  0.00     0.014 A 
ATOM     33  C   UNL A   1      38.190  29.712  27.603  1.00  0.00     0.010 A 
ATOM     34  C   UNL A   1      37.624  29.193  29.901  1.00  0.00     0.010 A 
ATOM     35  C   UNL A   1      38.581  29.271  28.879  1.00  0.00    -0.014 A 
BRANCH  35  36
ATOM     36  C   UNL A   1      39.986  28.889  29.170  1.00  0.00     0.031 A 
ATOM     37  C   UNL A   1      40.922  29.887  29.795  1.00  0.00     0.074 A 
ATOM     38  C   UNL A   1      40.439  27.674  28.804  1.00  0.00     0.049 A 
ATOM     39  N   UNL A   1      42.197  29.769  30.059  1.00  0.00    -0.248 NA
ATOM     40  C   UNL A   1      40.356  31.202  30.141  1.00  0.00     0.031 C 
ATOM     41  C   UNL A   1      39.644  26.633  28.145  1.00  0.00     0.029 A 
ATOM     42  N   UNL A   1      41.684  27.110  28.925  1.00  0.00    -0.354 N 
ATOM     43  C   UNL A   1      42.592  30.996  30.577  1.00  0.00     0.074 A 
ATOM     44  C   UNL A   1      41.432  31.861  30.544  1.00  0.00     0.031 C 
ATOM     45  C   UNL A   1      40.412  25.550  27.949  1.00  0.00     0.029 A 
ATOM     46  C   UNL A   1      41.763  25.830  28.429  1.00  0.00     0.049 A 
ATOM     47  H   UNL A   1      42.450  27.579  29.329  1.00  0.00     0.167 HD
ATOM     48  C   UNL A   1      43.802  31.366  31.058  1.00  0.00     0.031 A 
ATOM     49  C   UNL A   1      42.803  24.978  28.363  1.00  0.00     0.031 A 
ATOM     50  C   UNL A   1      44.949  30.499  31.106  1.00  0.00     0.049 A 
ATOM     51  C   UNL A   1      44.137  25.407  28.909  1.00  0.00     0.074 A 
ATOM     52  C   UNL A   1      46.202  30.757  31.631  1.00  0.00     0.029 A 
ATOM     53  N   UNL A   1      44.980  29.203  30.611  1.00  0.00    -0.354 N 
ATOM     54  N   UNL A   1      44.474  26.550  29.457  1.00  0.00    -0.248 NA
ATOM     55  C   UNL A   1      45.229  24.426  28.838  1.00  0.00     0.031 C 
ATOM     56  C   UNL A   1      47.006  29.633  31.414  1.00  0.00     0.029 A 
ATOM     57  C   UNL A   1      46.238  28.656  30.800  1.00  0.00     0.049 A 
ATOM     58  H   UNL A   1      44.220  28.742  30.188  1.00  0.00     0.167 HD
ATOM     59  C   UNL A   1      45.810  26.418  29.818  1.00  0.00     0.074 A 
ATOM     60  C   UNL A   1      46.216  25.081  29.439  1.00  0.00     0.031 C 
ATOM     61  C   UNL A   1      46.626  27.324  30.413  1.00  0.00     0.031 A 
BRANCH  48  62
ATOM     62  C   UNL A   1      43.941  32.777  31.565  1.00  0.00    -0.014 A 
ATOM     63  C   UNL A   1      43.671  33.095  32.909  1.00  0.00     0.010 A 
ATOM     64  C   UNL A   1      44.359  33.797  30.691  1.00  0.00     0.010 A 
ATOM     65  C   UNL A   1      43.763  34.415  33.356  1.00  0.00     0.020 A 
ATOM     66  C   UNL A   1      44.479  35.114  31.142  1.00  0.00     0.020 A 
ATOM     67  C   UNL A   1      44.159  35.418  32.466  1.00  0.00     0.054 A 
BRANCH  67  68
ATOM     68  S   UNL A   1      44.271  37.124  33.072  1.00  0.00     0.124 S 
ATOM     69  O   UNL A   1      44.213  37.889  31.828  1.00  0.00    -0.237 OA
ATOM     70  O   UNL A   1      43.096  37.237  33.933  1.00  0.00    -0.237 OA
ATOM     71  O   UNL A   1      45.555  37.162  33.767  1.00  0.00    -0.744 OA
ENDBRANCH  67  68
ENDBRANCH  48  62
BRANCH  49  72
ATOM     72  C   UNL A   1      42.614  23.621  27.783  1.00  0.00    -0.014 A 
ATOM     73  C   UNL A   1      42.912  23.380  26.430  1.00  0.00     0.010 A 
ATOM     74  C   UNL A   1      42.164  22.557  28.585  1.00  0.00     0.010 A 
ATOM     75  C   UNL A   1      42.753  22.103  25.887  1.00  0.00     0.020 A 
ATOM     76  C   UNL A   1      42.029  21.272  28.051  1.00  0.00     0.020 A 
ATOM     77  C   UNL A   1      42.316  21.054  26.703  1.00  0.00     0.054 A 
BRANCH  77  78
ATOM     78  S   UNL A   1      42.184  19.390  25.993  1.00  0.00     0.124 S 
ATOM     79  O   UNL A   1      42.721  18.559  27.065  1.00  0.00    -0.237 OA
ATOM     80  O   UNL A   1      40.749  19.262  25.750  1.00  0.00    -0.237 OA
ATOM     81  O   UNL A   1      43.007  19.468  24.787  1.00  0.00    -0.744 OA
ENDBRANCH  77  78
ENDBRANCH  49  72
BRANCH  61  82
ATOM     82  C   UNL A   1      48.034  26.889  30.718  1.00  0.00    -0.014 A 
ATOM     83  C   UNL A   1      49.097  27.212  29.857  1.00  0.00     0.010 A 
ATOM     84  C   UNL A   1      48.302  26.197  31.913  1.00  0.00     0.010 A 
ATOM     85  C   UNL A   1      50.402  26.826  30.174  1.00  0.00     0.020 A 
ATOM     86  C   UNL A   1      49.608  25.831  32.245  1.00  0.00     0.020 A 
ATOM     87  C   UNL A   1      50.650  26.136  31.367  1.00  0.00     0.054 A 
BRANCH  87  88
ATOM     88  S   UNL A   1      52.357  25.687  31.778  1.00  0.00     0.124 S 
ATOM     89  O   UNL A   1      53.040  25.885  30.503  1.00  0.00    -0.237 OA
ATOM     90  O   UNL A   1      52.698  26.644  32.829  1.00  0.00    -0.237 OA
ATOM     91  O   UNL A   1      52.253  24.298  32.220  1.00  0.00    -0.744 OA
ENDBRANCH  87  88
ENDBRANCH  61  82
ENDBRANCH  35  36
ENDBRANCH  27  30
ENDBRANCH  25  26
ENDBRANCH  24  25
ENDBRANCH   1  24
TORSDOF 17
ENDMDL
MODEL 2
REMARK VINA RESULT:     -10.7      1.752      2.476
REMARK SMILES C[C@H](C(=O)NCCCCNC(=O)c1ccc(-c2c3nc(c(-c4ccc(S(=O)(=O)[O-])cc4)c4ccc([nH]4)c(-c4ccc(S(=O)(=O)[O-])cc4)c4nc(c(-c5ccc(S(=O)(=O)[O-])cc5)c5ccc2[nH]5)C=C4)C=C3)cc1)[C@H](C)[N@@H+]1CC[C@H]([NH+]2CCCCC2)C1
REMARK SMILES IDX 7 1 6 2 5 3 3 4 4 5 2 7 1 8 73 9 74 10 75 11 76 12 85 13
REMARK SMILES IDX 77 15 78 16 79 17 80 18 84 19 81 21 83 22 82 23 8 24 9 25
REMARK SMILES IDX 10 26 11 27 12 29 13 30 14 31 72 32 15 33 71 34 16 35 17 36
REMARK SMILES IDX 18 37 65 38 19 39 70 40 64 41 66 42 20 43 69 44 63 45 62 46
REMARK SMILES IDX 21 48 51 49 32 50 50 51 33 52 36 53 49 54 67 55 34 56 35 57
REMARK SMILES IDX 48 59 68 60 37 61 22 62 23 63 31 64 24 65 30 66 25 67 26 68
REMARK SMILES IDX 27 69 28 70 29 71 52 72 53 73 61 74 54 75 60 76 55 77 56 78
REMARK SMILES IDX 57 79 58 80 59 81 38 82 39 83 47 84 40 85 46 86 41 87 42 88
REMARK SMILES IDX 43 89 44 90 45 91
REMARK H PARENT 5 6 75 14 79 20 10 28 66 47 36 58
REMARK Flexibility Score: inf
ROOT
ATOM      1  C   UNL A   1      31.483  29.361  26.360  1.00  0.00     0.023 C 
ENDROOT
BRANCH   1   2
ATOM      2  C   UNL A   1      31.320  29.509  24.848  1.00  0.00     0.116 C 
BRANCH   2   3
ATOM      3  N   UNL A   1      32.566  29.293  24.136  1.00  0.00    -0.356 N 
ATOM      4  C   UNL A   1      32.943  28.241  23.350  1.00  0.00     0.228 C 
ATOM      5  O   UNL A   1      34.038  28.300  22.791  1.00  0.00    -0.275 OA
ATOM      6  H   UNL A   1      33.236  30.007  24.234  1.00  0.00     0.163 HD
BRANCH   4   7
ATOM      7  C   UNL A   1      32.028  27.021  23.233  1.00  0.00     0.133 C 
ATOM      8  C   UNL A   1      30.880  27.301  22.258  1.00  0.00     0.024 C 
BRANCH   7   9
ATOM      9  C   UNL A   1      32.887  25.774  22.857  1.00  0.00     0.193 C 
ATOM     10  C   UNL A   1      32.805  25.503  21.346  1.00  0.00     0.076 C 
BRANCH   9  11
ATOM     11  N   UNL A   1      32.531  24.662  23.790  1.00  0.00    -0.327 N 
ATOM     12  C   UNL A   1      32.492  25.135  25.191  1.00  0.00     0.269 C 
ATOM     13  C   UNL A   1      33.422  23.485  23.857  1.00  0.00     0.328 C 
ATOM     14  H   UNL A   1      31.640  24.371  23.388  1.00  0.00     0.348 HD
ATOM     15  C   UNL A   1      33.924  24.990  25.681  1.00  0.00     0.132 C 
ATOM     16  C   UNL A   1      34.306  23.616  25.131  1.00  0.00     0.245 C 
BRANCH  16  17
ATOM     17  N   UNL A   1      35.742  23.285  25.021  1.00  0.00    -0.328 N 
ATOM     18  C   UNL A   1      36.551  23.757  26.149  1.00  0.00     0.262 C 
ATOM     19  C   UNL A   1      35.953  21.846  24.789  1.00  0.00     0.262 C 
ATOM     20  H   UNL A   1      36.072  23.797  24.202  1.00  0.00     0.348 HD
ATOM     21  C   UNL A   1      38.040  23.480  25.959  1.00  0.00     0.062 C 
ATOM     22  C   UNL A   1      37.429  21.524  24.545  1.00  0.00     0.062 C 
ATOM     23  C   UNL A   1      38.298  22.005  25.701  1.00  0.00     0.012 C 
ENDBRANCH  16  17
ENDBRANCH   9  11
ENDBRANCH   7   9
ENDBRANCH   4   7
ENDBRANCH   2   3
ENDBRANCH   1   2
BRANCH   1  24
ATOM     24  C   UNL A   1      32.441  28.259  26.802  1.00  0.00     0.023 C 
BRANCH  24  25
ATOM     25  C   UNL A   1      33.772  28.747  27.360  1.00  0.00     0.116 C 
BRANCH  25  26
ATOM     26  N   UNL A   1      33.768  30.160  27.710  1.00  0.00    -0.352 N 
ATOM     27  C   UNL A   1      34.770  30.905  28.285  1.00  0.00     0.251 C 
ATOM     28  H   UNL A   1      32.937  30.648  27.507  1.00  0.00     0.163 HD
ATOM     29  O   UNL A   1      34.561  32.067  28.619  1.00  0.00    -0.269 OA
BRANCH  27  30
ATOM     30  C   UNL A   1      36.085  30.278  28.532  1.00  0.00     0.039 A 
ATOM     31  C   UNL A   1      37.056  30.320  27.528  1.00  0.00     0.014 A 
ATOM     32  C   UNL A   1      36.373  29.698  29.770  1.00  0.00     0.014 A 
ATOM     33  C   UNL A   1      38.342  29.851  27.795  1.00  0.00     0.010 A 
ATOM     34  C   UNL A   1      37.676  29.308  30.060  1.00  0.00     0.010 A 
ATOM     35  C   UNL A   1      38.673  29.379  29.076  1.00  0.00    -0.014 A 
BRANCH  35  36
ATOM     36  C   UNL A   1      40.055  28.956  29.414  1.00  0.00     0.031 A 
ATOM     37  C   UNL A   1      40.981  29.907  30.122  1.00  0.00     0.074 A 
ATOM     38  C   UNL A   1      40.501  27.748  29.016  1.00  0.00     0.049 A 
ATOM     39  N   UNL A   1      42.240  29.750  30.437  1.00  0.00    -0.248 NA
ATOM     40  C   UNL A   1      40.425  31.217  30.499  1.00  0.00     0.031 C 
ATOM     41  C   UNL A   1      39.718  26.752  28.279  1.00  0.00     0.029 A 
ATOM     42  N   UNL A   1      41.729  27.153  29.169  1.00  0.00    -0.354 N 
ATOM     43  C   UNL A   1      42.634  30.946  31.025  1.00  0.00     0.074 A 
ATOM     44  C   UNL A   1      41.494  31.836  30.978  1.00  0.00     0.031 C 
ATOM     45  C   UNL A   1      40.474  25.663  28.071  1.00  0.00     0.029 A 
ATOM     46  C   UNL A   1      41.806  25.894  28.622  1.00  0.00     0.049 A 
ATOM     47  H   UNL A   1      42.484  27.589  29.626  1.00  0.00     0.167 HD
ATOM     48  C   UNL A   1      43.828  31.270  31.576  1.00  0.00     0.031 A 
ATOM     49  C   UNL A   1      42.832  25.024  28.567  1.00  0.00     0.031 A 
ATOM     50  C   UNL A   1      44.954  30.378  31.637  1.00  0.00     0.049 A 
ATOM     51  C   UNL A   1      44.147  25.401  29.189  1.00  0.00     0.074 A 
ATOM     52  C   UNL A   1      46.187  30.588  32.229  1.00  0.00     0.029 A 
ATOM     53  N   UNL A   1      44.984  29.104  31.089  1.00  0.00    -0.354 N 
ATOM     54  N   UNL A   1      44.480  26.513  29.801  1.00  0.00    -0.248 NA
ATOM     55  C   UNL A   1      45.223  24.401  29.125  1.00  0.00     0.031 C 
ATOM     56  C   UNL A   1      46.979  29.457  32.000  1.00  0.00     0.029 A 
ATOM     57  C   UNL A   1      46.221  28.523  31.310  1.00  0.00     0.049 A 
ATOM     58  H   UNL A   1      44.236  28.677  30.613  1.00  0.00     0.167 HD
ATOM     59  C   UNL A   1      45.795  26.338  30.215  1.00  0.00     0.074 A 
ATOM     60  C   UNL A   1      46.193  25.009  29.797  1.00  0.00     0.031 C 
ATOM     61  C   UNL A   1      46.601  27.200  30.885  1.00  0.00     0.031 A 
BRANCH  48  62
ATOM     62  C   UNL A   1      43.971  32.655  32.148  1.00  0.00    -0.014 A 
ATOM     63  C   UNL A   1      44.390  33.732  31.345  1.00  0.00     0.010 A 
ATOM     64  C   UNL A   1      43.672  32.888  33.503  1.00  0.00     0.010 A 
ATOM     65  C   UNL A   1      44.559  35.004  31.898  1.00  0.00     0.020 A 
ATOM     66  C   UNL A   1      43.814  34.165  34.053  1.00  0.00     0.020 A 
ATOM     67  C   UNL A   1      44.277  35.210  33.252  1.00  0.00     0.054 A 
BRANCH  67  68
ATOM     68  S   UNL A   1      44.506  36.871  33.944  1.00  0.00     0.124 S 
ATOM     69  O   UNL A   1      44.172  36.657  35.351  1.00  0.00    -0.237 OA
ATOM     70  O   UNL A   1      45.913  37.144  33.668  1.00  0.00    -0.237 OA
ATOM     71  O   UNL A   1      43.556  37.691  33.197  1.00  0.00    -0.744 OA
ENDBRANCH  67  68
ENDBRANCH  48  62
BRANCH  49  72
ATOM     72  C   UNL A   1      42.643  23.696  27.920  1.00  0.00    -0.014 A 
ATOM     73  C   UNL A   1      42.921  23.528  26.552  1.00  0.00     0.010 A 
ATOM     74  C   UNL A   1      42.215  22.589  28.674  1.00  0.00     0.010 A 
ATOM     75  C   UNL A   1      42.763  22.278  25.947  1.00  0.00     0.020 A 
ATOM     76  C   UNL A   1      42.081  21.332  28.077  1.00  0.00     0.020 A 
ATOM     77  C   UNL A   1      42.348  21.186  26.715  1.00  0.00     0.054 A 
BRANCH  77  78
ATOM     78  S   UNL A   1      42.217  19.559  25.923  1.00  0.00     0.124 S 
ATOM     79  O   UNL A   1      42.488  18.656  27.036  1.00  0.00    -0.237 OA
ATOM     80  O   UNL A   1      40.843  19.558  25.426  1.00  0.00    -0.237 OA
ATOM     81  O   UNL A   1      43.245  19.602  24.884  1.00  0.00    -0.744 OA
ENDBRANCH  77  78
ENDBRANCH  49  72
BRANCH  61  82
ATOM     82  C   UNL A   1      47.985  26.724  31.233  1.00  0.00    -0.014 A 
ATOM     83  C   UNL A   1      48.258  26.130  32.477  1.00  0.00     0.010 A 
ATOM     84  C   UNL A   1      49.012  26.820  30.276  1.00  0.00     0.010 A 
ATOM     85  C   UNL A   1      49.543  25.666  32.770  1.00  0.00     0.020 A 
ATOM     86  C   UNL A   1      50.291  26.335  30.556  1.00  0.00     0.020 A 
ATOM     87  C   UNL A   1      50.553  25.772  31.806  1.00  0.00     0.054 A 
BRANCH  87  88
ATOM     88  S   UNL A   1      52.200  25.120  32.192  1.00  0.00     0.124 S 
ATOM     89  O   UNL A   1      52.425  25.638  33.538  1.00  0.00    -0.237 OA
ATOM     90  O   UNL A   1      52.004  23.675  32.099  1.00  0.00    -0.237 OA
ATOM     91  O   UNL A   1      53.052  25.694  31.152  1.00  0.00    -0.744 OA
ENDBRANCH  87  88
ENDBRANCH  61  82
ENDBRANCH  35  36
ENDBRANCH  27  30
ENDBRANCH  25  26
ENDBRANCH  24  25
ENDBRANCH   1  24
TORSDOF 17
ENDMDL
MODEL 3
REMARK VINA RESULT:     -10.6      4.614     10.650
REMARK SMILES C[C@H](C(=O)NCCCCNC(=O)c1ccc(-c2c3nc(c(-c4ccc(S(=O)(=O)[O-])cc4)c4ccc([nH]4)c(-c4ccc(S(=O)(=O)[O-])cc4)c4nc(c(-c5ccc(S(=O)(=O)[O-])cc5)c5ccc2[nH]5)C=C4)C=C3)cc1)[C@H](C)[N@@H+]1CC[C@H]([NH+]2CCCCC2)C1
REMARK SMILES IDX 7 1 6 2 5 3 3 4 4 5 2 7 1 8 73 9 74 10 75 11 76 12 85 13
REMARK SMILES IDX 77 15 78 16 79 17 80 18 84 19 81 21 83 22 82 23 8 24 9 25
REMARK SMILES IDX 10 26 11 27 12 29 13 30 14 31 72 32 15 33 71 34 16 35 17 36
REMARK SMILES IDX 18 37 65 38 19 39 70 40 64 41 66 42 20 43 69 44 63 45 62 46
REMARK SMILES IDX 21 48 51 49 32 50 50 51 33 52 36 53 49 54 67 55 34 56 35 57
REMARK SMILES IDX 48 59 68 60 37 61 22 62 23 63 31 64 24 65 30 66 25 67 26 68
REMARK SMILES IDX 27 69 28 70 29 71 52 72 53 73 61 74 54 75 60 76 55 77 56 78
REMARK SMILES IDX 57 79 58 80 59 81 38 82 39 83 47 84 40 85 46 86 41 87 42 88
REMARK SMILES IDX 43 89 44 90 45 91
REMARK H PARENT 5 6 75 14 79 20 10 28 66 47 36 58
REMARK Flexibility Score: inf
ROOT
ATOM      1  C   UNL A   1      37.502  22.715  25.224  1.00  0.00     0.023 C 
ENDROOT
BRANCH   1   2
ATOM      2  C   UNL A   1      36.672  21.475  25.553  1.00  0.00     0.116 C 
BRANCH   2   3
ATOM      3  N   UNL A   1      35.792  21.687  26.687  1.00  0.00    -0.356 N 
ATOM      4  C   UNL A   1      34.429  21.778  26.721  1.00  0.00     0.228 C 
ATOM      5  O   UNL A   1      33.885  21.901  27.820  1.00  0.00    -0.275 OA
ATOM      6  H   UNL A   1      36.243  21.779  27.558  1.00  0.00     0.163 HD
BRANCH   4   7
ATOM      7  C   UNL A   1      33.640  21.775  25.412  1.00  0.00     0.133 C 
ATOM      8  C   UNL A   1      33.146  20.362  25.085  1.00  0.00     0.024 C 
BRANCH   7   9
ATOM      9  C   UNL A   1      32.502  22.838  25.500  1.00  0.00     0.193 C 
ATOM     10  C   UNL A   1      31.136  22.150  25.651  1.00  0.00     0.076 C 
BRANCH   9  11
ATOM     11  N   UNL A   1      32.679  23.808  24.377  1.00  0.00    -0.327 N 
ATOM     12  C   UNL A   1      34.112  24.006  24.066  1.00  0.00     0.269 C 
ATOM     13  C   UNL A   1      32.179  25.188  24.551  1.00  0.00     0.328 C 
ATOM     14  H   UNL A   1      32.121  23.350  23.657  1.00  0.00     0.348 HD
ATOM     15  C   UNL A   1      34.554  25.120  25.001  1.00  0.00     0.132 C 
ATOM     16  C   UNL A   1      33.391  26.106  24.886  1.00  0.00     0.245 C 
BRANCH  16  17
ATOM     17  N   UNL A   1      33.226  27.116  25.951  1.00  0.00    -0.328 N 
ATOM     18  C   UNL A   1      33.807  28.424  25.627  1.00  0.00     0.262 C 
ATOM     19  C   UNL A   1      31.819  27.253  26.359  1.00  0.00     0.262 C 
ATOM     20  H   UNL A   1      33.761  26.759  26.743  1.00  0.00     0.348 HD
ATOM     21  C   UNL A   1      33.701  29.415  26.783  1.00  0.00     0.062 C 
ATOM     22  C   UNL A   1      31.666  28.203  27.550  1.00  0.00     0.062 C 
ATOM     23  C   UNL A   1      32.263  29.572  27.245  1.00  0.00     0.012 C 
ENDBRANCH  16  17
ENDBRANCH   9  11
ENDBRANCH   7   9
ENDBRANCH   4   7
ENDBRANCH   2   3
ENDBRANCH   1   2
BRANCH   1  24
ATOM     24  C   UNL A   1      37.693  23.691  26.380  1.00  0.00     0.023 C 
BRANCH  24  25
ATOM     25  C   UNL A   1      39.104  23.750  26.949  1.00  0.00     0.116 C 
BRANCH  25  26
ATOM     26  N   UNL A   1      40.085  24.273  26.008  1.00  0.00    -0.352 N 
ATOM     27  C   UNL A   1      40.860  25.402  26.116  1.00  0.00     0.251 C 
ATOM     28  H   UNL A   1      40.209  23.746  25.185  1.00  0.00     0.163 HD
ATOM     29  O   UNL A   1      41.560  25.763  25.174  1.00  0.00    -0.269 OA
BRANCH  27  30
ATOM     30  C   UNL A   1      40.810  26.197  27.360  1.00  0.00     0.039 A 
ATOM     31  C   UNL A   1      41.967  26.847  27.797  1.00  0.00     0.014 A 
ATOM     32  C   UNL A   1      39.611  26.341  28.062  1.00  0.00     0.014 A 
ATOM     33  C   UNL A   1      41.900  27.706  28.894  1.00  0.00     0.010 A 
ATOM     34  C   UNL A   1      39.529  27.260  29.102  1.00  0.00     0.010 A 
ATOM     35  C   UNL A   1      40.672  27.951  29.530  1.00  0.00    -0.014 A 
BRANCH  35  36
ATOM     36  C   UNL A   1      40.555  28.927  30.643  1.00  0.00     0.031 A 
ATOM     37  C   UNL A   1      41.447  28.801  31.848  1.00  0.00     0.074 A 
ATOM     38  C   UNL A   1      39.599  29.876  30.604  1.00  0.00     0.049 A 
ATOM     39  N   UNL A   1      41.448  29.506  32.949  1.00  0.00    -0.248 NA
ATOM     40  C   UNL A   1      42.448  27.721  31.824  1.00  0.00     0.031 C 
ATOM     41  C   UNL A   1      38.639  30.072  29.514  1.00  0.00     0.029 A 
ATOM     42  N   UNL A   1      39.270  30.850  31.512  1.00  0.00    -0.354 N 
ATOM     43  C   UNL A   1      42.429  28.943  33.757  1.00  0.00     0.074 A 
ATOM     44  C   UNL A   1      42.966  27.807  33.040  1.00  0.00     0.031 C 
ATOM     45  C   UNL A   1      37.852  31.120  29.804  1.00  0.00     0.029 A 
ATOM     46  C   UNL A   1      38.221  31.645  31.115  1.00  0.00     0.049 A 
ATOM     47  H   UNL A   1      39.741  30.969  32.369  1.00  0.00     0.167 HD
ATOM     48  C   UNL A   1      42.860  29.346  34.975  1.00  0.00     0.031 A 
ATOM     49  C   UNL A   1      37.620  32.678  31.736  1.00  0.00     0.031 A 
ATOM     50  C   UNL A   1      42.336  30.485  35.679  1.00  0.00     0.049 A 
ATOM     51  C   UNL A   1      38.119  33.112  33.087  1.00  0.00     0.074 A 
ATOM     52  C   UNL A   1      42.748  31.013  36.890  1.00  0.00     0.029 A 
ATOM     53  N   UNL A   1      41.287  31.275  35.232  1.00  0.00    -0.354 N 
ATOM     54  N   UNL A   1      39.093  32.607  33.806  1.00  0.00    -0.248 NA
ATOM     55  C   UNL A   1      37.445  34.263  33.704  1.00  0.00     0.031 C 
ATOM     56  C   UNL A   1      41.917  32.097  37.198  1.00  0.00     0.029 A 
ATOM     57  C   UNL A   1      41.023  32.274  36.154  1.00  0.00     0.049 A 
ATOM     58  H   UNL A   1      40.802  31.144  34.386  1.00  0.00     0.167 HD
ATOM     59  C   UNL A   1      39.165  33.394  34.950  1.00  0.00     0.074 A 
ATOM     60  C   UNL A   1      38.145  34.415  34.821  1.00  0.00     0.031 C 
ATOM     61  C   UNL A   1      40.002  33.281  36.011  1.00  0.00     0.031 A 
BRANCH  48  62
ATOM     62  C   UNL A   1      43.952  28.535  35.623  1.00  0.00    -0.014 A 
ATOM     63  C   UNL A   1      45.308  28.816  35.375  1.00  0.00     0.010 A 
ATOM     64  C   UNL A   1      43.620  27.487  36.500  1.00  0.00     0.010 A 
ATOM     65  C   UNL A   1      46.310  28.030  35.949  1.00  0.00     0.020 A 
ATOM     66  C   UNL A   1      44.620  26.716  37.098  1.00  0.00     0.020 A 
ATOM     67  C   UNL A   1      45.958  26.979  36.801  1.00  0.00     0.054 A 
BRANCH  67  68
ATOM     68  S   UNL A   1      47.279  25.974  37.533  1.00  0.00     0.124 S 
ATOM     69  O   UNL A   1      48.322  26.060  36.512  1.00  0.00    -0.237 OA
ATOM     70  O   UNL A   1      47.565  26.676  38.781  1.00  0.00    -0.237 OA
ATOM     71  O   UNL A   1      46.667  24.657  37.689  1.00  0.00    -0.744 OA
ENDBRANCH  67  68
ENDBRANCH  48  62
BRANCH  49  72
ATOM     72  C   UNL A   1      36.496  33.391  31.069  1.00  0.00    -0.014 A 
ATOM     73  C   UNL A   1      35.239  33.474  31.694  1.00  0.00     0.010 A 
ATOM     74  C   UNL A   1      36.685  34.014  29.823  1.00  0.00     0.010 A 
ATOM     75  C   UNL A   1      34.188  34.159  31.079  1.00  0.00     0.020 A 
ATOM     76  C   UNL A   1      35.643  34.722  29.217  1.00  0.00     0.020 A 
ATOM     77  C   UNL A   1      34.397  34.783  29.845  1.00  0.00     0.054 A 
BRANCH  77  78
ATOM     78  S   UNL A   1      33.038  35.725  29.099  1.00  0.00     0.124 S 
ATOM     79  O   UNL A   1      32.269  36.129  30.271  1.00  0.00    -0.237 OA
ATOM     80  O   UNL A   1      33.742  36.798  28.401  1.00  0.00    -0.237 OA
ATOM     81  O   UNL A   1      32.387  34.750  28.226  1.00  0.00    -0.744 OA
ENDBRANCH  77  78
ENDBRANCH  49  72
BRANCH  61  82
ATOM     82  C   UNL A   1      39.872  34.305  37.106  1.00  0.00    -0.014 A 
ATOM     83  C   UNL A   1      40.619  35.496  37.081  1.00  0.00     0.010 A 
ATOM     84  C   UNL A   1      38.944  34.096  38.142  1.00  0.00     0.010 A 
ATOM     85  C   UNL A   1      40.460  36.448  38.091  1.00  0.00     0.020 A 
ATOM     86  C   UNL A   1      38.765  35.058  39.140  1.00  0.00     0.020 A 
ATOM     87  C   UNL A   1      39.534  36.222  39.116  1.00  0.00     0.054 A 
BRANCH  87  88
ATOM     88  S   UNL A   1      39.313  37.494  40.389  1.00  0.00     0.124 S 
ATOM     89  O   UNL A   1      38.101  38.170  39.936  1.00  0.00    -0.237 OA
ATOM     90  O   UNL A   1      39.173  36.705  41.611  1.00  0.00    -0.237 OA
ATOM     91  O   UNL A   1      40.537  38.286  40.304  1.00  0.00    -0.744 OA
ENDBRANCH  87  88
ENDBRANCH  61  82
ENDBRANCH  35  36
ENDBRANCH  27  30
ENDBRANCH  25  26
ENDBRANCH  24  25
ENDBRANCH   1  24
TORSDOF 17
ENDMDL
