MODEL 1
REMARK VINA RESULT:     -12.3      0.000      0.000
REMARK SMILES Cc1[nH]c2ccccc2c1/C=C1/SC(=S)N(c2cccc(C(=O)NCCCCNC(=O)c3ccc(-c4c5nc(c(-c6ccc(S(=O)(=O)[O-])cc6)c6ccc([nH]6)c(-c6ccc(S(=O)(=O)[O-])cc6)c6nc(c(-c7ccc(S(=O)(=O)[O-])cc7)c7ccc4[nH]7)C=C6)C=C5)cc3)c2)C1=O
REMARK SMILES IDX 27 1 26 2 25 3 24 4 22 5 23 6 21 8 17 9 18 10 92 11 19 12
REMARK SMILES IDX 20 13 16 14 11 15 12 16 13 17 93 18 14 19 94 20 15 21 10 22
REMARK SMILES IDX 1 23 2 24 3 25 4 26 9 28 5 29 8 30 6 31 7 32 28 33 29 34
REMARK SMILES IDX 30 35 31 37 32 38 33 39 91 40 34 41 90 42 35 43 36 44 37 45
REMARK SMILES IDX 84 46 38 47 89 48 83 49 85 50 39 51 88 52 82 53 81 54 40 56
REMARK SMILES IDX 70 57 51 58 69 59 52 60 55 61 68 62 86 63 53 64 54 65 67 67
REMARK SMILES IDX 87 68 56 69 41 70 42 71 50 72 43 73 49 74 44 75 45 76 46 77
REMARK SMILES IDX 47 78 48 79 71 80 72 81 80 82 73 83 79 84 74 85 75 86 76 87
REMARK SMILES IDX 77 88 78 89 57 90 58 91 66 92 59 93 65 94 60 95 61 96 62 97
REMARK SMILES IDX 63 98 64 99
REMARK H PARENT 24 7 3 27 29 36 85 55 55 66
REMARK Flexibility Score: inf
ROOT
ATOM      1  C   UNL A   1      35.780  22.878  24.516  1.00  0.00     0.023 C 
ENDROOT
BRANCH   1   2
ATOM      2  C   UNL A   1      35.915  21.384  24.247  1.00  0.00     0.023 C 
BRANCH   2   3
ATOM      3  C   UNL A   1      35.601  20.449  25.409  1.00  0.00     0.116 C 
BRANCH   3   4
ATOM      4  N   UNL A   1      34.374  19.686  25.262  1.00  0.00    -0.352 N 
ATOM      5  C   UNL A   1      33.052  20.075  25.312  1.00  0.00     0.251 C 
ATOM      6  O   UNL A   1      32.176  19.225  25.167  1.00  0.00    -0.269 OA
ATOM      7  H   UNL A   1      34.508  18.724  25.098  1.00  0.00     0.163 HD
BRANCH   5   8
ATOM      8  C   UNL A   1      32.653  21.477  25.609  1.00  0.00     0.041 A 
ATOM      9  C   UNL A   1      32.220  23.761  24.901  1.00  0.00     0.051 A 
ATOM     10  C   UNL A   1      32.277  24.161  26.245  1.00  0.00     0.027 A 
ATOM     11  C   UNL A   1      32.314  22.394  24.609  1.00  0.00     0.040 A 
ATOM     12  C   UNL A   1      32.467  23.230  27.265  1.00  0.00     0.003 A 
ATOM     13  C   UNL A   1      32.682  21.891  26.945  1.00  0.00     0.014 A 
BRANCH   9  14
ATOM     14  N   UNL A   1      32.300  24.727  23.844  1.00  0.00    -0.261 N 
ATOM     15  C   UNL A   1      32.459  28.288  23.011  1.00  0.00     0.032 C 
ATOM     16  C   UNL A   1      32.439  26.946  23.018  1.00  0.00     0.081 C 
ATOM     17  S   UNL A   1      32.963  25.991  21.686  1.00  0.00    -0.054 SA
ATOM     18  C   UNL A   1      32.027  26.064  24.148  1.00  0.00     0.270 C 
ATOM     19  C   UNL A   1      32.757  24.473  22.560  1.00  0.00     0.152 C 
ATOM     20  O   UNL A   1      31.568  26.491  25.200  1.00  0.00    -0.268 OA
ATOM     21  S   UNL A   1      33.023  23.013  21.789  1.00  0.00    -0.051 S 
BRANCH  15  22
ATOM     22  C   UNL A   1      32.084  29.141  24.090  1.00  0.00     0.004 A 
ATOM     23  C   UNL A   1      29.714  29.940  23.286  1.00  0.00     0.065 C 
ATOM     24  C   UNL A   1      30.896  29.842  24.181  1.00  0.00     0.020 A 
ATOM     25  N   UNL A   1      30.962  30.585  25.337  1.00  0.00    -0.358 N 
ATOM     26  C   UNL A   1      32.144  30.351  26.002  1.00  0.00     0.046 A 
ATOM     27  H   UNL A   1      30.259  31.201  25.647  1.00  0.00     0.166 HD
ATOM     28  C   UNL A   1      32.865  29.428  25.247  1.00  0.00     0.007 A 
ATOM     29  C   UNL A   1      32.628  30.896  27.198  1.00  0.00     0.027 A 
ATOM     30  C   UNL A   1      34.130  29.016  25.715  1.00  0.00     0.011 A 
ATOM     31  C   UNL A   1      33.886  30.475  27.638  1.00  0.00     0.002 A 
ATOM     32  C   UNL A   1      34.626  29.545  26.912  1.00  0.00     0.001 A 
ENDBRANCH  15  22
ENDBRANCH   9  14
ENDBRANCH   5   8
ENDBRANCH   3   4
ENDBRANCH   2   3
ENDBRANCH   1   2
BRANCH   1  33
ATOM     33  C   UNL A   1      37.020  23.582  25.054  1.00  0.00     0.116 C 
BRANCH  33  34
ATOM     34  N   UNL A   1      38.121  22.683  25.369  1.00  0.00    -0.352 N 
ATOM     35  C   UNL A   1      39.270  22.913  26.093  1.00  0.00     0.251 C 
ATOM     36  H   UNL A   1      38.029  21.771  25.009  1.00  0.00     0.163 HD
ATOM     37  O   UNL A   1      40.119  22.036  26.181  1.00  0.00    -0.269 OA
BRANCH  35  38
ATOM     38  C   UNL A   1      39.497  24.236  26.720  1.00  0.00     0.039 A 
ATOM     39  C   UNL A   1      39.007  24.463  28.010  1.00  0.00     0.014 A 
ATOM     40  C   UNL A   1      40.214  25.236  26.059  1.00  0.00     0.014 A 
ATOM     41  C   UNL A   1      39.322  25.652  28.673  1.00  0.00     0.010 A 
ATOM     42  C   UNL A   1      40.593  26.386  26.749  1.00  0.00     0.010 A 
ATOM     43  C   UNL A   1      40.161  26.602  28.067  1.00  0.00    -0.014 A 
BRANCH  43  44
ATOM     44  C   UNL A   1      40.620  27.812  28.798  1.00  0.00     0.031 A 
ATOM     45  C   UNL A   1      41.982  27.840  29.438  1.00  0.00     0.074 A 
ATOM     46  C   UNL A   1      39.778  28.854  28.960  1.00  0.00     0.049 A 
ATOM     47  N   UNL A   1      42.523  28.769  30.184  1.00  0.00    -0.248 NA
ATOM     48  C   UNL A   1      42.837  26.658  29.237  1.00  0.00     0.031 C 
ATOM     49  C   UNL A   1      38.413  28.933  28.435  1.00  0.00     0.029 A 
ATOM     50  N   UNL A   1      39.943  30.044  29.626  1.00  0.00    -0.354 N 
ATOM     51  C   UNL A   1      43.764  28.274  30.566  1.00  0.00     0.074 A 
ATOM     52  C   UNL A   1      43.882  26.947  30.001  1.00  0.00     0.031 C 
ATOM     53  C   UNL A   1      37.876  30.117  28.775  1.00  0.00     0.029 A 
ATOM     54  C   UNL A   1      38.840  30.864  29.576  1.00  0.00     0.049 A 
ATOM     55  H   UNL A   1      40.774  30.286  30.095  1.00  0.00     0.167 HD
ATOM     56  C   UNL A   1      44.727  28.873  31.306  1.00  0.00     0.031 A 
ATOM     57  C   UNL A   1      38.624  32.078  30.118  1.00  0.00     0.031 A 
ATOM     58  C   UNL A   1      44.622  30.204  31.842  1.00  0.00     0.049 A 
ATOM     59  C   UNL A   1      39.716  32.729  30.922  1.00  0.00     0.074 A 
ATOM     60  C   UNL A   1      45.577  30.928  32.536  1.00  0.00     0.029 A 
ATOM     61  N   UNL A   1      43.500  31.011  31.744  1.00  0.00    -0.354 N 
ATOM     62  N   UNL A   1      40.913  32.274  31.206  1.00  0.00    -0.248 NA
ATOM     63  C   UNL A   1      39.431  34.062  31.472  1.00  0.00     0.031 C 
ATOM     64  C   UNL A   1      45.015  32.157  32.896  1.00  0.00     0.029 A 
ATOM     65  C   UNL A   1      43.729  32.217  32.385  1.00  0.00     0.049 A 
ATOM     66  H   UNL A   1      42.664  30.763  31.288  1.00  0.00     0.167 HD
ATOM     67  C   UNL A   1      41.533  33.277  31.941  1.00  0.00     0.074 A 
ATOM     68  C   UNL A   1      40.585  34.367  32.051  1.00  0.00     0.031 C 
ATOM     69  C   UNL A   1      42.778  33.294  32.478  1.00  0.00     0.031 A 
BRANCH  56  70
ATOM     70  C   UNL A   1      45.982  28.089  31.584  1.00  0.00    -0.014 A 
ATOM     71  C   UNL A   1      46.078  27.247  32.706  1.00  0.00     0.010 A 
ATOM     72  C   UNL A   1      47.063  28.162  30.686  1.00  0.00     0.010 A 
ATOM     73  C   UNL A   1      47.248  26.522  32.948  1.00  0.00     0.020 A 
ATOM     74  C   UNL A   1      48.225  27.418  30.911  1.00  0.00     0.020 A 
ATOM     75  C   UNL A   1      48.317  26.616  32.050  1.00  0.00     0.054 A 
BRANCH  75  76
ATOM     76  S   UNL A   1      49.813  25.645  32.375  1.00  0.00     0.124 S 
ATOM     77  O   UNL A   1      50.781  26.688  32.709  1.00  0.00    -0.237 OA
ATOM     78  O   UNL A   1      49.407  24.787  33.486  1.00  0.00    -0.237 OA
ATOM     79  O   UNL A   1      50.057  24.950  31.113  1.00  0.00    -0.744 OA
ENDBRANCH  75  76
ENDBRANCH  56  70
BRANCH  57  80
ATOM     80  C   UNL A   1      37.325  32.773  29.905  1.00  0.00    -0.014 A 
ATOM     81  C   UNL A   1      37.134  33.591  28.777  1.00  0.00     0.010 A 
ATOM     82  C   UNL A   1      36.275  32.626  30.828  1.00  0.00     0.010 A 
ATOM     83  C   UNL A   1      35.927  34.270  28.588  1.00  0.00     0.020 A 
ATOM     84  C   UNL A   1      35.056  33.283  30.629  1.00  0.00     0.020 A 
ATOM     85  C   UNL A   1      34.895  34.112  29.517  1.00  0.00     0.054 A 
BRANCH  85  86
ATOM     86  S   UNL A   1      33.322  34.969  29.234  1.00  0.00     0.124 S 
ATOM     87  O   UNL A   1      32.677  34.102  28.252  1.00  0.00    -0.237 OA
ATOM     88  O   UNL A   1      32.719  34.977  30.565  1.00  0.00    -0.237 OA
ATOM     89  O   UNL A   1      33.734  36.281  28.738  1.00  0.00    -0.744 OA
ENDBRANCH  85  86
ENDBRANCH  57  80
BRANCH  69  90
ATOM     90  C   UNL A   1      43.205  34.545  33.198  1.00  0.00    -0.014 A 
ATOM     91  C   UNL A   1      43.717  35.650  32.496  1.00  0.00     0.010 A 
ATOM     92  C   UNL A   1      43.039  34.632  34.592  1.00  0.00     0.010 A 
ATOM     93  C   UNL A   1      44.082  36.813  33.181  1.00  0.00     0.020 A 
ATOM     94  C   UNL A   1      43.379  35.801  35.277  1.00  0.00     0.020 A 
ATOM     95  C   UNL A   1      43.911  36.879  34.568  1.00  0.00     0.054 A 
BRANCH  95  96
ATOM     96  S   UNL A   1      44.347  38.415  35.429  1.00  0.00     0.124 S 
ATOM     97  O   UNL A   1      43.701  39.424  34.596  1.00  0.00    -0.237 OA
ATOM     98  O   UNL A   1      43.758  38.222  36.752  1.00  0.00    -0.237 OA
ATOM     99  O   UNL A   1      45.808  38.426  35.400  1.00  0.00    -0.744 OA
ENDBRANCH  95  96
ENDBRANCH  69  90
ENDBRANCH  43  44
ENDBRANCH  35  38
ENDBRANCH  33  34
ENDBRANCH   1  33
TORSDOF 16
ENDMDL
MODEL 2
REMARK VINA RESULT:     -12.0      2.674      3.230
REMARK SMILES Cc1[nH]c2ccccc2c1/C=C1/SC(=S)N(c2cccc(C(=O)NCCCCNC(=O)c3ccc(-c4c5nc(c(-c6ccc(S(=O)(=O)[O-])cc6)c6ccc([nH]6)c(-c6ccc(S(=O)(=O)[O-])cc6)c6nc(c(-c7ccc(S(=O)(=O)[O-])cc7)c7ccc4[nH]7)C=C6)C=C5)cc3)c2)C1=O
REMARK SMILES IDX 27 1 26 2 25 3 24 4 22 5 23 6 21 8 17 9 18 10 92 11 19 12
REMARK SMILES IDX 20 13 16 14 11 15 12 16 13 17 93 18 14 19 94 20 15 21 10 22
REMARK SMILES IDX 1 23 2 24 3 25 4 26 9 28 5 29 8 30 6 31 7 32 28 33 29 34
REMARK SMILES IDX 30 35 31 37 32 38 33 39 91 40 34 41 90 42 35 43 36 44 37 45
REMARK SMILES IDX 84 46 38 47 89 48 83 49 85 50 39 51 88 52 82 53 81 54 40 56
REMARK SMILES IDX 70 57 51 58 69 59 52 60 55 61 68 62 86 63 53 64 54 65 67 67
REMARK SMILES IDX 87 68 56 69 41 70 42 71 50 72 43 73 49 74 44 75 45 76 46 77
REMARK SMILES IDX 47 78 48 79 71 80 72 81 80 82 73 83 79 84 74 85 75 86 76 87
REMARK SMILES IDX 77 88 78 89 57 90 58 91 66 92 59 93 65 94 60 95 61 96 62 97
REMARK SMILES IDX 63 98 64 99
REMARK H PARENT 24 7 3 27 29 36 85 55 55 66
REMARK Flexibility Score: inf
ROOT
ATOM      1  C   UNL A   1      37.049  23.711  25.004  1.00  0.00     0.023 C 
ENDROOT
BRANCH   1   2
ATOM      2  C   UNL A   1      37.080  22.257  24.549  1.00  0.00     0.023 C 
BRANCH   2   3
ATOM      3  C   UNL A   1      36.800  21.202  25.612  1.00  0.00     0.116 C 
BRANCH   3   4
ATOM      4  N   UNL A   1      35.790  20.223  25.247  1.00  0.00    -0.352 N 
ATOM      5  C   UNL A   1      34.420  20.331  25.139  1.00  0.00     0.251 C 
ATOM      6  O   UNL A   1      33.768  19.339  24.820  1.00  0.00    -0.269 OA
ATOM      7  H   UNL A   1      36.145  19.328  25.042  1.00  0.00     0.163 HD
BRANCH   5   8
ATOM      8  C   UNL A   1      33.699  21.590  25.468  1.00  0.00     0.041 A 
ATOM      9  C   UNL A   1      32.762  23.736  24.819  1.00  0.00     0.051 A 
ATOM     10  C   UNL A   1      32.695  24.088  26.176  1.00  0.00     0.027 A 
ATOM     11  C   UNL A   1      33.178  22.440  24.487  1.00  0.00     0.040 A 
ATOM     12  C   UNL A   1      33.075  23.189  27.171  1.00  0.00     0.003 A 
ATOM     13  C   UNL A   1      33.603  21.949  26.817  1.00  0.00     0.014 A 
BRANCH   9  14
ATOM     14  N   UNL A   1      32.638  24.733  23.796  1.00  0.00    -0.261 N 
ATOM     15  C   UNL A   1      32.461  28.318  23.075  1.00  0.00     0.032 C 
ATOM     16  C   UNL A   1      32.525  26.978  23.037  1.00  0.00     0.081 C 
ATOM     17  S   UNL A   1      32.921  26.095  21.614  1.00  0.00    -0.054 SA
ATOM     18  C   UNL A   1      32.326  26.041  24.181  1.00  0.00     0.270 C 
ATOM     19  C   UNL A   1      32.931  24.545  22.454  1.00  0.00     0.152 C 
ATOM     20  O   UNL A   1      31.988  26.409  25.298  1.00  0.00    -0.268 OA
ATOM     21  S   UNL A   1      33.179  23.126  21.603  1.00  0.00    -0.051 S 
BRANCH  15  22
ATOM     22  C   UNL A   1      32.183  29.115  24.224  1.00  0.00     0.004 A 
ATOM     23  C   UNL A   1      29.781  30.005  23.638  1.00  0.00     0.065 C 
ATOM     24  C   UNL A   1      31.022  29.833  24.439  1.00  0.00     0.020 A 
ATOM     25  N   UNL A   1      31.187  30.507  25.627  1.00  0.00    -0.358 N 
ATOM     26  C   UNL A   1      32.407  30.213  26.191  1.00  0.00     0.046 A 
ATOM     27  H   UNL A   1      30.522  31.119  26.020  1.00  0.00     0.166 HD
ATOM     28  C   UNL A   1      33.051  29.320  25.336  1.00  0.00     0.007 A 
ATOM     29  C   UNL A   1      32.987  30.679  27.377  1.00  0.00     0.027 A 
ATOM     30  C   UNL A   1      34.336  28.858  25.688  1.00  0.00     0.011 A 
ATOM     31  C   UNL A   1      34.263  30.209  27.702  1.00  0.00     0.002 A 
ATOM     32  C   UNL A   1      34.928  29.308  26.873  1.00  0.00     0.001 A 
ENDBRANCH  15  22
ENDBRANCH   9  14
ENDBRANCH   5   8
ENDBRANCH   3   4
ENDBRANCH   2   3
ENDBRANCH   1   2
BRANCH   1  33
ATOM     33  C   UNL A   1      37.912  24.059  26.211  1.00  0.00     0.116 C 
BRANCH  33  34
ATOM     34  N   UNL A   1      39.333  23.813  26.013  1.00  0.00    -0.352 N 
ATOM     35  C   UNL A   1      40.425  24.482  26.521  1.00  0.00     0.251 C 
ATOM     36  H   UNL A   1      39.546  23.051  25.426  1.00  0.00     0.163 HD
ATOM     37  O   UNL A   1      41.552  24.161  26.168  1.00  0.00    -0.269 OA
BRANCH  35  38
ATOM     38  C   UNL A   1      40.230  25.620  27.450  1.00  0.00     0.039 A 
ATOM     39  C   UNL A   1      39.379  25.454  28.546  1.00  0.00     0.014 A 
ATOM     40  C   UNL A   1      40.903  26.829  27.264  1.00  0.00     0.014 A 
ATOM     41  C   UNL A   1      39.281  26.465  29.507  1.00  0.00     0.010 A 
ATOM     42  C   UNL A   1      40.866  27.801  28.261  1.00  0.00     0.010 A 
ATOM     43  C   UNL A   1      40.063  27.626  29.399  1.00  0.00    -0.014 A 
BRANCH  43  44
ATOM     44  C   UNL A   1      40.079  28.654  30.472  1.00  0.00     0.031 A 
ATOM     45  C   UNL A   1      41.013  28.512  31.644  1.00  0.00     0.074 A 
ATOM     46  C   UNL A   1      39.194  29.672  30.435  1.00  0.00     0.049 A 
ATOM     47  N   UNL A   1      41.113  29.260  32.713  1.00  0.00    -0.248 NA
ATOM     48  C   UNL A   1      41.936  27.365  31.626  1.00  0.00     0.031 C 
ATOM     49  C   UNL A   1      38.201  29.897  29.381  1.00  0.00     0.029 A 
ATOM     50  N   UNL A   1      38.978  30.703  31.316  1.00  0.00    -0.354 N 
ATOM     51  C   UNL A   1      42.083  28.660  33.507  1.00  0.00     0.074 A 
ATOM     52  C   UNL A   1      42.515  27.465  32.814  1.00  0.00     0.031 C 
ATOM     53  C   UNL A   1      37.501  31.009  29.664  1.00  0.00     0.029 A 
ATOM     54  C   UNL A   1      37.966  31.553  30.936  1.00  0.00     0.049 A 
ATOM     55  H   UNL A   1      39.499  30.823  32.142  1.00  0.00     0.167 HD
ATOM     56  C   UNL A   1      42.581  29.072  34.696  1.00  0.00     0.031 A 
ATOM     57  C   UNL A   1      37.462  32.645  31.543  1.00  0.00     0.031 A 
ATOM     58  C   UNL A   1      42.173  30.275  35.370  1.00  0.00     0.049 A 
ATOM     59  C   UNL A   1      38.045  33.091  32.856  1.00  0.00     0.074 A 
ATOM     60  C   UNL A   1      42.678  30.819  36.539  1.00  0.00     0.029 A 
ATOM     61  N   UNL A   1      41.166  31.122  34.937  1.00  0.00    -0.354 N 
ATOM     62  N   UNL A   1      39.016  32.550  33.552  1.00  0.00    -0.248 NA
ATOM     63  C   UNL A   1      37.468  34.300  33.461  1.00  0.00     0.031 C 
ATOM     64  C   UNL A   1      41.944  31.972  36.836  1.00  0.00     0.029 A 
ATOM     65  C   UNL A   1      41.017  32.172  35.827  1.00  0.00     0.049 A 
ATOM     66  H   UNL A   1      40.634  30.996  34.119  1.00  0.00     0.167 HD
ATOM     67  C   UNL A   1      39.187  33.370  34.661  1.00  0.00     0.074 A 
ATOM     68  C   UNL A   1      38.227  34.448  34.540  1.00  0.00     0.031 C 
ATOM     69  C   UNL A   1      40.062  33.241  35.688  1.00  0.00     0.031 A 
BRANCH  56  70
ATOM     70  C   UNL A   1      43.626  28.208  35.351  1.00  0.00    -0.014 A 
ATOM     71  C   UNL A   1      43.265  27.089  36.122  1.00  0.00     0.010 A 
ATOM     72  C   UNL A   1      44.990  28.493  35.155  1.00  0.00     0.010 A 
ATOM     73  C   UNL A   1      44.246  26.294  36.720  1.00  0.00     0.020 A 
ATOM     74  C   UNL A   1      45.976  27.685  35.729  1.00  0.00     0.020 A 
ATOM     75  C   UNL A   1      45.597  26.600  36.523  1.00  0.00     0.054 A 
BRANCH  75  76
ATOM     76  S   UNL A   1      46.851  25.538  37.288  1.00  0.00     0.124 S 
ATOM     77  O   UNL A   1      47.271  24.710  36.161  1.00  0.00    -0.237 OA
ATOM     78  O   UNL A   1      47.843  26.500  37.764  1.00  0.00    -0.237 OA
ATOM     79  O   UNL A   1      46.117  24.835  38.338  1.00  0.00    -0.744 OA
ENDBRANCH  75  76
ENDBRANCH  56  70
BRANCH  57  80
ATOM     80  C   UNL A   1      36.353  33.411  30.908  1.00  0.00    -0.014 A 
ATOM     81  C   UNL A   1      36.506  33.939  29.614  1.00  0.00     0.010 A 
ATOM     82  C   UNL A   1      35.144  33.620  31.594  1.00  0.00     0.010 A 
ATOM     83  C   UNL A   1      35.479  34.684  29.026  1.00  0.00     0.020 A 
ATOM     84  C   UNL A   1      34.105  34.343  30.999  1.00  0.00     0.020 A 
ATOM     85  C   UNL A   1      34.286  34.883  29.724  1.00  0.00     0.054 A 
BRANCH  85  86
ATOM     86  S   UNL A   1      32.950  35.819  28.929  1.00  0.00     0.124 S 
ATOM     87  O   UNL A   1      32.155  36.246  30.076  1.00  0.00    -0.237 OA
ATOM     88  O   UNL A   1      33.676  36.878  28.232  1.00  0.00    -0.237 OA
ATOM     89  O   UNL A   1      32.316  34.832  28.057  1.00  0.00    -0.744 OA
ENDBRANCH  85  86
ENDBRANCH  57  80
BRANCH  69  90
ATOM     90  C   UNL A   1      40.052  34.313  36.745  1.00  0.00    -0.014 A 
ATOM     91  C   UNL A   1      40.801  35.493  36.591  1.00  0.00     0.010 A 
ATOM     92  C   UNL A   1      39.238  34.158  37.881  1.00  0.00     0.010 A 
ATOM     93  C   UNL A   1      40.756  36.489  37.571  1.00  0.00     0.020 A 
ATOM     94  C   UNL A   1      39.172  35.161  38.851  1.00  0.00     0.020 A 
ATOM     95  C   UNL A   1      39.942  36.315  38.696  1.00  0.00     0.054 A 
BRANCH  95  96
ATOM     96  S   UNL A   1      39.864  37.641  39.931  1.00  0.00     0.124 S 
ATOM     97  O   UNL A   1      41.132  38.330  39.718  1.00  0.00    -0.237 OA
ATOM     98  O   UNL A   1      38.670  38.383  39.533  1.00  0.00    -0.237 OA
ATOM     99  O   UNL A   1      39.750  36.924  41.200  1.00  0.00    -0.744 OA
ENDBRANCH  95  96
ENDBRANCH  69  90
ENDBRANCH  43  44
ENDBRANCH  35  38
ENDBRANCH  33  34
ENDBRANCH   1  33
TORSDOF 16
ENDMDL
MODEL 3
REMARK VINA RESULT:     -11.9      4.063     10.283
REMARK SMILES Cc1[nH]c2ccccc2c1/C=C1/SC(=S)N(c2cccc(C(=O)NCCCCNC(=O)c3ccc(-c4c5nc(c(-c6ccc(S(=O)(=O)[O-])cc6)c6ccc([nH]6)c(-c6ccc(S(=O)(=O)[O-])cc6)c6nc(c(-c7ccc(S(=O)(=O)[O-])cc7)c7ccc4[nH]7)C=C6)C=C5)cc3)c2)C1=O
REMARK SMILES IDX 27 1 26 2 25 3 24 4 22 5 23 6 21 8 17 9 18 10 92 11 19 12
REMARK SMILES IDX 20 13 16 14 11 15 12 16 13 17 93 18 14 19 94 20 15 21 10 22
REMARK SMILES IDX 1 23 2 24 3 25 4 26 9 28 5 29 8 30 6 31 7 32 28 33 29 34
REMARK SMILES IDX 30 35 31 37 32 38 33 39 91 40 34 41 90 42 35 43 36 44 37 45
REMARK SMILES IDX 84 46 38 47 89 48 83 49 85 50 39 51 88 52 82 53 81 54 40 56
REMARK SMILES IDX 70 57 51 58 69 59 52 60 55 61 68 62 86 63 53 64 54 65 67 67
REMARK SMILES IDX 87 68 56 69 41 70 42 71 50 72 43 73 49 74 44 75 45 76 46 77
REMARK SMILES IDX 47 78 48 79 71 80 72 81 80 82 73 83 79 84 74 85 75 86 76 87
REMARK SMILES IDX 77 88 78 89 57 90 58 91 66 92 59 93 65 94 60 95 61 96 62 97
REMARK SMILES IDX 63 98 64 99
REMARK H PARENT 24 7 3 27 29 36 85 55 55 66
REMARK Flexibility Score: inf
ROOT
ATOM      1  C   UNL A   1      35.592  33.312  28.818  1.00  0.00     0.023 C 
ENDROOT
BRANCH   1   2
ATOM      2  C   UNL A   1      35.483  32.127  27.867  1.00  0.00     0.023 C 
BRANCH   2   3
ATOM      3  C   UNL A   1      34.253  31.240  28.017  1.00  0.00     0.116 C 
BRANCH   3   4
ATOM      4  N   UNL A   1      33.092  31.673  27.258  1.00  0.00    -0.352 N 
ATOM      5  C   UNL A   1      32.096  30.954  26.635  1.00  0.00     0.251 C 
ATOM      6  O   UNL A   1      31.211  31.560  26.034  1.00  0.00    -0.269 OA
ATOM      7  H   UNL A   1      33.001  32.651  27.175  1.00  0.00     0.163 HD
BRANCH   5   8
ATOM      8  C   UNL A   1      32.098  29.467  26.603  1.00  0.00     0.041 A 
ATOM      9  C   UNL A   1      32.464  27.366  25.438  1.00  0.00     0.051 A 
ATOM     10  C   UNL A   1      31.733  26.711  26.441  1.00  0.00     0.027 A 
ATOM     11  C   UNL A   1      32.721  28.735  25.587  1.00  0.00     0.040 A 
ATOM     12  C   UNL A   1      31.233  27.411  27.538  1.00  0.00     0.003 A 
ATOM     13  C   UNL A   1      31.392  28.794  27.606  1.00  0.00     0.014 A 
BRANCH   9  14
ATOM     14  N   UNL A   1      32.740  26.716  24.190  1.00  0.00    -0.261 N 
ATOM     15  C   UNL A   1      33.630  23.563  22.556  1.00  0.00     0.032 C 
ATOM     16  C   UNL A   1      33.282  24.821  22.870  1.00  0.00     0.081 C 
ATOM     17  S   UNL A   1      32.631  25.929  21.727  1.00  0.00    -0.054 SA
ATOM     18  C   UNL A   1      33.342  25.453  24.219  1.00  0.00     0.270 C 
ATOM     19  C   UNL A   1      32.341  27.173  22.943  1.00  0.00     0.152 C 
ATOM     20  O   UNL A   1      33.810  24.895  25.203  1.00  0.00    -0.268 OA
ATOM     21  S   UNL A   1      31.752  28.673  22.493  1.00  0.00    -0.051 S 
BRANCH  15  22
ATOM     22  C   UNL A   1      34.133  22.578  23.456  1.00  0.00     0.004 A 
ATOM     23  C   UNL A   1      32.044  21.001  23.681  1.00  0.00     0.065 C 
ATOM     24  C   UNL A   1      33.427  21.487  23.926  1.00  0.00     0.020 A 
ATOM     25  N   UNL A   1      34.251  20.834  24.813  1.00  0.00    -0.358 N 
ATOM     26  C   UNL A   1      35.474  21.458  24.896  1.00  0.00     0.046 A 
ATOM     27  H   UNL A   1      34.000  20.027  25.320  1.00  0.00     0.166 HD
ATOM     28  C   UNL A   1      35.436  22.554  24.035  1.00  0.00     0.007 A 
ATOM     29  C   UNL A   1      36.595  21.145  25.674  1.00  0.00     0.027 A 
ATOM     30  C   UNL A   1      36.579  23.373  23.935  1.00  0.00     0.011 A 
ATOM     31  C   UNL A   1      37.715  21.974  25.560  1.00  0.00     0.002 A 
ATOM     32  C   UNL A   1      37.711  23.070  24.700  1.00  0.00     0.001 A 
ENDBRANCH  15  22
ENDBRANCH   9  14
ENDBRANCH   5   8
ENDBRANCH   3   4
ENDBRANCH   2   3
ENDBRANCH   1   2
BRANCH   1  33
ATOM     33  C   UNL A   1      36.440  33.100  30.066  1.00  0.00     0.116 C 
BRANCH  33  34
ATOM     34  N   UNL A   1      36.049  31.942  30.857  1.00  0.00    -0.352 N 
ATOM     35  C   UNL A   1      36.730  30.771  31.105  1.00  0.00     0.251 C 
ATOM     36  H   UNL A   1      35.162  32.007  31.280  1.00  0.00     0.163 HD
ATOM     37  O   UNL A   1      36.189  29.876  31.742  1.00  0.00    -0.269 OA
BRANCH  35  38
ATOM     38  C   UNL A   1      38.093  30.576  30.556  1.00  0.00     0.039 A 
ATOM     39  C   UNL A   1      39.183  30.626  31.430  1.00  0.00     0.014 A 
ATOM     40  C   UNL A   1      38.295  30.315  29.199  1.00  0.00     0.014 A 
ATOM     41  C   UNL A   1      40.462  30.315  30.961  1.00  0.00     0.010 A 
ATOM     42  C   UNL A   1      39.557  29.929  28.751  1.00  0.00     0.010 A 
ATOM     43  C   UNL A   1      40.652  29.914  29.628  1.00  0.00    -0.014 A 
BRANCH  43  44
ATOM     44  C   UNL A   1      41.977  29.451  29.138  1.00  0.00     0.031 A 
ATOM     45  C   UNL A   1      43.120  30.422  29.010  1.00  0.00     0.074 A 
ATOM     46  C   UNL A   1      42.128  28.175  28.726  1.00  0.00     0.049 A 
ATOM     47  N   UNL A   1      44.319  30.223  28.526  1.00  0.00    -0.248 NA
ATOM     48  C   UNL A   1      42.875  31.802  29.459  1.00  0.00     0.031 C 
ATOM     49  C   UNL A   1      41.085  27.145  28.749  1.00  0.00     0.029 A 
ATOM     50  N   UNL A   1      43.217  27.528  28.195  1.00  0.00    -0.354 N 
ATOM     51  C   UNL A   1      44.960  31.455  28.583  1.00  0.00     0.074 A 
ATOM     52  C   UNL A   1      44.005  32.404  29.113  1.00  0.00     0.031 C 
ATOM     53  C   UNL A   1      41.592  25.993  28.279  1.00  0.00     0.029 A 
ATOM     54  C   UNL A   1      42.980  26.209  27.885  1.00  0.00     0.049 A 
ATOM     55  H   UNL A   1      44.085  27.967  28.050  1.00  0.00     0.167 HD
ATOM     56  C   UNL A   1      46.232  31.768  28.241  1.00  0.00     0.031 A 
ATOM     57  C   UNL A   1      43.786  25.277  27.338  1.00  0.00     0.031 A 
ATOM     58  C   UNL A   1      47.191  30.819  27.742  1.00  0.00     0.049 A 
ATOM     59  C   UNL A   1      45.200  25.646  26.982  1.00  0.00     0.074 A 
ATOM     60  C   UNL A   1      48.527  31.023  27.444  1.00  0.00     0.029 A 
ATOM     61  N   UNL A   1      46.919  29.487  27.470  1.00  0.00    -0.354 N 
ATOM     62  N   UNL A   1      45.809  26.800  27.117  1.00  0.00    -0.248 NA
ATOM     63  C   UNL A   1      46.038  24.584  26.408  1.00  0.00     0.031 C 
ATOM     64  C   UNL A   1      49.052  29.825  26.949  1.00  0.00     0.029 A 
ATOM     65  C   UNL A   1      48.056  28.863  26.985  1.00  0.00     0.049 A 
ATOM     66  H   UNL A   1      46.047  29.051  27.600  1.00  0.00     0.167 HD
ATOM     67  C   UNL A   1      47.109  26.594  26.672  1.00  0.00     0.074 A 
ATOM     68  C   UNL A   1      47.203  25.205  26.275  1.00  0.00     0.031 C 
ATOM     69  C   UNL A   1      48.135  27.478  26.601  1.00  0.00     0.031 A 
BRANCH  56  70
ATOM     70  C   UNL A   1      46.662  33.203  28.391  1.00  0.00    -0.014 A 
ATOM     71  C   UNL A   1      46.496  34.124  27.341  1.00  0.00     0.010 A 
ATOM     72  C   UNL A   1      47.198  33.647  29.614  1.00  0.00     0.010 A 
ATOM     73  C   UNL A   1      46.896  35.454  27.497  1.00  0.00     0.020 A 
ATOM     74  C   UNL A   1      47.574  34.982  29.783  1.00  0.00     0.020 A 
ATOM     75  C   UNL A   1      47.437  35.874  28.717  1.00  0.00     0.054 A 
BRANCH  75  76
ATOM     76  S   UNL A   1      47.924  37.611  28.901  1.00  0.00     0.124 S 
ATOM     77  O   UNL A   1      46.663  38.235  29.296  1.00  0.00    -0.237 OA
ATOM     78  O   UNL A   1      48.947  37.550  29.942  1.00  0.00    -0.237 OA
ATOM     79  O   UNL A   1      48.412  37.977  27.574  1.00  0.00    -0.744 OA
ENDBRANCH  75  76
ENDBRANCH  56  70
BRANCH  57  80
ATOM     80  C   UNL A   1      43.284  23.894  27.110  1.00  0.00    -0.014 A 
ATOM     81  C   UNL A   1      43.100  23.018  28.194  1.00  0.00     0.010 A 
ATOM     82  C   UNL A   1      42.993  23.445  25.810  1.00  0.00     0.010 A 
ATOM     83  C   UNL A   1      42.658  21.709  27.981  1.00  0.00     0.020 A 
ATOM     84  C   UNL A   1      42.526  22.144  25.595  1.00  0.00     0.020 A 
ATOM     85  C   UNL A   1      42.376  21.280  26.681  1.00  0.00     0.054 A 
BRANCH  85  86
ATOM     86  S   UNL A   1      41.765  19.590  26.430  1.00  0.00     0.124 S 
ATOM     87  O   UNL A   1      42.375  18.878  27.549  1.00  0.00    -0.237 OA
ATOM     88  O   UNL A   1      40.316  19.760  26.501  1.00  0.00    -0.237 OA
ATOM     89  O   UNL A   1      42.278  19.237  25.108  1.00  0.00    -0.744 OA
ENDBRANCH  85  86
ENDBRANCH  57  80
BRANCH  69  90
ATOM     90  C   UNL A   1      49.461  26.961  26.111  1.00  0.00    -0.014 A 
ATOM     91  C   UNL A   1      49.847  27.104  24.767  1.00  0.00     0.010 A 
ATOM     92  C   UNL A   1      50.356  26.374  27.025  1.00  0.00     0.010 A 
ATOM     93  C   UNL A   1      51.094  26.643  24.338  1.00  0.00     0.020 A 
ATOM     94  C   UNL A   1      51.613  25.935  26.606  1.00  0.00     0.020 A 
ATOM     95  C   UNL A   1      51.969  26.060  25.262  1.00  0.00     0.054 A 
BRANCH  95  96
ATOM     96  S   UNL A   1      53.602  25.511  24.693  1.00  0.00     0.124 S 
ATOM     97  O   UNL A   1      53.641  26.037  23.331  1.00  0.00    -0.237 OA
ATOM     98  O   UNL A   1      54.508  26.156  25.641  1.00  0.00    -0.237 OA
ATOM     99  O   UNL A   1      53.534  24.055  24.796  1.00  0.00    -0.744 OA
ENDBRANCH  95  96
ENDBRANCH  69  90
ENDBRANCH  43  44
ENDBRANCH  35  38
ENDBRANCH  33  34
ENDBRANCH   1  33
TORSDOF 16
ENDMDL
