MODEL 1
REMARK VINA RESULT:     -10.2      0.000      0.000
REMARK SMILES CN(C(=O)CCCCC(=O)NCCCCNC(=O)c1ccc(-c2c3nc(c(-c4ccc(S(=O)(=O)[O-])cc4)c4ccc([nH]4)c(-c4ccc(S(=O)(=O)[O-])cc4)c4nc(c(-c5ccc(S(=O)(=O)[O-])cc5)c5ccc2[nH]5)C=C4)C=C3)cc1)C1CC[NH+](C)CC1
REMARK SMILES IDX 12 1 11 2 9 3 10 4 8 6 7 7 6 8 5 9 3 10 4 11 2 12 1 13 79 14
REMARK SMILES IDX 83 15 82 16 81 17 84 18 80 20 85 21 13 22 14 23 15 24 16 25
REMARK SMILES IDX 17 26 18 28 19 29 20 30 78 31 21 32 77 33 22 34 23 35 24 36
REMARK SMILES IDX 71 37 25 38 76 39 70 40 72 41 26 42 75 43 69 44 68 45 27 47
REMARK SMILES IDX 57 48 38 49 56 50 39 51 42 52 55 53 73 54 40 55 41 56 54 58
REMARK SMILES IDX 74 59 43 60 28 61 29 62 37 63 30 64 36 65 31 66 32 67 33 68
REMARK SMILES IDX 34 69 35 70 58 71 59 72 67 73 60 74 66 75 61 76 62 77 63 78
REMARK SMILES IDX 64 79 65 80 44 81 45 82 53 83 46 84 52 85 47 86 48 87 49 88
REMARK SMILES IDX 50 89 51 90
REMARK H PARENT 11 5 82 19 16 27 72 46 42 57
REMARK Flexibility Score: inf
ROOT
ATOM      1  C   UNL A   1      41.071  19.691  26.454  1.00  0.00     0.116 C 
ENDROOT
BRANCH   1   2
ATOM      2  N   UNL A   1      42.009  18.725  26.983  1.00  0.00    -0.356 N 
ATOM      3  C   UNL A   1      43.103  18.180  26.384  1.00  0.00     0.219 C 
ATOM      4  O   UNL A   1      43.725  17.291  26.968  1.00  0.00    -0.275 OA
ATOM      5  H   UNL A   1      41.834  18.423  27.903  1.00  0.00     0.163 HD
BRANCH   3   6
ATOM      6  C   UNL A   1      43.563  18.692  25.034  1.00  0.00     0.100 C 
BRANCH   6   7
ATOM      7  C   UNL A   1      45.040  19.089  24.965  1.00  0.00     0.010 C 
BRANCH   7   8
ATOM      8  C   UNL A   1      45.458  20.542  25.249  1.00  0.00     0.010 C 
BRANCH   8   9
ATOM      9  C   UNL A   1      44.997  21.657  24.307  1.00  0.00     0.100 C 
BRANCH   9  10
ATOM     10  C   UNL A   1      44.031  22.615  24.971  1.00  0.00     0.222 C 
ATOM     11  O   UNL A   1      42.829  22.501  24.727  1.00  0.00    -0.275 OA
BRANCH  10  12
ATOM     12  N   UNL A   1      44.550  23.606  25.793  1.00  0.00    -0.342 N 
ATOM     13  C   UNL A   1      44.170  23.784  27.187  1.00  0.00     0.147 C 
BRANCH  12  14
ATOM     14  C   UNL A   1      45.429  24.645  25.229  1.00  0.00     0.095 C 
ATOM     15  C   UNL A   1      48.271  27.814  24.780  1.00  0.00     0.332 C 
ATOM     16  N   UNL A   1      47.367  26.807  25.325  1.00  0.00    -0.337 N 
ATOM     17  C   UNL A   1      47.784  25.458  24.927  1.00  0.00     0.264 C 
ATOM     18  C   UNL A   1      45.978  27.084  24.942  1.00  0.00     0.264 C 
ATOM     19  H   UNL A   1      47.415  26.851  26.344  1.00  0.00     0.347 HD
ATOM     20  C   UNL A   1      46.899  24.395  25.572  1.00  0.00     0.086 C 
ATOM     21  C   UNL A   1      45.015  26.081  25.578  1.00  0.00     0.086 C 
ENDBRANCH  12  14
ENDBRANCH  10  12
ENDBRANCH   9  10
ENDBRANCH   8   9
ENDBRANCH   7   8
ENDBRANCH   6   7
ENDBRANCH   3   6
ENDBRANCH   1   2
BRANCH   1  22
ATOM     22  C   UNL A   1      41.011  20.930  27.343  1.00  0.00     0.023 C 
BRANCH  22  23
ATOM     23  C   UNL A   1      40.026  21.997  26.881  1.00  0.00     0.023 C 
BRANCH  23  24
ATOM     24  C   UNL A   1      40.436  23.417  27.232  1.00  0.00     0.116 C 
BRANCH  24  25
ATOM     25  N   UNL A   1      40.803  24.231  26.079  1.00  0.00    -0.352 N 
ATOM     26  C   UNL A   1      41.136  25.568  26.082  1.00  0.00     0.251 C 
ATOM     27  H   UNL A   1      40.817  23.777  25.206  1.00  0.00     0.163 HD
ATOM     28  O   UNL A   1      41.362  26.171  25.039  1.00  0.00    -0.269 OA
BRANCH  26  29
ATOM     29  C   UNL A   1      41.153  26.269  27.381  1.00  0.00     0.039 A 
ATOM     30  C   UNL A   1      42.169  27.189  27.640  1.00  0.00     0.014 A 
ATOM     31  C   UNL A   1      40.076  26.123  28.260  1.00  0.00     0.014 A 
ATOM     32  C   UNL A   1      42.061  28.032  28.747  1.00  0.00     0.010 A 
ATOM     33  C   UNL A   1      39.927  27.021  29.308  1.00  0.00     0.010 A 
ATOM     34  C   UNL A   1      40.914  27.988  29.559  1.00  0.00    -0.014 A 
BRANCH  34  35
ATOM     35  C   UNL A   1      40.721  28.942  30.680  1.00  0.00     0.031 A 
ATOM     36  C   UNL A   1      41.569  28.819  31.916  1.00  0.00     0.074 A 
ATOM     37  C   UNL A   1      39.733  29.857  30.623  1.00  0.00     0.049 A 
ATOM     38  N   UNL A   1      41.498  29.491  33.035  1.00  0.00    -0.248 NA
ATOM     39  C   UNL A   1      42.610  27.776  31.907  1.00  0.00     0.031 C 
ATOM     40  C   UNL A   1      38.801  30.038  29.506  1.00  0.00     0.029 A 
ATOM     41  N   UNL A   1      39.340  30.805  31.535  1.00  0.00    -0.354 N 
ATOM     42  C   UNL A   1      42.456  28.931  33.872  1.00  0.00     0.074 A 
ATOM     43  C   UNL A   1      43.060  27.833  33.150  1.00  0.00     0.031 C 
ATOM     44  C   UNL A   1      37.973  31.058  29.783  1.00  0.00     0.029 A 
ATOM     45  C   UNL A   1      38.286  31.579  31.109  1.00  0.00     0.049 A 
ATOM     46  H   UNL A   1      39.773  30.920  32.411  1.00  0.00     0.167 HD
ATOM     47  C   UNL A   1      42.817  29.308  35.121  1.00  0.00     0.031 A 
ATOM     48  C   UNL A   1      37.647  32.597  31.720  1.00  0.00     0.031 A 
ATOM     49  C   UNL A   1      42.245  30.427  35.819  1.00  0.00     0.049 A 
ATOM     50  C   UNL A   1      38.096  33.028  33.088  1.00  0.00     0.074 A 
ATOM     51  C   UNL A   1      42.595  30.941  37.054  1.00  0.00     0.029 A 
ATOM     52  N   UNL A   1      41.208  31.210  35.336  1.00  0.00    -0.354 N 
ATOM     53  N   UNL A   1      39.049  32.527  33.837  1.00  0.00    -0.248 NA
ATOM     54  C   UNL A   1      37.389  34.167  33.690  1.00  0.00     0.031 C 
ATOM     55  C   UNL A   1      41.748  32.018  37.333  1.00  0.00     0.029 A 
ATOM     56  C   UNL A   1      40.897  32.198  36.253  1.00  0.00     0.049 A 
ATOM     57  H   UNL A   1      40.760  31.083  34.469  1.00  0.00     0.167 HD
ATOM     58  C   UNL A   1      39.075  33.308  34.988  1.00  0.00     0.074 A 
ATOM     59  C   UNL A   1      38.050  34.319  34.831  1.00  0.00     0.031 C 
ATOM     60  C   UNL A   1      39.876  33.199  36.075  1.00  0.00     0.031 A 
BRANCH  47  61
ATOM     61  C   UNL A   1      43.888  28.501  35.802  1.00  0.00    -0.014 A 
ATOM     62  C   UNL A   1      45.249  28.815  35.637  1.00  0.00     0.010 A 
ATOM     63  C   UNL A   1      43.529  27.417  36.623  1.00  0.00     0.010 A 
ATOM     64  C   UNL A   1      46.235  28.029  36.238  1.00  0.00     0.020 A 
ATOM     65  C   UNL A   1      44.512  26.645  37.251  1.00  0.00     0.020 A 
ATOM     66  C   UNL A   1      45.859  26.944  37.035  1.00  0.00     0.054 A 
BRANCH  66  67
ATOM     67  S   UNL A   1      47.156  25.941  37.809  1.00  0.00     0.124 S 
ATOM     68  O   UNL A   1      46.417  25.259  38.868  1.00  0.00    -0.237 OA
ATOM     69  O   UNL A   1      47.605  25.090  36.710  1.00  0.00    -0.237 OA
ATOM     70  O   UNL A   1      48.132  26.928  38.264  1.00  0.00    -0.744 OA
ENDBRANCH  66  67
ENDBRANCH  47  61
BRANCH  48  71
ATOM     71  C   UNL A   1      36.539  33.306  31.022  1.00  0.00    -0.014 A 
ATOM     72  C   UNL A   1      35.230  33.244  31.531  1.00  0.00     0.010 A 
ATOM     73  C   UNL A   1      36.786  34.051  29.856  1.00  0.00     0.010 A 
ATOM     74  C   UNL A   1      34.184  33.901  30.878  1.00  0.00     0.020 A 
ATOM     75  C   UNL A   1      35.745  34.729  29.213  1.00  0.00     0.020 A 
ATOM     76  C   UNL A   1      34.448  34.640  29.722  1.00  0.00     0.054 A 
BRANCH  76  77
ATOM     77  S   UNL A   1      33.085  35.529  28.918  1.00  0.00     0.124 S 
ATOM     78  O   UNL A   1      32.442  34.468  28.149  1.00  0.00    -0.237 OA
ATOM     79  O   UNL A   1      32.323  36.038  30.056  1.00  0.00    -0.237 OA
ATOM     80  O   UNL A   1      33.767  36.553  28.129  1.00  0.00    -0.744 OA
ENDBRANCH  76  77
ENDBRANCH  48  71
BRANCH  60  81
ATOM     81  C   UNL A   1      39.701  34.216  37.167  1.00  0.00    -0.014 A 
ATOM     82  C   UNL A   1      38.892  33.948  38.284  1.00  0.00     0.010 A 
ATOM     83  C   UNL A   1      40.407  35.431  37.102  1.00  0.00     0.010 A 
ATOM     84  C   UNL A   1      38.772  34.892  39.308  1.00  0.00     0.020 A 
ATOM     85  C   UNL A   1      40.308  36.366  38.134  1.00  0.00     0.020 A 
ATOM     86  C   UNL A   1      39.481  36.095  39.226  1.00  0.00     0.054 A 
BRANCH  86  87
ATOM     87  S   UNL A   1      39.352  37.282  40.591  1.00  0.00     0.124 S 
ATOM     88  O   UNL A   1      40.710  37.816  40.657  1.00  0.00    -0.237 OA
ATOM     89  O   UNL A   1      38.333  38.214  40.115  1.00  0.00    -0.237 OA
ATOM     90  O   UNL A   1      38.950  36.457  41.728  1.00  0.00    -0.744 OA
ENDBRANCH  86  87
ENDBRANCH  60  81
ENDBRANCH  34  35
ENDBRANCH  26  29
ENDBRANCH  24  25
ENDBRANCH  23  24
ENDBRANCH  22  23
ENDBRANCH   1  22
TORSDOF 20
ENDMDL
MODEL 2
REMARK VINA RESULT:      -9.8      3.559      5.831
REMARK SMILES CN(C(=O)CCCCC(=O)NCCCCNC(=O)c1ccc(-c2c3nc(c(-c4ccc(S(=O)(=O)[O-])cc4)c4ccc([nH]4)c(-c4ccc(S(=O)(=O)[O-])cc4)c4nc(c(-c5ccc(S(=O)(=O)[O-])cc5)c5ccc2[nH]5)C=C4)C=C3)cc1)C1CC[NH+](C)CC1
REMARK SMILES IDX 12 1 11 2 9 3 10 4 8 6 7 7 6 8 5 9 3 10 4 11 2 12 1 13 79 14
REMARK SMILES IDX 83 15 82 16 81 17 84 18 80 20 85 21 13 22 14 23 15 24 16 25
REMARK SMILES IDX 17 26 18 28 19 29 20 30 78 31 21 32 77 33 22 34 23 35 24 36
REMARK SMILES IDX 71 37 25 38 76 39 70 40 72 41 26 42 75 43 69 44 68 45 27 47
REMARK SMILES IDX 57 48 38 49 56 50 39 51 42 52 55 53 73 54 40 55 41 56 54 58
REMARK SMILES IDX 74 59 43 60 28 61 29 62 37 63 30 64 36 65 31 66 32 67 33 68
REMARK SMILES IDX 34 69 35 70 58 71 59 72 67 73 60 74 66 75 61 76 62 77 63 78
REMARK SMILES IDX 64 79 65 80 44 81 45 82 53 83 46 84 52 85 47 86 48 87 49 88
REMARK SMILES IDX 50 89 51 90
REMARK H PARENT 11 5 82 19 16 27 72 46 42 57
REMARK Flexibility Score: inf
ROOT
ATOM      1  C   UNL A   1      38.568  22.541  26.466  1.00  0.00     0.116 C 
ENDROOT
BRANCH   1   2
ATOM      2  N   UNL A   1      38.142  22.764  25.101  1.00  0.00    -0.356 N 
ATOM      3  C   UNL A   1      37.026  22.308  24.469  1.00  0.00     0.219 C 
ATOM      4  O   UNL A   1      36.889  22.525  23.265  1.00  0.00    -0.275 OA
ATOM      5  H   UNL A   1      38.740  23.324  24.556  1.00  0.00     0.163 HD
BRANCH   3   6
ATOM      6  C   UNL A   1      35.955  21.577  25.254  1.00  0.00     0.100 C 
BRANCH   6   7
ATOM      7  C   UNL A   1      34.586  22.261  25.266  1.00  0.00     0.010 C 
BRANCH   7   8
ATOM      8  C   UNL A   1      33.692  22.212  24.015  1.00  0.00     0.010 C 
BRANCH   8   9
ATOM      9  C   UNL A   1      32.187  21.982  24.172  1.00  0.00     0.100 C 
BRANCH   9  10
ATOM     10  C   UNL A   1      31.409  23.277  24.269  1.00  0.00     0.222 C 
ATOM     11  O   UNL A   1      30.657  23.583  23.343  1.00  0.00    -0.275 OA
BRANCH  10  12
ATOM     12  N   UNL A   1      31.612  24.082  25.383  1.00  0.00    -0.342 N 
ATOM     13  C   UNL A   1      31.329  23.663  26.748  1.00  0.00     0.147 C 
BRANCH  12  14
ATOM     14  C   UNL A   1      31.999  25.493  25.211  1.00  0.00     0.095 C 
ATOM     15  C   UNL A   1      33.051  29.577  25.941  1.00  0.00     0.332 C 
ATOM     16  N   UNL A   1      32.632  28.187  26.092  1.00  0.00    -0.337 N 
ATOM     17  C   UNL A   1      33.704  27.270  25.689  1.00  0.00     0.264 C 
ATOM     18  C   UNL A   1      31.389  27.930  25.355  1.00  0.00     0.264 C 
ATOM     19  H   UNL A   1      32.440  28.016  27.079  1.00  0.00     0.347 HD
ATOM     20  C   UNL A   1      33.307  25.817  25.934  1.00  0.00     0.086 C 
ATOM     21  C   UNL A   1      30.899  26.499  25.576  1.00  0.00     0.086 C 
ENDBRANCH  12  14
ENDBRANCH  10  12
ENDBRANCH   9  10
ENDBRANCH   8   9
ENDBRANCH   7   8
ENDBRANCH   6   7
ENDBRANCH   3   6
ENDBRANCH   1   2
BRANCH   1  22
ATOM     22  C   UNL A   1      40.004  22.024  26.506  1.00  0.00     0.023 C 
BRANCH  22  23
ATOM     23  C   UNL A   1      40.839  22.554  27.664  1.00  0.00     0.023 C 
BRANCH  23  24
ATOM     24  C   UNL A   1      42.077  23.325  27.240  1.00  0.00     0.116 C 
BRANCH  24  25
ATOM     25  N   UNL A   1      41.873  24.186  26.081  1.00  0.00    -0.352 N 
ATOM     26  C   UNL A   1      41.623  25.541  26.091  1.00  0.00     0.251 C 
ATOM     27  H   UNL A   1      41.919  23.755  25.198  1.00  0.00     0.163 HD
ATOM     28  O   UNL A   1      41.397  26.156  25.054  1.00  0.00    -0.269 OA
BRANCH  26  29
ATOM     29  C   UNL A   1      41.577  26.222  27.400  1.00  0.00     0.039 A 
ATOM     30  C   UNL A   1      42.596  27.115  27.734  1.00  0.00     0.014 A 
ATOM     31  C   UNL A   1      40.446  26.089  28.210  1.00  0.00     0.014 A 
ATOM     32  C   UNL A   1      42.439  27.944  28.846  1.00  0.00     0.010 A 
ATOM     33  C   UNL A   1      40.253  26.974  29.261  1.00  0.00     0.010 A 
ATOM     34  C   UNL A   1      41.245  27.914  29.587  1.00  0.00    -0.014 A 
BRANCH  34  35
ATOM     35  C   UNL A   1      41.005  28.856  30.709  1.00  0.00     0.031 A 
ATOM     36  C   UNL A   1      41.829  28.745  31.962  1.00  0.00     0.074 A 
ATOM     37  C   UNL A   1      39.996  29.747  30.637  1.00  0.00     0.049 A 
ATOM     38  N   UNL A   1      41.718  29.408  33.083  1.00  0.00    -0.248 NA
ATOM     39  C   UNL A   1      42.895  27.728  31.968  1.00  0.00     0.031 C 
ATOM     40  C   UNL A   1      39.084  29.913  29.501  1.00  0.00     0.029 A 
ATOM     41  N   UNL A   1      39.562  30.679  31.546  1.00  0.00    -0.354 N 
ATOM     42  C   UNL A   1      42.672  28.865  33.937  1.00  0.00     0.074 A 
ATOM     43  C   UNL A   1      43.318  27.787  33.221  1.00  0.00     0.031 C 
ATOM     44  C   UNL A   1      38.225  30.911  29.768  1.00  0.00     0.029 A 
ATOM     45  C   UNL A   1      38.498  31.431  31.103  1.00  0.00     0.049 A 
ATOM     46  H   UNL A   1      39.973  30.799  32.432  1.00  0.00     0.167 HD
ATOM     47  C   UNL A   1      42.998  29.243  35.195  1.00  0.00     0.031 A 
ATOM     48  C   UNL A   1      37.822  32.428  31.706  1.00  0.00     0.031 A 
ATOM     49  C   UNL A   1      42.384  30.343  35.888  1.00  0.00     0.049 A 
ATOM     50  C   UNL A   1      38.231  32.861  33.086  1.00  0.00     0.074 A 
ATOM     51  C   UNL A   1      42.696  30.857  37.133  1.00  0.00     0.029 A 
ATOM     52  N   UNL A   1      41.339  31.104  35.388  1.00  0.00    -0.354 N 
ATOM     53  N   UNL A   1      39.181  32.379  33.852  1.00  0.00    -0.248 NA
ATOM     54  C   UNL A   1      37.485  33.979  33.680  1.00  0.00     0.031 C 
ATOM     55  C   UNL A   1      41.817  31.912  37.401  1.00  0.00     0.029 A 
ATOM     56  C   UNL A   1      40.985  32.078  36.305  1.00  0.00     0.049 A 
ATOM     57  H   UNL A   1      40.912  30.972  34.511  1.00  0.00     0.167 HD
ATOM     58  C   UNL A   1      39.163  33.152  35.008  1.00  0.00     0.074 A 
ATOM     59  C   UNL A   1      38.117  34.139  34.835  1.00  0.00     0.031 C 
ATOM     60  C   UNL A   1      39.944  33.055  36.111  1.00  0.00     0.031 A 
BRANCH  47  61
ATOM     61  C   UNL A   1      44.073  28.457  35.894  1.00  0.00    -0.014 A 
ATOM     62  C   UNL A   1      43.757  27.331  36.675  1.00  0.00     0.010 A 
ATOM     63  C   UNL A   1      45.418  28.845  35.764  1.00  0.00     0.010 A 
ATOM     64  C   UNL A   1      44.761  26.637  37.355  1.00  0.00     0.020 A 
ATOM     65  C   UNL A   1      46.430  28.137  36.420  1.00  0.00     0.020 A 
ATOM     66  C   UNL A   1      46.090  27.051  37.230  1.00  0.00     0.054 A 
BRANCH  66  67
ATOM     67  S   UNL A   1      47.376  26.132  38.119  1.00  0.00     0.124 S 
ATOM     68  O   UNL A   1      48.582  26.529  37.397  1.00  0.00    -0.237 OA
ATOM     69  O   UNL A   1      47.261  26.652  39.480  1.00  0.00    -0.237 OA
ATOM     70  O   UNL A   1      46.980  24.736  37.955  1.00  0.00    -0.744 OA
ENDBRANCH  66  67
ENDBRANCH  47  61
BRANCH  48  71
ATOM     71  C   UNL A   1      36.712  33.115  30.990  1.00  0.00    -0.014 A 
ATOM     72  C   UNL A   1      36.989  33.956  29.898  1.00  0.00     0.010 A 
ATOM     73  C   UNL A   1      35.376  32.926  31.386  1.00  0.00     0.010 A 
ATOM     74  C   UNL A   1      35.953  34.609  29.225  1.00  0.00     0.020 A 
ATOM     75  C   UNL A   1      34.335  33.560  30.701  1.00  0.00     0.020 A 
ATOM     76  C   UNL A   1      34.632  34.407  29.631  1.00  0.00     0.054 A 
BRANCH  76  77
ATOM     77  S   UNL A   1      33.296  35.223  28.711  1.00  0.00     0.124 S 
ATOM     78  O   UNL A   1      34.037  36.142  27.853  1.00  0.00    -0.237 OA
ATOM     79  O   UNL A   1      32.649  34.104  28.032  1.00  0.00    -0.237 OA
ATOM     80  O   UNL A   1      32.496  35.851  29.761  1.00  0.00    -0.744 OA
ENDBRANCH  76  77
ENDBRANCH  48  71
BRANCH  60  81
ATOM     81  C   UNL A   1      39.722  34.061  37.205  1.00  0.00    -0.014 A 
ATOM     82  C   UNL A   1      38.954  33.741  38.338  1.00  0.00     0.010 A 
ATOM     83  C   UNL A   1      40.342  35.320  37.125  1.00  0.00     0.010 A 
ATOM     84  C   UNL A   1      38.790  34.676  39.363  1.00  0.00     0.020 A 
ATOM     85  C   UNL A   1      40.200  36.249  38.158  1.00  0.00     0.020 A 
ATOM     86  C   UNL A   1      39.414  35.925  39.266  1.00  0.00     0.054 A 
BRANCH  86  87
ATOM     87  S   UNL A   1      39.231  37.103  40.633  1.00  0.00     0.124 S 
ATOM     88  O   UNL A   1      38.298  38.076  40.071  1.00  0.00    -0.237 OA
ATOM     89  O   UNL A   1      38.700  36.271  41.709  1.00  0.00    -0.237 OA
ATOM     90  O   UNL A   1      40.591  37.595  40.848  1.00  0.00    -0.744 OA
ENDBRANCH  86  87
ENDBRANCH  60  81
ENDBRANCH  34  35
ENDBRANCH  26  29
ENDBRANCH  24  25
ENDBRANCH  23  24
ENDBRANCH  22  23
ENDBRANCH   1  22
TORSDOF 20
ENDMDL
MODEL 3
REMARK VINA RESULT:      -9.7      3.589      4.496
REMARK SMILES CN(C(=O)CCCCC(=O)NCCCCNC(=O)c1ccc(-c2c3nc(c(-c4ccc(S(=O)(=O)[O-])cc4)c4ccc([nH]4)c(-c4ccc(S(=O)(=O)[O-])cc4)c4nc(c(-c5ccc(S(=O)(=O)[O-])cc5)c5ccc2[nH]5)C=C4)C=C3)cc1)C1CC[NH+](C)CC1
REMARK SMILES IDX 12 1 11 2 9 3 10 4 8 6 7 7 6 8 5 9 3 10 4 11 2 12 1 13 79 14
REMARK SMILES IDX 83 15 82 16 81 17 84 18 80 20 85 21 13 22 14 23 15 24 16 25
REMARK SMILES IDX 17 26 18 28 19 29 20 30 78 31 21 32 77 33 22 34 23 35 24 36
REMARK SMILES IDX 71 37 25 38 76 39 70 40 72 41 26 42 75 43 69 44 68 45 27 47
REMARK SMILES IDX 57 48 38 49 56 50 39 51 42 52 55 53 73 54 40 55 41 56 54 58
REMARK SMILES IDX 74 59 43 60 28 61 29 62 37 63 30 64 36 65 31 66 32 67 33 68
REMARK SMILES IDX 34 69 35 70 58 71 59 72 67 73 60 74 66 75 61 76 62 77 63 78
REMARK SMILES IDX 64 79 65 80 44 81 45 82 53 83 46 84 52 85 47 86 48 87 49 88
REMARK SMILES IDX 50 89 51 90
REMARK H PARENT 11 5 82 19 16 27 72 46 42 57
REMARK Flexibility Score: inf
ROOT
ATOM      1  C   UNL A   1      42.795  18.703  25.901  1.00  0.00     0.116 C 
ENDROOT
BRANCH   1   2
ATOM      2  N   UNL A   1      44.215  18.667  26.177  1.00  0.00    -0.356 N 
ATOM      3  C   UNL A   1      45.250  19.038  25.374  1.00  0.00     0.219 C 
ATOM      4  O   UNL A   1      46.404  18.836  25.754  1.00  0.00    -0.275 OA
ATOM      5  H   UNL A   1      44.467  18.328  27.066  1.00  0.00     0.163 HD
BRANCH   3   6
ATOM      6  C   UNL A   1      44.977  19.725  24.052  1.00  0.00     0.100 C 
BRANCH   6   7
ATOM      7  C   UNL A   1      45.020  21.254  24.099  1.00  0.00     0.010 C 
BRANCH   7   8
ATOM      8  C   UNL A   1      46.333  21.975  24.449  1.00  0.00     0.010 C 
BRANCH   8   9
ATOM      9  C   UNL A   1      46.404  23.501  24.355  1.00  0.00     0.100 C 
BRANCH   9  10
ATOM     10  C   UNL A   1      46.734  24.150  25.682  1.00  0.00     0.222 C 
ATOM     11  O   UNL A   1      46.660  23.469  26.705  1.00  0.00    -0.275 OA
BRANCH  10  12
ATOM     12  N   UNL A   1      47.066  25.499  25.688  1.00  0.00    -0.342 N 
ATOM     13  C   UNL A   1      48.382  26.010  25.332  1.00  0.00     0.147 C 
BRANCH  12  14
ATOM     14  C   UNL A   1      46.111  26.490  26.211  1.00  0.00     0.095 C 
ATOM     15  C   UNL A   1      43.546  29.890  26.635  1.00  0.00     0.332 C 
ATOM     16  N   UNL A   1      44.518  28.918  26.147  1.00  0.00    -0.337 N 
ATOM     17  C   UNL A   1      43.887  27.614  25.917  1.00  0.00     0.264 C 
ATOM     18  C   UNL A   1      45.664  28.817  27.058  1.00  0.00     0.264 C 
ATOM     19  H   UNL A   1      44.874  29.246  25.248  1.00  0.00     0.347 HD
ATOM     20  C   UNL A   1      44.877  26.621  25.317  1.00  0.00     0.086 C 
ATOM     21  C   UNL A   1      46.727  27.864  26.510  1.00  0.00     0.086 C 
ENDBRANCH  12  14
ENDBRANCH  10  12
ENDBRANCH   9  10
ENDBRANCH   8   9
ENDBRANCH   7   8
ENDBRANCH   6   7
ENDBRANCH   3   6
ENDBRANCH   1   2
BRANCH   1  22
ATOM     22  C   UNL A   1      42.127  19.851  26.656  1.00  0.00     0.023 C 
BRANCH  22  23
ATOM     23  C   UNL A   1      40.830  20.351  26.036  1.00  0.00     0.023 C 
BRANCH  23  24
ATOM     24  C   UNL A   1      40.239  21.571  26.722  1.00  0.00     0.116 C 
BRANCH  24  25
ATOM     25  N   UNL A   1      38.957  21.998  26.175  1.00  0.00    -0.352 N 
ATOM     26  C   UNL A   1      38.397  23.253  26.263  1.00  0.00     0.251 C 
ATOM     27  H   UNL A   1      38.437  21.318  25.690  1.00  0.00     0.163 HD
ATOM     28  O   UNL A   1      37.276  23.484  25.823  1.00  0.00    -0.269 OA
BRANCH  26  29
ATOM     29  C   UNL A   1      39.168  24.302  26.959  1.00  0.00     0.039 A 
ATOM     30  C   UNL A   1      39.992  25.145  26.212  1.00  0.00     0.014 A 
ATOM     31  C   UNL A   1      38.942  24.539  28.318  1.00  0.00     0.014 A 
ATOM     32  C   UNL A   1      40.526  26.285  26.814  1.00  0.00     0.010 A 
ATOM     33  C   UNL A   1      39.401  25.718  28.888  1.00  0.00     0.010 A 
ATOM     34  C   UNL A   1      40.193  26.606  28.142  1.00  0.00    -0.014 A 
BRANCH  34  35
ATOM     35  C   UNL A   1      40.659  27.864  28.775  1.00  0.00     0.031 A 
ATOM     36  C   UNL A   1      42.055  27.945  29.331  1.00  0.00     0.074 A 
ATOM     37  C   UNL A   1      39.807  28.898  28.928  1.00  0.00     0.049 A 
ATOM     38  N   UNL A   1      42.621  28.916  29.999  1.00  0.00    -0.248 NA
ATOM     39  C   UNL A   1      42.913  26.763  29.145  1.00  0.00     0.031 C 
ATOM     40  C   UNL A   1      38.409  28.923  28.488  1.00  0.00     0.029 A 
ATOM     41  N   UNL A   1      39.991  30.129  29.507  1.00  0.00    -0.354 N 
ATOM     42  C   UNL A   1      43.885  28.449  30.341  1.00  0.00     0.074 A 
ATOM     43  C   UNL A   1      43.983  27.091  29.851  1.00  0.00     0.031 C 
ATOM     44  C   UNL A   1      37.877  30.121  28.779  1.00  0.00     0.029 A 
ATOM     45  C   UNL A   1      38.878  30.936  29.458  1.00  0.00     0.049 A 
ATOM     46  H   UNL A   1      40.841  30.409  29.918  1.00  0.00     0.167 HD
ATOM     47  C   UNL A   1      44.883  29.096  30.986  1.00  0.00     0.031 A 
ATOM     48  C   UNL A   1      38.689  32.192  29.908  1.00  0.00     0.031 A 
ATOM     49  C   UNL A   1      44.799  30.459  31.433  1.00  0.00     0.049 A 
ATOM     50  C   UNL A   1      39.827  32.908  30.581  1.00  0.00     0.074 A 
ATOM     51  C   UNL A   1      45.780  31.234  32.025  1.00  0.00     0.029 A 
ATOM     52  N   UNL A   1      43.668  31.255  31.328  1.00  0.00    -0.354 N 
ATOM     53  N   UNL A   1      41.038  32.472  30.836  1.00  0.00    -0.248 NA
ATOM     54  C   UNL A   1      39.577  34.289  31.017  1.00  0.00     0.031 C 
ATOM     55  C   UNL A   1      45.233  32.490  32.307  1.00  0.00     0.029 A 
ATOM     56  C   UNL A   1      43.923  32.508  31.854  1.00  0.00     0.049 A 
ATOM     57  H   UNL A   1      42.811  30.970  30.936  1.00  0.00     0.167 HD
ATOM     58  C   UNL A   1      41.702  33.534  31.440  1.00  0.00     0.074 A 
ATOM     59  C   UNL A   1      40.763  34.636  31.500  1.00  0.00     0.031 C 
ATOM     60  C   UNL A   1      42.975  33.593  31.900  1.00  0.00     0.031 A 
BRANCH  47  61
ATOM     61  C   UNL A   1      46.154  28.330  31.236  1.00  0.00    -0.014 A 
ATOM     62  C   UNL A   1      46.296  27.511  32.370  1.00  0.00     0.010 A 
ATOM     63  C   UNL A   1      47.218  28.425  30.322  1.00  0.00     0.010 A 
ATOM     64  C   UNL A   1      47.497  26.841  32.614  1.00  0.00     0.020 A 
ATOM     65  C   UNL A   1      48.412  27.734  30.546  1.00  0.00     0.020 A 
ATOM     66  C   UNL A   1      48.550  26.964  31.704  1.00  0.00     0.054 A 
BRANCH  66  67
ATOM     67  S   UNL A   1      50.099  26.082  32.039  1.00  0.00     0.124 S 
ATOM     68  O   UNL A   1      51.086  26.965  31.424  1.00  0.00    -0.237 OA
ATOM     69  O   UNL A   1      50.129  26.027  33.499  1.00  0.00    -0.237 OA
ATOM     70  O   UNL A   1      49.913  24.793  31.376  1.00  0.00    -0.744 OA
ENDBRANCH  66  67
ENDBRANCH  47  61
BRANCH  48  71
ATOM     71  C   UNL A   1      37.379  32.868  29.700  1.00  0.00    -0.014 A 
ATOM     72  C   UNL A   1      36.867  33.030  28.401  1.00  0.00     0.010 A 
ATOM     73  C   UNL A   1      36.635  33.343  30.794  1.00  0.00     0.010 A 
ATOM     74  C   UNL A   1      35.641  33.671  28.198  1.00  0.00     0.020 A 
ATOM     75  C   UNL A   1      35.398  33.964  30.596  1.00  0.00     0.020 A 
ATOM     76  C   UNL A   1      34.914  34.134  29.297  1.00  0.00     0.054 A 
BRANCH  76  77
ATOM     77  S   UNL A   1      33.300  34.916  29.015  1.00  0.00     0.124 S 
ATOM     78  O   UNL A   1      33.682  36.271  28.633  1.00  0.00    -0.237 OA
ATOM     79  O   UNL A   1      32.731  34.094  27.951  1.00  0.00    -0.237 OA
ATOM     80  O   UNL A   1      32.633  34.792  30.310  1.00  0.00    -0.744 OA
ENDBRANCH  76  77
ENDBRANCH  48  71
BRANCH  60  81
ATOM     81  C   UNL A   1      43.441  34.899  32.479  1.00  0.00    -0.014 A 
ATOM     82  C   UNL A   1      44.139  35.833  31.694  1.00  0.00     0.010 A 
ATOM     83  C   UNL A   1      43.119  35.220  33.810  1.00  0.00     0.010 A 
ATOM     84  C   UNL A   1      44.529  37.058  32.241  1.00  0.00     0.020 A 
ATOM     85  C   UNL A   1      43.488  36.452  34.353  1.00  0.00     0.020 A 
ATOM     86  C   UNL A   1      44.202  37.360  33.567  1.00  0.00     0.054 A 
BRANCH  86  87
ATOM     87  S   UNL A   1      44.673  38.977  34.238  1.00  0.00     0.124 S 
ATOM     88  O   UNL A   1      43.770  39.106  35.379  1.00  0.00    -0.237 OA
ATOM     89  O   UNL A   1      46.083  38.791  34.572  1.00  0.00    -0.237 OA
ATOM     90  O   UNL A   1      44.416  39.898  33.132  1.00  0.00    -0.744 OA
ENDBRANCH  86  87
ENDBRANCH  60  81
ENDBRANCH  34  35
ENDBRANCH  26  29
ENDBRANCH  24  25
ENDBRANCH  23  24
ENDBRANCH  22  23
ENDBRANCH   1  22
TORSDOF 20
ENDMDL
