MODEL 1
REMARK VINA RESULT:     -11.6      0.000      0.000
REMARK SMILES Cc1c(Cl)ccc2c1C=C(C(=O)NCCCCNC(=O)c1ccc(-c3c4nc(c(-c5ccc(S(=O)(=O)[O-])cc5)c5ccc([nH]5)c(-c5ccc(S(=O)(=O)[O-])cc5)c5nc(c(-c6ccc(S(=O)(=O)[O-])cc6)c6ccc3[nH]6)C=C5)C=C4)cc1)[C@@H](C(F)(F)F)O2
REMARK SMILES IDX 16 1 15 2 14 3 13 4 11 5 12 6 10 8 1 9 2 10 3 11 8 12 4 13
REMARK SMILES IDX 5 14 7 15 9 16 6 17 86 18 81 19 82 20 83 21 84 22 85 23
REMARK SMILES IDX 17 24 18 25 19 26 20 28 21 29 22 30 80 31 23 32 79 33 24 34
REMARK SMILES IDX 25 35 26 36 73 37 27 38 78 39 72 40 74 41 28 42 77 43 71 44
REMARK SMILES IDX 70 45 29 47 59 48 40 49 58 50 41 51 44 52 57 53 75 54 42 55
REMARK SMILES IDX 43 56 56 58 76 59 45 60 30 61 31 62 39 63 32 64 38 65 33 66
REMARK SMILES IDX 34 67 35 68 36 69 37 70 60 71 61 72 69 73 62 74 68 75 63 76
REMARK SMILES IDX 64 77 65 78 66 79 67 80 46 81 47 82 55 83 48 84 54 85 49 86
REMARK SMILES IDX 50 87 51 88 52 89 53 90
REMARK H PARENT 13 7 18 27 74 46 44 57
REMARK Flexibility Score: inf
ROOT
ATOM      1  C   UNL A   1      33.682  28.614  25.061  1.00  0.00     0.023 C 
ENDROOT
BRANCH   1   2
ATOM      2  C   UNL A   1      33.707  27.202  24.470  1.00  0.00     0.023 C 
BRANCH   2   3
ATOM      3  C   UNL A   1      32.331  26.643  24.120  1.00  0.00     0.116 C 
BRANCH   3   4
ATOM      4  N   UNL A   1      31.657  26.088  25.281  1.00  0.00    -0.352 N 
ATOM      5  C   UNL A   1      31.653  24.917  25.957  1.00  0.00     0.251 C 
ATOM      6  O   UNL A   1      30.887  24.874  26.926  1.00  0.00    -0.270 OA
ATOM      7  H   UNL A   1      31.038  26.739  25.683  1.00  0.00     0.163 HD
BRANCH   5   8
ATOM      8  C   UNL A   1      32.483  23.719  25.627  1.00  0.00     0.067 C 
ATOM      9  C   UNL A   1      36.753  24.059  26.322  1.00  0.00     0.047 C 
ATOM     10  C   UNL A   1      36.104  22.785  25.838  1.00  0.00    -0.021 A 
ATOM     11  C   UNL A   1      36.891  21.671  25.471  1.00  0.00     0.044 A 
ATOM     12  C   UNL A   1      34.699  22.695  25.677  1.00  0.00     0.022 A 
ATOM     13  Cl  UNL A   1      38.621  21.691  25.551  1.00  0.00    -0.084 Cl
ATOM     14  C   UNL A   1      36.304  20.489  25.012  1.00  0.00     0.024 A 
ATOM     15  C   UNL A   1      34.133  21.501  25.205  1.00  0.00     0.128 A 
ATOM     16  C   UNL A   1      33.776  23.790  25.998  1.00  0.00     0.026 C 
ATOM     17  C   UNL A   1      34.923  20.400  24.892  1.00  0.00     0.048 A 
ATOM     18  O   UNL A   1      32.787  21.319  25.059  1.00  0.00    -0.475 OA
ATOM     19  C   UNL A   1      31.983  22.517  24.885  1.00  0.00     0.314 C 
BRANCH  19  20
ATOM     20  C   UNL A   1      31.789  22.784  23.380  1.00  0.00     0.429 C 
ATOM     21  F   UNL A   1      32.779  23.585  22.910  1.00  0.00    -0.167 F 
ATOM     22  F   UNL A   1      31.829  21.651  22.642  1.00  0.00    -0.167 F 
ATOM     23  F   UNL A   1      30.614  23.393  23.108  1.00  0.00    -0.167 F 
ENDBRANCH  19  20
ENDBRANCH   5   8
ENDBRANCH   3   4
ENDBRANCH   2   3
ENDBRANCH   1   2
BRANCH   1  24
ATOM     24  C   UNL A   1      33.675  28.690  26.589  1.00  0.00     0.116 C 
BRANCH  24  25
ATOM     25  N   UNL A   1      33.577  30.047  27.108  1.00  0.00    -0.352 N 
ATOM     26  C   UNL A   1      34.523  30.737  27.828  1.00  0.00     0.251 C 
ATOM     27  H   UNL A   1      32.737  30.524  26.921  1.00  0.00     0.163 HD
ATOM     28  O   UNL A   1      34.295  31.863  28.255  1.00  0.00    -0.269 OA
BRANCH  26  29
ATOM     29  C   UNL A   1      35.804  30.068  28.108  1.00  0.00     0.039 A 
ATOM     30  C   UNL A   1      36.805  30.104  27.135  1.00  0.00     0.014 A 
ATOM     31  C   UNL A   1      36.040  29.511  29.368  1.00  0.00     0.014 A 
ATOM     32  C   UNL A   1      38.079  29.639  27.452  1.00  0.00     0.010 A 
ATOM     33  C   UNL A   1      37.322  29.081  29.694  1.00  0.00     0.010 A 
ATOM     34  C   UNL A   1      38.353  29.157  28.744  1.00  0.00    -0.014 A 
BRANCH  34  35
ATOM     35  C   UNL A   1      39.725  28.753  29.122  1.00  0.00     0.031 A 
ATOM     36  C   UNL A   1      40.604  29.701  29.879  1.00  0.00     0.074 A 
ATOM     37  C   UNL A   1      40.188  27.546  28.742  1.00  0.00     0.049 A 
ATOM     38  N   UNL A   1      41.839  29.535  30.274  1.00  0.00    -0.248 NA
ATOM     39  C   UNL A   1      40.026  31.009  30.227  1.00  0.00     0.031 C 
ATOM     40  C   UNL A   1      39.431  26.551  27.977  1.00  0.00     0.029 A 
ATOM     41  N   UNL A   1      41.406  26.950  28.951  1.00  0.00    -0.354 N 
ATOM     42  C   UNL A   1      42.190  30.716  30.912  1.00  0.00     0.074 A 
ATOM     43  C   UNL A   1      41.051  31.604  30.822  1.00  0.00     0.031 C 
ATOM     44  C   UNL A   1      40.196  25.459  27.804  1.00  0.00     0.029 A 
ATOM     45  C   UNL A   1      41.497  25.684  28.425  1.00  0.00     0.049 A 
ATOM     46  H   UNL A   1      42.144  27.389  29.432  1.00  0.00     0.167 HD
ATOM     47  C   UNL A   1      43.352  31.027  31.531  1.00  0.00     0.031 A 
ATOM     48  C   UNL A   1      42.512  24.799  28.448  1.00  0.00     0.031 A 
ATOM     49  C   UNL A   1      44.478  30.141  31.629  1.00  0.00     0.049 A 
ATOM     50  C   UNL A   1      43.792  25.163  29.145  1.00  0.00     0.074 A 
ATOM     51  C   UNL A   1      45.690  30.358  32.260  1.00  0.00     0.029 A 
ATOM     52  N   UNL A   1      44.529  28.867  31.086  1.00  0.00    -0.354 N 
ATOM     53  N   UNL A   1      44.097  26.279  29.764  1.00  0.00    -0.248 NA
ATOM     54  C   UNL A   1      44.859  24.153  29.154  1.00  0.00     0.031 C 
ATOM     55  C   UNL A   1      46.482  29.219  32.083  1.00  0.00     0.029 A 
ATOM     56  C   UNL A   1      45.751  28.284  31.366  1.00  0.00     0.049 A 
ATOM     57  H   UNL A   1      43.802  28.440  30.578  1.00  0.00     0.167 HD
ATOM     58  C   UNL A   1      45.385  26.098  30.253  1.00  0.00     0.074 A 
ATOM     59  C   UNL A   1      45.803  24.768  29.857  1.00  0.00     0.031 C 
ATOM     60  C   UNL A   1      46.147  26.958  30.969  1.00  0.00     0.031 A 
BRANCH  47  61
ATOM     61  C   UNL A   1      43.452  32.386  32.158  1.00  0.00    -0.014 A 
ATOM     62  C   UNL A   1      43.890  33.490  31.405  1.00  0.00     0.010 A 
ATOM     63  C   UNL A   1      43.079  32.571  33.501  1.00  0.00     0.010 A 
ATOM     64  C   UNL A   1      43.986  34.751  31.995  1.00  0.00     0.020 A 
ATOM     65  C   UNL A   1      43.158  33.836  34.090  1.00  0.00     0.020 A 
ATOM     66  C   UNL A   1      43.622  34.916  33.335  1.00  0.00     0.054 A 
BRANCH  66  67
ATOM     67  S   UNL A   1      43.757  36.568  34.068  1.00  0.00     0.124 S 
ATOM     68  O   UNL A   1      42.367  36.864  34.407  1.00  0.00    -0.237 OA
ATOM     69  O   UNL A   1      44.645  36.339  35.205  1.00  0.00    -0.237 OA
ATOM     70  O   UNL A   1      44.319  37.382  32.994  1.00  0.00    -0.744 OA
ENDBRANCH  66  67
ENDBRANCH  47  61
BRANCH  48  71
ATOM     71  C   UNL A   1      42.329  23.466  27.822  1.00  0.00    -0.014 A 
ATOM     72  C   UNL A   1      42.682  23.268  26.476  1.00  0.00     0.010 A 
ATOM     73  C   UNL A   1      41.865  22.378  28.581  1.00  0.00     0.010 A 
ATOM     74  C   UNL A   1      42.586  21.997  25.902  1.00  0.00     0.020 A 
ATOM     75  C   UNL A   1      41.779  21.103  28.013  1.00  0.00     0.020 A 
ATOM     76  C   UNL A   1      42.144  20.920  26.678  1.00  0.00     0.054 A 
BRANCH  76  77
ATOM     77  S   UNL A   1      42.106  19.270  25.924  1.00  0.00     0.124 S 
ATOM     78  O   UNL A   1      42.622  18.429  26.999  1.00  0.00    -0.237 OA
ATOM     79  O   UNL A   1      40.687  19.105  25.616  1.00  0.00    -0.237 OA
ATOM     80  O   UNL A   1      42.979  19.403  24.760  1.00  0.00    -0.744 OA
ENDBRANCH  76  77
ENDBRANCH  48  71
BRANCH  60  81
ATOM     81  C   UNL A   1      47.509  26.497  31.398  1.00  0.00    -0.014 A 
ATOM     82  C   UNL A   1      47.714  25.971  32.684  1.00  0.00     0.010 A 
ATOM     83  C   UNL A   1      48.559  26.472  30.462  1.00  0.00     0.010 A 
ATOM     84  C   UNL A   1      48.950  25.415  33.025  1.00  0.00     0.020 A 
ATOM     85  C   UNL A   1      49.792  25.907  30.797  1.00  0.00     0.020 A 
ATOM     86  C   UNL A   1      49.977  25.378  32.076  1.00  0.00     0.054 A 
BRANCH  86  87
ATOM     87  S   UNL A   1      51.540  24.570  32.522  1.00  0.00     0.124 S 
ATOM     88  O   UNL A   1      51.622  24.834  33.956  1.00  0.00    -0.237 OA
ATOM     89  O   UNL A   1      51.292  23.180  32.152  1.00  0.00    -0.237 OA
ATOM     90  O   UNL A   1      52.535  25.262  31.705  1.00  0.00    -0.744 OA
ENDBRANCH  86  87
ENDBRANCH  60  81
ENDBRANCH  34  35
ENDBRANCH  26  29
ENDBRANCH  24  25
ENDBRANCH   1  24
TORSDOF 15
ENDMDL
MODEL 2
REMARK VINA RESULT:     -11.0      3.528      4.582
REMARK SMILES Cc1c(Cl)ccc2c1C=C(C(=O)NCCCCNC(=O)c1ccc(-c3c4nc(c(-c5ccc(S(=O)(=O)[O-])cc5)c5ccc([nH]5)c(-c5ccc(S(=O)(=O)[O-])cc5)c5nc(c(-c6ccc(S(=O)(=O)[O-])cc6)c6ccc3[nH]6)C=C5)C=C4)cc1)[C@@H](C(F)(F)F)O2
REMARK SMILES IDX 16 1 15 2 14 3 13 4 11 5 12 6 10 8 1 9 2 10 3 11 8 12 4 13
REMARK SMILES IDX 5 14 7 15 9 16 6 17 86 18 81 19 82 20 83 21 84 22 85 23
REMARK SMILES IDX 17 24 18 25 19 26 20 28 21 29 22 30 80 31 23 32 79 33 24 34
REMARK SMILES IDX 25 35 26 36 73 37 27 38 78 39 72 40 74 41 28 42 77 43 71 44
REMARK SMILES IDX 70 45 29 47 59 48 40 49 58 50 41 51 44 52 57 53 75 54 42 55
REMARK SMILES IDX 43 56 56 58 76 59 45 60 30 61 31 62 39 63 32 64 38 65 33 66
REMARK SMILES IDX 34 67 35 68 36 69 37 70 60 71 61 72 69 73 62 74 68 75 63 76
REMARK SMILES IDX 64 77 65 78 66 79 67 80 46 81 47 82 55 83 48 84 54 85 49 86
REMARK SMILES IDX 50 87 51 88 52 89 53 90
REMARK H PARENT 13 7 18 27 74 46 44 57
REMARK Flexibility Score: inf
ROOT
ATOM      1  C   UNL A   1      35.214  31.864  27.981  1.00  0.00     0.023 C 
ENDROOT
BRANCH   1   2
ATOM      2  C   UNL A   1      34.912  30.422  27.562  1.00  0.00     0.023 C 
BRANCH   2   3
ATOM      3  C   UNL A   1      33.472  30.185  27.120  1.00  0.00     0.116 C 
BRANCH   3   4
ATOM      4  N   UNL A   1      33.378  29.896  25.699  1.00  0.00    -0.352 N 
ATOM      5  C   UNL A   1      33.052  28.836  24.925  1.00  0.00     0.251 C 
ATOM      6  O   UNL A   1      33.117  29.037  23.707  1.00  0.00    -0.270 OA
ATOM      7  H   UNL A   1      33.617  30.680  25.156  1.00  0.00     0.163 HD
BRANCH   5   8
ATOM      8  C   UNL A   1      32.626  27.492  25.423  1.00  0.00     0.067 C 
ATOM      9  C   UNL A   1      35.640  24.371  25.419  1.00  0.00     0.047 C 
ATOM     10  C   UNL A   1      34.245  24.158  25.955  1.00  0.00    -0.021 A 
ATOM     11  C   UNL A   1      33.823  22.875  26.371  1.00  0.00     0.044 A 
ATOM     12  C   UNL A   1      33.305  25.218  25.991  1.00  0.00     0.022 A 
ATOM     13  Cl  UNL A   1      34.857  21.489  26.299  1.00  0.00    -0.084 Cl
ATOM     14  C   UNL A   1      32.530  22.662  26.859  1.00  0.00     0.024 A 
ATOM     15  C   UNL A   1      32.011  24.976  26.475  1.00  0.00     0.128 A 
ATOM     16  C   UNL A   1      33.613  26.587  25.562  1.00  0.00     0.026 C 
ATOM     17  C   UNL A   1      31.629  23.716  26.924  1.00  0.00     0.048 A 
ATOM     18  O   UNL A   1      31.059  25.951  26.581  1.00  0.00    -0.475 OA
ATOM     19  C   UNL A   1      31.208  27.103  25.708  1.00  0.00     0.314 C 
BRANCH  19  20
ATOM     20  C   UNL A   1      30.382  26.878  24.427  1.00  0.00     0.429 C 
ATOM     21  F   UNL A   1      31.145  26.298  23.467  1.00  0.00    -0.167 F 
ATOM     22  F   UNL A   1      29.326  26.056  24.625  1.00  0.00    -0.167 F 
ATOM     23  F   UNL A   1      29.896  28.031  23.914  1.00  0.00    -0.167 F 
ENDBRANCH  19  20
ENDBRANCH   5   8
ENDBRANCH   3   4
ENDBRANCH   2   3
ENDBRANCH   1   2
BRANCH   1  24
ATOM     24  C   UNL A   1      36.159  32.021  29.173  1.00  0.00     0.116 C 
BRANCH  24  25
ATOM     25  N   UNL A   1      35.865  31.118  30.276  1.00  0.00    -0.352 N 
ATOM     26  C   UNL A   1      36.695  30.171  30.827  1.00  0.00     0.251 C 
ATOM     27  H   UNL A   1      34.968  31.194  30.674  1.00  0.00     0.163 HD
ATOM     28  O   UNL A   1      36.306  29.432  31.724  1.00  0.00    -0.269 OA
BRANCH  26  29
ATOM     29  C   UNL A   1      38.056  30.040  30.278  1.00  0.00     0.039 A 
ATOM     30  C   UNL A   1      39.136  30.028  31.163  1.00  0.00     0.014 A 
ATOM     31  C   UNL A   1      38.239  29.819  28.910  1.00  0.00     0.014 A 
ATOM     32  C   UNL A   1      40.407  29.722  30.681  1.00  0.00     0.010 A 
ATOM     33  C   UNL A   1      39.502  29.479  28.438  1.00  0.00     0.010 A 
ATOM     34  C   UNL A   1      40.590  29.412  29.323  1.00  0.00    -0.014 A 
BRANCH  34  35
ATOM     35  C   UNL A   1      41.915  28.990  28.818  1.00  0.00     0.031 A 
ATOM     36  C   UNL A   1      43.040  29.978  28.746  1.00  0.00     0.074 A 
ATOM     37  C   UNL A   1      42.087  27.726  28.385  1.00  0.00     0.049 A 
ATOM     38  N   UNL A   1      44.258  29.801  28.309  1.00  0.00    -0.248 NA
ATOM     39  C   UNL A   1      42.755  31.344  29.213  1.00  0.00     0.031 C 
ATOM     40  C   UNL A   1      41.056  26.685  28.380  1.00  0.00     0.029 A 
ATOM     41  N   UNL A   1      43.193  27.102  27.867  1.00  0.00    -0.354 N 
ATOM     42  C   UNL A   1      44.886  31.032  28.443  1.00  0.00     0.074 A 
ATOM     43  C   UNL A   1      43.905  31.956  28.968  1.00  0.00     0.031 C 
ATOM     44  C   UNL A   1      41.588  25.545  27.908  1.00  0.00     0.029 A 
ATOM     45  C   UNL A   1      42.985  25.779  27.557  1.00  0.00     0.049 A 
ATOM     46  H   UNL A   1      44.054  27.558  27.730  1.00  0.00     0.167 HD
ATOM     47  C   UNL A   1      46.170  31.358  28.167  1.00  0.00     0.031 A 
ATOM     48  C   UNL A   1      43.828  24.856  27.056  1.00  0.00     0.031 A 
ATOM     49  C   UNL A   1      47.147  30.437  27.656  1.00  0.00     0.049 A 
ATOM     50  C   UNL A   1      45.250  25.238  26.762  1.00  0.00     0.074 A 
ATOM     51  C   UNL A   1      48.480  30.669  27.370  1.00  0.00     0.029 A 
ATOM     52  N   UNL A   1      46.896  29.106  27.360  1.00  0.00    -0.354 N 
ATOM     53  N   UNL A   1      45.832  26.403  26.917  1.00  0.00    -0.248 NA
ATOM     54  C   UNL A   1      46.129  24.186  26.233  1.00  0.00     0.031 C 
ATOM     55  C   UNL A   1      49.033  29.480  26.883  1.00  0.00     0.029 A 
ATOM     56  C   UNL A   1      48.049  28.503  26.893  1.00  0.00     0.049 A 
ATOM     57  H   UNL A   1      46.027  28.657  27.466  1.00  0.00     0.167 HD
ATOM     58  C   UNL A   1      47.152  26.221  26.523  1.00  0.00     0.074 A 
ATOM     59  C   UNL A   1      47.283  24.834  26.120  1.00  0.00     0.031 C 
ATOM     60  C   UNL A   1      48.162  27.121  26.502  1.00  0.00     0.031 A 
BRANCH  47  61
ATOM     61  C   UNL A   1      46.587  32.775  28.426  1.00  0.00    -0.014 A 
ATOM     62  C   UNL A   1      46.454  33.753  27.424  1.00  0.00     0.010 A 
ATOM     63  C   UNL A   1      47.091  33.142  29.686  1.00  0.00     0.010 A 
ATOM     64  C   UNL A   1      46.848  35.069  27.669  1.00  0.00     0.020 A 
ATOM     65  C   UNL A   1      47.472  34.463  29.939  1.00  0.00     0.020 A 
ATOM     66  C   UNL A   1      47.358  35.416  28.924  1.00  0.00     0.054 A 
BRANCH  66  67
ATOM     67  S   UNL A   1      47.859  37.135  29.208  1.00  0.00     0.124 S 
ATOM     68  O   UNL A   1      49.112  37.211  28.460  1.00  0.00    -0.237 OA
ATOM     69  O   UNL A   1      46.744  37.888  28.641  1.00  0.00    -0.237 OA
ATOM     70  O   UNL A   1      47.997  37.223  30.659  1.00  0.00    -0.744 OA
ENDBRANCH  66  67
ENDBRANCH  47  61
BRANCH  48  71
ATOM     71  C   UNL A   1      43.345  23.468  26.847  1.00  0.00    -0.014 A 
ATOM     72  C   UNL A   1      43.335  22.915  25.555  1.00  0.00     0.010 A 
ATOM     73  C   UNL A   1      42.956  22.674  27.940  1.00  0.00     0.010 A 
ATOM     74  C   UNL A   1      42.956  21.585  25.360  1.00  0.00     0.020 A 
ATOM     75  C   UNL A   1      42.588  21.339  27.750  1.00  0.00     0.020 A 
ATOM     76  C   UNL A   1      42.594  20.801  26.461  1.00  0.00     0.054 A 
BRANCH  76  77
ATOM     77  S   UNL A   1      42.183  19.056  26.183  1.00  0.00     0.124 S 
ATOM     78  O   UNL A   1      43.061  18.706  25.071  1.00  0.00    -0.237 OA
ATOM     79  O   UNL A   1      42.519  18.452  27.471  1.00  0.00    -0.237 OA
ATOM     80  O   UNL A   1      40.756  19.084  25.869  1.00  0.00    -0.744 OA
ENDBRANCH  76  77
ENDBRANCH  48  71
BRANCH  60  81
ATOM     81  C   UNL A   1      49.513  26.650  26.050  1.00  0.00    -0.014 A 
ATOM     82  C   UNL A   1      49.959  26.905  24.743  1.00  0.00     0.010 A 
ATOM     83  C   UNL A   1      50.389  26.062  26.980  1.00  0.00     0.010 A 
ATOM     84  C   UNL A   1      51.270  26.588  24.375  1.00  0.00     0.020 A 
ATOM     85  C   UNL A   1      51.703  25.755  26.619  1.00  0.00     0.020 A 
ATOM     86  C   UNL A   1      52.135  26.024  25.318  1.00  0.00     0.054 A 
BRANCH  86  87
ATOM     87  S   UNL A   1      53.855  25.707  24.834  1.00  0.00     0.124 S 
ATOM     88  O   UNL A   1      53.900  26.260  23.483  1.00  0.00    -0.237 OA
ATOM     89  O   UNL A   1      54.608  26.448  25.842  1.00  0.00    -0.237 OA
ATOM     90  O   UNL A   1      53.976  24.253  24.914  1.00  0.00    -0.744 OA
ENDBRANCH  86  87
ENDBRANCH  60  81
ENDBRANCH  34  35
ENDBRANCH  26  29
ENDBRANCH  24  25
ENDBRANCH   1  24
TORSDOF 15
ENDMDL
MODEL 3
REMARK VINA RESULT:     -11.0      1.456      8.356
REMARK SMILES Cc1c(Cl)ccc2c1C=C(C(=O)NCCCCNC(=O)c1ccc(-c3c4nc(c(-c5ccc(S(=O)(=O)[O-])cc5)c5ccc([nH]5)c(-c5ccc(S(=O)(=O)[O-])cc5)c5nc(c(-c6ccc(S(=O)(=O)[O-])cc6)c6ccc3[nH]6)C=C5)C=C4)cc1)[C@@H](C(F)(F)F)O2
REMARK SMILES IDX 16 1 15 2 14 3 13 4 11 5 12 6 10 8 1 9 2 10 3 11 8 12 4 13
REMARK SMILES IDX 5 14 7 15 9 16 6 17 86 18 81 19 82 20 83 21 84 22 85 23
REMARK SMILES IDX 17 24 18 25 19 26 20 28 21 29 22 30 80 31 23 32 79 33 24 34
REMARK SMILES IDX 25 35 26 36 73 37 27 38 78 39 72 40 74 41 28 42 77 43 71 44
REMARK SMILES IDX 70 45 29 47 59 48 40 49 58 50 41 51 44 52 57 53 75 54 42 55
REMARK SMILES IDX 43 56 56 58 76 59 45 60 30 61 31 62 39 63 32 64 38 65 33 66
REMARK SMILES IDX 34 67 35 68 36 69 37 70 60 71 61 72 69 73 62 74 68 75 63 76
REMARK SMILES IDX 64 77 65 78 66 79 67 80 46 81 47 82 55 83 48 84 54 85 49 86
REMARK SMILES IDX 50 87 51 88 52 89 53 90
REMARK H PARENT 13 7 18 27 74 46 44 57
REMARK Flexibility Score: inf
ROOT
ATOM      1  C   UNL A   1      34.061  27.974  25.739  1.00  0.00     0.023 C 
ENDROOT
BRANCH   1   2
ATOM      2  C   UNL A   1      33.267  28.667  24.627  1.00  0.00     0.023 C 
BRANCH   2   3
ATOM      3  C   UNL A   1      33.908  28.572  23.246  1.00  0.00     0.116 C 
BRANCH   3   4
ATOM      4  N   UNL A   1      33.168  27.690  22.361  1.00  0.00    -0.352 N 
ATOM      5  C   UNL A   1      32.788  26.392  22.348  1.00  0.00     0.251 C 
ATOM      6  O   UNL A   1      32.148  26.043  21.350  1.00  0.00    -0.270 OA
ATOM      7  H   UNL A   1      32.861  28.164  21.555  1.00  0.00     0.163 HD
BRANCH   5   8
ATOM      8  C   UNL A   1      33.073  25.391  23.421  1.00  0.00     0.067 C 
ATOM      9  C   UNL A   1      36.626  22.952  22.915  1.00  0.00     0.047 C 
ATOM     10  C   UNL A   1      35.743  22.865  24.136  1.00  0.00    -0.021 A 
ATOM     11  C   UNL A   1      35.977  21.881  25.122  1.00  0.00     0.044 A 
ATOM     12  C   UNL A   1      34.622  23.718  24.291  1.00  0.00     0.022 A 
ATOM     13  Cl  UNL A   1      37.267  20.734  25.001  1.00  0.00    -0.084 Cl
ATOM     14  C   UNL A   1      35.160  21.782  26.253  1.00  0.00     0.024 A 
ATOM     15  C   UNL A   1      33.812  23.592  25.429  1.00  0.00     0.128 A 
ATOM     16  C   UNL A   1      34.259  24.760  23.325  1.00  0.00     0.026 C 
ATOM     17  C   UNL A   1      34.086  22.647  26.412  1.00  0.00     0.048 A 
ATOM     18  O   UNL A   1      32.737  24.400  25.674  1.00  0.00    -0.475 OA
ATOM     19  C   UNL A   1      32.121  25.030  24.520  1.00  0.00     0.314 C 
BRANCH  19  20
ATOM     20  C   UNL A   1      30.950  24.156  24.031  1.00  0.00     0.429 C 
ATOM     21  F   UNL A   1      31.349  23.359  23.008  1.00  0.00    -0.167 F 
ATOM     22  F   UNL A   1      30.475  23.335  24.995  1.00  0.00    -0.167 F 
ATOM     23  F   UNL A   1      29.905  24.890  23.586  1.00  0.00    -0.167 F 
ENDBRANCH  19  20
ENDBRANCH   5   8
ENDBRANCH   3   4
ENDBRANCH   2   3
ENDBRANCH   1   2
BRANCH   1  24
ATOM     24  C   UNL A   1      33.543  28.201  27.159  1.00  0.00     0.116 C 
BRANCH  24  25
ATOM     25  N   UNL A   1      33.361  29.605  27.499  1.00  0.00    -0.352 N 
ATOM     26  C   UNL A   1      34.302  30.475  27.996  1.00  0.00     0.251 C 
ATOM     27  H   UNL A   1      32.459  29.973  27.356  1.00  0.00     0.163 HD
ATOM     28  O   UNL A   1      34.005  31.626  28.293  1.00  0.00    -0.269 OA
BRANCH  26  29
ATOM     29  C   UNL A   1      35.670  29.970  28.202  1.00  0.00     0.039 A 
ATOM     30  C   UNL A   1      36.579  30.050  27.145  1.00  0.00     0.014 A 
ATOM     31  C   UNL A   1      36.069  29.528  29.467  1.00  0.00     0.014 A 
ATOM     32  C   UNL A   1      37.920  29.750  27.376  1.00  0.00     0.010 A 
ATOM     33  C   UNL A   1      37.414  29.264  29.703  1.00  0.00     0.010 A 
ATOM     34  C   UNL A   1      38.350  29.389  28.664  1.00  0.00    -0.014 A 
BRANCH  34  35
ATOM     35  C   UNL A   1      39.785  29.164  28.945  1.00  0.00     0.031 A 
ATOM     36  C   UNL A   1      40.408  27.835  28.643  1.00  0.00     0.074 A 
ATOM     37  C   UNL A   1      40.511  30.147  29.512  1.00  0.00     0.049 A 
ATOM     38  N   UNL A   1      41.638  27.444  28.844  1.00  0.00    -0.248 NA
ATOM     39  C   UNL A   1      39.534  26.810  28.051  1.00  0.00     0.031 C 
ATOM     40  C   UNL A   1      40.003  31.473  29.876  1.00  0.00     0.029 A 
ATOM     41  N   UNL A   1      41.832  30.184  29.879  1.00  0.00    -0.354 N 
ATOM     42  C   UNL A   1      41.688  26.126  28.409  1.00  0.00     0.074 A 
ATOM     43  C   UNL A   1      40.356  25.774  27.966  1.00  0.00     0.031 C 
ATOM     44  C   UNL A   1      41.010  32.200  30.390  1.00  0.00     0.029 A 
ATOM     45  C   UNL A   1      42.223  31.388  30.412  1.00  0.00     0.049 A 
ATOM     46  H   UNL A   1      42.442  29.419  29.770  1.00  0.00     0.167 HD
ATOM     47  C   UNL A   1      42.751  25.291  28.368  1.00  0.00     0.031 A 
ATOM     48  C   UNL A   1      43.425  31.798  30.859  1.00  0.00     0.031 A 
ATOM     49  C   UNL A   1      44.075  25.645  28.797  1.00  0.00     0.049 A 
ATOM     50  C   UNL A   1      44.593  30.856  30.800  1.00  0.00     0.074 A 
ATOM     51  C   UNL A   1      45.223  24.874  28.769  1.00  0.00     0.029 A 
ATOM     52  N   UNL A   1      44.429  26.877  29.328  1.00  0.00    -0.354 N 
ATOM     53  N   UNL A   1      44.625  29.619  30.363  1.00  0.00    -0.248 NA
ATOM     54  C   UNL A   1      45.885  31.361  31.286  1.00  0.00     0.031 C 
ATOM     55  C   UNL A   1      46.270  25.634  29.300  1.00  0.00     0.029 A 
ATOM     56  C   UNL A   1      45.778  26.887  29.632  1.00  0.00     0.049 A 
ATOM     57  H   UNL A   1      43.812  27.631  29.466  1.00  0.00     0.167 HD
ATOM     58  C   UNL A   1      45.943  29.204  30.503  1.00  0.00     0.074 A 
ATOM     59  C   UNL A   1      46.679  30.318  31.067  1.00  0.00     0.031 C 
ATOM     60  C   UNL A   1      46.492  28.007  30.187  1.00  0.00     0.031 A 
BRANCH  47  61
ATOM     61  C   UNL A   1      42.518  23.911  27.828  1.00  0.00    -0.014 A 
ATOM     62  C   UNL A   1      42.125  22.866  28.683  1.00  0.00     0.010 A 
ATOM     63  C   UNL A   1      42.664  23.660  26.452  1.00  0.00     0.010 A 
ATOM     64  C   UNL A   1      41.913  21.584  28.176  1.00  0.00     0.020 A 
ATOM     65  C   UNL A   1      42.438  22.380  25.939  1.00  0.00     0.020 A 
ATOM     66  C   UNL A   1      42.074  21.347  26.807  1.00  0.00     0.054 A 
BRANCH  66  67
ATOM     67  S   UNL A   1      41.791  19.669  26.182  1.00  0.00     0.124 S 
ATOM     68  O   UNL A   1      42.650  19.636  25.001  1.00  0.00    -0.237 OA
ATOM     69  O   UNL A   1      42.228  18.837  27.300  1.00  0.00    -0.237 OA
ATOM     70  O   UNL A   1      40.357  19.637  25.906  1.00  0.00    -0.744 OA
ENDBRANCH  66  67
ENDBRANCH  47  61
BRANCH  48  71
ATOM     71  C   UNL A   1      43.581  33.186  31.360  1.00  0.00    -0.014 A 
ATOM     72  C   UNL A   1      43.431  33.458  32.731  1.00  0.00     0.010 A 
ATOM     73  C   UNL A   1      43.941  34.225  30.485  1.00  0.00     0.010 A 
ATOM     74  C   UNL A   1      43.652  34.748  33.222  1.00  0.00     0.020 A 
ATOM     75  C   UNL A   1      44.175  35.514  30.975  1.00  0.00     0.020 A 
ATOM     76  C   UNL A   1      44.033  35.766  32.341  1.00  0.00     0.054 A 
BRANCH  76  77
ATOM     77  S   UNL A   1      44.389  37.410  33.022  1.00  0.00     0.124 S 
ATOM     78  O   UNL A   1      44.686  38.183  31.821  1.00  0.00    -0.237 OA
ATOM     79  O   UNL A   1      43.136  37.742  33.697  1.00  0.00    -0.237 OA
ATOM     80  O   UNL A   1      45.525  37.175  33.912  1.00  0.00    -0.744 OA
ENDBRANCH  76  77
ENDBRANCH  48  71
BRANCH  60  81
ATOM     81  C   UNL A   1      47.964  27.828  30.419  1.00  0.00    -0.014 A 
ATOM     82  C   UNL A   1      48.438  27.277  31.620  1.00  0.00     0.010 A 
ATOM     83  C   UNL A   1      48.868  28.094  29.374  1.00  0.00     0.010 A 
ATOM     84  C   UNL A   1      49.796  26.984  31.770  1.00  0.00     0.020 A 
ATOM     85  C   UNL A   1      50.224  27.792  29.516  1.00  0.00     0.020 A 
ATOM     86  C   UNL A   1      50.678  27.234  30.714  1.00  0.00     0.054 A 
BRANCH  86  87
ATOM     87  S   UNL A   1      52.418  26.760  30.908  1.00  0.00     0.124 S 
ATOM     88  O   UNL A   1      52.986  27.938  31.557  1.00  0.00    -0.237 OA
ATOM     89  O   UNL A   1      52.328  25.565  31.743  1.00  0.00    -0.237 OA
ATOM     90  O   UNL A   1      52.871  26.527  29.538  1.00  0.00    -0.744 OA
ENDBRANCH  86  87
ENDBRANCH  60  81
ENDBRANCH  34  35
ENDBRANCH  26  29
ENDBRANCH  24  25
ENDBRANCH   1  24
TORSDOF 15
ENDMDL
