MODEL 1
REMARK VINA RESULT:     -10.0      0.000      0.000
REMARK SMILES CC1(C)CCC[C@@H]1[C@H](O)C(=O)NCCCCNC(=O)c1ccc(-c2c3nc(c(-c4ccc(S(=O)(=O)[O-])cc4)c4ccc([nH]4)c(-c4ccc(S(=O)(=O)[O-])cc4)c4nc(c(-c5ccc(S(=O)(=O)[O-])cc5)c5ccc2[nH]5)C=C4)C=C3)cc1
REMARK SMILES IDX 15 1 14 2 13 3 12 4 10 5 11 6 8 8 7 9 1 10 2 11 3 12 4 13
REMARK SMILES IDX 5 14 6 15 9 16 16 18 17 19 18 20 19 22 20 23 21 24 79 25
REMARK SMILES IDX 22 26 78 27 23 28 24 29 25 30 72 31 26 32 77 33 71 34 73 35
REMARK SMILES IDX 27 36 76 37 70 38 69 39 28 41 58 42 39 43 57 44 40 45 43 46
REMARK SMILES IDX 56 47 74 48 41 49 42 50 55 52 75 53 44 54 29 55 30 56 38 57
REMARK SMILES IDX 31 58 37 59 32 60 33 61 34 62 35 63 36 64 59 65 60 66 68 67
REMARK SMILES IDX 61 68 67 69 62 70 63 71 64 72 65 73 66 74 45 75 46 76 54 77
REMARK SMILES IDX 47 78 53 79 48 80 49 81 50 82 51 83 52 84
REMARK H PARENT 12 7 9 17 17 21 73 40 43 51
REMARK Flexibility Score: inf
ROOT
ATOM      1  C   UNL A   1      35.159  34.317  28.867  1.00  0.00     0.023 C 
ENDROOT
BRANCH   1   2
ATOM      2  C   UNL A   1      33.712  34.808  28.832  1.00  0.00     0.023 C 
BRANCH   2   3
ATOM      3  C   UNL A   1      33.387  35.948  29.791  1.00  0.00     0.116 C 
BRANCH   3   4
ATOM      4  N   UNL A   1      32.453  35.555  30.831  1.00  0.00    -0.354 N 
ATOM      5  C   UNL A   1      32.698  35.258  32.140  1.00  0.00     0.249 C 
ATOM      6  O   UNL A   1      31.745  34.964  32.866  1.00  0.00    -0.272 OA
ATOM      7  H   UNL A   1      31.510  35.494  30.553  1.00  0.00     0.163 HD
BRANCH   5   8
ATOM      8  C   UNL A   1      34.135  35.290  32.701  1.00  0.00     0.206 C 
BRANCH   8   9
ATOM      9  C   UNL A   1      34.641  33.876  33.044  1.00  0.00     0.033 C 
ATOM     10  C   UNL A   1      36.410  34.133  34.893  1.00  0.00     0.011 C 
ATOM     11  C   UNL A   1      36.133  33.727  33.438  1.00  0.00    -0.030 C 
ATOM     12  C   UNL A   1      37.085  34.496  32.507  1.00  0.00     0.011 C 
ATOM     13  C   UNL A   1      36.325  32.207  33.277  1.00  0.00     0.007 C 
ATOM     14  C   UNL A   1      35.533  31.829  32.030  1.00  0.00     0.001 C 
ATOM     15  C   UNL A   1      34.453  32.896  31.871  1.00  0.00     0.007 C 
ENDBRANCH   8   9
BRANCH   8  16
ATOM     16  O   UNL A   1      34.228  36.165  33.820  1.00  0.00    -0.383 OA
ATOM     17  H   UNL A   1      34.786  36.924  33.591  1.00  0.00     0.211 HD
ENDBRANCH   8  16
ENDBRANCH   5   8
ENDBRANCH   3   4
ENDBRANCH   2   3
ENDBRANCH   1   2
BRANCH   1  18
ATOM     18  C   UNL A   1      35.498  33.190  27.896  1.00  0.00     0.116 C 
BRANCH  18  19
ATOM     19  N   UNL A   1      34.458  32.176  27.807  1.00  0.00    -0.352 N 
ATOM     20  C   UNL A   1      34.567  30.808  27.878  1.00  0.00     0.251 C 
ATOM     21  H   UNL A   1      33.544  32.520  27.679  1.00  0.00     0.163 HD
ATOM     22  O   UNL A   1      33.586  30.101  27.660  1.00  0.00    -0.269 OA
BRANCH  20  23
ATOM     23  C   UNL A   1      35.877  30.190  28.178  1.00  0.00     0.039 A 
ATOM     24  C   UNL A   1      36.854  30.161  27.180  1.00  0.00     0.014 A 
ATOM     25  C   UNL A   1      36.151  29.672  29.446  1.00  0.00     0.014 A 
ATOM     26  C   UNL A   1      38.134  29.687  27.480  1.00  0.00     0.010 A 
ATOM     27  C   UNL A   1      37.446  29.273  29.763  1.00  0.00     0.010 A 
ATOM     28  C   UNL A   1      38.453  29.280  28.786  1.00  0.00    -0.014 A 
BRANCH  28  29
ATOM     29  C   UNL A   1      39.837  28.886  29.153  1.00  0.00     0.031 A 
ATOM     30  C   UNL A   1      40.757  29.872  29.821  1.00  0.00     0.074 A 
ATOM     31  C   UNL A   1      40.294  27.664  28.813  1.00  0.00     0.049 A 
ATOM     32  N   UNL A   1      42.011  29.725  30.167  1.00  0.00    -0.248 NA
ATOM     33  C   UNL A   1      40.205  31.205  30.114  1.00  0.00     0.031 C 
ATOM     34  C   UNL A   1      39.522  26.637  28.109  1.00  0.00     0.029 A 
ATOM     35  N   UNL A   1      41.523  27.082  29.002  1.00  0.00    -0.354 N 
ATOM     36  C   UNL A   1      42.404  30.950  30.694  1.00  0.00     0.074 A 
ATOM     37  C   UNL A   1      41.269  31.841  30.582  1.00  0.00     0.031 C 
ATOM     38  C   UNL A   1      40.286  25.545  27.947  1.00  0.00     0.029 A 
ATOM     39  C   UNL A   1      41.612  25.805  28.500  1.00  0.00     0.049 A 
ATOM     40  H   UNL A   1      42.269  27.536  29.455  1.00  0.00     0.167 HD
ATOM     41  C   UNL A   1      43.595  31.298  31.238  1.00  0.00     0.031 A 
ATOM     42  C   UNL A   1      42.644  24.939  28.479  1.00  0.00     0.031 A 
ATOM     43  C   UNL A   1      44.717  30.405  31.362  1.00  0.00     0.049 A 
ATOM     44  C   UNL A   1      43.951  25.338  29.105  1.00  0.00     0.074 A 
ATOM     45  C   UNL A   1      45.939  30.640  31.966  1.00  0.00     0.029 A 
ATOM     46  N   UNL A   1      44.758  29.110  30.865  1.00  0.00    -0.354 N 
ATOM     47  N   UNL A   1      44.276  26.473  29.677  1.00  0.00    -0.248 NA
ATOM     48  C   UNL A   1      45.026  24.336  29.096  1.00  0.00     0.031 C 
ATOM     49  C   UNL A   1      46.738  29.505  31.790  1.00  0.00     0.029 A 
ATOM     50  C   UNL A   1      45.993  28.542  31.126  1.00  0.00     0.049 A 
ATOM     51  H   UNL A   1      44.017  28.661  30.397  1.00  0.00     0.167 HD
ATOM     52  C   UNL A   1      45.586  26.316  30.113  1.00  0.00     0.074 A 
ATOM     53  C   UNL A   1      45.987  24.970  29.754  1.00  0.00     0.031 C 
ATOM     54  C   UNL A   1      46.383  27.205  30.755  1.00  0.00     0.031 A 
BRANCH  41  55
ATOM     55  C   UNL A   1      43.744  32.713  31.731  1.00  0.00    -0.014 A 
ATOM     56  C   UNL A   1      43.396  33.069  33.047  1.00  0.00     0.010 A 
ATOM     57  C   UNL A   1      44.262  33.700  30.871  1.00  0.00     0.010 A 
ATOM     58  C   UNL A   1      43.510  34.393  33.477  1.00  0.00     0.020 A 
ATOM     59  C   UNL A   1      44.407  35.020  31.307  1.00  0.00     0.020 A 
ATOM     60  C   UNL A   1      44.009  35.362  32.602  1.00  0.00     0.054 A 
BRANCH  60  61
ATOM     61  S   UNL A   1      44.152  37.073  33.186  1.00  0.00     0.124 S 
ATOM     62  O   UNL A   1      43.911  37.830  31.960  1.00  0.00    -0.237 OA
ATOM     63  O   UNL A   1      43.097  37.157  34.193  1.00  0.00    -0.237 OA
ATOM     64  O   UNL A   1      45.514  37.149  33.707  1.00  0.00    -0.744 OA
ENDBRANCH  60  61
ENDBRANCH  41  55
BRANCH  42  65
ATOM     65  C   UNL A   1      42.466  23.598  27.858  1.00  0.00    -0.014 A 
ATOM     66  C   UNL A   1      42.752  23.399  26.496  1.00  0.00     0.010 A 
ATOM     67  C   UNL A   1      42.050  22.503  28.636  1.00  0.00     0.010 A 
ATOM     68  C   UNL A   1      42.619  22.131  25.922  1.00  0.00     0.020 A 
ATOM     69  C   UNL A   1      41.939  21.229  28.072  1.00  0.00     0.020 A 
ATOM     70  C   UNL A   1      42.219  21.052  26.715  1.00  0.00     0.054 A 
BRANCH  70  71
ATOM     71  S   UNL A   1      42.129  19.402  25.968  1.00  0.00     0.124 S 
ATOM     72  O   UNL A   1      43.002  19.545  24.808  1.00  0.00    -0.237 OA
ATOM     73  O   UNL A   1      42.632  18.543  27.038  1.00  0.00    -0.237 OA
ATOM     74  O   UNL A   1      40.707  19.240  25.667  1.00  0.00    -0.744 OA
ENDBRANCH  70  71
ENDBRANCH  42  65
BRANCH  54  75
ATOM     75  C   UNL A   1      47.767  26.747  31.134  1.00  0.00    -0.014 A 
ATOM     76  C   UNL A   1      47.993  26.007  32.308  1.00  0.00     0.010 A 
ATOM     77  C   UNL A   1      48.846  27.013  30.272  1.00  0.00     0.010 A 
ATOM     78  C   UNL A   1      49.280  25.569  32.628  1.00  0.00     0.020 A 
ATOM     79  C   UNL A   1      50.130  26.553  30.576  1.00  0.00     0.020 A 
ATOM     80  C   UNL A   1      50.342  25.845  31.760  1.00  0.00     0.054 A 
BRANCH  80  81
ATOM     81  S   UNL A   1      51.995  25.227  32.176  1.00  0.00     0.124 S 
ATOM     82  O   UNL A   1      52.757  25.570  30.980  1.00  0.00    -0.237 OA
ATOM     83  O   UNL A   1      52.331  25.989  33.376  1.00  0.00    -0.237 OA
ATOM     84  O   UNL A   1      51.786  23.798  32.394  1.00  0.00    -0.744 OA
ENDBRANCH  80  81
ENDBRANCH  54  75
ENDBRANCH  28  29
ENDBRANCH  20  23
ENDBRANCH  18  19
ENDBRANCH   1  18
TORSDOF 16
ENDMDL
MODEL 2
REMARK VINA RESULT:      -9.9      3.163      5.550
REMARK SMILES CC1(C)CCC[C@@H]1[C@H](O)C(=O)NCCCCNC(=O)c1ccc(-c2c3nc(c(-c4ccc(S(=O)(=O)[O-])cc4)c4ccc([nH]4)c(-c4ccc(S(=O)(=O)[O-])cc4)c4nc(c(-c5ccc(S(=O)(=O)[O-])cc5)c5ccc2[nH]5)C=C4)C=C3)cc1
REMARK SMILES IDX 15 1 14 2 13 3 12 4 10 5 11 6 8 8 7 9 1 10 2 11 3 12 4 13
REMARK SMILES IDX 5 14 6 15 9 16 16 18 17 19 18 20 19 22 20 23 21 24 79 25
REMARK SMILES IDX 22 26 78 27 23 28 24 29 25 30 72 31 26 32 77 33 71 34 73 35
REMARK SMILES IDX 27 36 76 37 70 38 69 39 28 41 58 42 39 43 57 44 40 45 43 46
REMARK SMILES IDX 56 47 74 48 41 49 42 50 55 52 75 53 44 54 29 55 30 56 38 57
REMARK SMILES IDX 31 58 37 59 32 60 33 61 34 62 35 63 36 64 59 65 60 66 68 67
REMARK SMILES IDX 61 68 67 69 62 70 63 71 64 72 65 73 66 74 45 75 46 76 54 77
REMARK SMILES IDX 47 78 53 79 48 80 49 81 50 82 51 83 52 84
REMARK H PARENT 12 7 9 17 17 21 73 40 43 51
REMARK Flexibility Score: inf
ROOT
ATOM      1  C   UNL A   1      32.724  28.123  26.225  1.00  0.00     0.023 C 
ENDROOT
BRANCH   1   2
ATOM      2  C   UNL A   1      33.512  27.224  25.274  1.00  0.00     0.023 C 
BRANCH   2   3
ATOM      3  C   UNL A   1      33.680  27.763  23.857  1.00  0.00     0.116 C 
BRANCH   3   4
ATOM      4  N   UNL A   1      32.898  27.025  22.881  1.00  0.00    -0.354 N 
ATOM      5  C   UNL A   1      31.742  27.388  22.253  1.00  0.00     0.249 C 
ATOM      6  O   UNL A   1      31.248  26.609  21.433  1.00  0.00    -0.272 OA
ATOM      7  H   UNL A   1      33.252  26.139  22.638  1.00  0.00     0.163 HD
BRANCH   5   8
ATOM      8  C   UNL A   1      31.067  28.741  22.561  1.00  0.00     0.206 C 
BRANCH   8   9
ATOM      9  C   UNL A   1      29.539  28.664  22.386  1.00  0.00     0.033 C 
ATOM     10  C   UNL A   1      28.793  30.864  21.283  1.00  0.00     0.011 C 
ATOM     11  C   UNL A   1      28.736  29.982  22.539  1.00  0.00    -0.030 C 
ATOM     12  C   UNL A   1      29.160  30.812  23.761  1.00  0.00     0.011 C 
ATOM     13  C   UNL A   1      27.309  29.432  22.722  1.00  0.00     0.007 C 
ATOM     14  C   UNL A   1      27.462  28.197  23.604  1.00  0.00     0.001 C 
ATOM     15  C   UNL A   1      28.890  27.700  23.397  1.00  0.00     0.007 C 
ENDBRANCH   8   9
BRANCH   8  16
ATOM     16  O   UNL A   1      31.633  29.784  21.775  1.00  0.00    -0.383 OA
ATOM     17  H   UNL A   1      32.110  29.399  21.023  1.00  0.00     0.211 HD
ENDBRANCH   8  16
ENDBRANCH   5   8
ENDBRANCH   3   4
ENDBRANCH   2   3
ENDBRANCH   1   2
BRANCH   1  18
ATOM     18  C   UNL A   1      33.456  28.543  27.496  1.00  0.00     0.116 C 
BRANCH  18  19
ATOM     19  N   UNL A   1      33.508  29.986  27.678  1.00  0.00    -0.352 N 
ATOM     20  C   UNL A   1      34.551  30.773  28.108  1.00  0.00     0.251 C 
ATOM     21  H   UNL A   1      32.677  30.468  27.462  1.00  0.00     0.163 HD
ATOM     22  O   UNL A   1      34.371  31.970  28.316  1.00  0.00    -0.269 OA
BRANCH  20  23
ATOM     23  C   UNL A   1      35.876  30.166  28.354  1.00  0.00     0.039 A 
ATOM     24  C   UNL A   1      36.816  30.155  27.321  1.00  0.00     0.014 A 
ATOM     25  C   UNL A   1      36.203  29.641  29.607  1.00  0.00     0.014 A 
ATOM     26  C   UNL A   1      38.111  29.692  27.569  1.00  0.00     0.010 A 
ATOM     27  C   UNL A   1      37.512  29.252  29.873  1.00  0.00     0.010 A 
ATOM     28  C   UNL A   1      38.482  29.278  28.859  1.00  0.00    -0.014 A 
BRANCH  28  29
ATOM     29  C   UNL A   1      39.883  28.896  29.171  1.00  0.00     0.031 A 
ATOM     30  C   UNL A   1      40.824  29.893  29.792  1.00  0.00     0.074 A 
ATOM     31  C   UNL A   1      40.333  27.673  28.823  1.00  0.00     0.049 A 
ATOM     32  N   UNL A   1      42.092  29.756  30.087  1.00  0.00    -0.248 NA
ATOM     33  C   UNL A   1      40.276  31.224  30.096  1.00  0.00     0.031 C 
ATOM     34  C   UNL A   1      39.538  26.635  28.162  1.00  0.00     0.029 A 
ATOM     35  N   UNL A   1      41.572  27.099  28.966  1.00  0.00    -0.354 N 
ATOM     36  C   UNL A   1      42.500  30.988  30.586  1.00  0.00     0.074 A 
ATOM     37  C   UNL A   1      41.356  31.871  30.513  1.00  0.00     0.031 C 
ATOM     38  C   UNL A   1      40.301  25.546  27.978  1.00  0.00     0.029 A 
ATOM     39  C   UNL A   1      41.648  25.819  28.473  1.00  0.00     0.049 A 
ATOM     40  H   UNL A   1      42.334  27.562  29.384  1.00  0.00     0.167 HD
ATOM     41  C   UNL A   1      43.710  31.347  31.076  1.00  0.00     0.031 A 
ATOM     42  C   UNL A   1      42.683  24.958  28.416  1.00  0.00     0.031 A 
ATOM     43  C   UNL A   1      44.841  30.462  31.161  1.00  0.00     0.049 A 
ATOM     44  C   UNL A   1      44.013  25.371  28.983  1.00  0.00     0.074 A 
ATOM     45  C   UNL A   1      46.087  30.710  31.711  1.00  0.00     0.029 A 
ATOM     46  N   UNL A   1      44.869  29.163  30.674  1.00  0.00    -0.354 N 
ATOM     47  N   UNL A   1      44.354  26.513  29.530  1.00  0.00    -0.248 NA
ATOM     48  C   UNL A   1      45.092  24.375  28.938  1.00  0.00     0.031 C 
ATOM     49  C   UNL A   1      46.884  29.578  31.512  1.00  0.00     0.029 A 
ATOM     50  C   UNL A   1      46.118  28.605  30.888  1.00  0.00     0.049 A 
ATOM     51  H   UNL A   1      44.113  28.706  30.242  1.00  0.00     0.167 HD
ATOM     52  C   UNL A   1      45.683  26.367  29.913  1.00  0.00     0.074 A 
ATOM     53  C   UNL A   1      46.077  25.021  29.550  1.00  0.00     0.031 C 
ATOM     54  C   UNL A   1      46.501  27.266  30.513  1.00  0.00     0.031 A 
BRANCH  41  55
ATOM     55  C   UNL A   1      43.871  32.768  31.550  1.00  0.00    -0.014 A 
ATOM     56  C   UNL A   1      44.314  33.782  30.680  1.00  0.00     0.010 A 
ATOM     57  C   UNL A   1      43.552  33.101  32.879  1.00  0.00     0.010 A 
ATOM     58  C   UNL A   1      44.488  35.088  31.144  1.00  0.00     0.020 A 
ATOM     59  C   UNL A   1      43.696  34.413  33.340  1.00  0.00     0.020 A 
ATOM     60  C   UNL A   1      44.184  35.394  32.473  1.00  0.00     0.054 A 
BRANCH  60  61
ATOM     61  S   UNL A   1      44.415  37.098  33.049  1.00  0.00     0.124 S 
ATOM     62  O   UNL A   1      43.747  37.863  31.998  1.00  0.00    -0.237 OA
ATOM     63  O   UNL A   1      43.742  37.093  34.346  1.00  0.00    -0.237 OA
ATOM     64  O   UNL A   1      45.866  37.253  33.104  1.00  0.00    -0.744 OA
ENDBRANCH  60  61
ENDBRANCH  41  55
BRANCH  42  65
ATOM     65  C   UNL A   1      42.488  23.611  27.815  1.00  0.00    -0.014 A 
ATOM     66  C   UNL A   1      42.806  23.379  26.465  1.00  0.00     0.010 A 
ATOM     67  C   UNL A   1      42.022  22.542  28.601  1.00  0.00     0.010 A 
ATOM     68  C   UNL A   1      42.655  22.104  25.911  1.00  0.00     0.020 A 
ATOM     69  C   UNL A   1      41.894  21.260  28.057  1.00  0.00     0.020 A 
ATOM     70  C   UNL A   1      42.206  21.051  26.712  1.00  0.00     0.054 A 
BRANCH  70  71
ATOM     71  S   UNL A   1      42.094  19.389  25.993  1.00  0.00     0.124 S 
ATOM     72  O   UNL A   1      40.661  19.256  25.757  1.00  0.00    -0.237 OA
ATOM     73  O   UNL A   1      42.925  19.506  24.797  1.00  0.00    -0.237 OA
ATOM     74  O   UNL A   1      42.641  18.526  27.039  1.00  0.00    -0.744 OA
ENDBRANCH  70  71
ENDBRANCH  42  65
BRANCH  54  75
ATOM     75  C   UNL A   1      47.901  26.820  30.838  1.00  0.00    -0.014 A 
ATOM     76  C   UNL A   1      48.969  27.071  29.958  1.00  0.00     0.010 A 
ATOM     77  C   UNL A   1      48.160  26.189  32.069  1.00  0.00     0.010 A 
ATOM     78  C   UNL A   1      50.266  26.673  30.290  1.00  0.00     0.020 A 
ATOM     79  C   UNL A   1      49.461  25.814  32.416  1.00  0.00     0.020 A 
ATOM     80  C   UNL A   1      50.504  26.045  31.518  1.00  0.00     0.054 A 
BRANCH  80  81
ATOM     81  S   UNL A   1      52.203  25.576  31.945  1.00  0.00     0.124 S 
ATOM     82  O   UNL A   1      52.478  26.443  33.086  1.00  0.00    -0.237 OA
ATOM     83  O   UNL A   1      52.078  24.153  32.251  1.00  0.00    -0.237 OA
ATOM     84  O   UNL A   1      52.961  25.881  30.734  1.00  0.00    -0.744 OA
ENDBRANCH  80  81
ENDBRANCH  54  75
ENDBRANCH  28  29
ENDBRANCH  20  23
ENDBRANCH  18  19
ENDBRANCH   1  18
TORSDOF 16
ENDMDL
MODEL 3
REMARK VINA RESULT:      -9.9      3.024      5.507
REMARK SMILES CC1(C)CCC[C@@H]1[C@H](O)C(=O)NCCCCNC(=O)c1ccc(-c2c3nc(c(-c4ccc(S(=O)(=O)[O-])cc4)c4ccc([nH]4)c(-c4ccc(S(=O)(=O)[O-])cc4)c4nc(c(-c5ccc(S(=O)(=O)[O-])cc5)c5ccc2[nH]5)C=C4)C=C3)cc1
REMARK SMILES IDX 15 1 14 2 13 3 12 4 10 5 11 6 8 8 7 9 1 10 2 11 3 12 4 13
REMARK SMILES IDX 5 14 6 15 9 16 16 18 17 19 18 20 19 22 20 23 21 24 79 25
REMARK SMILES IDX 22 26 78 27 23 28 24 29 25 30 72 31 26 32 77 33 71 34 73 35
REMARK SMILES IDX 27 36 76 37 70 38 69 39 28 41 58 42 39 43 57 44 40 45 43 46
REMARK SMILES IDX 56 47 74 48 41 49 42 50 55 52 75 53 44 54 29 55 30 56 38 57
REMARK SMILES IDX 31 58 37 59 32 60 33 61 34 62 35 63 36 64 59 65 60 66 68 67
REMARK SMILES IDX 61 68 67 69 62 70 63 71 64 72 65 73 66 74 45 75 46 76 54 77
REMARK SMILES IDX 47 78 53 79 48 80 49 81 50 82 51 83 52 84
REMARK H PARENT 12 7 9 17 17 21 73 40 43 51
REMARK Flexibility Score: inf
ROOT
ATOM      1  C   UNL A   1      33.964  28.433  25.475  1.00  0.00     0.023 C 
ENDROOT
BRANCH   1   2
ATOM      2  C   UNL A   1      33.140  29.156  24.410  1.00  0.00     0.023 C 
BRANCH   2   3
ATOM      3  C   UNL A   1      32.212  28.267  23.590  1.00  0.00     0.116 C 
BRANCH   3   4
ATOM      4  N   UNL A   1      32.921  27.497  22.583  1.00  0.00    -0.354 N 
ATOM      5  C   UNL A   1      32.886  26.152  22.347  1.00  0.00     0.249 C 
ATOM      6  O   UNL A   1      33.559  25.700  21.417  1.00  0.00    -0.272 OA
ATOM      7  H   UNL A   1      33.508  28.016  21.987  1.00  0.00     0.163 HD
BRANCH   5   8
ATOM      8  C   UNL A   1      32.026  25.218  23.224  1.00  0.00     0.206 C 
BRANCH   8   9
ATOM      9  C   UNL A   1      32.896  24.367  24.168  1.00  0.00     0.033 C 
ATOM     10  C   UNL A   1      31.297  22.937  25.586  1.00  0.00     0.011 C 
ATOM     11  C   UNL A   1      32.334  24.070  25.582  1.00  0.00    -0.030 C 
ATOM     12  C   UNL A   1      31.737  25.308  26.270  1.00  0.00     0.011 C 
ATOM     13  C   UNL A   1      33.611  23.606  26.309  1.00  0.00     0.007 C 
ATOM     14  C   UNL A   1      34.721  24.520  25.800  1.00  0.00     0.001 C 
ATOM     15  C   UNL A   1      34.269  25.015  24.428  1.00  0.00     0.007 C 
ENDBRANCH   8   9
BRANCH   8  16
ATOM     16  O   UNL A   1      31.174  24.407  22.423  1.00  0.00    -0.383 OA
ATOM     17  H   UNL A   1      30.292  24.810  22.379  1.00  0.00     0.211 HD
ENDBRANCH   8  16
ENDBRANCH   5   8
ENDBRANCH   3   4
ENDBRANCH   2   3
ENDBRANCH   1   2
BRANCH   1  18
ATOM     18  C   UNL A   1      33.494  28.621  26.914  1.00  0.00     0.116 C 
BRANCH  18  19
ATOM     19  N   UNL A   1      33.450  30.017  27.326  1.00  0.00    -0.352 N 
ATOM     20  C   UNL A   1      34.404  30.763  27.975  1.00  0.00     0.251 C 
ATOM     21  H   UNL A   1      32.616  30.494  27.108  1.00  0.00     0.163 HD
ATOM     22  O   UNL A   1      34.140  31.903  28.351  1.00  0.00    -0.269 OA
BRANCH  20  23
ATOM     23  C   UNL A   1      35.733  30.178  28.252  1.00  0.00     0.039 A 
ATOM     24  C   UNL A   1      36.704  30.205  27.249  1.00  0.00     0.014 A 
ATOM     25  C   UNL A   1      36.031  29.635  29.505  1.00  0.00     0.014 A 
ATOM     26  C   UNL A   1      38.000  29.762  27.529  1.00  0.00     0.010 A 
ATOM     27  C   UNL A   1      37.339  29.267  29.804  1.00  0.00     0.010 A 
ATOM     28  C   UNL A   1      38.339  29.331  28.821  1.00  0.00    -0.014 A 
BRANCH  28  29
ATOM     29  C   UNL A   1      39.737  28.970  29.170  1.00  0.00     0.031 A 
ATOM     30  C   UNL A   1      40.645  29.980  29.819  1.00  0.00     0.074 A 
ATOM     31  C   UNL A   1      40.216  27.756  28.831  1.00  0.00     0.049 A 
ATOM     32  N   UNL A   1      41.907  29.862  30.148  1.00  0.00    -0.248 NA
ATOM     33  C   UNL A   1      40.068  31.302  30.112  1.00  0.00     0.031 C 
ATOM     34  C   UNL A   1      39.455  26.707  28.146  1.00  0.00     0.029 A 
ATOM     35  N   UNL A   1      41.459  27.201  29.006  1.00  0.00    -0.354 N 
ATOM     36  C   UNL A   1      42.281  31.099  30.661  1.00  0.00     0.074 A 
ATOM     37  C   UNL A   1      41.125  31.964  30.560  1.00  0.00     0.031 C 
ATOM     38  C   UNL A   1      40.241  25.631  27.980  1.00  0.00     0.029 A 
ATOM     39  C   UNL A   1      41.569  25.924  28.512  1.00  0.00     0.049 A 
ATOM     40  H   UNL A   1      42.202  27.674  29.446  1.00  0.00     0.167 HD
ATOM     41  C   UNL A   1      43.472  31.476  31.185  1.00  0.00     0.031 A 
ATOM     42  C   UNL A   1      42.619  25.080  28.481  1.00  0.00     0.031 A 
ATOM     43  C   UNL A   1      44.614  30.609  31.298  1.00  0.00     0.049 A 
ATOM     44  C   UNL A   1      43.926  25.512  29.084  1.00  0.00     0.074 A 
ATOM     45  C   UNL A   1      45.840  30.874  31.882  1.00  0.00     0.029 A 
ATOM     46  N   UNL A   1      44.676  29.312  30.809  1.00  0.00    -0.354 N 
ATOM     47  N   UNL A   1      44.235  26.657  29.644  1.00  0.00    -0.248 NA
ATOM     48  C   UNL A   1      45.022  24.533  29.066  1.00  0.00     0.031 C 
ATOM     49  C   UNL A   1      46.661  29.756  31.701  1.00  0.00     0.029 A 
ATOM     50  C   UNL A   1      45.927  28.773  31.055  1.00  0.00     0.049 A 
ATOM     51  H   UNL A   1      43.939  28.844  30.355  1.00  0.00     0.167 HD
ATOM     52  C   UNL A   1      45.554  26.532  30.062  1.00  0.00     0.074 A 
ATOM     53  C   UNL A   1      45.979  25.193  29.706  1.00  0.00     0.031 C 
ATOM     54  C   UNL A   1      46.341  27.442  30.686  1.00  0.00     0.031 A 
BRANCH  41  55
ATOM     55  C   UNL A   1      43.597  32.898  31.666  1.00  0.00    -0.014 A 
ATOM     56  C   UNL A   1      44.114  33.907  30.834  1.00  0.00     0.010 A 
ATOM     57  C   UNL A   1      43.169  33.235  32.964  1.00  0.00     0.010 A 
ATOM     58  C   UNL A   1      44.253  35.214  31.308  1.00  0.00     0.020 A 
ATOM     59  C   UNL A   1      43.279  34.548  33.432  1.00  0.00     0.020 A 
ATOM     60  C   UNL A   1      43.840  35.525  32.606  1.00  0.00     0.054 A 
BRANCH  60  61
ATOM     61  S   UNL A   1      44.027  37.230  33.195  1.00  0.00     0.124 S 
ATOM     62  O   UNL A   1      45.370  37.203  33.771  1.00  0.00    -0.237 OA
ATOM     63  O   UNL A   1      43.886  38.011  31.969  1.00  0.00    -0.237 OA
ATOM     64  O   UNL A   1      42.941  37.386  34.158  1.00  0.00    -0.744 OA
ENDBRANCH  60  61
ENDBRANCH  41  55
BRANCH  42  65
ATOM     65  C   UNL A   1      42.462  23.732  27.870  1.00  0.00    -0.014 A 
ATOM     66  C   UNL A   1      42.769  23.522  26.515  1.00  0.00     0.010 A 
ATOM     67  C   UNL A   1      42.042  22.641  28.653  1.00  0.00     0.010 A 
ATOM     68  C   UNL A   1      42.655  22.246  25.952  1.00  0.00     0.020 A 
ATOM     69  C   UNL A   1      41.951  21.360  28.101  1.00  0.00     0.020 A 
ATOM     70  C   UNL A   1      42.252  21.172  26.750  1.00  0.00     0.054 A 
BRANCH  70  71
ATOM     71  S   UNL A   1      42.187  19.514  26.019  1.00  0.00     0.124 S 
ATOM     72  O   UNL A   1      42.586  18.671  27.140  1.00  0.00    -0.237 OA
ATOM     73  O   UNL A   1      40.789  19.404  25.609  1.00  0.00    -0.237 OA
ATOM     74  O   UNL A   1      43.145  19.588  24.917  1.00  0.00    -0.744 OA
ENDBRANCH  70  71
ENDBRANCH  42  65
BRANCH  54  75
ATOM     75  C   UNL A   1      47.740  27.016  31.048  1.00  0.00    -0.014 A 
ATOM     76  C   UNL A   1      48.045  26.533  32.332  1.00  0.00     0.010 A 
ATOM     77  C   UNL A   1      48.749  27.048  30.068  1.00  0.00     0.010 A 
ATOM     78  C   UNL A   1      49.343  26.118  32.640  1.00  0.00     0.020 A 
ATOM     79  C   UNL A   1      50.042  26.609  30.365  1.00  0.00     0.020 A 
ATOM     80  C   UNL A   1      50.335  26.160  31.654  1.00  0.00     0.054 A 
BRANCH  80  81
ATOM     81  S   UNL A   1      52.002  25.575  32.065  1.00  0.00     0.124 S 
ATOM     82  O   UNL A   1      52.228  26.194  33.367  1.00  0.00    -0.237 OA
ATOM     83  O   UNL A   1      51.839  24.123  32.079  1.00  0.00    -0.237 OA
ATOM     84  O   UNL A   1      52.828  26.091  30.977  1.00  0.00    -0.744 OA
ENDBRANCH  80  81
ENDBRANCH  54  75
ENDBRANCH  28  29
ENDBRANCH  20  23
ENDBRANCH  18  19
ENDBRANCH   1  18
TORSDOF 16
ENDMDL
