MODEL 1
REMARK VINA RESULT:      -9.2      0.000      0.000
REMARK SMILES CCN(C(=O)C[NH2+][C@@](C)(C(=O)NCCCCNC(=O)c1ccc(-c2c3nc(c(-c4ccc(S(=O)(=O)[O-])cc4)c4ccc([nH]4)c(-c4ccc(S(=O)(=O)[O-])cc4)c4nc(c(-c5ccc(S(=O)(=O)[O-])cc5)c5ccc2[nH]5)C=C4)C=C3)cc1)C(F)(F)F)C1CC1
REMARK SMILES IDX 13 1 12 2 10 3 11 4 8 6 9 7 7 8 6 11 4 12 5 13 3 14 2 15
REMARK SMILES IDX 1 16 84 17 85 18 86 19 80 20 81 21 82 22 83 23 14 24 15 25
REMARK SMILES IDX 16 26 17 27 18 28 19 30 20 31 21 32 79 33 22 34 78 35 23 36
REMARK SMILES IDX 24 37 25 38 72 39 26 40 77 41 71 42 73 43 27 44 76 45 70 46
REMARK SMILES IDX 69 47 28 49 58 50 39 51 57 52 40 53 43 54 56 55 74 56 41 57
REMARK SMILES IDX 42 58 55 60 75 61 44 62 29 63 30 64 38 65 31 66 37 67 32 68
REMARK SMILES IDX 33 69 34 70 35 71 36 72 59 73 60 74 68 75 61 76 67 77 62 78
REMARK SMILES IDX 63 79 64 80 65 81 66 82 45 83 46 84 54 85 47 86 53 87 48 88
REMARK SMILES IDX 49 89 50 90 51 91 52 92
REMARK H PARENT 12 5 7 9 7 10 17 29 73 48 43 59
REMARK Flexibility Score: inf
ROOT
ATOM      1  C   UNL A   1      31.048  27.271  25.481  1.00  0.00     0.116 C 
ENDROOT
BRANCH   1   2
ATOM      2  N   UNL A   1      30.515  27.589  24.166  1.00  0.00    -0.350 N 
ATOM      3  C   UNL A   1      31.015  27.467  22.897  1.00  0.00     0.290 C 
ATOM      4  O   UNL A   1      30.283  27.893  21.999  1.00  0.00    -0.267 OA
ATOM      5  H   UNL A   1      29.608  27.971  24.193  1.00  0.00     0.163 HD
BRANCH   3   6
ATOM      6  C   UNL A   1      32.398  26.825  22.611  1.00  0.00     0.268 C 
ATOM      7  C   UNL A   1      32.440  26.339  21.149  1.00  0.00     0.101 C 
BRANCH   6   8
ATOM      8  N   UNL A   1      32.590  25.720  23.613  1.00  0.00    -0.318 N 
ATOM      9  H   UNL A   1      33.534  25.800  23.991  1.00  0.00     0.347 HD
ATOM     10  H   UNL A   1      31.855  25.845  24.308  1.00  0.00     0.347 HD
BRANCH   8  11
ATOM     11  C   UNL A   1      32.425  24.358  23.096  1.00  0.00     0.363 C 
BRANCH  11  12
ATOM     12  C   UNL A   1      33.782  23.632  23.169  1.00  0.00     0.277 C 
ATOM     13  O   UNL A   1      34.322  23.326  22.101  1.00  0.00    -0.268 OA
BRANCH  12  14
ATOM     14  N   UNL A   1      34.316  23.346  24.430  1.00  0.00    -0.335 N 
BRANCH  14  15
ATOM     15  C   UNL A   1      33.792  22.281  25.308  1.00  0.00     0.116 C 
ATOM     16  C   UNL A   1      34.164  20.886  24.816  1.00  0.00     0.027 C 
ENDBRANCH  14  15
BRANCH  14  17
ATOM     17  C   UNL A   1      35.490  24.031  24.955  1.00  0.00     0.085 C 
ATOM     18  C   UNL A   1      36.442  23.561  26.018  1.00  0.00     0.027 C 
ATOM     19  C   UNL A   1      36.860  23.523  24.579  1.00  0.00     0.027 C 
ENDBRANCH  14  17
ENDBRANCH  12  14
ENDBRANCH  11  12
ENDBRANCH   8  11
ENDBRANCH   6   8
BRANCH   6  20
ATOM     20  C   UNL A   1      33.438  27.983  22.730  1.00  0.00     0.453 C 
ATOM     21  F   UNL A   1      32.895  29.147  23.151  1.00  0.00    -0.164 F 
ATOM     22  F   UNL A   1      34.392  27.659  23.653  1.00  0.00    -0.164 F 
ATOM     23  F   UNL A   1      34.112  28.210  21.579  1.00  0.00    -0.164 F 
ENDBRANCH   6  20
ENDBRANCH   3   6
ENDBRANCH   1   2
BRANCH   1  24
ATOM     24  C   UNL A   1      31.683  28.492  26.144  1.00  0.00     0.023 C 
BRANCH  24  25
ATOM     25  C   UNL A   1      33.071  28.244  26.740  1.00  0.00     0.023 C 
BRANCH  25  26
ATOM     26  C   UNL A   1      34.135  29.270  26.361  1.00  0.00     0.116 C 
BRANCH  26  27
ATOM     27  N   UNL A   1      33.862  30.599  26.884  1.00  0.00    -0.352 N 
ATOM     28  C   UNL A   1      34.543  31.304  27.848  1.00  0.00     0.251 C 
ATOM     29  H   UNL A   1      33.081  31.057  26.495  1.00  0.00     0.163 HD
ATOM     30  O   UNL A   1      34.098  32.375  28.251  1.00  0.00    -0.269 OA
BRANCH  28  31
ATOM     31  C   UNL A   1      35.790  30.752  28.418  1.00  0.00     0.039 A 
ATOM     32  C   UNL A   1      37.010  31.313  28.034  1.00  0.00     0.014 A 
ATOM     33  C   UNL A   1      35.757  29.701  29.339  1.00  0.00     0.014 A 
ATOM     34  C   UNL A   1      38.194  30.862  28.622  1.00  0.00     0.010 A 
ATOM     35  C   UNL A   1      36.930  29.303  29.976  1.00  0.00     0.010 A 
ATOM     36  C   UNL A   1      38.160  29.876  29.623  1.00  0.00    -0.014 A 
BRANCH  36  37
ATOM     37  C   UNL A   1      39.402  29.438  30.310  1.00  0.00     0.031 A 
ATOM     38  C   UNL A   1      39.859  30.129  31.566  1.00  0.00     0.074 A 
ATOM     39  C   UNL A   1      40.150  28.454  29.769  1.00  0.00     0.049 A 
ATOM     40  N   UNL A   1      40.933  29.912  32.281  1.00  0.00    -0.248 NA
ATOM     41  C   UNL A   1      39.014  31.225  32.069  1.00  0.00     0.031 C 
ATOM     42  C   UNL A   1      39.844  27.740  28.527  1.00  0.00     0.029 A 
ATOM     43  N   UNL A   1      41.327  27.890  30.193  1.00  0.00    -0.354 N 
ATOM     44  C   UNL A   1      40.902  30.852  33.305  1.00  0.00     0.074 A 
ATOM     45  C   UNL A   1      39.730  31.672  33.090  1.00  0.00     0.031 C 
ATOM     46  C   UNL A   1      40.792  26.815  28.307  1.00  0.00     0.029 A 
ATOM     47  C   UNL A   1      41.791  26.893  29.367  1.00  0.00     0.049 A 
ATOM     48  H   UNL A   1      41.795  28.172  31.013  1.00  0.00     0.167 HD
ATOM     49  C   UNL A   1      41.759  31.007  34.342  1.00  0.00     0.031 A 
ATOM     50  C   UNL A   1      42.897  26.128  29.452  1.00  0.00     0.031 A 
ATOM     51  C   UNL A   1      42.916  30.179  34.563  1.00  0.00     0.049 A 
ATOM     52  C   UNL A   1      43.825  26.308  30.622  1.00  0.00     0.074 A 
ATOM     53  C   UNL A   1      43.812  30.217  35.618  1.00  0.00     0.029 A 
ATOM     54  N   UNL A   1      43.337  29.164  33.718  1.00  0.00    -0.354 N 
ATOM     55  N   UNL A   1      43.739  27.157  31.618  1.00  0.00    -0.248 NA
ATOM     56  C   UNL A   1      44.990  25.414  30.686  1.00  0.00     0.031 C 
ATOM     57  C   UNL A   1      44.801  29.256  35.385  1.00  0.00     0.029 A 
ATOM     58  C   UNL A   1      44.490  28.581  34.216  1.00  0.00     0.049 A 
ATOM     59  H   UNL A   1      42.883  28.898  32.886  1.00  0.00     0.167 HD
ATOM     60  C   UNL A   1      44.824  26.880  32.444  1.00  0.00     0.074 A 
ATOM     61  C   UNL A   1      45.539  25.775  31.838  1.00  0.00     0.031 C 
ATOM     62  C   UNL A   1      45.192  27.483  33.601  1.00  0.00     0.031 A 
BRANCH  49  63
ATOM     63  C   UNL A   1      41.477  32.119  35.319  1.00  0.00    -0.014 A 
ATOM     64  C   UNL A   1      40.665  31.907  36.448  1.00  0.00     0.010 A 
ATOM     65  C   UNL A   1      42.064  33.384  35.126  1.00  0.00     0.010 A 
ATOM     66  C   UNL A   1      40.410  32.949  37.343  1.00  0.00     0.020 A 
ATOM     67  C   UNL A   1      41.835  34.421  36.036  1.00  0.00     0.020 A 
ATOM     68  C   UNL A   1      40.995  34.201  37.129  1.00  0.00     0.054 A 
BRANCH  68  69
ATOM     69  S   UNL A   1      40.666  35.528  38.320  1.00  0.00     0.124 S 
ATOM     70  O   UNL A   1      41.343  35.031  39.516  1.00  0.00    -0.237 OA
ATOM     71  O   UNL A   1      41.284  36.689  37.687  1.00  0.00    -0.237 OA
ATOM     72  O   UNL A   1      39.208  35.569  38.403  1.00  0.00    -0.744 OA
ENDBRANCH  68  69
ENDBRANCH  49  63
BRANCH  50  73
ATOM     73  C   UNL A   1      43.174  25.105  28.407  1.00  0.00    -0.014 A 
ATOM     74  C   UNL A   1      42.637  23.809  28.514  1.00  0.00     0.010 A 
ATOM     75  C   UNL A   1      43.972  25.423  27.293  1.00  0.00     0.010 A 
ATOM     76  C   UNL A   1      42.910  22.845  27.539  1.00  0.00     0.020 A 
ATOM     77  C   UNL A   1      44.222  24.471  26.300  1.00  0.00     0.020 A 
ATOM     78  C   UNL A   1      43.700  23.183  26.437  1.00  0.00     0.054 A 
BRANCH  78  79
ATOM     79  S   UNL A   1      43.999  21.933  25.158  1.00  0.00     0.124 S 
ATOM     80  O   UNL A   1      43.003  20.918  25.486  1.00  0.00    -0.237 OA
ATOM     81  O   UNL A   1      43.762  22.679  23.924  1.00  0.00    -0.237 OA
ATOM     82  O   UNL A   1      45.390  21.542  25.382  1.00  0.00    -0.744 OA
ENDBRANCH  78  79
ENDBRANCH  50  73
BRANCH  62  83
ATOM     83  C   UNL A   1      46.403  26.937  34.309  1.00  0.00    -0.014 A 
ATOM     84  C   UNL A   1      47.690  27.446  34.058  1.00  0.00     0.010 A 
ATOM     85  C   UNL A   1      46.243  25.920  35.269  1.00  0.00     0.010 A 
ATOM     86  C   UNL A   1      48.800  26.917  34.722  1.00  0.00     0.020 A 
ATOM     87  C   UNL A   1      47.347  25.410  35.956  1.00  0.00     0.020 A 
ATOM     88  C   UNL A   1      48.621  25.899  35.665  1.00  0.00     0.054 A 
BRANCH  88  89
ATOM     89  S   UNL A   1      50.074  25.245  36.532  1.00  0.00     0.124 S 
ATOM     90  O   UNL A   1      51.119  25.388  35.523  1.00  0.00    -0.237 OA
ATOM     91  O   UNL A   1      50.187  26.134  37.686  1.00  0.00    -0.237 OA
ATOM     92  O   UNL A   1      49.698  23.869  36.848  1.00  0.00    -0.744 OA
ENDBRANCH  88  89
ENDBRANCH  62  83
ENDBRANCH  36  37
ENDBRANCH  28  31
ENDBRANCH  26  27
ENDBRANCH  25  26
ENDBRANCH  24  25
ENDBRANCH   1  24
TORSDOF 21
ENDMDL
MODEL 2
REMARK VINA RESULT:      -9.0      2.778      3.387
REMARK SMILES CCN(C(=O)C[NH2+][C@@](C)(C(=O)NCCCCNC(=O)c1ccc(-c2c3nc(c(-c4ccc(S(=O)(=O)[O-])cc4)c4ccc([nH]4)c(-c4ccc(S(=O)(=O)[O-])cc4)c4nc(c(-c5ccc(S(=O)(=O)[O-])cc5)c5ccc2[nH]5)C=C4)C=C3)cc1)C(F)(F)F)C1CC1
REMARK SMILES IDX 13 1 12 2 10 3 11 4 8 6 9 7 7 8 6 11 4 12 5 13 3 14 2 15
REMARK SMILES IDX 1 16 84 17 85 18 86 19 80 20 81 21 82 22 83 23 14 24 15 25
REMARK SMILES IDX 16 26 17 27 18 28 19 30 20 31 21 32 79 33 22 34 78 35 23 36
REMARK SMILES IDX 24 37 25 38 72 39 26 40 77 41 71 42 73 43 27 44 76 45 70 46
REMARK SMILES IDX 69 47 28 49 58 50 39 51 57 52 40 53 43 54 56 55 74 56 41 57
REMARK SMILES IDX 42 58 55 60 75 61 44 62 29 63 30 64 38 65 31 66 37 67 32 68
REMARK SMILES IDX 33 69 34 70 35 71 36 72 59 73 60 74 68 75 61 76 67 77 62 78
REMARK SMILES IDX 63 79 64 80 65 81 66 82 45 83 46 84 54 85 47 86 53 87 48 88
REMARK SMILES IDX 49 89 50 90 51 91 52 92
REMARK H PARENT 12 5 7 9 7 10 17 29 73 48 43 59
REMARK Flexibility Score: inf
ROOT
ATOM      1  C   UNL A   1      30.994  26.637  25.708  1.00  0.00     0.116 C 
ENDROOT
BRANCH   1   2
ATOM      2  N   UNL A   1      30.495  26.996  24.390  1.00  0.00    -0.350 N 
ATOM      3  C   UNL A   1      31.104  27.216  23.184  1.00  0.00     0.290 C 
ATOM      4  O   UNL A   1      30.351  27.557  22.268  1.00  0.00    -0.267 OA
ATOM      5  H   UNL A   1      29.516  27.102  24.358  1.00  0.00     0.163 HD
BRANCH   3   6
ATOM      6  C   UNL A   1      32.632  27.034  22.984  1.00  0.00     0.268 C 
ATOM      7  C   UNL A   1      32.902  26.544  21.547  1.00  0.00     0.101 C 
BRANCH   6   8
ATOM      8  N   UNL A   1      33.107  26.076  24.040  1.00  0.00    -0.318 N 
ATOM      9  H   UNL A   1      34.007  26.410  24.386  1.00  0.00     0.347 HD
ATOM     10  H   UNL A   1      32.373  26.057  24.749  1.00  0.00     0.347 HD
BRANCH   8  11
ATOM     11  C   UNL A   1      33.279  24.686  23.607  1.00  0.00     0.363 C 
BRANCH  11  12
ATOM     12  C   UNL A   1      33.832  23.863  24.786  1.00  0.00     0.277 C 
ATOM     13  O   UNL A   1      33.870  24.409  25.893  1.00  0.00    -0.268 OA
BRANCH  12  14
ATOM     14  N   UNL A   1      34.276  22.559  24.537  1.00  0.00    -0.335 N 
BRANCH  14  15
ATOM     15  C   UNL A   1      33.370  21.395  24.478  1.00  0.00     0.116 C 
ATOM     16  C   UNL A   1      34.071  20.092  24.847  1.00  0.00     0.027 C 
ENDBRANCH  14  15
BRANCH  14  17
ATOM     17  C   UNL A   1      35.668  22.251  24.241  1.00  0.00     0.085 C 
ATOM     18  C   UNL A   1      36.780  23.205  23.905  1.00  0.00     0.027 C 
ATOM     19  C   UNL A   1      36.723  22.583  25.268  1.00  0.00     0.027 C 
ENDBRANCH  14  17
ENDBRANCH  12  14
ENDBRANCH  11  12
ENDBRANCH   8  11
ENDBRANCH   6   8
BRANCH   6  20
ATOM     20  C   UNL A   1      33.249  28.464  23.095  1.00  0.00     0.453 C 
ATOM     21  F   UNL A   1      32.827  29.303  22.124  1.00  0.00    -0.164 F 
ATOM     22  F   UNL A   1      32.877  29.040  24.277  1.00  0.00    -0.164 F 
ATOM     23  F   UNL A   1      34.602  28.458  23.105  1.00  0.00    -0.164 F 
ENDBRANCH   6  20
ENDBRANCH   3   6
ENDBRANCH   1   2
BRANCH   1  24
ATOM     24  C   UNL A   1      31.247  27.871  26.572  1.00  0.00     0.023 C 
BRANCH  24  25
ATOM     25  C   UNL A   1      32.365  27.709  27.604  1.00  0.00     0.023 C 
BRANCH  25  26
ATOM     26  C   UNL A   1      33.639  28.498  27.315  1.00  0.00     0.116 C 
BRANCH  26  27
ATOM     27  N   UNL A   1      33.533  29.905  27.665  1.00  0.00    -0.352 N 
ATOM     28  C   UNL A   1      34.480  30.727  28.231  1.00  0.00     0.251 C 
ATOM     29  H   UNL A   1      32.665  30.328  27.471  1.00  0.00     0.163 HD
ATOM     30  O   UNL A   1      34.175  31.868  28.567  1.00  0.00    -0.269 OA
BRANCH  28  31
ATOM     31  C   UNL A   1      35.848  30.221  28.463  1.00  0.00     0.039 A 
ATOM     32  C   UNL A   1      36.774  30.282  27.419  1.00  0.00     0.014 A 
ATOM     33  C   UNL A   1      36.223  29.706  29.708  1.00  0.00     0.014 A 
ATOM     34  C   UNL A   1      38.094  29.884  27.641  1.00  0.00     0.010 A 
ATOM     35  C   UNL A   1      37.556  29.378  29.947  1.00  0.00     0.010 A 
ATOM     36  C   UNL A   1      38.504  29.461  28.917  1.00  0.00    -0.014 A 
BRANCH  36  37
ATOM     37  C   UNL A   1      39.921  29.105  29.188  1.00  0.00     0.031 A 
ATOM     38  C   UNL A   1      40.856  30.119  29.791  1.00  0.00     0.074 A 
ATOM     39  C   UNL A   1      40.379  27.887  28.837  1.00  0.00     0.049 A 
ATOM     40  N   UNL A   1      42.130  30.004  30.063  1.00  0.00    -0.248 NA
ATOM     41  C   UNL A   1      40.293  31.443  30.103  1.00  0.00     0.031 C 
ATOM     42  C   UNL A   1      39.587  26.833  28.199  1.00  0.00     0.029 A 
ATOM     43  N   UNL A   1      41.628  27.331  28.964  1.00  0.00    -0.354 N 
ATOM     44  C   UNL A   1      42.524  31.241  30.560  1.00  0.00     0.074 A 
ATOM     45  C   UNL A   1      41.366  32.106  30.506  1.00  0.00     0.031 C 
ATOM     46  C   UNL A   1      40.362  25.751  28.015  1.00  0.00     0.029 A 
ATOM     47  C   UNL A   1      41.710  26.043  28.489  1.00  0.00     0.049 A 
ATOM     48  H   UNL A   1      42.393  27.810  29.358  1.00  0.00     0.167 HD
ATOM     49  C   UNL A   1      43.734  31.618  31.037  1.00  0.00     0.031 A 
ATOM     50  C   UNL A   1      42.754  25.192  28.437  1.00  0.00     0.031 A 
ATOM     51  C   UNL A   1      44.881  30.751  31.105  1.00  0.00     0.049 A 
ATOM     52  C   UNL A   1      44.083  25.629  28.988  1.00  0.00     0.074 A 
ATOM     53  C   UNL A   1      46.134  31.021  31.629  1.00  0.00     0.029 A 
ATOM     54  N   UNL A   1      44.916  29.446  30.638  1.00  0.00    -0.354 N 
ATOM     55  N   UNL A   1      44.417  26.781  29.520  1.00  0.00    -0.248 NA
ATOM     56  C   UNL A   1      45.173  24.643  28.949  1.00  0.00     0.031 C 
ATOM     57  C   UNL A   1      46.940  29.895  31.434  1.00  0.00     0.029 A 
ATOM     58  C   UNL A   1      46.174  28.904  30.842  1.00  0.00     0.049 A 
ATOM     59  H   UNL A   1      44.158  28.976  30.221  1.00  0.00     0.167 HD
ATOM     60  C   UNL A   1      45.747  26.649  29.903  1.00  0.00     0.074 A 
ATOM     61  C   UNL A   1      46.149  25.301  29.559  1.00  0.00     0.031 C 
ATOM     62  C   UNL A   1      46.561  27.561  30.492  1.00  0.00     0.031 A 
BRANCH  49  63
ATOM     63  C   UNL A   1      43.880  33.037  31.523  1.00  0.00    -0.014 A 
ATOM     64  C   UNL A   1      44.377  34.047  30.679  1.00  0.00     0.010 A 
ATOM     65  C   UNL A   1      43.479  33.374  32.830  1.00  0.00     0.010 A 
ATOM     66  C   UNL A   1      44.509  35.357  31.145  1.00  0.00     0.020 A 
ATOM     67  C   UNL A   1      43.582  34.690  33.289  1.00  0.00     0.020 A 
ATOM     68  C   UNL A   1      44.114  35.670  32.449  1.00  0.00     0.054 A 
BRANCH  68  69
ATOM     69  S   UNL A   1      44.274  37.384  33.018  1.00  0.00     0.124 S 
ATOM     70  O   UNL A   1      44.284  38.120  31.755  1.00  0.00    -0.237 OA
ATOM     71  O   UNL A   1      43.081  37.563  33.840  1.00  0.00    -0.237 OA
ATOM     72  O   UNL A   1      45.539  37.391  33.751  1.00  0.00    -0.744 OA
ENDBRANCH  68  69
ENDBRANCH  49  63
BRANCH  50  73
ATOM     73  C   UNL A   1      42.576  23.831  27.861  1.00  0.00    -0.014 A 
ATOM     74  C   UNL A   1      42.793  23.601  26.490  1.00  0.00     0.010 A 
ATOM     75  C   UNL A   1      42.194  22.755  28.682  1.00  0.00     0.010 A 
ATOM     76  C   UNL A   1      42.613  22.326  25.948  1.00  0.00     0.020 A 
ATOM     77  C   UNL A   1      42.041  21.472  28.150  1.00  0.00     0.020 A 
ATOM     78  C   UNL A   1      42.239  21.268  26.782  1.00  0.00     0.054 A 
BRANCH  78  79
ATOM     79  S   UNL A   1      42.059  19.611  26.067  1.00  0.00     0.124 S 
ATOM     80  O   UNL A   1      40.634  19.568  25.754  1.00  0.00    -0.237 OA
ATOM     81  O   UNL A   1      42.960  19.663  24.918  1.00  0.00    -0.237 OA
ATOM     82  O   UNL A   1      42.491  18.725  27.146  1.00  0.00    -0.744 OA
ENDBRANCH  78  79
ENDBRANCH  50  73
BRANCH  62  83
ATOM     83  C   UNL A   1      47.958  27.119  30.835  1.00  0.00    -0.014 A 
ATOM     84  C   UNL A   1      48.212  26.274  31.930  1.00  0.00     0.010 A 
ATOM     85  C   UNL A   1      49.032  27.530  30.023  1.00  0.00     0.010 A 
ATOM     86  C   UNL A   1      49.519  25.884  32.233  1.00  0.00     0.020 A 
ATOM     87  C   UNL A   1      50.336  27.118  30.305  1.00  0.00     0.020 A 
ATOM     88  C   UNL A   1      50.574  26.312  31.421  1.00  0.00     0.054 A 
BRANCH  88  89
ATOM     89  S   UNL A   1      52.260  25.774  31.819  1.00  0.00     0.124 S 
ATOM     90  O   UNL A   1      52.033  24.431  32.344  1.00  0.00    -0.237 OA
ATOM     91  O   UNL A   1      52.932  25.837  30.523  1.00  0.00    -0.237 OA
ATOM     92  O   UNL A   1      52.715  26.758  32.798  1.00  0.00    -0.744 OA
ENDBRANCH  88  89
ENDBRANCH  62  83
ENDBRANCH  36  37
ENDBRANCH  28  31
ENDBRANCH  26  27
ENDBRANCH  25  26
ENDBRANCH  24  25
ENDBRANCH   1  24
TORSDOF 21
ENDMDL
MODEL 3
REMARK VINA RESULT:      -8.7      2.424      8.899
REMARK SMILES CCN(C(=O)C[NH2+][C@@](C)(C(=O)NCCCCNC(=O)c1ccc(-c2c3nc(c(-c4ccc(S(=O)(=O)[O-])cc4)c4ccc([nH]4)c(-c4ccc(S(=O)(=O)[O-])cc4)c4nc(c(-c5ccc(S(=O)(=O)[O-])cc5)c5ccc2[nH]5)C=C4)C=C3)cc1)C(F)(F)F)C1CC1
REMARK SMILES IDX 13 1 12 2 10 3 11 4 8 6 9 7 7 8 6 11 4 12 5 13 3 14 2 15
REMARK SMILES IDX 1 16 84 17 85 18 86 19 80 20 81 21 82 22 83 23 14 24 15 25
REMARK SMILES IDX 16 26 17 27 18 28 19 30 20 31 21 32 79 33 22 34 78 35 23 36
REMARK SMILES IDX 24 37 25 38 72 39 26 40 77 41 71 42 73 43 27 44 76 45 70 46
REMARK SMILES IDX 69 47 28 49 58 50 39 51 57 52 40 53 43 54 56 55 74 56 41 57
REMARK SMILES IDX 42 58 55 60 75 61 44 62 29 63 30 64 38 65 31 66 37 67 32 68
REMARK SMILES IDX 33 69 34 70 35 71 36 72 59 73 60 74 68 75 61 76 67 77 62 78
REMARK SMILES IDX 63 79 64 80 65 81 66 82 45 83 46 84 54 85 47 86 53 87 48 88
REMARK SMILES IDX 49 89 50 90 51 91 52 92
REMARK H PARENT 12 5 7 9 7 10 17 29 73 48 43 59
REMARK Flexibility Score: inf
ROOT
ATOM      1  C   UNL A   1      34.224  29.487  27.111  1.00  0.00     0.116 C 
ENDROOT
BRANCH   1   2
ATOM      2  N   UNL A   1      33.004  28.892  27.632  1.00  0.00    -0.350 N 
ATOM      3  C   UNL A   1      31.980  28.190  27.053  1.00  0.00     0.290 C 
ATOM      4  O   UNL A   1      31.062  27.873  27.814  1.00  0.00    -0.267 OA
ATOM      5  H   UNL A   1      32.890  29.020  28.602  1.00  0.00     0.163 HD
BRANCH   3   6
ATOM      6  C   UNL A   1      31.986  27.810  25.549  1.00  0.00     0.268 C 
ATOM      7  C   UNL A   1      30.783  26.893  25.252  1.00  0.00     0.101 C 
BRANCH   6   8
ATOM      8  N   UNL A   1      33.313  27.166  25.259  1.00  0.00    -0.318 N 
ATOM      9  H   UNL A   1      33.414  27.096  24.246  1.00  0.00     0.347 HD
ATOM     10  H   UNL A   1      34.014  27.760  25.704  1.00  0.00     0.347 HD
BRANCH   8  11
ATOM     11  C   UNL A   1      33.507  25.828  25.824  1.00  0.00     0.363 C 
BRANCH  11  12
ATOM     12  C   UNL A   1      33.811  24.844  24.678  1.00  0.00     0.277 C 
ATOM     13  O   UNL A   1      34.125  25.324  23.584  1.00  0.00    -0.268 OA
BRANCH  12  14
ATOM     14  N   UNL A   1      33.698  23.473  24.930  1.00  0.00    -0.335 N 
BRANCH  14  15
ATOM     15  C   UNL A   1      34.740  22.689  25.622  1.00  0.00     0.116 C 
ATOM     16  C   UNL A   1      35.694  22.004  24.649  1.00  0.00     0.027 C 
ENDBRANCH  14  15
BRANCH  14  17
ATOM     17  C   UNL A   1      32.501  22.713  24.595  1.00  0.00     0.085 C 
ATOM     18  C   UNL A   1      31.965  21.479  25.266  1.00  0.00     0.027 C 
ATOM     19  C   UNL A   1      31.302  22.801  25.506  1.00  0.00     0.027 C 
ENDBRANCH  14  17
ENDBRANCH  12  14
ENDBRANCH  11  12
ENDBRANCH   8  11
ENDBRANCH   6   8
BRANCH   6  20
ATOM     20  C   UNL A   1      31.739  29.142  24.773  1.00  0.00     0.453 C 
ATOM     21  F   UNL A   1      30.919  28.995  23.708  1.00  0.00    -0.164 F 
ATOM     22  F   UNL A   1      31.132  30.051  25.591  1.00  0.00    -0.164 F 
ATOM     23  F   UNL A   1      32.883  29.735  24.360  1.00  0.00    -0.164 F 
ENDBRANCH   6  20
ENDBRANCH   3   6
ENDBRANCH   1   2
BRANCH   1  24
ATOM     24  C   UNL A   1      34.408  30.922  27.602  1.00  0.00     0.023 C 
BRANCH  24  25
ATOM     25  C   UNL A   1      33.449  31.938  26.977  1.00  0.00     0.023 C 
BRANCH  25  26
ATOM     26  C   UNL A   1      32.613  32.741  27.969  1.00  0.00     0.116 C 
BRANCH  26  27
ATOM     27  N   UNL A   1      32.892  34.167  27.930  1.00  0.00    -0.352 N 
ATOM     28  C   UNL A   1      33.911  34.864  28.536  1.00  0.00     0.251 C 
ATOM     29  H   UNL A   1      32.266  34.709  27.398  1.00  0.00     0.163 HD
ATOM     30  O   UNL A   1      33.925  36.091  28.490  1.00  0.00    -0.269 OA
BRANCH  28  31
ATOM     31  C   UNL A   1      34.966  34.133  29.269  1.00  0.00     0.039 A 
ATOM     32  C   UNL A   1      36.283  34.217  28.812  1.00  0.00     0.014 A 
ATOM     33  C   UNL A   1      34.663  33.386  30.411  1.00  0.00     0.014 A 
ATOM     34  C   UNL A   1      37.307  33.601  29.536  1.00  0.00     0.010 A 
ATOM     35  C   UNL A   1      35.692  32.834  31.170  1.00  0.00     0.010 A 
ATOM     36  C   UNL A   1      37.024  32.933  30.740  1.00  0.00    -0.014 A 
BRANCH  36  37
ATOM     37  C   UNL A   1      38.110  32.337  31.560  1.00  0.00     0.031 A 
ATOM     38  C   UNL A   1      38.886  31.154  31.045  1.00  0.00     0.074 A 
ATOM     39  C   UNL A   1      38.357  32.824  32.792  1.00  0.00     0.049 A 
ATOM     40  N   UNL A   1      39.839  30.477  31.631  1.00  0.00    -0.248 NA
ATOM     41  C   UNL A   1      38.526  30.649  29.710  1.00  0.00     0.031 C 
ATOM     42  C   UNL A   1      37.641  33.933  33.426  1.00  0.00     0.029 A 
ATOM     43  N   UNL A   1      39.279  32.443  33.735  1.00  0.00    -0.354 N 
ATOM     44  C   UNL A   1      40.179  29.459  30.748  1.00  0.00     0.074 A 
ATOM     45  C   UNL A   1      39.297  29.578  29.608  1.00  0.00     0.031 C 
ATOM     46  C   UNL A   1      38.168  34.160  34.641  1.00  0.00     0.029 A 
ATOM     47  C   UNL A   1      39.233  33.193  34.887  1.00  0.00     0.049 A 
ATOM     48  H   UNL A   1      39.913  31.702  33.600  1.00  0.00     0.167 HD
ATOM     49  C   UNL A   1      41.151  28.523  30.864  1.00  0.00     0.031 A 
ATOM     50  C   UNL A   1      39.964  33.112  36.016  1.00  0.00     0.031 A 
ATOM     51  C   UNL A   1      42.038  28.417  31.992  1.00  0.00     0.049 A 
ATOM     52  C   UNL A   1      41.047  32.073  36.115  1.00  0.00     0.074 A 
ATOM     53  C   UNL A   1      43.095  27.541  32.177  1.00  0.00     0.029 A 
ATOM     54  N   UNL A   1      41.976  29.212  33.127  1.00  0.00    -0.354 N 
ATOM     55  N   UNL A   1      41.400  31.165  35.237  1.00  0.00    -0.248 NA
ATOM     56  C   UNL A   1      41.844  32.063  37.350  1.00  0.00     0.031 C 
ATOM     57  C   UNL A   1      43.640  27.776  33.443  1.00  0.00     0.029 A 
ATOM     58  C   UNL A   1      42.961  28.835  34.023  1.00  0.00     0.049 A 
ATOM     59  H   UNL A   1      41.326  29.936  33.273  1.00  0.00     0.167 HD
ATOM     60  C   UNL A   1      42.478  30.492  35.803  1.00  0.00     0.074 A 
ATOM     61  C   UNL A   1      42.729  31.111  37.089  1.00  0.00     0.031 C 
ATOM     62  C   UNL A   1      43.198  29.458  35.301  1.00  0.00     0.031 A 
BRANCH  49  63
ATOM     63  C   UNL A   1      41.303  27.534  29.738  1.00  0.00    -0.014 A 
ATOM     64  C   UNL A   1      40.276  26.624  29.426  1.00  0.00     0.010 A 
ATOM     65  C   UNL A   1      42.474  27.538  28.956  1.00  0.00     0.010 A 
ATOM     66  C   UNL A   1      40.433  25.710  28.381  1.00  0.00     0.020 A 
ATOM     67  C   UNL A   1      42.622  26.645  27.891  1.00  0.00     0.020 A 
ATOM     68  C   UNL A   1      41.607  25.724  27.622  1.00  0.00     0.054 A 
BRANCH  68  69
ATOM     69  S   UNL A   1      41.773  24.543  26.256  1.00  0.00     0.124 S 
ATOM     70  O   UNL A   1      43.130  24.038  26.459  1.00  0.00    -0.237 OA
ATOM     71  O   UNL A   1      40.702  23.588  26.524  1.00  0.00    -0.237 OA
ATOM     72  O   UNL A   1      41.588  25.364  25.061  1.00  0.00    -0.744 OA
ENDBRANCH  68  69
ENDBRANCH  49  63
BRANCH  50  73
ATOM     73  C   UNL A   1      39.708  34.058  37.137  1.00  0.00    -0.014 A 
ATOM     74  C   UNL A   1      40.227  35.365  37.101  1.00  0.00     0.010 A 
ATOM     75  C   UNL A   1      38.936  33.659  38.243  1.00  0.00     0.010 A 
ATOM     76  C   UNL A   1      39.997  36.248  38.160  1.00  0.00     0.020 A 
ATOM     77  C   UNL A   1      38.679  34.549  39.290  1.00  0.00     0.020 A 
ATOM     78  C   UNL A   1      39.223  35.835  39.248  1.00  0.00     0.054 A 
BRANCH  78  79
ATOM     79  S   UNL A   1      38.895  37.013  40.588  1.00  0.00     0.124 S 
ATOM     80  O   UNL A   1      38.202  38.087  39.884  1.00  0.00    -0.237 OA
ATOM     81  O   UNL A   1      38.078  36.225  41.508  1.00  0.00    -0.237 OA
ATOM     82  O   UNL A   1      40.230  37.346  41.082  1.00  0.00    -0.744 OA
ENDBRANCH  78  79
ENDBRANCH  50  73
BRANCH  62  83
ATOM     83  C   UNL A   1      44.350  28.953  36.128  1.00  0.00    -0.014 A 
ATOM     84  C   UNL A   1      44.188  27.898  37.043  1.00  0.00     0.010 A 
ATOM     85  C   UNL A   1      45.625  29.524  35.959  1.00  0.00     0.010 A 
ATOM     86  C   UNL A   1      45.271  27.452  37.805  1.00  0.00     0.020 A 
ATOM     87  C   UNL A   1      46.716  29.061  36.698  1.00  0.00     0.020 A 
ATOM     88  C   UNL A   1      46.528  28.040  37.631  1.00  0.00     0.054 A 
BRANCH  88  89
ATOM     89  S   UNL A   1      47.924  27.429  38.614  1.00  0.00     0.124 S 
ATOM     90  O   UNL A   1      47.254  26.594  39.606  1.00  0.00    -0.237 OA
ATOM     91  O   UNL A   1      48.725  26.711  37.625  1.00  0.00    -0.237 OA
ATOM     92  O   UNL A   1      48.538  28.647  39.138  1.00  0.00    -0.744 OA
ENDBRANCH  88  89
ENDBRANCH  62  83
ENDBRANCH  36  37
ENDBRANCH  28  31
ENDBRANCH  26  27
ENDBRANCH  25  26
ENDBRANCH  24  25
ENDBRANCH   1  24
TORSDOF 21
ENDMDL
