MODEL 1
REMARK VINA RESULT:     -11.1      0.000      0.000
REMARK SMILES C[C@@H](C(=O)NCCCCNC(=O)c1ccc(-c2c3nc(c(-c4ccc(S(=O)(=O)[O-])cc4)c4ccc([nH]4)c(-c4ccc(S(=O)(=O)[O-])cc4)c4nc(c(-c5ccc(S(=O)(=O)[O-])cc5)c5ccc2[nH]5)C=C4)C=C3)cc1)c1ccc(Cc2ccsc2)cc1F
REMARK SMILES IDX 7 1 6 2 5 3 3 4 4 5 2 7 1 8 73 9 74 10 84 11 75 12 83 13
REMARK SMILES IDX 85 14 76 15 77 16 78 17 79 18 82 19 80 20 81 21 8 22 9 23
REMARK SMILES IDX 10 24 11 25 12 27 13 28 14 29 72 30 15 31 71 32 16 33 17 34
REMARK SMILES IDX 18 35 65 36 19 37 70 38 64 39 66 40 20 41 69 42 63 43 62 44
REMARK SMILES IDX 21 46 51 47 32 48 50 49 33 50 36 51 49 52 67 53 34 54 35 55
REMARK SMILES IDX 48 57 68 58 37 59 22 60 23 61 31 62 24 63 30 64 25 65 26 66
REMARK SMILES IDX 27 67 28 68 29 69 52 70 53 71 61 72 54 73 60 74 55 75 56 76
REMARK SMILES IDX 57 77 58 78 59 79 38 80 39 81 47 82 40 83 46 84 41 85 42 86
REMARK SMILES IDX 43 87 44 88 45 89
REMARK H PARENT 5 6 10 26 66 45 36 56
REMARK Flexibility Score: inf
ROOT
ATOM      1  C   UNL A   1      38.753  22.577  26.298  1.00  0.00     0.023 C 
ENDROOT
BRANCH   1   2
ATOM      2  C   UNL A   1      38.054  21.648  25.298  1.00  0.00     0.116 C 
BRANCH   2   3
ATOM      3  N   UNL A   1      37.403  22.422  24.258  1.00  0.00    -0.356 N 
ATOM      4  C   UNL A   1      36.071  22.544  23.967  1.00  0.00     0.227 C 
ATOM      5  O   UNL A   1      35.781  22.957  22.843  1.00  0.00    -0.274 OA
ATOM      6  H   UNL A   1      38.008  22.935  23.676  1.00  0.00     0.163 HD
BRANCH   4   7
ATOM      7  C   UNL A   1      35.017  22.164  25.028  1.00  0.00     0.108 C 
ATOM      8  C   UNL A   1      34.307  20.878  24.573  1.00  0.00     0.023 C 
BRANCH   7   9
ATOM      9  C   UNL A   1      34.027  23.293  25.340  1.00  0.00    -0.000 A 
ATOM     10  C   UNL A   1      32.638  23.096  25.282  1.00  0.00     0.008 A 
ATOM     11  C   UNL A   1      34.464  24.561  25.743  1.00  0.00     0.127 A 
ATOM     12  C   UNL A   1      31.742  24.137  25.534  1.00  0.00     0.004 A 
ATOM     13  C   UNL A   1      33.575  25.624  25.944  1.00  0.00     0.043 A 
ATOM     14  F   UNL A   1      35.768  24.782  25.972  1.00  0.00    -0.207 F 
ATOM     15  C   UNL A   1      32.193  25.432  25.814  1.00  0.00    -0.041 A 
BRANCH  15  16
ATOM     16  C   UNL A   1      31.214  26.558  26.041  1.00  0.00     0.072 C 
BRANCH  16  17
ATOM     17  C   UNL A   1      30.984  27.265  24.729  1.00  0.00    -0.033 A 
ATOM     18  C   UNL A   1      29.850  27.087  23.856  1.00  0.00     0.015 A 
ATOM     19  C   UNL A   1      31.809  28.257  24.226  1.00  0.00     0.068 A 
ATOM     20  C   UNL A   1      29.890  27.894  22.741  1.00  0.00     0.065 A 
ATOM     21  S   UNL A   1      31.254  28.916  22.747  1.00  0.00    -0.152 S 
ENDBRANCH  16  17
ENDBRANCH  15  16
ENDBRANCH   7   9
ENDBRANCH   4   7
ENDBRANCH   2   3
ENDBRANCH   1   2
BRANCH   1  22
ATOM     22  C   UNL A   1      40.098  22.065  26.819  1.00  0.00     0.023 C 
BRANCH  22  23
ATOM     23  C   UNL A   1      41.091  23.150  27.214  1.00  0.00     0.116 C 
BRANCH  23  24
ATOM     24  N   UNL A   1      41.417  24.038  26.111  1.00  0.00    -0.352 N 
ATOM     25  C   UNL A   1      41.451  25.408  26.078  1.00  0.00     0.251 C 
ATOM     26  H   UNL A   1      41.647  23.591  25.264  1.00  0.00     0.163 HD
ATOM     27  O   UNL A   1      41.610  25.981  25.000  1.00  0.00    -0.269 OA
BRANCH  25  28
ATOM     28  C   UNL A   1      41.268  26.193  27.318  1.00  0.00     0.039 A 
ATOM     29  C   UNL A   1      42.239  27.139  27.655  1.00  0.00     0.014 A 
ATOM     30  C   UNL A   1      40.161  26.001  28.151  1.00  0.00     0.014 A 
ATOM     31  C   UNL A   1      42.071  27.926  28.795  1.00  0.00     0.010 A 
ATOM     32  C   UNL A   1      39.957  26.841  29.244  1.00  0.00     0.010 A 
ATOM     33  C   UNL A   1      40.912  27.809  29.581  1.00  0.00    -0.014 A 
BRANCH  33  34
ATOM     34  C   UNL A   1      40.699  28.712  30.741  1.00  0.00     0.031 A 
ATOM     35  C   UNL A   1      41.520  28.567  31.993  1.00  0.00     0.074 A 
ATOM     36  C   UNL A   1      39.743  29.659  30.665  1.00  0.00     0.049 A 
ATOM     37  N   UNL A   1      41.498  29.300  33.079  1.00  0.00    -0.248 NA
ATOM     38  C   UNL A   1      42.476  27.449  32.045  1.00  0.00     0.031 C 
ATOM     39  C   UNL A   1      38.835  29.859  29.531  1.00  0.00     0.029 A 
ATOM     40  N   UNL A   1      39.380  30.641  31.554  1.00  0.00    -0.354 N 
ATOM     41  C   UNL A   1      42.437  28.737  33.936  1.00  0.00     0.074 A 
ATOM     42  C   UNL A   1      42.964  27.564  33.272  1.00  0.00     0.031 C 
ATOM     43  C   UNL A   1      38.049  30.918  29.776  1.00  0.00     0.029 A 
ATOM     44  C   UNL A   1      38.371  31.455  31.094  1.00  0.00     0.049 A 
ATOM     45  H   UNL A   1      39.802  30.750  32.436  1.00  0.00     0.167 HD
ATOM     46  C   UNL A   1      42.844  29.171  35.153  1.00  0.00     0.031 A 
ATOM     47  C   UNL A   1      37.774  32.518  31.665  1.00  0.00     0.031 A 
ATOM     48  C   UNL A   1      42.314  30.334  35.813  1.00  0.00     0.049 A 
ATOM     49  C   UNL A   1      38.249  32.983  33.014  1.00  0.00     0.074 A 
ATOM     50  C   UNL A   1      42.686  30.877  37.033  1.00  0.00     0.029 A 
ATOM     51  N   UNL A   1      41.300  31.138  35.314  1.00  0.00    -0.354 N 
ATOM     52  N   UNL A   1      39.189  32.477  33.777  1.00  0.00    -0.248 NA
ATOM     53  C   UNL A   1      37.596  34.176  33.569  1.00  0.00     0.031 C 
ATOM     54  C   UNL A   1      41.864  31.979  37.290  1.00  0.00     0.029 A 
ATOM     55  C   UNL A   1      41.020  32.160  36.206  1.00  0.00     0.049 A 
ATOM     56  H   UNL A   1      40.845  31.001  34.451  1.00  0.00     0.167 HD
ATOM     57  C   UNL A   1      39.251  33.300  34.896  1.00  0.00     0.074 A 
ATOM     58  C   UNL A   1      38.278  34.354  34.692  1.00  0.00     0.031 C 
ATOM     59  C   UNL A   1      40.037  33.191  35.998  1.00  0.00     0.031 A 
BRANCH  46  60
ATOM     60  C   UNL A   1      43.930  28.387  35.845  1.00  0.00    -0.014 A 
ATOM     61  C   UNL A   1      45.287  28.641  35.572  1.00  0.00     0.010 A 
ATOM     62  C   UNL A   1      43.598  27.425  36.817  1.00  0.00     0.010 A 
ATOM     63  C   UNL A   1      46.289  27.928  36.235  1.00  0.00     0.020 A 
ATOM     64  C   UNL A   1      44.599  26.730  37.502  1.00  0.00     0.020 A 
ATOM     65  C   UNL A   1      45.940  26.977  37.197  1.00  0.00     0.054 A 
BRANCH  65  66
ATOM     66  S   UNL A   1      47.264  26.097  38.068  1.00  0.00     0.124 S 
ATOM     67  O   UNL A   1      46.576  25.626  39.267  1.00  0.00    -0.237 OA
ATOM     68  O   UNL A   1      47.640  25.057  37.112  1.00  0.00    -0.237 OA
ATOM     69  O   UNL A   1      48.276  27.125  38.294  1.00  0.00    -0.744 OA
ENDBRANCH  65  66
ENDBRANCH  46  60
BRANCH  47  70
ATOM     70  C   UNL A   1      36.669  33.221  30.958  1.00  0.00    -0.014 A 
ATOM     71  C   UNL A   1      35.328  33.020  31.333  1.00  0.00     0.010 A 
ATOM     72  C   UNL A   1      36.957  34.100  29.898  1.00  0.00     0.010 A 
ATOM     73  C   UNL A   1      34.296  33.662  30.642  1.00  0.00     0.020 A 
ATOM     74  C   UNL A   1      35.930  34.768  29.226  1.00  0.00     0.020 A 
ATOM     75  C   UNL A   1      34.604  34.531  29.592  1.00  0.00     0.054 A 
BRANCH  75  76
ATOM     76  S   UNL A   1      33.252  35.382  28.732  1.00  0.00     0.124 S 
ATOM     77  O   UNL A   1      33.979  36.287  27.846  1.00  0.00    -0.237 OA
ATOM     78  O   UNL A   1      32.551  34.281  28.077  1.00  0.00    -0.237 OA
ATOM     79  O   UNL A   1      32.511  36.026  29.814  1.00  0.00    -0.744 OA
ENDBRANCH  75  76
ENDBRANCH  47  70
BRANCH  59  80
ATOM     80  C   UNL A   1      39.881  34.254  37.054  1.00  0.00    -0.014 A 
ATOM     81  C   UNL A   1      39.030  34.063  38.158  1.00  0.00     0.010 A 
ATOM     82  C   UNL A   1      40.600  35.457  36.943  1.00  0.00     0.010 A 
ATOM     83  C   UNL A   1      38.855  35.081  39.099  1.00  0.00     0.020 A 
ATOM     84  C   UNL A   1      40.454  36.464  37.901  1.00  0.00     0.020 A 
ATOM     85  C   UNL A   1      39.562  36.279  38.960  1.00  0.00     0.054 A 
BRANCH  85  86
ATOM     86  S   UNL A   1      39.317  37.587  40.191  1.00  0.00     0.124 S 
ATOM     87  O   UNL A   1      38.189  38.324  39.629  1.00  0.00    -0.237 OA
ATOM     88  O   UNL A   1      39.030  36.832  41.409  1.00  0.00    -0.237 OA
ATOM     89  O   UNL A   1      40.591  38.303  40.195  1.00  0.00    -0.744 OA
ENDBRANCH  85  86
ENDBRANCH  59  80
ENDBRANCH  33  34
ENDBRANCH  25  28
ENDBRANCH  23  24
ENDBRANCH  22  23
ENDBRANCH   1  22
TORSDOF 17
ENDMDL
MODEL 2
REMARK VINA RESULT:     -10.8      4.630     10.377
REMARK SMILES C[C@@H](C(=O)NCCCCNC(=O)c1ccc(-c2c3nc(c(-c4ccc(S(=O)(=O)[O-])cc4)c4ccc([nH]4)c(-c4ccc(S(=O)(=O)[O-])cc4)c4nc(c(-c5ccc(S(=O)(=O)[O-])cc5)c5ccc2[nH]5)C=C4)C=C3)cc1)c1ccc(Cc2ccsc2)cc1F
REMARK SMILES IDX 7 1 6 2 5 3 3 4 4 5 2 7 1 8 73 9 74 10 84 11 75 12 83 13
REMARK SMILES IDX 85 14 76 15 77 16 78 17 79 18 82 19 80 20 81 21 8 22 9 23
REMARK SMILES IDX 10 24 11 25 12 27 13 28 14 29 72 30 15 31 71 32 16 33 17 34
REMARK SMILES IDX 18 35 65 36 19 37 70 38 64 39 66 40 20 41 69 42 63 43 62 44
REMARK SMILES IDX 21 46 51 47 32 48 50 49 33 50 36 51 49 52 67 53 34 54 35 55
REMARK SMILES IDX 48 57 68 58 37 59 22 60 23 61 31 62 24 63 30 64 25 65 26 66
REMARK SMILES IDX 27 67 28 68 29 69 52 70 53 71 61 72 54 73 60 74 55 75 56 76
REMARK SMILES IDX 57 77 58 78 59 79 38 80 39 81 47 82 40 83 46 84 41 85 42 86
REMARK SMILES IDX 43 87 44 88 45 89
REMARK H PARENT 5 6 10 26 66 45 36 56
REMARK Flexibility Score: inf
ROOT
ATOM      1  C   UNL A   1      31.316  27.672  26.196  1.00  0.00     0.023 C 
ENDROOT
BRANCH   1   2
ATOM      2  C   UNL A   1      30.946  26.316  25.581  1.00  0.00     0.116 C 
BRANCH   2   3
ATOM      3  N   UNL A   1      30.763  26.443  24.148  1.00  0.00    -0.356 N 
ATOM      4  C   UNL A   1      31.631  26.905  23.195  1.00  0.00     0.227 C 
ATOM      5  O   UNL A   1      31.144  27.253  22.118  1.00  0.00    -0.274 OA
ATOM      6  H   UNL A   1      29.884  26.154  23.809  1.00  0.00     0.163 HD
BRANCH   4   7
ATOM      7  C   UNL A   1      33.141  26.974  23.505  1.00  0.00     0.108 C 
ATOM      8  C   UNL A   1      33.850  27.663  22.327  1.00  0.00     0.023 C 
BRANCH   7   9
ATOM      9  C   UNL A   1      33.762  25.611  23.836  1.00  0.00    -0.000 A 
ATOM     10  C   UNL A   1      34.309  25.334  25.099  1.00  0.00     0.008 A 
ATOM     11  C   UNL A   1      33.769  24.563  22.906  1.00  0.00     0.127 A 
ATOM     12  C   UNL A   1      34.903  24.102  25.382  1.00  0.00     0.004 A 
ATOM     13  C   UNL A   1      34.411  23.346  23.164  1.00  0.00     0.043 A 
ATOM     14  F   UNL A   1      33.128  24.699  21.735  1.00  0.00    -0.207 F 
ATOM     15  C   UNL A   1      35.016  23.108  24.405  1.00  0.00    -0.041 A 
BRANCH  15  16
ATOM     16  C   UNL A   1      35.700  21.798  24.712  1.00  0.00     0.072 C 
BRANCH  16  17
ATOM     17  C   UNL A   1      34.645  20.733  24.873  1.00  0.00    -0.033 A 
ATOM     18  C   UNL A   1      33.268  20.948  25.241  1.00  0.00     0.015 A 
ATOM     19  C   UNL A   1      34.850  19.389  24.602  1.00  0.00     0.068 A 
ATOM     20  C   UNL A   1      32.525  19.790  25.276  1.00  0.00     0.065 A 
ATOM     21  S   UNL A   1      33.448  18.432  24.817  1.00  0.00    -0.152 S 
ENDBRANCH  16  17
ENDBRANCH  15  16
ENDBRANCH   7   9
ENDBRANCH   4   7
ENDBRANCH   2   3
ENDBRANCH   1   2
BRANCH   1  22
ATOM     22  C   UNL A   1      32.325  27.603  27.344  1.00  0.00     0.023 C 
BRANCH  22  23
ATOM     23  C   UNL A   1      33.630  28.349  27.101  1.00  0.00     0.116 C 
BRANCH  23  24
ATOM     24  N   UNL A   1      33.529  29.766  27.408  1.00  0.00    -0.352 N 
ATOM     25  C   UNL A   1      34.449  30.597  27.993  1.00  0.00     0.251 C 
ATOM     26  H   UNL A   1      32.676  30.191  27.159  1.00  0.00     0.163 HD
ATOM     27  O   UNL A   1      34.116  31.742  28.301  1.00  0.00    -0.269 OA
BRANCH  25  28
ATOM     28  C   UNL A   1      35.817  30.117  28.281  1.00  0.00     0.039 A 
ATOM     29  C   UNL A   1      36.785  30.230  27.280  1.00  0.00     0.014 A 
ATOM     30  C   UNL A   1      36.152  29.552  29.515  1.00  0.00     0.014 A 
ATOM     31  C   UNL A   1      38.096  29.827  27.537  1.00  0.00     0.010 A 
ATOM     32  C   UNL A   1      37.478  29.224  29.796  1.00  0.00     0.010 A 
ATOM     33  C   UNL A   1      38.462  29.353  28.808  1.00  0.00    -0.014 A 
BRANCH  33  34
ATOM     34  C   UNL A   1      39.878  29.011  29.102  1.00  0.00     0.031 A 
ATOM     35  C   UNL A   1      40.793  30.008  29.759  1.00  0.00     0.074 A 
ATOM     36  C   UNL A   1      40.342  27.793  28.757  1.00  0.00     0.049 A 
ATOM     37  N   UNL A   1      42.040  29.859  30.131  1.00  0.00    -0.248 NA
ATOM     38  C   UNL A   1      40.249  31.351  30.017  1.00  0.00     0.031 C 
ATOM     39  C   UNL A   1      39.574  26.761  28.055  1.00  0.00     0.029 A 
ATOM     40  N   UNL A   1      41.569  27.211  28.956  1.00  0.00    -0.354 N 
ATOM     41  C   UNL A   1      42.425  31.081  30.669  1.00  0.00     0.074 A 
ATOM     42  C   UNL A   1      41.301  31.981  30.518  1.00  0.00     0.031 C 
ATOM     43  C   UNL A   1      40.332  25.662  27.918  1.00  0.00     0.029 A 
ATOM     44  C   UNL A   1      41.649  25.919  28.491  1.00  0.00     0.049 A 
ATOM     45  H   UNL A   1      42.321  27.675  29.392  1.00  0.00     0.167 HD
ATOM     46  C   UNL A   1      43.596  31.417  31.262  1.00  0.00     0.031 A 
ATOM     47  C   UNL A   1      42.665  25.037  28.525  1.00  0.00     0.031 A 
ATOM     48  C   UNL A   1      44.713  30.522  31.406  1.00  0.00     0.049 A 
ATOM     49  C   UNL A   1      43.953  25.433  29.194  1.00  0.00     0.074 A 
ATOM     50  C   UNL A   1      45.931  30.757  32.023  1.00  0.00     0.029 A 
ATOM     51  N   UNL A   1      44.754  29.220  30.930  1.00  0.00    -0.354 N 
ATOM     52  N   UNL A   1      44.271  26.572  29.761  1.00  0.00    -0.248 NA
ATOM     53  C   UNL A   1      45.011  24.415  29.245  1.00  0.00     0.031 C 
ATOM     54  C   UNL A   1      46.724  29.613  31.877  1.00  0.00     0.029 A 
ATOM     55  C   UNL A   1      45.980  28.645  31.222  1.00  0.00     0.049 A 
ATOM     56  H   UNL A   1      44.019  28.770  30.454  1.00  0.00     0.167 HD
ATOM     57  C   UNL A   1      45.561  26.403  30.251  1.00  0.00     0.074 A 
ATOM     58  C   UNL A   1      45.948  25.041  29.943  1.00  0.00     0.031 C 
ATOM     59  C   UNL A   1      46.358  27.295  30.893  1.00  0.00     0.031 A 
BRANCH  46  60
ATOM     60  C   UNL A   1      43.722  32.815  31.813  1.00  0.00    -0.014 A 
ATOM     61  C   UNL A   1      44.157  33.875  30.995  1.00  0.00     0.010 A 
ATOM     62  C   UNL A   1      43.352  33.087  33.142  1.00  0.00     0.010 A 
ATOM     63  C   UNL A   1      44.248  35.172  31.504  1.00  0.00     0.020 A 
ATOM     64  C   UNL A   1      43.416  34.389  33.648  1.00  0.00     0.020 A 
ATOM     65  C   UNL A   1      43.876  35.422  32.828  1.00  0.00     0.054 A 
BRANCH  65  66
ATOM     66  S   UNL A   1      43.968  37.124  33.448  1.00  0.00     0.124 S 
ATOM     67  O   UNL A   1      44.033  37.893  32.208  1.00  0.00    -0.237 OA
ATOM     68  O   UNL A   1      42.725  37.257  34.204  1.00  0.00    -0.237 OA
ATOM     69  O   UNL A   1      45.187  37.136  34.253  1.00  0.00    -0.744 OA
ENDBRANCH  65  66
ENDBRANCH  46  60
BRANCH  47  70
ATOM     70  C   UNL A   1      42.502  23.689  27.915  1.00  0.00    -0.014 A 
ATOM     71  C   UNL A   1      42.775  23.474  26.552  1.00  0.00     0.010 A 
ATOM     72  C   UNL A   1      42.068  22.606  28.703  1.00  0.00     0.010 A 
ATOM     73  C   UNL A   1      42.588  22.210  25.983  1.00  0.00     0.020 A 
ATOM     74  C   UNL A   1      41.912  21.335  28.145  1.00  0.00     0.020 A 
ATOM     75  C   UNL A   1      42.157  21.149  26.784  1.00  0.00     0.054 A 
BRANCH  75  76
ATOM     76  S   UNL A   1      41.957  19.509  26.034  1.00  0.00     0.124 S 
ATOM     77  O   UNL A   1      42.449  18.631  27.091  1.00  0.00    -0.237 OA
ATOM     78  O   UNL A   1      40.520  19.451  25.781  1.00  0.00    -0.237 OA
ATOM     79  O   UNL A   1      42.791  19.577  24.837  1.00  0.00    -0.744 OA
ENDBRANCH  75  76
ENDBRANCH  47  70
BRANCH  59  80
ATOM     80  C   UNL A   1      47.720  26.811  31.315  1.00  0.00    -0.014 A 
ATOM     81  C   UNL A   1      47.921  26.203  32.568  1.00  0.00     0.010 A 
ATOM     82  C   UNL A   1      48.813  26.961  30.444  1.00  0.00     0.010 A 
ATOM     83  C   UNL A   1      49.202  25.810  32.965  1.00  0.00     0.020 A 
ATOM     84  C   UNL A   1      50.090  26.538  30.823  1.00  0.00     0.020 A 
ATOM     85  C   UNL A   1      50.280  25.988  32.093  1.00  0.00     0.054 A 
BRANCH  85  86
ATOM     86  S   UNL A   1      51.933  25.475  32.631  1.00  0.00     0.124 S 
ATOM     87  O   UNL A   1      51.927  24.050  32.313  1.00  0.00    -0.237 OA
ATOM     88  O   UNL A   1      52.811  26.300  31.804  1.00  0.00    -0.237 OA
ATOM     89  O   UNL A   1      51.949  25.795  34.057  1.00  0.00    -0.744 OA
ENDBRANCH  85  86
ENDBRANCH  59  80
ENDBRANCH  33  34
ENDBRANCH  25  28
ENDBRANCH  23  24
ENDBRANCH  22  23
ENDBRANCH   1  22
TORSDOF 17
ENDMDL
MODEL 3
REMARK VINA RESULT:     -10.7      6.599     11.561
REMARK SMILES C[C@@H](C(=O)NCCCCNC(=O)c1ccc(-c2c3nc(c(-c4ccc(S(=O)(=O)[O-])cc4)c4ccc([nH]4)c(-c4ccc(S(=O)(=O)[O-])cc4)c4nc(c(-c5ccc(S(=O)(=O)[O-])cc5)c5ccc2[nH]5)C=C4)C=C3)cc1)c1ccc(Cc2ccsc2)cc1F
REMARK SMILES IDX 7 1 6 2 5 3 3 4 4 5 2 7 1 8 73 9 74 10 84 11 75 12 83 13
REMARK SMILES IDX 85 14 76 15 77 16 78 17 79 18 82 19 80 20 81 21 8 22 9 23
REMARK SMILES IDX 10 24 11 25 12 27 13 28 14 29 72 30 15 31 71 32 16 33 17 34
REMARK SMILES IDX 18 35 65 36 19 37 70 38 64 39 66 40 20 41 69 42 63 43 62 44
REMARK SMILES IDX 21 46 51 47 32 48 50 49 33 50 36 51 49 52 67 53 34 54 35 55
REMARK SMILES IDX 48 57 68 58 37 59 22 60 23 61 31 62 24 63 30 64 25 65 26 66
REMARK SMILES IDX 27 67 28 68 29 69 52 70 53 71 61 72 54 73 60 74 55 75 56 76
REMARK SMILES IDX 57 77 58 78 59 79 38 80 39 81 47 82 40 83 46 84 41 85 42 86
REMARK SMILES IDX 43 87 44 88 45 89
REMARK H PARENT 5 6 10 26 66 45 36 56
REMARK Flexibility Score: inf
ROOT
ATOM      1  C   UNL A   1      33.387  29.204  25.883  1.00  0.00     0.023 C 
ENDROOT
BRANCH   1   2
ATOM      2  C   UNL A   1      33.689  28.239  24.730  1.00  0.00     0.116 C 
BRANCH   2   3
ATOM      3  N   UNL A   1      33.821  26.883  25.226  1.00  0.00    -0.356 N 
ATOM      4  C   UNL A   1      33.211  25.735  24.797  1.00  0.00     0.227 C 
ATOM      5  O   UNL A   1      33.199  24.783  25.580  1.00  0.00    -0.274 OA
ATOM      6  H   UNL A   1      34.441  26.770  25.982  1.00  0.00     0.163 HD
BRANCH   4   7
ATOM      7  C   UNL A   1      32.576  25.684  23.392  1.00  0.00     0.108 C 
ATOM      8  C   UNL A   1      33.601  26.209  22.373  1.00  0.00     0.023 C 
BRANCH   7   9
ATOM      9  C   UNL A   1      31.236  26.423  23.298  1.00  0.00    -0.000 A 
ATOM     10  C   UNL A   1      31.084  27.586  22.525  1.00  0.00     0.008 A 
ATOM     11  C   UNL A   1      30.088  25.944  23.942  1.00  0.00     0.127 A 
ATOM     12  C   UNL A   1      29.869  28.272  22.472  1.00  0.00     0.004 A 
ATOM     13  C   UNL A   1      28.882  26.656  23.938  1.00  0.00     0.043 A 
ATOM     14  F   UNL A   1      30.114  24.758  24.570  1.00  0.00    -0.207 F 
ATOM     15  C   UNL A   1      28.764  27.853  23.220  1.00  0.00    -0.041 A 
BRANCH  15  16
ATOM     16  C   UNL A   1      27.470  28.630  23.187  1.00  0.00     0.072 C 
BRANCH  16  17
ATOM     17  C   UNL A   1      27.768  30.040  22.744  1.00  0.00    -0.033 A 
ATOM     18  C   UNL A   1      28.043  31.162  23.607  1.00  0.00     0.015 A 
ATOM     19  C   UNL A   1      27.900  30.427  21.421  1.00  0.00     0.068 A 
ATOM     20  C   UNL A   1      28.316  32.323  22.921  1.00  0.00     0.065 A 
ATOM     21  S   UNL A   1      28.303  32.080  21.233  1.00  0.00    -0.152 S 
ENDBRANCH  16  17
ENDBRANCH  15  16
ENDBRANCH   7   9
ENDBRANCH   4   7
ENDBRANCH   2   3
ENDBRANCH   1   2
BRANCH   1  22
ATOM     22  C   UNL A   1      33.940  28.774  27.243  1.00  0.00     0.023 C 
BRANCH  22  23
ATOM     23  C   UNL A   1      35.296  29.366  27.605  1.00  0.00     0.116 C 
BRANCH  23  24
ATOM     24  N   UNL A   1      35.301  29.989  28.918  1.00  0.00    -0.352 N 
ATOM     25  C   UNL A   1      36.318  30.082  29.833  1.00  0.00     0.251 C 
ATOM     26  H   UNL A   1      34.450  30.405  29.191  1.00  0.00     0.163 HD
ATOM     27  O   UNL A   1      36.078  30.525  30.957  1.00  0.00    -0.269 OA
BRANCH  25  28
ATOM     28  C   UNL A   1      37.681  29.626  29.488  1.00  0.00     0.039 A 
ATOM     29  C   UNL A   1      38.107  29.748  28.163  1.00  0.00     0.014 A 
ATOM     30  C   UNL A   1      38.536  29.075  30.448  1.00  0.00     0.014 A 
ATOM     31  C   UNL A   1      39.404  29.369  27.815  1.00  0.00     0.010 A 
ATOM     32  C   UNL A   1      39.855  28.770  30.115  1.00  0.00     0.010 A 
ATOM     33  C   UNL A   1      40.301  28.909  28.795  1.00  0.00    -0.014 A 
BRANCH  33  34
ATOM     34  C   UNL A   1      41.707  28.592  28.434  1.00  0.00     0.031 A 
ATOM     35  C   UNL A   1      42.107  27.195  28.042  1.00  0.00     0.074 A 
ATOM     36  C   UNL A   1      42.630  29.573  28.476  1.00  0.00     0.049 A 
ATOM     37  N   UNL A   1      43.277  26.755  27.652  1.00  0.00    -0.248 NA
ATOM     38  C   UNL A   1      41.070  26.153  28.114  1.00  0.00     0.031 C 
ATOM     39  C   UNL A   1      42.382  30.953  28.903  1.00  0.00     0.029 A 
ATOM     40  N   UNL A   1      43.963  29.566  28.147  1.00  0.00    -0.354 N 
ATOM     41  C   UNL A   1      43.116  25.393  27.427  1.00  0.00     0.074 A 
ATOM     42  C   UNL A   1      41.752  25.066  27.786  1.00  0.00     0.031 C 
ATOM     43  C   UNL A   1      43.511  31.666  28.773  1.00  0.00     0.029 A 
ATOM     44  C   UNL A   1      44.572  30.791  28.286  1.00  0.00     0.049 A 
ATOM     45  H   UNL A   1      44.437  28.758  27.841  1.00  0.00     0.167 HD
ATOM     46  C   UNL A   1      44.011  24.500  26.939  1.00  0.00     0.031 A 
ATOM     47  C   UNL A   1      45.841  31.171  28.045  1.00  0.00     0.031 A 
ATOM     48  C   UNL A   1      45.367  24.827  26.588  1.00  0.00     0.049 A 
ATOM     49  C   UNL A   1      46.813  30.162  27.498  1.00  0.00     0.074 A 
ATOM     50  C   UNL A   1      46.342  24.001  26.053  1.00  0.00     0.029 A 
ATOM     51  N   UNL A   1      45.945  26.080  26.735  1.00  0.00    -0.354 N 
ATOM     52  N   UNL A   1      46.618  28.893  27.225  1.00  0.00    -0.248 NA
ATOM     53  C   UNL A   1      48.170  30.642  27.207  1.00  0.00     0.031 C 
ATOM     54  C   UNL A   1      47.521  24.743  25.921  1.00  0.00     0.029 A 
ATOM     55  C   UNL A   1      47.266  26.045  26.318  1.00  0.00     0.049 A 
ATOM     56  H   UNL A   1      45.484  26.876  27.085  1.00  0.00     0.167 HD
ATOM     57  C   UNL A   1      47.825  28.428  26.715  1.00  0.00     0.074 A 
ATOM     58  C   UNL A   1      48.729  29.560  26.686  1.00  0.00     0.031 C 
ATOM     59  C   UNL A   1      48.159  27.175  26.312  1.00  0.00     0.031 A 
BRANCH  46  60
ATOM     60  C   UNL A   1      43.543  23.081  26.744  1.00  0.00    -0.014 A 
ATOM     61  C   UNL A   1      43.670  22.446  25.493  1.00  0.00     0.010 A 
ATOM     62  C   UNL A   1      43.022  22.352  27.829  1.00  0.00     0.010 A 
ATOM     63  C   UNL A   1      43.257  21.123  25.325  1.00  0.00     0.020 A 
ATOM     64  C   UNL A   1      42.634  21.017  27.670  1.00  0.00     0.020 A 
ATOM     65  C   UNL A   1      42.742  20.415  26.415  1.00  0.00     0.054 A 
BRANCH  65  66
ATOM     66  S   UNL A   1      42.252  18.686  26.173  1.00  0.00     0.124 S 
ATOM     67  O   UNL A   1      42.480  18.120  27.500  1.00  0.00    -0.237 OA
ATOM     68  O   UNL A   1      40.851  18.803  25.773  1.00  0.00    -0.237 OA
ATOM     69  O   UNL A   1      43.156  18.210  25.129  1.00  0.00    -0.744 OA
ENDBRANCH  65  66
ENDBRANCH  46  60
BRANCH  47  70
ATOM     70  C   UNL A   1      46.261  32.574  28.309  1.00  0.00    -0.014 A 
ATOM     71  C   UNL A   1      46.788  32.948  29.558  1.00  0.00     0.010 A 
ATOM     72  C   UNL A   1      46.133  33.550  27.302  1.00  0.00     0.010 A 
ATOM     73  C   UNL A   1      47.151  34.276  29.805  1.00  0.00     0.020 A 
ATOM     74  C   UNL A   1      46.525  34.870  27.535  1.00  0.00     0.020 A 
ATOM     75  C   UNL A   1      47.016  35.229  28.791  1.00  0.00     0.054 A 
BRANCH  75  76
ATOM     76  S   UNL A   1      47.527  36.938  29.121  1.00  0.00     0.124 S 
ATOM     77  O   UNL A   1      47.212  37.081  30.539  1.00  0.00    -0.237 OA
ATOM     78  O   UNL A   1      48.948  36.914  28.786  1.00  0.00    -0.237 OA
ATOM     79  O   UNL A   1      46.694  37.724  28.212  1.00  0.00    -0.744 OA
ENDBRANCH  75  76
ENDBRANCH  47  70
BRANCH  59  80
ATOM     80  C   UNL A   1      49.559  26.977  25.792  1.00  0.00    -0.014 A 
ATOM     81  C   UNL A   1      49.888  27.270  24.456  1.00  0.00     0.010 A 
ATOM     82  C   UNL A   1      50.560  26.497  26.654  1.00  0.00     0.010 A 
ATOM     83  C   UNL A   1      51.177  27.028  23.977  1.00  0.00     0.020 A 
ATOM     84  C   UNL A   1      51.860  26.285  26.187  1.00  0.00     0.020 A 
ATOM     85  C   UNL A   1      52.154  26.529  24.844  1.00  0.00     0.054 A 
BRANCH  85  86
ATOM     86  S   UNL A   1      53.819  26.219  24.198  1.00  0.00     0.124 S 
ATOM     87  O   UNL A   1      53.583  26.173  22.758  1.00  0.00    -0.237 OA
ATOM     88  O   UNL A   1      54.570  27.378  24.676  1.00  0.00    -0.237 OA
ATOM     89  O   UNL A   1      54.196  24.946  24.809  1.00  0.00    -0.744 OA
ENDBRANCH  85  86
ENDBRANCH  59  80
ENDBRANCH  33  34
ENDBRANCH  25  28
ENDBRANCH  23  24
ENDBRANCH  22  23
ENDBRANCH   1  22
TORSDOF 17
ENDMDL
