MODEL 1
REMARK VINA RESULT:     -11.0      0.000      0.000
REMARK SMILES C[C@@H](NC(=O)[C@@H]1CC[C@@H]2CCCC[C@@H]2[NH2+]1)C(=O)NCCCCNC(=O)c1ccc(-c2c3nc(c(-c4ccc(S(=O)(=O)[O-])cc4)c4ccc([nH]4)c(-c4ccc(S(=O)(=O)[O-])cc4)c4nc(c(-c5ccc(S(=O)(=O)[O-])cc5)c5ccc2[nH]5)C=C4)C=C3)cc1
REMARK SMILES IDX 21 1 20 2 19 3 18 4 16 5 17 6 2 8 1 9 3 10 4 11 5 13 6 14
REMARK SMILES IDX 7 15 15 16 8 17 14 18 9 21 13 22 10 23 12 24 11 25 22 26
REMARK SMILES IDX 23 27 24 28 25 30 26 31 27 32 85 33 28 34 84 35 29 36 30 37
REMARK SMILES IDX 31 38 78 39 32 40 83 41 77 42 79 43 33 44 82 45 76 46 75 47
REMARK SMILES IDX 34 49 64 50 45 51 63 52 46 53 49 54 62 55 80 56 47 57 48 58
REMARK SMILES IDX 61 60 81 61 50 62 35 63 36 64 44 65 37 66 43 67 38 68 39 69
REMARK SMILES IDX 40 70 41 71 42 72 65 73 66 74 74 75 67 76 73 77 68 78 69 79
REMARK SMILES IDX 70 80 71 81 72 82 51 83 52 84 60 85 53 86 59 87 54 88 55 89
REMARK SMILES IDX 56 90 57 91 58 92
REMARK H PARENT 18 7 3 12 15 19 15 20 23 29 79 48 49 59
REMARK Flexibility Score: inf
ROOT
ATOM      1  C   UNL A   1      33.961  28.257  25.676  1.00  0.00     0.023 C 
ENDROOT
BRANCH   1   2
ATOM      2  C   UNL A   1      33.292  29.284  24.761  1.00  0.00     0.023 C 
BRANCH   2   3
ATOM      3  C   UNL A   1      33.429  28.955  23.284  1.00  0.00     0.116 C 
BRANCH   3   4
ATOM      4  N   UNL A   1      32.125  28.911  22.657  1.00  0.00    -0.354 N 
ATOM      5  C   UNL A   1      31.284  27.858  22.525  1.00  0.00     0.242 C 
ATOM      6  O   UNL A   1      30.255  28.003  21.861  1.00  0.00    -0.273 OA
ATOM      7  H   UNL A   1      31.806  29.761  22.276  1.00  0.00     0.163 HD
BRANCH   5   8
ATOM      8  C   UNL A   1      31.619  26.496  23.133  1.00  0.00     0.168 C 
ATOM      9  C   UNL A   1      30.314  25.792  23.516  1.00  0.00     0.041 C 
BRANCH   8  10
ATOM     10  N   UNL A   1      32.469  25.628  22.313  1.00  0.00    -0.339 N 
ATOM     11  C   UNL A   1      33.375  24.667  22.675  1.00  0.00     0.278 C 
ATOM     12  H   UNL A   1      32.373  25.758  21.342  1.00  0.00     0.164 HD
ATOM     13  O   UNL A   1      33.602  23.811  21.813  1.00  0.00    -0.268 OA
BRANCH  11  14
ATOM     14  C   UNL A   1      34.194  24.735  23.995  1.00  0.00     0.272 C 
ATOM     15  C   UNL A   1      35.507  23.932  23.905  1.00  0.00     0.076 C 
ATOM     16  N   UNL A   1      33.473  24.356  25.213  1.00  0.00    -0.333 N 
ATOM     17  C   UNL A   1      35.288  22.424  24.046  1.00  0.00     0.016 C 
ATOM     18  C   UNL A   1      33.205  22.941  25.415  1.00  0.00     0.186 C 
ATOM     19  H   UNL A   1      32.575  24.839  25.200  1.00  0.00     0.347 HD
ATOM     20  H   UNL A   1      34.096  24.616  25.978  1.00  0.00     0.347 HD
ATOM     21  C   UNL A   1      34.482  22.106  25.310  1.00  0.00     0.048 C 
ATOM     22  C   UNL A   1      31.999  22.414  24.622  1.00  0.00     0.065 C 
ATOM     23  C   UNL A   1      34.114  20.631  25.449  1.00  0.00     0.010 C 
ATOM     24  C   UNL A   1      32.173  21.122  23.833  1.00  0.00     0.006 C 
ATOM     25  C   UNL A   1      33.227  20.133  24.318  1.00  0.00     0.001 C 
ENDBRANCH  11  14
ENDBRANCH   8  10
ENDBRANCH   5   8
ENDBRANCH   3   4
ENDBRANCH   2   3
ENDBRANCH   1   2
BRANCH   1  26
ATOM     26  C   UNL A   1      33.636  28.437  27.154  1.00  0.00     0.116 C 
BRANCH  26  27
ATOM     27  N   UNL A   1      33.551  29.845  27.518  1.00  0.00    -0.352 N 
ATOM     28  C   UNL A   1      34.454  30.602  28.220  1.00  0.00     0.251 C 
ATOM     29  H   UNL A   1      32.739  30.316  27.220  1.00  0.00     0.163 HD
ATOM     30  O   UNL A   1      34.124  31.691  28.685  1.00  0.00    -0.269 OA
BRANCH  28  31
ATOM     31  C   UNL A   1      35.818  30.081  28.419  1.00  0.00     0.039 A 
ATOM     32  C   UNL A   1      36.733  30.131  27.367  1.00  0.00     0.014 A 
ATOM     33  C   UNL A   1      36.195  29.580  29.669  1.00  0.00     0.014 A 
ATOM     34  C   UNL A   1      38.052  29.733  27.591  1.00  0.00     0.010 A 
ATOM     35  C   UNL A   1      37.527  29.271  29.912  1.00  0.00     0.010 A 
ATOM     36  C   UNL A   1      38.468  29.335  28.873  1.00  0.00    -0.014 A 
BRANCH  36  37
ATOM     37  C   UNL A   1      39.882  28.979  29.149  1.00  0.00     0.031 A 
ATOM     38  C   UNL A   1      40.813  30.003  29.741  1.00  0.00     0.074 A 
ATOM     39  C   UNL A   1      40.341  27.759  28.811  1.00  0.00     0.049 A 
ATOM     40  N   UNL A   1      42.089  29.898  30.008  1.00  0.00    -0.248 NA
ATOM     41  C   UNL A   1      40.242  31.324  30.052  1.00  0.00     0.031 C 
ATOM     42  C   UNL A   1      39.548  26.696  28.187  1.00  0.00     0.029 A 
ATOM     43  N   UNL A   1      41.591  27.205  28.940  1.00  0.00    -0.354 N 
ATOM     44  C   UNL A   1      42.475  31.138  30.504  1.00  0.00     0.074 A 
ATOM     45  C   UNL A   1      41.313  31.997  30.446  1.00  0.00     0.031 C 
ATOM     46  C   UNL A   1      40.322  25.612  28.016  1.00  0.00     0.029 A 
ATOM     47  C   UNL A   1      41.674  25.914  28.473  1.00  0.00     0.049 A 
ATOM     48  H   UNL A   1      42.356  27.687  29.328  1.00  0.00     0.167 HD
ATOM     49  C   UNL A   1      43.679  31.522  30.989  1.00  0.00     0.031 A 
ATOM     50  C   UNL A   1      42.723  25.071  28.410  1.00  0.00     0.031 A 
ATOM     51  C   UNL A   1      44.831  30.661  31.047  1.00  0.00     0.049 A 
ATOM     52  C   UNL A   1      44.057  25.526  28.935  1.00  0.00     0.074 A 
ATOM     53  C   UNL A   1      46.085  30.938  31.562  1.00  0.00     0.029 A 
ATOM     54  N   UNL A   1      44.873  29.359  30.571  1.00  0.00    -0.354 N 
ATOM     55  N   UNL A   1      44.385  26.681  29.465  1.00  0.00    -0.248 NA
ATOM     56  C   UNL A   1      45.162  24.559  28.867  1.00  0.00     0.031 C 
ATOM     57  C   UNL A   1      46.901  29.824  31.344  1.00  0.00     0.029 A 
ATOM     58  C   UNL A   1      46.138  28.828  30.756  1.00  0.00     0.049 A 
ATOM     59  H   UNL A   1      44.115  28.883  30.161  1.00  0.00     0.167 HD
ATOM     60  C   UNL A   1      45.725  26.569  29.819  1.00  0.00     0.074 A 
ATOM     61  C   UNL A   1      46.141  25.228  29.459  1.00  0.00     0.031 C 
ATOM     62  C   UNL A   1      46.537  27.491  30.392  1.00  0.00     0.031 A 
BRANCH  49  63
ATOM     63  C   UNL A   1      43.811  32.936  31.491  1.00  0.00    -0.014 A 
ATOM     64  C   UNL A   1      44.193  33.981  30.629  1.00  0.00     0.010 A 
ATOM     65  C   UNL A   1      43.512  33.233  32.834  1.00  0.00     0.010 A 
ATOM     66  C   UNL A   1      44.314  35.287  31.110  1.00  0.00     0.020 A 
ATOM     67  C   UNL A   1      43.601  34.544  33.310  1.00  0.00     0.020 A 
ATOM     68  C   UNL A   1      44.018  35.561  32.448  1.00  0.00     0.054 A 
BRANCH  68  69
ATOM     69  S   UNL A   1      44.161  37.270  33.035  1.00  0.00     0.124 S 
ATOM     70  O   UNL A   1      45.467  37.256  33.690  1.00  0.00    -0.237 OA
ATOM     71  O   UNL A   1      44.087  38.040  31.796  1.00  0.00    -0.237 OA
ATOM     72  O   UNL A   1      43.017  37.427  33.932  1.00  0.00    -0.744 OA
ENDBRANCH  68  69
ENDBRANCH  49  63
BRANCH  50  73
ATOM     73  C   UNL A   1      42.548  23.708  27.834  1.00  0.00    -0.014 A 
ATOM     74  C   UNL A   1      42.269  22.608  28.664  1.00  0.00     0.010 A 
ATOM     75  C   UNL A   1      42.649  23.507  26.445  1.00  0.00     0.010 A 
ATOM     76  C   UNL A   1      42.115  21.330  28.118  1.00  0.00     0.020 A 
ATOM     77  C   UNL A   1      42.464  22.237  25.892  1.00  0.00     0.020 A 
ATOM     78  C   UNL A   1      42.210  21.153  26.735  1.00  0.00     0.054 A 
BRANCH  78  79
ATOM     79  S   UNL A   1      41.957  19.494  26.045  1.00  0.00     0.124 S 
ATOM     80  O   UNL A   1      42.780  19.538  24.840  1.00  0.00    -0.237 OA
ATOM     81  O   UNL A   1      42.447  18.630  27.116  1.00  0.00    -0.237 OA
ATOM     82  O   UNL A   1      40.515  19.434  25.818  1.00  0.00    -0.744 OA
ENDBRANCH  78  79
ENDBRANCH  50  73
BRANCH  62  83
ATOM     83  C   UNL A   1      47.952  27.076  30.702  1.00  0.00    -0.014 A 
ATOM     84  C   UNL A   1      49.002  27.322  29.800  1.00  0.00     0.010 A 
ATOM     85  C   UNL A   1      48.240  26.480  31.944  1.00  0.00     0.010 A 
ATOM     86  C   UNL A   1      50.310  26.948  30.122  1.00  0.00     0.020 A 
ATOM     87  C   UNL A   1      49.551  26.136  32.282  1.00  0.00     0.020 A 
ATOM     88  C   UNL A   1      50.576  26.360  31.362  1.00  0.00     0.054 A 
BRANCH  88  89
ATOM     89  S   UNL A   1      52.289  25.927  31.772  1.00  0.00     0.124 S 
ATOM     90  O   UNL A   1      52.626  26.934  32.775  1.00  0.00    -0.237 OA
ATOM     91  O   UNL A   1      52.163  24.560  32.272  1.00  0.00    -0.237 OA
ATOM     92  O   UNL A   1      52.994  26.057  30.499  1.00  0.00    -0.744 OA
ENDBRANCH  88  89
ENDBRANCH  62  83
ENDBRANCH  36  37
ENDBRANCH  28  31
ENDBRANCH  26  27
ENDBRANCH   1  26
TORSDOF 16
ENDMDL
MODEL 2
REMARK VINA RESULT:     -11.0      0.963      1.700
REMARK SMILES C[C@@H](NC(=O)[C@@H]1CC[C@@H]2CCCC[C@@H]2[NH2+]1)C(=O)NCCCCNC(=O)c1ccc(-c2c3nc(c(-c4ccc(S(=O)(=O)[O-])cc4)c4ccc([nH]4)c(-c4ccc(S(=O)(=O)[O-])cc4)c4nc(c(-c5ccc(S(=O)(=O)[O-])cc5)c5ccc2[nH]5)C=C4)C=C3)cc1
REMARK SMILES IDX 21 1 20 2 19 3 18 4 16 5 17 6 2 8 1 9 3 10 4 11 5 13 6 14
REMARK SMILES IDX 7 15 15 16 8 17 14 18 9 21 13 22 10 23 12 24 11 25 22 26
REMARK SMILES IDX 23 27 24 28 25 30 26 31 27 32 85 33 28 34 84 35 29 36 30 37
REMARK SMILES IDX 31 38 78 39 32 40 83 41 77 42 79 43 33 44 82 45 76 46 75 47
REMARK SMILES IDX 34 49 64 50 45 51 63 52 46 53 49 54 62 55 80 56 47 57 48 58
REMARK SMILES IDX 61 60 81 61 50 62 35 63 36 64 44 65 37 66 43 67 38 68 39 69
REMARK SMILES IDX 40 70 41 71 42 72 65 73 66 74 74 75 67 76 73 77 68 78 69 79
REMARK SMILES IDX 70 80 71 81 72 82 51 83 52 84 60 85 53 86 59 87 54 88 55 89
REMARK SMILES IDX 56 90 57 91 58 92
REMARK H PARENT 18 7 3 12 15 19 15 20 23 29 79 48 49 59
REMARK Flexibility Score: inf
ROOT
ATOM      1  C   UNL A   1      33.183  27.957  25.854  1.00  0.00     0.023 C 
ENDROOT
BRANCH   1   2
ATOM      2  C   UNL A   1      31.780  28.298  25.350  1.00  0.00     0.023 C 
BRANCH   2   3
ATOM      3  C   UNL A   1      31.639  28.190  23.841  1.00  0.00     0.116 C 
BRANCH   3   4
ATOM      4  N   UNL A   1      32.872  27.707  23.256  1.00  0.00    -0.354 N 
ATOM      5  C   UNL A   1      33.045  26.742  22.321  1.00  0.00     0.242 C 
ATOM      6  O   UNL A   1      34.194  26.402  22.029  1.00  0.00    -0.273 OA
ATOM      7  H   UNL A   1      33.695  28.137  23.581  1.00  0.00     0.163 HD
BRANCH   5   8
ATOM      8  C   UNL A   1      31.849  26.041  21.676  1.00  0.00     0.168 C 
ATOM      9  C   UNL A   1      32.296  25.428  20.346  1.00  0.00     0.041 C 
BRANCH   8  10
ATOM     10  N   UNL A   1      31.168  25.051  22.515  1.00  0.00    -0.339 N 
ATOM     11  C   UNL A   1      31.639  23.910  23.108  1.00  0.00     0.278 C 
ATOM     12  H   UNL A   1      30.215  25.238  22.680  1.00  0.00     0.164 HD
ATOM     13  O   UNL A   1      30.994  23.526  24.090  1.00  0.00    -0.268 OA
BRANCH  11  14
ATOM     14  C   UNL A   1      32.785  23.054  22.498  1.00  0.00     0.272 C 
ATOM     15  C   UNL A   1      32.667  21.566  22.887  1.00  0.00     0.076 C 
ATOM     16  N   UNL A   1      34.145  23.524  22.773  1.00  0.00    -0.333 N 
ATOM     17  C   UNL A   1      33.137  21.289  24.316  1.00  0.00     0.016 C 
ATOM     18  C   UNL A   1      34.663  23.317  24.116  1.00  0.00     0.186 C 
ATOM     19  H   UNL A   1      34.167  24.526  22.586  1.00  0.00     0.347 HD
ATOM     20  H   UNL A   1      34.744  22.957  22.172  1.00  0.00     0.347 HD
ATOM     21  C   UNL A   1      34.543  21.855  24.547  1.00  0.00     0.048 C 
ATOM     22  C   UNL A   1      34.176  24.355  25.140  1.00  0.00     0.065 C 
ATOM     23  C   UNL A   1      35.025  21.730  25.990  1.00  0.00     0.010 C 
ATOM     24  C   UNL A   1      33.644  23.845  26.474  1.00  0.00     0.006 C 
ATOM     25  C   UNL A   1      34.158  22.500  26.974  1.00  0.00     0.001 C 
ENDBRANCH  11  14
ENDBRANCH   8  10
ENDBRANCH   5   8
ENDBRANCH   3   4
ENDBRANCH   2   3
ENDBRANCH   1   2
BRANCH   1  26
ATOM     26  C   UNL A   1      33.442  28.371  27.298  1.00  0.00     0.116 C 
BRANCH  26  27
ATOM     27  N   UNL A   1      33.411  29.820  27.455  1.00  0.00    -0.352 N 
ATOM     28  C   UNL A   1      34.351  30.637  28.030  1.00  0.00     0.251 C 
ATOM     29  H   UNL A   1      32.611  30.271  27.101  1.00  0.00     0.163 HD
ATOM     30  O   UNL A   1      34.066  31.792  28.335  1.00  0.00    -0.269 OA
BRANCH  28  31
ATOM     31  C   UNL A   1      35.700  30.100  28.287  1.00  0.00     0.039 A 
ATOM     32  C   UNL A   1      36.651  30.116  27.266  1.00  0.00     0.014 A 
ATOM     33  C   UNL A   1      36.026  29.620  29.558  1.00  0.00     0.014 A 
ATOM     34  C   UNL A   1      37.955  29.705  27.544  1.00  0.00     0.010 A 
ATOM     35  C   UNL A   1      37.344  29.297  29.854  1.00  0.00     0.010 A 
ATOM     36  C   UNL A   1      38.321  29.328  28.848  1.00  0.00    -0.014 A 
BRANCH  36  37
ATOM     37  C   UNL A   1      39.719  28.958  29.180  1.00  0.00     0.031 A 
ATOM     38  C   UNL A   1      40.629  29.966  29.830  1.00  0.00     0.074 A 
ATOM     39  C   UNL A   1      40.186  27.740  28.842  1.00  0.00     0.049 A 
ATOM     40  N   UNL A   1      41.891  29.848  30.151  1.00  0.00    -0.248 NA
ATOM     41  C   UNL A   1      40.052  31.285  30.137  1.00  0.00     0.031 C 
ATOM     42  C   UNL A   1      39.414  26.693  28.166  1.00  0.00     0.029 A 
ATOM     43  N   UNL A   1      41.425  27.176  29.017  1.00  0.00    -0.354 N 
ATOM     44  C   UNL A   1      42.262  31.076  30.684  1.00  0.00     0.074 A 
ATOM     45  C   UNL A   1      41.109  31.944  30.589  1.00  0.00     0.031 C 
ATOM     46  C   UNL A   1      40.188  25.607  28.012  1.00  0.00     0.029 A 
ATOM     47  C   UNL A   1      41.521  25.892  28.533  1.00  0.00     0.049 A 
ATOM     48  H   UNL A   1      42.175  27.646  29.447  1.00  0.00     0.167 HD
ATOM     49  C   UNL A   1      43.446  31.444  31.228  1.00  0.00     0.031 A 
ATOM     50  C   UNL A   1      42.567  25.043  28.503  1.00  0.00     0.031 A 
ATOM     51  C   UNL A   1      44.589  30.575  31.323  1.00  0.00     0.049 A 
ATOM     52  C   UNL A   1      43.879  25.480  29.094  1.00  0.00     0.074 A 
ATOM     53  C   UNL A   1      45.821  30.835  31.897  1.00  0.00     0.029 A 
ATOM     54  N   UNL A   1      44.644  29.281  30.827  1.00  0.00    -0.354 N 
ATOM     55  N   UNL A   1      44.190  26.624  29.656  1.00  0.00    -0.248 NA
ATOM     56  C   UNL A   1      44.980  24.507  29.058  1.00  0.00     0.031 C 
ATOM     57  C   UNL A   1      46.639  29.719  31.696  1.00  0.00     0.029 A 
ATOM     58  C   UNL A   1      45.896  28.738  31.059  1.00  0.00     0.049 A 
ATOM     59  H   UNL A   1      43.902  28.817  30.376  1.00  0.00     0.167 HD
ATOM     60  C   UNL A   1      45.512  26.497  30.067  1.00  0.00     0.074 A 
ATOM     61  C   UNL A   1      45.936  25.160  29.704  1.00  0.00     0.031 C 
ATOM     62  C   UNL A   1      46.303  27.405  30.691  1.00  0.00     0.031 A 
BRANCH  49  63
ATOM     63  C   UNL A   1      43.564  32.849  31.759  1.00  0.00    -0.014 A 
ATOM     64  C   UNL A   1      43.265  33.146  33.102  1.00  0.00     0.010 A 
ATOM     65  C   UNL A   1      44.015  33.881  30.916  1.00  0.00     0.010 A 
ATOM     66  C   UNL A   1      43.375  34.454  33.580  1.00  0.00     0.020 A 
ATOM     67  C   UNL A   1      44.157  35.185  31.398  1.00  0.00     0.020 A 
ATOM     68  C   UNL A   1      43.820  35.466  32.725  1.00  0.00     0.054 A 
BRANCH  68  69
ATOM     69  S   UNL A   1      43.977  37.149  33.381  1.00  0.00     0.124 S 
ATOM     70  O   UNL A   1      42.725  37.302  34.119  1.00  0.00    -0.237 OA
ATOM     71  O   UNL A   1      45.182  37.061  34.201  1.00  0.00    -0.237 OA
ATOM     72  O   UNL A   1      44.099  37.979  32.185  1.00  0.00    -0.744 OA
ENDBRANCH  68  69
ENDBRANCH  49  63
BRANCH  50  73
ATOM     73  C   UNL A   1      42.410  23.691  27.896  1.00  0.00    -0.014 A 
ATOM     74  C   UNL A   1      42.722  23.470  26.544  1.00  0.00     0.010 A 
ATOM     75  C   UNL A   1      41.956  22.611  28.677  1.00  0.00     0.010 A 
ATOM     76  C   UNL A   1      42.565  22.202  25.978  1.00  0.00     0.020 A 
ATOM     77  C   UNL A   1      41.827  21.335  28.123  1.00  0.00     0.020 A 
ATOM     78  C   UNL A   1      42.121  21.141  26.772  1.00  0.00     0.054 A 
BRANCH  78  79
ATOM     79  S   UNL A   1      41.972  19.492  26.029  1.00  0.00     0.124 S 
ATOM     80  O   UNL A   1      42.815  19.617  24.843  1.00  0.00    -0.237 OA
ATOM     81  O   UNL A   1      42.487  18.624  27.085  1.00  0.00    -0.237 OA
ATOM     82  O   UNL A   1      40.540  19.362  25.770  1.00  0.00    -0.744 OA
ENDBRANCH  78  79
ENDBRANCH  50  73
BRANCH  62  83
ATOM     83  C   UNL A   1      47.701  26.975  31.056  1.00  0.00    -0.014 A 
ATOM     84  C   UNL A   1      47.976  26.344  32.282  1.00  0.00     0.010 A 
ATOM     85  C   UNL A   1      48.744  27.157  30.129  1.00  0.00     0.010 A 
ATOM     86  C   UNL A   1      49.278  25.933  32.587  1.00  0.00     0.020 A 
ATOM     87  C   UNL A   1      50.038  26.716  30.416  1.00  0.00     0.020 A 
ATOM     88  C   UNL A   1      50.299  26.120  31.650  1.00  0.00     0.054 A 
BRANCH  88  89
ATOM     89  S   UNL A   1      51.968  25.535  32.053  1.00  0.00     0.124 S 
ATOM     90  O   UNL A   1      52.242  26.235  33.305  1.00  0.00    -0.237 OA
ATOM     91  O   UNL A   1      51.782  24.091  32.169  1.00  0.00    -0.237 OA
ATOM     92  O   UNL A   1      52.771  25.965  30.910  1.00  0.00    -0.744 OA
ENDBRANCH  88  89
ENDBRANCH  62  83
ENDBRANCH  36  37
ENDBRANCH  28  31
ENDBRANCH  26  27
ENDBRANCH   1  26
TORSDOF 16
ENDMDL
MODEL 3
REMARK VINA RESULT:     -10.9      0.759      1.273
REMARK SMILES C[C@@H](NC(=O)[C@@H]1CC[C@@H]2CCCC[C@@H]2[NH2+]1)C(=O)NCCCCNC(=O)c1ccc(-c2c3nc(c(-c4ccc(S(=O)(=O)[O-])cc4)c4ccc([nH]4)c(-c4ccc(S(=O)(=O)[O-])cc4)c4nc(c(-c5ccc(S(=O)(=O)[O-])cc5)c5ccc2[nH]5)C=C4)C=C3)cc1
REMARK SMILES IDX 21 1 20 2 19 3 18 4 16 5 17 6 2 8 1 9 3 10 4 11 5 13 6 14
REMARK SMILES IDX 7 15 15 16 8 17 14 18 9 21 13 22 10 23 12 24 11 25 22 26
REMARK SMILES IDX 23 27 24 28 25 30 26 31 27 32 85 33 28 34 84 35 29 36 30 37
REMARK SMILES IDX 31 38 78 39 32 40 83 41 77 42 79 43 33 44 82 45 76 46 75 47
REMARK SMILES IDX 34 49 64 50 45 51 63 52 46 53 49 54 62 55 80 56 47 57 48 58
REMARK SMILES IDX 61 60 81 61 50 62 35 63 36 64 44 65 37 66 43 67 38 68 39 69
REMARK SMILES IDX 40 70 41 71 42 72 65 73 66 74 74 75 67 76 73 77 68 78 69 79
REMARK SMILES IDX 70 80 71 81 72 82 51 83 52 84 60 85 53 86 59 87 54 88 55 89
REMARK SMILES IDX 56 90 57 91 58 92
REMARK H PARENT 18 7 3 12 15 19 15 20 23 29 79 48 49 59
REMARK Flexibility Score: inf
ROOT
ATOM      1  C   UNL A   1      32.447  28.135  26.437  1.00  0.00     0.023 C 
ENDROOT
BRANCH   1   2
ATOM      2  C   UNL A   1      31.635  29.290  25.850  1.00  0.00     0.023 C 
BRANCH   2   3
ATOM      3  C   UNL A   1      31.262  29.085  24.391  1.00  0.00     0.116 C 
BRANCH   3   4
ATOM      4  N   UNL A   1      32.433  29.224  23.551  1.00  0.00    -0.354 N 
ATOM      5  C   UNL A   1      33.120  28.263  22.889  1.00  0.00     0.242 C 
ATOM      6  O   UNL A   1      34.160  28.576  22.306  1.00  0.00    -0.273 OA
ATOM      7  H   UNL A   1      32.775  30.141  23.446  1.00  0.00     0.163 HD
BRANCH   5   8
ATOM      8  C   UNL A   1      32.657  26.806  22.905  1.00  0.00     0.168 C 
ATOM      9  C   UNL A   1      31.472  26.654  21.949  1.00  0.00     0.041 C 
BRANCH   8  10
ATOM     10  N   UNL A   1      33.696  25.809  22.624  1.00  0.00    -0.339 N 
ATOM     11  C   UNL A   1      34.214  24.816  23.412  1.00  0.00     0.278 C 
ATOM     12  H   UNL A   1      34.083  25.862  21.721  1.00  0.00     0.164 HD
ATOM     13  O   UNL A   1      34.727  23.874  22.797  1.00  0.00    -0.268 OA
BRANCH  11  14
ATOM     14  C   UNL A   1      34.316  24.933  24.959  1.00  0.00     0.272 C 
ATOM     15  C   UNL A   1      35.511  24.139  25.524  1.00  0.00     0.076 C 
ATOM     16  N   UNL A   1      33.103  24.585  25.705  1.00  0.00    -0.333 N 
ATOM     17  C   UNL A   1      35.242  22.635  25.593  1.00  0.00     0.016 C 
ATOM     18  C   UNL A   1      32.763  23.176  25.803  1.00  0.00     0.186 C 
ATOM     19  H   UNL A   1      32.320  25.060  25.256  1.00  0.00     0.347 HD
ATOM     20  H   UNL A   1      33.295  24.875  26.665  1.00  0.00     0.347 HD
ATOM     21  C   UNL A   1      33.933  22.350  26.339  1.00  0.00     0.048 C 
ATOM     22  C   UNL A   1      32.068  22.612  24.554  1.00  0.00     0.065 C 
ATOM     23  C   UNL A   1      33.533  20.876  26.335  1.00  0.00     0.010 C 
ATOM     24  C   UNL A   1      32.585  21.298  23.982  1.00  0.00     0.006 C 
ATOM     25  C   UNL A   1      33.280  20.334  24.937  1.00  0.00     0.001 C 
ENDBRANCH  11  14
ENDBRANCH   8  10
ENDBRANCH   5   8
ENDBRANCH   3   4
ENDBRANCH   2   3
ENDBRANCH   1   2
BRANCH   1  26
ATOM     26  C   UNL A   1      33.705  28.573  27.177  1.00  0.00     0.116 C 
BRANCH  26  27
ATOM     27  N   UNL A   1      33.651  29.984  27.539  1.00  0.00    -0.352 N 
ATOM     28  C   UNL A   1      34.568  30.721  28.244  1.00  0.00     0.251 C 
ATOM     29  H   UNL A   1      32.850  30.472  27.238  1.00  0.00     0.163 HD
ATOM     30  O   UNL A   1      34.261  31.818  28.706  1.00  0.00    -0.269 OA
BRANCH  28  31
ATOM     31  C   UNL A   1      35.919  30.169  28.449  1.00  0.00     0.039 A 
ATOM     32  C   UNL A   1      36.840  30.201  27.402  1.00  0.00     0.014 A 
ATOM     33  C   UNL A   1      36.278  29.657  29.699  1.00  0.00     0.014 A 
ATOM     34  C   UNL A   1      38.149  29.774  27.632  1.00  0.00     0.010 A 
ATOM     35  C   UNL A   1      37.602  29.317  29.949  1.00  0.00     0.010 A 
ATOM     36  C   UNL A   1      38.550  29.364  28.915  1.00  0.00    -0.014 A 
BRANCH  36  37
ATOM     37  C   UNL A   1      39.954  28.976  29.197  1.00  0.00     0.031 A 
ATOM     38  C   UNL A   1      40.901  29.975  29.806  1.00  0.00     0.074 A 
ATOM     39  C   UNL A   1      40.390  27.749  28.851  1.00  0.00     0.049 A 
ATOM     40  N   UNL A   1      42.173  29.841  30.080  1.00  0.00    -0.248 NA
ATOM     41  C   UNL A   1      40.355  31.304  30.125  1.00  0.00     0.031 C 
ATOM     42  C   UNL A   1      39.579  26.709  28.211  1.00  0.00     0.029 A 
ATOM     43  N   UNL A   1      41.627  27.169  28.983  1.00  0.00    -0.354 N 
ATOM     44  C   UNL A   1      42.581  31.067  30.591  1.00  0.00     0.074 A 
ATOM     45  C   UNL A   1      41.437  31.951  30.533  1.00  0.00     0.031 C 
ATOM     46  C   UNL A   1      40.332  25.611  28.036  1.00  0.00     0.029 A 
ATOM     47  C   UNL A   1      41.687  25.881  28.504  1.00  0.00     0.049 A 
ATOM     48  H   UNL A   1      42.399  27.631  29.382  1.00  0.00     0.167 HD
ATOM     49  C   UNL A   1      43.789  31.421  31.088  1.00  0.00     0.031 A 
ATOM     50  C   UNL A   1      42.718  25.017  28.441  1.00  0.00     0.031 A 
ATOM     51  C   UNL A   1      44.922  30.536  31.146  1.00  0.00     0.049 A 
ATOM     52  C   UNL A   1      44.058  25.439  28.980  1.00  0.00     0.074 A 
ATOM     53  C   UNL A   1      46.178  30.782  31.673  1.00  0.00     0.029 A 
ATOM     54  N   UNL A   1      44.941  29.238  30.657  1.00  0.00    -0.354 N 
ATOM     55  N   UNL A   1      44.406  26.581  29.523  1.00  0.00    -0.248 NA
ATOM     56  C   UNL A   1      45.143  24.449  28.910  1.00  0.00     0.031 C 
ATOM     57  C   UNL A   1      46.973  29.654  31.449  1.00  0.00     0.029 A 
ATOM     58  C   UNL A   1      46.193  28.680  30.847  1.00  0.00     0.049 A 
ATOM     59  H   UNL A   1      44.176  28.782  30.238  1.00  0.00     0.167 HD
ATOM     60  C   UNL A   1      45.740  26.438  29.885  1.00  0.00     0.074 A 
ATOM     61  C   UNL A   1      46.131  25.092  29.516  1.00  0.00     0.031 C 
ATOM     62  C   UNL A   1      46.567  27.338  30.473  1.00  0.00     0.031 A 
BRANCH  49  63
ATOM     63  C   UNL A   1      43.946  32.828  31.604  1.00  0.00    -0.014 A 
ATOM     64  C   UNL A   1      43.685  33.141  32.952  1.00  0.00     0.010 A 
ATOM     65  C   UNL A   1      44.398  33.844  30.743  1.00  0.00     0.010 A 
ATOM     66  C   UNL A   1      43.832  34.450  33.416  1.00  0.00     0.020 A 
ATOM     67  C   UNL A   1      44.577  35.149  31.211  1.00  0.00     0.020 A 
ATOM     68  C   UNL A   1      44.276  35.447  32.543  1.00  0.00     0.054 A 
BRANCH  68  69
ATOM     69  S   UNL A   1      44.481  37.131  33.182  1.00  0.00     0.124 S 
ATOM     70  O   UNL A   1      44.882  37.862  31.982  1.00  0.00    -0.237 OA
ATOM     71  O   UNL A   1      43.149  37.443  33.691  1.00  0.00    -0.237 OA
ATOM     72  O   UNL A   1      45.519  36.993  34.201  1.00  0.00    -0.744 OA
ENDBRANCH  68  69
ENDBRANCH  49  63
BRANCH  50  73
ATOM     73  C   UNL A   1      42.520  23.663  27.851  1.00  0.00    -0.014 A 
ATOM     74  C   UNL A   1      42.873  23.404  26.515  1.00  0.00     0.010 A 
ATOM     75  C   UNL A   1      41.985  22.620  28.630  1.00  0.00     0.010 A 
ATOM     76  C   UNL A   1      42.676  22.134  25.963  1.00  0.00     0.020 A 
ATOM     77  C   UNL A   1      41.816  21.342  28.091  1.00  0.00     0.020 A 
ATOM     78  C   UNL A   1      42.152  21.110  26.756  1.00  0.00     0.054 A 
BRANCH  78  79
ATOM     79  S   UNL A   1      41.952  19.457  26.034  1.00  0.00     0.124 S 
ATOM     80  O   UNL A   1      42.780  19.549  24.835  1.00  0.00    -0.237 OA
ATOM     81  O   UNL A   1      42.461  18.589  27.092  1.00  0.00    -0.237 OA
ATOM     82  O   UNL A   1      40.513  19.360  25.796  1.00  0.00    -0.744 OA
ENDBRANCH  78  79
ENDBRANCH  50  73
BRANCH  62  83
ATOM     83  C   UNL A   1      47.971  26.890  30.788  1.00  0.00    -0.014 A 
ATOM     84  C   UNL A   1      49.019  27.062  29.867  1.00  0.00     0.010 A 
ATOM     85  C   UNL A   1      48.252  26.340  32.053  1.00  0.00     0.010 A 
ATOM     86  C   UNL A   1      50.318  26.660  30.195  1.00  0.00     0.020 A 
ATOM     87  C   UNL A   1      49.555  25.969  32.395  1.00  0.00     0.020 A 
ATOM     88  C   UNL A   1      50.577  26.118  31.457  1.00  0.00     0.054 A 
BRANCH  88  89
ATOM     89  S   UNL A   1      52.279  25.648  31.871  1.00  0.00     0.124 S 
ATOM     90  O   UNL A   1      52.137  24.226  32.174  1.00  0.00    -0.237 OA
ATOM     91  O   UNL A   1      53.005  25.960  30.643  1.00  0.00    -0.237 OA
ATOM     92  O   UNL A   1      52.605  26.498  33.014  1.00  0.00    -0.744 OA
ENDBRANCH  88  89
ENDBRANCH  62  83
ENDBRANCH  36  37
ENDBRANCH  28  31
ENDBRANCH  26  27
ENDBRANCH   1  26
TORSDOF 16
ENDMDL
