MODEL 1
REMARK VINA RESULT:      -8.0      0.000      0.000
REMARK SMILES CCCCCCNC(=O)Oc1cccc(-c2ccc([C@@H](C)C(=O)NCCCCNC(=O)c3ccc(-c4c5nc(c(-c6ccc(S(=O)(=O)[O-])cc6)c6ccc([nH]6)c(-c6ccc(S(=O)(=O)[O-])cc6)c6nc(c(-c7ccc(S(=O)(=O)[O-])cc7)c7ccc4[nH]7)C=C6)C=C5)cc3)cc2F)c1
REMARK SMILES IDX 20 1 21 2 19 3 16 4 17 5 93 6 18 7 92 8 94 9 15 10 11 11
REMARK SMILES IDX 12 12 95 13 13 14 14 15 10 16 8 17 7 18 9 20 6 21 5 22 4 23
REMARK SMILES IDX 3 24 2 25 1 26 22 27 23 28 24 29 25 31 26 32 27 33 28 34
REMARK SMILES IDX 29 35 30 36 31 38 32 39 33 40 91 41 34 42 90 43 35 44 36 45
REMARK SMILES IDX 37 46 84 47 38 48 89 49 83 50 85 51 39 52 88 53 82 54 81 55
REMARK SMILES IDX 40 57 70 58 51 59 69 60 52 61 55 62 68 63 86 64 53 65 54 66
REMARK SMILES IDX 67 68 87 69 56 70 41 71 42 72 50 73 43 74 49 75 44 76 45 77
REMARK SMILES IDX 46 78 47 79 48 80 71 81 72 82 80 83 73 84 79 85 74 86 75 87
REMARK SMILES IDX 76 88 77 89 78 90 57 91 58 92 66 93 59 94 65 95 60 96 61 97
REMARK SMILES IDX 62 98 63 99 64 100
REMARK H PARENT 7 19 24 30 29 37 85 56 55 67
REMARK Flexibility Score: inf
ROOT
ATOM      1  C   UNL A   1      42.814  24.138  27.628  1.00  0.00     0.105 C 
ATOM      2  C   UNL A   1      42.395  22.704  27.945  1.00  0.00     0.023 C 
ENDROOT
BRANCH   1   3
ATOM      3  C   UNL A   1      41.865  25.229  28.099  1.00  0.00    -0.033 A 
ATOM      4  C   UNL A   1      40.112  27.399  28.758  1.00  0.00     0.018 A 
ATOM      5  C   UNL A   1      39.633  26.092  28.561  1.00  0.00     0.012 A 
ATOM      6  C   UNL A   1      41.502  27.569  28.670  1.00  0.00     0.131 A 
ATOM      7  C   UNL A   1      40.495  25.023  28.281  1.00  0.00     0.005 A 
ATOM      8  C   UNL A   1      42.359  26.520  28.325  1.00  0.00     0.044 A 
ATOM      9  F   UNL A   1      42.061  28.764  28.920  1.00  0.00    -0.206 F 
BRANCH   4  10
ATOM     10  C   UNL A   1      39.178  28.519  29.021  1.00  0.00    -0.012 A 
ATOM     11  C   UNL A   1      37.811  29.838  30.544  1.00  0.00     0.133 A 
ATOM     12  C   UNL A   1      37.416  30.688  29.516  1.00  0.00     0.047 A 
ATOM     13  C   UNL A   1      38.677  28.768  30.311  1.00  0.00     0.056 A 
ATOM     14  C   UNL A   1      37.908  30.468  28.236  1.00  0.00     0.004 A 
ATOM     15  C   UNL A   1      38.769  29.393  27.992  1.00  0.00     0.009 A 
BRANCH  11  16
ATOM     16  O   UNL A   1      37.188  30.022  31.789  1.00  0.00    -0.410 OA
BRANCH  16  17
ATOM     17  C   UNL A   1      37.690  29.347  32.892  1.00  0.00     0.412 C 
ATOM     18  N   UNL A   1      38.549  30.114  33.633  1.00  0.00    -0.321 N 
ATOM     19  H   UNL A   1      38.964  29.683  34.416  1.00  0.00     0.167 HD
ATOM     20  O   UNL A   1      37.437  28.194  33.210  1.00  0.00    -0.224 OA
BRANCH  18  21
ATOM     21  C   UNL A   1      38.911  31.494  33.382  1.00  0.00     0.119 C 
BRANCH  21  22
ATOM     22  C   UNL A   1      38.002  32.468  34.131  1.00  0.00     0.021 C 
BRANCH  22  23
ATOM     23  C   UNL A   1      37.612  33.720  33.335  1.00  0.00     0.002 C 
BRANCH  23  24
ATOM     24  C   UNL A   1      38.622  34.164  32.270  1.00  0.00    -0.000 C 
BRANCH  24  25
ATOM     25  C   UNL A   1      38.090  34.203  30.836  1.00  0.00    -0.003 C 
ATOM     26  C   UNL A   1      39.166  33.964  29.789  1.00  0.00     0.004 C 
ENDBRANCH  24  25
ENDBRANCH  23  24
ENDBRANCH  22  23
ENDBRANCH  21  22
ENDBRANCH  18  21
ENDBRANCH  16  17
ENDBRANCH  11  16
ENDBRANCH   4  10
ENDBRANCH   1   3
BRANCH   1  27
ATOM     27  C   UNL A   1      43.320  24.342  26.190  1.00  0.00     0.227 C 
ATOM     28  O   UNL A   1      42.532  24.721  25.314  1.00  0.00    -0.274 OA
ATOM     29  N   UNL A   1      44.609  24.143  25.804  1.00  0.00    -0.356 N 
ATOM     30  H   UNL A   1      44.791  24.381  24.866  1.00  0.00     0.163 HD
BRANCH  29  31
ATOM     31  C   UNL A   1      45.761  23.645  26.524  1.00  0.00     0.116 C 
BRANCH  31  32
ATOM     32  C   UNL A   1      47.006  24.500  26.280  1.00  0.00     0.023 C 
BRANCH  32  33
ATOM     33  C   UNL A   1      47.449  24.592  24.822  1.00  0.00     0.023 C 
BRANCH  33  34
ATOM     34  C   UNL A   1      48.507  25.650  24.534  1.00  0.00     0.116 C 
BRANCH  34  35
ATOM     35  N   UNL A   1      48.128  26.603  23.499  1.00  0.00    -0.352 N 
ATOM     36  C   UNL A   1      47.360  27.736  23.637  1.00  0.00     0.251 C 
ATOM     37  H   UNL A   1      48.463  26.414  22.593  1.00  0.00     0.163 HD
ATOM     38  O   UNL A   1      47.051  28.404  22.656  1.00  0.00    -0.269 OA
BRANCH  36  39
ATOM     39  C   UNL A   1      46.876  28.107  24.983  1.00  0.00     0.039 A 
ATOM     40  C   UNL A   1      47.737  28.782  25.852  1.00  0.00     0.014 A 
ATOM     41  C   UNL A   1      45.552  27.858  25.349  1.00  0.00     0.014 A 
ATOM     42  C   UNL A   1      47.243  29.271  27.063  1.00  0.00     0.010 A 
ATOM     43  C   UNL A   1      45.043  28.422  26.512  1.00  0.00     0.010 A 
ATOM     44  C   UNL A   1      45.883  29.130  27.384  1.00  0.00    -0.014 A 
BRANCH  44  45
ATOM     45  C   UNL A   1      45.318  29.700  28.634  1.00  0.00     0.031 A 
ATOM     46  C   UNL A   1      45.224  28.844  29.869  1.00  0.00     0.074 A 
ATOM     47  C   UNL A   1      44.829  30.956  28.640  1.00  0.00     0.049 A 
ATOM     48  N   UNL A   1      44.707  29.133  31.035  1.00  0.00    -0.248 NA
ATOM     49  C   UNL A   1      45.750  27.472  29.771  1.00  0.00     0.031 C 
ATOM     50  C   UNL A   1      44.814  31.868  27.493  1.00  0.00     0.029 A 
ATOM     51  N   UNL A   1      44.244  31.683  29.647  1.00  0.00    -0.354 N 
ATOM     52  C   UNL A   1      44.826  27.977  31.797  1.00  0.00     0.074 A 
ATOM     53  C   UNL A   1      45.409  26.965  30.945  1.00  0.00     0.031 C 
ATOM     54  C   UNL A   1      44.278  33.040  27.870  1.00  0.00     0.029 A 
ATOM     55  C   UNL A   1      43.876  32.953  29.270  1.00  0.00     0.049 A 
ATOM     56  H   UNL A   1      44.100  31.328  30.553  1.00  0.00     0.167 HD
ATOM     57  C   UNL A   1      44.503  27.780  33.098  1.00  0.00     0.031 A 
ATOM     58  C   UNL A   1      43.281  33.937  29.972  1.00  0.00     0.031 A 
ATOM     59  C   UNL A   1      43.944  28.795  33.948  1.00  0.00     0.049 A 
ATOM     60  C   UNL A   1      42.944  33.700  31.420  1.00  0.00     0.074 A 
ATOM     61  C   UNL A   1      43.637  28.716  35.295  1.00  0.00     0.029 A 
ATOM     62  N   UNL A   1      43.612  30.077  33.536  1.00  0.00    -0.354 N 
ATOM     63  N   UNL A   1      43.126  32.620  32.142  1.00  0.00    -0.248 NA
ATOM     64  C   UNL A   1      42.337  34.821  32.151  1.00  0.00     0.031 C 
ATOM     65  C   UNL A   1      43.075  29.936  35.685  1.00  0.00     0.029 A 
ATOM     66  C   UNL A   1      43.088  30.795  34.597  1.00  0.00     0.049 A 
ATOM     67  H   UNL A   1      43.732  30.425  32.622  1.00  0.00     0.167 HD
ATOM     68  C   UNL A   1      42.686  32.942  33.421  1.00  0.00     0.074 A 
ATOM     69  C   UNL A   1      42.242  34.320  33.376  1.00  0.00     0.031 C 
ATOM     70  C   UNL A   1      42.655  32.167  34.535  1.00  0.00     0.031 A 
BRANCH  57  71
ATOM     71  C   UNL A   1      44.751  26.411  33.675  1.00  0.00    -0.014 A 
ATOM     72  C   UNL A   1      43.747  25.424  33.662  1.00  0.00     0.010 A 
ATOM     73  C   UNL A   1      46.012  26.096  34.213  1.00  0.00     0.010 A 
ATOM     74  C   UNL A   1      43.985  24.165  34.218  1.00  0.00     0.020 A 
ATOM     75  C   UNL A   1      46.263  24.826  34.743  1.00  0.00     0.020 A 
ATOM     76  C   UNL A   1      45.241  23.876  34.759  1.00  0.00     0.054 A 
BRANCH  76  77
ATOM     77  S   UNL A   1      45.526  22.226  35.457  1.00  0.00     0.124 S 
ATOM     78  O   UNL A   1      46.905  21.964  35.056  1.00  0.00    -0.237 OA
ATOM     79  O   UNL A   1      45.319  22.444  36.887  1.00  0.00    -0.237 OA
ATOM     80  O   UNL A   1      44.517  21.395  34.805  1.00  0.00    -0.744 OA
ENDBRANCH  76  77
ENDBRANCH  57  71
BRANCH  58  81
ATOM     81  C   UNL A   1      42.994  35.248  29.325  1.00  0.00    -0.014 A 
ATOM     82  C   UNL A   1      41.860  35.406  28.508  1.00  0.00     0.010 A 
ATOM     83  C   UNL A   1      43.847  36.347  29.529  1.00  0.00     0.010 A 
ATOM     84  C   UNL A   1      41.596  36.632  27.892  1.00  0.00     0.020 A 
ATOM     85  C   UNL A   1      43.571  37.584  28.936  1.00  0.00     0.020 A 
ATOM     86  C   UNL A   1      42.453  37.714  28.111  1.00  0.00     0.054 A 
BRANCH  86  87
ATOM     87  S   UNL A   1      42.064  39.309  27.336  1.00  0.00     0.124 S 
ATOM     88  O   UNL A   1      41.145  38.915  26.274  1.00  0.00    -0.237 OA
ATOM     89  O   UNL A   1      41.473  40.060  28.441  1.00  0.00    -0.237 OA
ATOM     90  O   UNL A   1      43.367  39.797  26.888  1.00  0.00    -0.744 OA
ENDBRANCH  86  87
ENDBRANCH  58  81
BRANCH  70  91
ATOM     91  C   UNL A   1      42.168  32.804  35.809  1.00  0.00    -0.014 A 
ATOM     92  C   UNL A   1      42.956  33.730  36.515  1.00  0.00     0.010 A 
ATOM     93  C   UNL A   1      40.873  32.509  36.275  1.00  0.00     0.010 A 
ATOM     94  C   UNL A   1      42.472  34.322  37.684  1.00  0.00     0.020 A 
ATOM     95  C   UNL A   1      40.374  33.122  37.426  1.00  0.00     0.020 A 
ATOM     96  C   UNL A   1      41.184  34.013  38.132  1.00  0.00     0.054 A 
BRANCH  96  97
ATOM     97  S   UNL A   1      40.564  34.825  39.631  1.00  0.00     0.124 S 
ATOM     98  O   UNL A   1      40.671  33.759  40.622  1.00  0.00    -0.237 OA
ATOM     99  O   UNL A   1      41.494  35.938  39.801  1.00  0.00    -0.237 OA
ATOM    100  O   UNL A   1      39.199  35.212  39.276  1.00  0.00    -0.744 OA
ENDBRANCH  96  97
ENDBRANCH  70  91
ENDBRANCH  44  45
ENDBRANCH  36  39
ENDBRANCH  34  35
ENDBRANCH  33  34
ENDBRANCH  32  33
ENDBRANCH  31  32
ENDBRANCH  29  31
ENDBRANCH   1  27
TORSDOF 23
ENDMDL
MODEL 2
REMARK VINA RESULT:      -7.9      1.043      7.926
REMARK SMILES CCCCCCNC(=O)Oc1cccc(-c2ccc([C@@H](C)C(=O)NCCCCNC(=O)c3ccc(-c4c5nc(c(-c6ccc(S(=O)(=O)[O-])cc6)c6ccc([nH]6)c(-c6ccc(S(=O)(=O)[O-])cc6)c6nc(c(-c7ccc(S(=O)(=O)[O-])cc7)c7ccc4[nH]7)C=C6)C=C5)cc3)cc2F)c1
REMARK SMILES IDX 20 1 21 2 19 3 16 4 17 5 93 6 18 7 92 8 94 9 15 10 11 11
REMARK SMILES IDX 12 12 95 13 13 14 14 15 10 16 8 17 7 18 9 20 6 21 5 22 4 23
REMARK SMILES IDX 3 24 2 25 1 26 22 27 23 28 24 29 25 31 26 32 27 33 28 34
REMARK SMILES IDX 29 35 30 36 31 38 32 39 33 40 91 41 34 42 90 43 35 44 36 45
REMARK SMILES IDX 37 46 84 47 38 48 89 49 83 50 85 51 39 52 88 53 82 54 81 55
REMARK SMILES IDX 40 57 70 58 51 59 69 60 52 61 55 62 68 63 86 64 53 65 54 66
REMARK SMILES IDX 67 68 87 69 56 70 41 71 42 72 50 73 43 74 49 75 44 76 45 77
REMARK SMILES IDX 46 78 47 79 48 80 71 81 72 82 80 83 73 84 79 85 74 86 75 87
REMARK SMILES IDX 76 88 77 89 78 90 57 91 58 92 66 93 59 94 65 95 60 96 61 97
REMARK SMILES IDX 62 98 63 99 64 100
REMARK H PARENT 7 19 24 30 29 37 85 56 55 67
REMARK Flexibility Score: inf
ROOT
ATOM      1  C   UNL A   1      42.726  23.986  26.844  1.00  0.00     0.105 C 
ATOM      2  C   UNL A   1      41.644  22.978  26.461  1.00  0.00     0.023 C 
ENDROOT
BRANCH   1   3
ATOM      3  C   UNL A   1      42.235  25.295  27.442  1.00  0.00    -0.033 A 
ATOM      4  C   UNL A   1      41.070  27.683  28.517  1.00  0.00     0.018 A 
ATOM      5  C   UNL A   1      41.711  26.737  29.335  1.00  0.00     0.012 A 
ATOM      6  C   UNL A   1      41.082  27.420  27.139  1.00  0.00     0.131 A 
ATOM      7  C   UNL A   1      42.318  25.591  28.805  1.00  0.00     0.005 A 
ATOM      8  C   UNL A   1      41.627  26.245  26.611  1.00  0.00     0.044 A 
ATOM      9  F   UNL A   1      40.565  28.302  26.270  1.00  0.00    -0.206 F 
BRANCH   4  10
ATOM     10  C   UNL A   1      40.407  28.871  29.105  1.00  0.00    -0.012 A 
ATOM     11  C   UNL A   1      38.443  29.976  30.027  1.00  0.00     0.133 A 
ATOM     12  C   UNL A   1      39.162  31.145  30.258  1.00  0.00     0.047 A 
ATOM     13  C   UNL A   1      39.047  28.852  29.460  1.00  0.00     0.056 A 
ATOM     14  C   UNL A   1      40.510  31.183  29.926  1.00  0.00     0.004 A 
ATOM     15  C   UNL A   1      41.120  30.064  29.349  1.00  0.00     0.009 A 
BRANCH  11  16
ATOM     16  O   UNL A   1      37.060  30.029  30.259  1.00  0.00    -0.410 OA
BRANCH  16  17
ATOM     17  C   UNL A   1      36.604  30.085  31.567  1.00  0.00     0.412 C 
ATOM     18  N   UNL A   1      35.995  31.275  31.864  1.00  0.00    -0.321 N 
ATOM     19  H   UNL A   1      35.673  31.390  32.787  1.00  0.00     0.167 HD
ATOM     20  O   UNL A   1      36.715  29.205  32.409  1.00  0.00    -0.224 OA
BRANCH  18  21
ATOM     21  C   UNL A   1      35.776  32.382  30.956  1.00  0.00     0.119 C 
BRANCH  21  22
ATOM     22  C   UNL A   1      36.092  33.728  31.607  1.00  0.00     0.021 C 
BRANCH  22  23
ATOM     23  C   UNL A   1      37.570  34.136  31.546  1.00  0.00     0.002 C 
BRANCH  23  24
ATOM     24  C   UNL A   1      38.264  34.296  32.903  1.00  0.00    -0.000 C 
BRANCH  24  25
ATOM     25  C   UNL A   1      37.331  34.442  34.107  1.00  0.00    -0.003 C 
ATOM     26  C   UNL A   1      37.013  33.118  34.785  1.00  0.00     0.004 C 
ENDBRANCH  24  25
ENDBRANCH  23  24
ENDBRANCH  22  23
ENDBRANCH  21  22
ENDBRANCH  18  21
ENDBRANCH  16  17
ENDBRANCH  11  16
ENDBRANCH   4  10
ENDBRANCH   1   3
BRANCH   1  27
ATOM     27  C   UNL A   1      43.818  24.169  25.776  1.00  0.00     0.227 C 
ATOM     28  O   UNL A   1      43.516  24.114  24.578  1.00  0.00    -0.274 OA
ATOM     29  N   UNL A   1      45.126  24.408  26.063  1.00  0.00    -0.356 N 
ATOM     30  H   UNL A   1      45.690  24.571  25.272  1.00  0.00     0.163 HD
BRANCH  29  31
ATOM     31  C   UNL A   1      45.838  24.468  27.322  1.00  0.00     0.116 C 
BRANCH  31  32
ATOM     32  C   UNL A   1      47.269  24.979  27.150  1.00  0.00     0.023 C 
BRANCH  32  33
ATOM     33  C   UNL A   1      47.840  24.837  25.742  1.00  0.00     0.023 C 
BRANCH  33  34
ATOM     34  C   UNL A   1      48.736  25.983  25.289  1.00  0.00     0.116 C 
BRANCH  34  35
ATOM     35  N   UNL A   1      48.346  26.576  24.016  1.00  0.00    -0.352 N 
ATOM     36  C   UNL A   1      47.427  27.576  23.798  1.00  0.00     0.251 C 
ATOM     37  H   UNL A   1      48.794  26.217  23.216  1.00  0.00     0.163 HD
ATOM     38  O   UNL A   1      47.137  27.920  22.657  1.00  0.00    -0.269 OA
BRANCH  36  39
ATOM     39  C   UNL A   1      46.763  28.197  24.963  1.00  0.00     0.039 A 
ATOM     40  C   UNL A   1      45.454  27.825  25.276  1.00  0.00     0.014 A 
ATOM     41  C   UNL A   1      47.466  29.080  25.785  1.00  0.00     0.014 A 
ATOM     42  C   UNL A   1      44.874  28.287  26.460  1.00  0.00     0.010 A 
ATOM     43  C   UNL A   1      46.920  29.466  27.004  1.00  0.00     0.010 A 
ATOM     44  C   UNL A   1      45.617  29.079  27.352  1.00  0.00    -0.014 A 
BRANCH  44  45
ATOM     45  C   UNL A   1      45.048  29.527  28.649  1.00  0.00     0.031 A 
ATOM     46  C   UNL A   1      44.517  30.929  28.785  1.00  0.00     0.074 A 
ATOM     47  C   UNL A   1      45.073  28.704  29.715  1.00  0.00     0.049 A 
ATOM     48  N   UNL A   1      44.040  31.531  29.845  1.00  0.00    -0.248 NA
ATOM     49  C   UNL A   1      44.556  31.778  27.582  1.00  0.00     0.031 C 
ATOM     50  C   UNL A   1      45.609  27.341  29.725  1.00  0.00     0.029 A 
ATOM     51  N   UNL A   1      44.639  28.896  31.004  1.00  0.00    -0.354 N 
ATOM     52  C   UNL A   1      43.745  32.828  29.441  1.00  0.00     0.074 A 
ATOM     53  C   UNL A   1      44.151  32.945  28.058  1.00  0.00     0.031 C 
ATOM     54  C   UNL A   1      45.444  26.811  30.948  1.00  0.00     0.029 A 
ATOM     55  C   UNL A   1      44.827  27.805  31.819  1.00  0.00     0.049 A 
ATOM     56  H   UNL A   1      44.233  29.737  31.315  1.00  0.00     0.167 HD
ATOM     57  C   UNL A   1      43.165  33.826  30.149  1.00  0.00     0.031 A 
ATOM     58  C   UNL A   1      44.535  27.625  33.122  1.00  0.00     0.031 A 
ATOM     59  C   UNL A   1      42.743  33.700  31.517  1.00  0.00     0.049 A 
ATOM     60  C   UNL A   1      43.879  28.745  33.885  1.00  0.00     0.074 A 
ATOM     61  C   UNL A   1      42.092  34.631  32.306  1.00  0.00     0.029 A 
ATOM     62  N   UNL A   1      42.926  32.569  32.299  1.00  0.00    -0.354 N 
ATOM     63  N   UNL A   1      43.547  29.943  33.467  1.00  0.00    -0.248 NA
ATOM     64  C   UNL A   1      43.543  28.481  35.291  1.00  0.00     0.031 C 
ATOM     65  C   UNL A   1      41.923  34.080  33.580  1.00  0.00     0.029 A 
ATOM     66  C   UNL A   1      42.415  32.784  33.567  1.00  0.00     0.049 A 
ATOM     67  H   UNL A   1      43.356  31.736  31.996  1.00  0.00     0.167 HD
ATOM     68  C   UNL A   1      42.933  30.565  34.548  1.00  0.00     0.074 A 
ATOM     69  C   UNL A   1      42.929  29.606  35.634  1.00  0.00     0.031 C 
ATOM     70  C   UNL A   1      42.416  31.816  34.635  1.00  0.00     0.031 A 
BRANCH  57  71
ATOM     71  C   UNL A   1      42.955  35.143  29.447  1.00  0.00    -0.014 A 
ATOM     72  C   UNL A   1      41.767  35.408  28.740  1.00  0.00     0.010 A 
ATOM     73  C   UNL A   1      43.944  36.140  29.518  1.00  0.00     0.010 A 
ATOM     74  C   UNL A   1      41.594  36.625  28.078  1.00  0.00     0.020 A 
ATOM     75  C   UNL A   1      43.761  37.372  28.882  1.00  0.00     0.020 A 
ATOM     76  C   UNL A   1      42.595  37.598  28.150  1.00  0.00     0.054 A 
BRANCH  76  77
ATOM     77  S   UNL A   1      42.334  39.177  27.295  1.00  0.00     0.124 S 
ATOM     78  O   UNL A   1      41.797  40.013  28.365  1.00  0.00    -0.237 OA
ATOM     79  O   UNL A   1      43.680  39.523  26.844  1.00  0.00    -0.237 OA
ATOM     80  O   UNL A   1      41.390  38.843  26.232  1.00  0.00    -0.744 OA
ENDBRANCH  76  77
ENDBRANCH  57  71
BRANCH  58  81
ATOM     81  C   UNL A   1      44.835  26.324  33.781  1.00  0.00    -0.014 A 
ATOM     82  C   UNL A   1      46.089  26.097  34.375  1.00  0.00     0.010 A 
ATOM     83  C   UNL A   1      43.864  25.307  33.827  1.00  0.00     0.010 A 
ATOM     84  C   UNL A   1      46.374  24.871  34.984  1.00  0.00     0.020 A 
ATOM     85  C   UNL A   1      44.135  24.089  34.460  1.00  0.00     0.020 A 
ATOM     86  C   UNL A   1      45.394  23.875  35.023  1.00  0.00     0.054 A 
BRANCH  86  87
ATOM     87  S   UNL A   1      45.772  22.310  35.860  1.00  0.00     0.124 S 
ATOM     88  O   UNL A   1      47.215  22.203  35.668  1.00  0.00    -0.237 OA
ATOM     89  O   UNL A   1      45.332  22.569  37.229  1.00  0.00    -0.237 OA
ATOM     90  O   UNL A   1      44.969  21.330  35.131  1.00  0.00    -0.744 OA
ENDBRANCH  86  87
ENDBRANCH  58  81
BRANCH  70  91
ATOM     91  C   UNL A   1      41.759  32.207  35.932  1.00  0.00    -0.014 A 
ATOM     92  C   UNL A   1      42.490  32.807  36.972  1.00  0.00     0.010 A 
ATOM     93  C   UNL A   1      40.373  32.019  36.086  1.00  0.00     0.010 A 
ATOM     94  C   UNL A   1      41.853  33.179  38.158  1.00  0.00     0.020 A 
ATOM     95  C   UNL A   1      39.727  32.418  37.258  1.00  0.00     0.020 A 
ATOM     96  C   UNL A   1      40.475  32.981  38.293  1.00  0.00     0.054 A 
BRANCH  96  97
ATOM     97  S   UNL A   1      39.664  33.509  39.827  1.00  0.00     0.124 S 
ATOM     98  O   UNL A   1      40.647  34.429  40.391  1.00  0.00    -0.237 OA
ATOM     99  O   UNL A   1      38.431  34.126  39.343  1.00  0.00    -0.237 OA
ATOM    100  O   UNL A   1      39.478  32.262  40.569  1.00  0.00    -0.744 OA
ENDBRANCH  96  97
ENDBRANCH  70  91
ENDBRANCH  44  45
ENDBRANCH  36  39
ENDBRANCH  34  35
ENDBRANCH  33  34
ENDBRANCH  32  33
ENDBRANCH  31  32
ENDBRANCH  29  31
ENDBRANCH   1  27
TORSDOF 23
ENDMDL
MODEL 3
REMARK VINA RESULT:      -7.8      3.412      9.338
REMARK SMILES CCCCCCNC(=O)Oc1cccc(-c2ccc([C@@H](C)C(=O)NCCCCNC(=O)c3ccc(-c4c5nc(c(-c6ccc(S(=O)(=O)[O-])cc6)c6ccc([nH]6)c(-c6ccc(S(=O)(=O)[O-])cc6)c6nc(c(-c7ccc(S(=O)(=O)[O-])cc7)c7ccc4[nH]7)C=C6)C=C5)cc3)cc2F)c1
REMARK SMILES IDX 20 1 21 2 19 3 16 4 17 5 93 6 18 7 92 8 94 9 15 10 11 11
REMARK SMILES IDX 12 12 95 13 13 14 14 15 10 16 8 17 7 18 9 20 6 21 5 22 4 23
REMARK SMILES IDX 3 24 2 25 1 26 22 27 23 28 24 29 25 31 26 32 27 33 28 34
REMARK SMILES IDX 29 35 30 36 31 38 32 39 33 40 91 41 34 42 90 43 35 44 36 45
REMARK SMILES IDX 37 46 84 47 38 48 89 49 83 50 85 51 39 52 88 53 82 54 81 55
REMARK SMILES IDX 40 57 70 58 51 59 69 60 52 61 55 62 68 63 86 64 53 65 54 66
REMARK SMILES IDX 67 68 87 69 56 70 41 71 42 72 50 73 43 74 49 75 44 76 45 77
REMARK SMILES IDX 46 78 47 79 48 80 71 81 72 82 80 83 73 84 79 85 74 86 75 87
REMARK SMILES IDX 76 88 77 89 78 90 57 91 58 92 66 93 59 94 65 95 60 96 61 97
REMARK SMILES IDX 62 98 63 99 64 100
REMARK H PARENT 7 19 24 30 29 37 85 56 55 67
REMARK Flexibility Score: inf
ROOT
ATOM      1  C   UNL A   1      44.302  20.049  24.362  1.00  0.00     0.105 C 
ATOM      2  C   UNL A   1      45.251  19.516  23.290  1.00  0.00     0.023 C 
ENDROOT
BRANCH   1   3
ATOM      3  C   UNL A   1      44.634  21.425  24.920  1.00  0.00    -0.033 A 
ATOM      4  C   UNL A   1      45.031  24.010  26.091  1.00  0.00     0.018 A 
ATOM      5  C   UNL A   1      45.799  22.897  26.474  1.00  0.00     0.012 A 
ATOM      6  C   UNL A   1      44.100  23.797  25.063  1.00  0.00     0.131 A 
ATOM      7  C   UNL A   1      45.633  21.642  25.871  1.00  0.00     0.005 A 
ATOM      8  C   UNL A   1      43.884  22.533  24.506  1.00  0.00     0.044 A 
ATOM      9  F   UNL A   1      43.376  24.816  24.574  1.00  0.00    -0.206 F 
BRANCH   4  10
ATOM     10  C   UNL A   1      45.202  25.319  26.765  1.00  0.00    -0.012 A 
ATOM     11  C   UNL A   1      45.277  27.752  26.704  1.00  0.00     0.133 A 
ATOM     12  C   UNL A   1      45.497  27.818  28.076  1.00  0.00     0.047 A 
ATOM     13  C   UNL A   1      45.131  26.527  26.049  1.00  0.00     0.056 A 
ATOM     14  C   UNL A   1      45.559  26.637  28.806  1.00  0.00     0.004 A 
ATOM     15  C   UNL A   1      45.423  25.406  28.156  1.00  0.00     0.009 A 
BRANCH  11  16
ATOM     16  O   UNL A   1      45.352  28.960  25.994  1.00  0.00    -0.410 OA
BRANCH  16  17
ATOM     17  C   UNL A   1      46.468  29.766  26.161  1.00  0.00     0.412 C 
ATOM     18  N   UNL A   1      46.158  30.996  26.677  1.00  0.00    -0.321 N 
ATOM     19  H   UNL A   1      46.904  31.628  26.794  1.00  0.00     0.167 HD
ATOM     20  O   UNL A   1      47.622  29.468  25.887  1.00  0.00    -0.224 OA
BRANCH  18  21
ATOM     21  C   UNL A   1      44.843  31.462  27.068  1.00  0.00     0.119 C 
BRANCH  21  22
ATOM     22  C   UNL A   1      44.281  32.484  26.080  1.00  0.00     0.021 C 
BRANCH  22  23
ATOM     23  C   UNL A   1      45.184  33.699  25.834  1.00  0.00     0.002 C 
BRANCH  23  24
ATOM     24  C   UNL A   1      44.765  34.987  26.551  1.00  0.00    -0.000 C 
BRANCH  24  25
ATOM     25  C   UNL A   1      43.292  35.061  26.962  1.00  0.00    -0.003 C 
ATOM     26  C   UNL A   1      42.672  36.430  26.730  1.00  0.00     0.004 C 
ENDBRANCH  24  25
ENDBRANCH  23  24
ENDBRANCH  22  23
ENDBRANCH  21  22
ENDBRANCH  18  21
ENDBRANCH  16  17
ENDBRANCH  11  16
ENDBRANCH   4  10
ENDBRANCH   1   3
BRANCH   1  27
ATOM     27  C   UNL A   1      43.934  19.019  25.443  1.00  0.00     0.227 C 
ATOM     28  O   UNL A   1      44.721  18.101  25.705  1.00  0.00    -0.274 OA
ATOM     29  N   UNL A   1      42.780  19.054  26.162  1.00  0.00    -0.356 N 
ATOM     30  H   UNL A   1      42.720  18.366  26.864  1.00  0.00     0.163 HD
BRANCH  29  31
ATOM     31  C   UNL A   1      41.623  19.921  26.081  1.00  0.00     0.116 C 
BRANCH  31  32
ATOM     32  C   UNL A   1      41.339  20.628  27.408  1.00  0.00     0.023 C 
BRANCH  32  33
ATOM     33  C   UNL A   1      42.113  21.926  27.625  1.00  0.00     0.023 C 
BRANCH  33  34
ATOM     34  C   UNL A   1      41.251  23.157  27.878  1.00  0.00     0.116 C 
BRANCH  34  35
ATOM     35  N   UNL A   1      41.023  23.977  26.695  1.00  0.00    -0.352 N 
ATOM     36  C   UNL A   1      40.781  25.330  26.641  1.00  0.00     0.251 C 
ATOM     37  H   UNL A   1      41.045  23.506  25.831  1.00  0.00     0.163 HD
ATOM     38  O   UNL A   1      40.523  25.876  25.574  1.00  0.00    -0.269 OA
BRANCH  36  39
ATOM     39  C   UNL A   1      40.794  26.104  27.900  1.00  0.00     0.039 A 
ATOM     40  C   UNL A   1      41.910  26.886  28.205  1.00  0.00     0.014 A 
ATOM     41  C   UNL A   1      39.671  26.116  28.730  1.00  0.00     0.014 A 
ATOM     42  C   UNL A   1      41.868  27.739  29.311  1.00  0.00     0.010 A 
ATOM     43  C   UNL A   1      39.599  27.029  29.775  1.00  0.00     0.010 A 
ATOM     44  C   UNL A   1      40.698  27.846  30.081  1.00  0.00    -0.014 A 
BRANCH  44  45
ATOM     45  C   UNL A   1      40.604  28.793  31.221  1.00  0.00     0.031 A 
ATOM     46  C   UNL A   1      39.576  29.894  31.194  1.00  0.00     0.074 A 
ATOM     47  C   UNL A   1      41.480  28.709  32.241  1.00  0.00     0.049 A 
ATOM     48  N   UNL A   1      39.376  30.856  32.057  1.00  0.00    -0.248 NA
ATOM     49  C   UNL A   1      38.678  29.938  30.028  1.00  0.00     0.031 C 
ATOM     50  C   UNL A   1      42.556  27.721  32.358  1.00  0.00     0.029 A 
ATOM     51  N   UNL A   1      41.610  29.472  33.374  1.00  0.00    -0.354 N 
ATOM     52  C   UNL A   1      38.348  31.628  31.528  1.00  0.00     0.074 A 
ATOM     53  C   UNL A   1      38.006  31.058  30.244  1.00  0.00     0.031 C 
ATOM     54  C   UNL A   1      43.212  27.919  33.513  1.00  0.00     0.029 A 
ATOM     55  C   UNL A   1      42.633  29.068  34.199  1.00  0.00     0.049 A 
ATOM     56  H   UNL A   1      41.026  30.238  33.577  1.00  0.00     0.167 HD
ATOM     57  C   UNL A   1      37.725  32.700  32.073  1.00  0.00     0.031 A 
ATOM     58  C   UNL A   1      43.058  29.568  35.376  1.00  0.00     0.031 A 
ATOM     59  C   UNL A   1      38.052  33.250  33.360  1.00  0.00     0.049 A 
ATOM     60  C   UNL A   1      42.342  30.752  35.969  1.00  0.00     0.074 A 
ATOM     61  C   UNL A   1      37.443  34.297  34.028  1.00  0.00     0.029 A 
ATOM     62  N   UNL A   1      39.077  32.795  34.176  1.00  0.00    -0.354 N 
ATOM     63  N   UNL A   1      41.327  31.428  35.484  1.00  0.00    -0.248 NA
ATOM     64  C   UNL A   1      42.817  31.230  37.274  1.00  0.00     0.031 C 
ATOM     65  C   UNL A   1      38.129  34.505  35.229  1.00  0.00     0.029 A 
ATOM     66  C   UNL A   1      39.128  33.550  35.335  1.00  0.00     0.049 A 
ATOM     67  H   UNL A   1      39.679  32.046  33.962  1.00  0.00     0.167 HD
ATOM     68  C   UNL A   1      41.022  32.390  36.441  1.00  0.00     0.074 A 
ATOM     69  C   UNL A   1      41.951  32.199  37.536  1.00  0.00     0.031 C 
ATOM     70  C   UNL A   1      40.057  33.343  36.417  1.00  0.00     0.031 A 
BRANCH  57  71
ATOM     71  C   UNL A   1      36.624  33.344  31.271  1.00  0.00    -0.014 A 
ATOM     72  C   UNL A   1      36.839  33.758  29.943  1.00  0.00     0.010 A 
ATOM     73  C   UNL A   1      35.349  33.513  31.841  1.00  0.00     0.010 A 
ATOM     74  C   UNL A   1      35.814  34.371  29.218  1.00  0.00     0.020 A 
ATOM     75  C   UNL A   1      34.313  34.099  31.108  1.00  0.00     0.020 A 
ATOM     76  C   UNL A   1      34.558  34.541  29.807  1.00  0.00     0.054 A 
BRANCH  76  77
ATOM     77  S   UNL A   1      33.242  35.325  28.835  1.00  0.00     0.124 S 
ATOM     78  O   UNL A   1      32.750  34.204  28.038  1.00  0.00    -0.237 OA
ATOM     79  O   UNL A   1      32.329  35.811  29.866  1.00  0.00    -0.237 OA
ATOM     80  O   UNL A   1      33.939  36.365  28.083  1.00  0.00    -0.744 OA
ENDBRANCH  76  77
ENDBRANCH  57  71
BRANCH  58  81
ATOM     81  C   UNL A   1      44.202  28.932  36.088  1.00  0.00    -0.014 A 
ATOM     82  C   UNL A   1      44.033  27.706  36.756  1.00  0.00     0.010 A 
ATOM     83  C   UNL A   1      45.468  29.544  36.094  1.00  0.00     0.010 A 
ATOM     84  C   UNL A   1      45.103  27.114  37.433  1.00  0.00     0.020 A 
ATOM     85  C   UNL A   1      46.549  28.941  36.747  1.00  0.00     0.020 A 
ATOM     86  C   UNL A   1      46.355  27.736  37.423  1.00  0.00     0.054 A 
BRANCH  86  87
ATOM     87  S   UNL A   1      47.740  26.925  38.271  1.00  0.00     0.124 S 
ATOM     88  O   UNL A   1      47.079  25.802  38.928  1.00  0.00    -0.237 OA
ATOM     89  O   UNL A   1      48.628  26.578  37.164  1.00  0.00    -0.237 OA
ATOM     90  O   UNL A   1      48.248  27.963  39.165  1.00  0.00    -0.744 OA
ENDBRANCH  86  87
ENDBRANCH  58  81
BRANCH  70  91
ATOM     91  C   UNL A   1      39.924  34.226  37.630  1.00  0.00    -0.014 A 
ATOM     92  C   UNL A   1      38.975  33.957  38.631  1.00  0.00     0.010 A 
ATOM     93  C   UNL A   1      40.805  35.311  37.792  1.00  0.00     0.010 A 
ATOM     94  C   UNL A   1      38.886  34.780  39.757  1.00  0.00     0.020 A 
ATOM     95  C   UNL A   1      40.739  36.117  38.930  1.00  0.00     0.020 A 
ATOM     96  C   UNL A   1      39.768  35.855  39.898  1.00  0.00     0.054 A 
BRANCH  96  97
ATOM     97  S   UNL A   1      39.658  36.884  41.388  1.00  0.00     0.124 S 
ATOM     98  O   UNL A   1      38.905  36.026  42.296  1.00  0.00    -0.237 OA
ATOM     99  O   UNL A   1      41.061  37.093  41.737  1.00  0.00    -0.237 OA
ATOM    100  O   UNL A   1      38.952  38.081  40.931  1.00  0.00    -0.744 OA
ENDBRANCH  96  97
ENDBRANCH  70  91
ENDBRANCH  44  45
ENDBRANCH  36  39
ENDBRANCH  34  35
ENDBRANCH  33  34
ENDBRANCH  32  33
ENDBRANCH  31  32
ENDBRANCH  29  31
ENDBRANCH   1  27
TORSDOF 23
ENDMDL
