MODEL 1
REMARK VINA RESULT:     -10.5      0.000      0.000
REMARK SMILES C#CC[C@@H](C(=O)NCCCNC(=O)c1ccc(-c2c3nc(c(-c4ccc(S(=O)(=O)[O-])cc4)c4ccc([nH]4)c(-c4ccc(S(=O)(=O)[O-])cc4)c4nc(c(-c5ccc(S(=O)(=O)[O-])cc5)c5ccc2[nH]5)C=C4)C=C3)cc1)c1cccc(Br)c1
REMARK SMILES IDX 9 1 8 2 7 3 5 4 6 5 4 7 3 8 2 9 1 10 74 11 75 12 80 13 76 14
REMARK SMILES IDX 78 15 77 16 79 17 10 18 11 19 12 20 13 22 14 23 15 24 73 25
REMARK SMILES IDX 16 26 72 27 17 28 18 29 19 30 66 31 20 32 71 33 65 34 67 35
REMARK SMILES IDX 21 36 70 37 64 38 63 39 22 41 52 42 33 43 51 44 34 45 37 46
REMARK SMILES IDX 50 47 68 48 35 49 36 50 49 52 69 53 38 54 23 55 24 56 32 57
REMARK SMILES IDX 25 58 31 59 26 60 27 61 28 62 29 63 30 64 53 65 54 66 62 67
REMARK SMILES IDX 55 68 61 69 56 70 57 71 58 72 59 73 60 74 39 75 40 76 48 77
REMARK SMILES IDX 41 78 47 79 42 80 43 81 44 82 45 83 46 84
REMARK H PARENT 7 6 11 21 67 40 37 51
REMARK Flexibility Score: inf
ROOT
ATOM      1  C   UNL A   1      39.258  22.527  26.419  1.00  0.00     0.042 C 
ENDROOT
BRANCH   1   2
ATOM      2  C   UNL A   1      38.056  21.849  25.742  1.00  0.00     0.117 C 
BRANCH   2   3
ATOM      3  N   UNL A   1      37.746  22.506  24.480  1.00  0.00    -0.355 N 
ATOM      4  C   UNL A   1      36.553  22.735  23.849  1.00  0.00     0.228 C 
ATOM      5  O   UNL A   1      36.619  22.971  22.638  1.00  0.00    -0.274 OA
ATOM      6  H   UNL A   1      38.533  22.843  23.994  1.00  0.00     0.163 HD
BRANCH   4   7
ATOM      7  C   UNL A   1      35.204  22.793  24.612  1.00  0.00     0.120 C 
BRANCH   7   8
ATOM      8  C   UNL A   1      34.272  21.632  24.195  1.00  0.00     0.107 C 
BRANCH   8   9
ATOM      9  C   UNL A   1      32.930  21.716  24.904  1.00  0.00    -0.106 C 
ATOM     10  C   UNL A   1      31.779  21.788  25.512  1.00  0.00     0.004 C 
ENDBRANCH   8   9
ENDBRANCH   7   8
BRANCH   7  11
ATOM     11  C   UNL A   1      34.558  24.176  24.374  1.00  0.00    -0.034 A 
ATOM     12  C   UNL A   1      34.453  25.159  25.376  1.00  0.00     0.004 A 
ATOM     13  C   UNL A   1      33.965  24.445  23.127  1.00  0.00     0.020 A 
ATOM     14  C   UNL A   1      33.763  26.353  25.151  1.00  0.00     0.001 A 
ATOM     15  C   UNL A   1      33.261  25.635  22.914  1.00  0.00     0.018 A 
ATOM     16  C   UNL A   1      33.156  26.588  23.922  1.00  0.00     0.016 A 
ATOM     17  Br  UNL A   1      32.409  25.939  21.253  1.00  0.00    -0.051 Br
ENDBRANCH   7  11
ENDBRANCH   4   7
ENDBRANCH   2   3
ENDBRANCH   1   2
BRANCH   1  18
ATOM     18  C   UNL A   1      39.056  23.978  26.832  1.00  0.00     0.118 C 
BRANCH  18  19
ATOM     19  N   UNL A   1      40.066  24.833  26.228  1.00  0.00    -0.352 N 
ATOM     20  C   UNL A   1      40.424  26.150  26.394  1.00  0.00     0.251 C 
ATOM     21  H   UNL A   1      40.612  24.367  25.555  1.00  0.00     0.163 HD
ATOM     22  O   UNL A   1      41.092  26.643  25.481  1.00  0.00    -0.269 OA
BRANCH  20  23
ATOM     23  C   UNL A   1      40.093  27.004  27.578  1.00  0.00     0.039 A 
ATOM     24  C   UNL A   1      40.575  28.327  27.567  1.00  0.00     0.014 A 
ATOM     25  C   UNL A   1      39.491  26.547  28.748  1.00  0.00     0.014 A 
ATOM     26  C   UNL A   1      40.510  29.140  28.710  1.00  0.00     0.010 A 
ATOM     27  C   UNL A   1      39.344  27.389  29.864  1.00  0.00     0.010 A 
ATOM     28  C   UNL A   1      39.910  28.672  29.884  1.00  0.00    -0.014 A 
BRANCH  28  29
ATOM     29  C   UNL A   1      39.987  29.441  31.163  1.00  0.00     0.031 A 
ATOM     30  C   UNL A   1      41.114  29.168  32.139  1.00  0.00     0.074 A 
ATOM     31  C   UNL A   1      39.061  30.369  31.478  1.00  0.00     0.049 A 
ATOM     32  N   UNL A   1      41.320  29.667  33.334  1.00  0.00    -0.248 NA
ATOM     33  C   UNL A   1      42.125  28.182  31.725  1.00  0.00     0.031 C 
ATOM     34  C   UNL A   1      37.907  30.731  30.655  1.00  0.00     0.029 A 
ATOM     35  N   UNL A   1      38.945  31.177  32.586  1.00  0.00    -0.354 N 
ATOM     36  C   UNL A   1      42.455  29.027  33.824  1.00  0.00     0.074 A 
ATOM     37  C   UNL A   1      42.864  28.070  32.819  1.00  0.00     0.031 C 
ATOM     38  C   UNL A   1      37.211  31.698  31.276  1.00  0.00     0.029 A 
ATOM     39  C   UNL A   1      37.849  32.006  32.554  1.00  0.00     0.049 A 
ATOM     40  H   UNL A   1      39.588  31.162  33.332  1.00  0.00     0.167 HD
ATOM     41  C   UNL A   1      43.119  29.223  34.991  1.00  0.00     0.031 A 
ATOM     42  C   UNL A   1      37.403  32.911  33.448  1.00  0.00     0.031 A 
ATOM     43  C   UNL A   1      42.750  30.202  35.979  1.00  0.00     0.049 A 
ATOM     44  C   UNL A   1      38.178  33.152  34.716  1.00  0.00     0.074 A 
ATOM     45  C   UNL A   1      43.380  30.503  37.174  1.00  0.00     0.029 A 
ATOM     46  N   UNL A   1      41.659  31.052  35.877  1.00  0.00    -0.354 N 
ATOM     47  N   UNL A   1      39.258  32.548  35.148  1.00  0.00    -0.248 NA
ATOM     48  C   UNL A   1      37.684  34.214  35.605  1.00  0.00     0.031 C 
ATOM     49  C   UNL A   1      42.657  31.521  37.808  1.00  0.00     0.029 A 
ATOM     50  C   UNL A   1      41.602  31.882  36.985  1.00  0.00     0.049 A 
ATOM     51  H   UNL A   1      41.020  31.065  35.129  1.00  0.00     0.167 HD
ATOM     52  C   UNL A   1      39.589  33.175  36.346  1.00  0.00     0.074 A 
ATOM     53  C   UNL A   1      38.601  34.212  36.562  1.00  0.00     0.031 C 
ATOM     54  C   UNL A   1      40.619  32.914  37.188  1.00  0.00     0.031 A 
BRANCH  41  55
ATOM     55  C   UNL A   1      44.323  28.355  35.255  1.00  0.00    -0.014 A 
ATOM     56  C   UNL A   1      45.614  28.765  34.873  1.00  0.00     0.010 A 
ATOM     57  C   UNL A   1      44.165  27.113  35.897  1.00  0.00     0.010 A 
ATOM     58  C   UNL A   1      46.712  27.924  35.069  1.00  0.00     0.020 A 
ATOM     59  C   UNL A   1      45.267  26.281  36.123  1.00  0.00     0.020 A 
ATOM     60  C   UNL A   1      46.531  26.683  35.683  1.00  0.00     0.054 A 
BRANCH  60  61
ATOM     61  S   UNL A   1      47.969  25.602  35.917  1.00  0.00     0.124 S 
ATOM     62  O   UNL A   1      49.077  26.515  35.636  1.00  0.00    -0.237 OA
ATOM     63  O   UNL A   1      47.839  25.190  37.314  1.00  0.00    -0.237 OA
ATOM     64  O   UNL A   1      47.770  24.542  34.938  1.00  0.00    -0.744 OA
ENDBRANCH  60  61
ENDBRANCH  41  55
BRANCH  42  65
ATOM     65  C   UNL A   1      36.164  33.684  33.156  1.00  0.00    -0.014 A 
ATOM     66  C   UNL A   1      36.225  34.875  32.410  1.00  0.00     0.010 A 
ATOM     67  C   UNL A   1      34.914  33.215  33.596  1.00  0.00     0.010 A 
ATOM     68  C   UNL A   1      35.058  35.586  32.115  1.00  0.00     0.020 A 
ATOM     69  C   UNL A   1      33.742  33.911  33.283  1.00  0.00     0.020 A 
ATOM     70  C   UNL A   1      33.823  35.097  32.549  1.00  0.00     0.054 A 
BRANCH  70  71
ATOM     71  S   UNL A   1      32.313  35.993  32.089  1.00  0.00     0.124 S 
ATOM     72  O   UNL A   1      32.487  36.163  30.651  1.00  0.00    -0.237 OA
ATOM     73  O   UNL A   1      31.258  35.065  32.493  1.00  0.00    -0.237 OA
ATOM     74  O   UNL A   1      32.389  37.218  32.881  1.00  0.00    -0.744 OA
ENDBRANCH  70  71
ENDBRANCH  42  65
BRANCH  54  75
ATOM     75  C   UNL A   1      40.761  33.793  38.403  1.00  0.00    -0.014 A 
ATOM     76  C   UNL A   1      41.500  34.989  38.359  1.00  0.00     0.010 A 
ATOM     77  C   UNL A   1      40.112  33.432  39.597  1.00  0.00     0.010 A 
ATOM     78  C   UNL A   1      41.619  35.788  39.500  1.00  0.00     0.020 A 
ATOM     79  C   UNL A   1      40.209  34.241  40.733  1.00  0.00     0.020 A 
ATOM     80  C   UNL A   1      40.977  35.405  40.682  1.00  0.00     0.054 A 
BRANCH  80  81
ATOM     81  S   UNL A   1      41.124  36.468  42.144  1.00  0.00     0.124 S 
ATOM     82  O   UNL A   1      42.559  36.736  42.181  1.00  0.00    -0.237 OA
ATOM     83  O   UNL A   1      40.280  37.610  41.801  1.00  0.00    -0.237 OA
ATOM     84  O   UNL A   1      40.618  35.633  43.231  1.00  0.00    -0.744 OA
ENDBRANCH  80  81
ENDBRANCH  54  75
ENDBRANCH  28  29
ENDBRANCH  20  23
ENDBRANCH  18  19
ENDBRANCH   1  18
TORSDOF 16
ENDMDL
MODEL 2
REMARK VINA RESULT:     -10.4      5.075     10.720
REMARK SMILES C#CC[C@@H](C(=O)NCCCNC(=O)c1ccc(-c2c3nc(c(-c4ccc(S(=O)(=O)[O-])cc4)c4ccc([nH]4)c(-c4ccc(S(=O)(=O)[O-])cc4)c4nc(c(-c5ccc(S(=O)(=O)[O-])cc5)c5ccc2[nH]5)C=C4)C=C3)cc1)c1cccc(Br)c1
REMARK SMILES IDX 9 1 8 2 7 3 5 4 6 5 4 7 3 8 2 9 1 10 74 11 75 12 80 13 76 14
REMARK SMILES IDX 78 15 77 16 79 17 10 18 11 19 12 20 13 22 14 23 15 24 73 25
REMARK SMILES IDX 16 26 72 27 17 28 18 29 19 30 66 31 20 32 71 33 65 34 67 35
REMARK SMILES IDX 21 36 70 37 64 38 63 39 22 41 52 42 33 43 51 44 34 45 37 46
REMARK SMILES IDX 50 47 68 48 35 49 36 50 49 52 69 53 38 54 23 55 24 56 32 57
REMARK SMILES IDX 25 58 31 59 26 60 27 61 28 62 29 63 30 64 53 65 54 66 62 67
REMARK SMILES IDX 55 68 61 69 56 70 57 71 58 72 59 73 60 74 39 75 40 76 48 77
REMARK SMILES IDX 41 78 47 79 42 80 43 81 44 82 45 83 46 84
REMARK H PARENT 7 6 11 21 67 40 37 51
REMARK Flexibility Score: inf
ROOT
ATOM      1  C   UNL A   1      33.206  28.608  26.060  1.00  0.00     0.042 C 
ENDROOT
BRANCH   1   2
ATOM      2  C   UNL A   1      33.707  27.156  26.002  1.00  0.00     0.117 C 
BRANCH   2   3
ATOM      3  N   UNL A   1      33.830  26.715  24.619  1.00  0.00    -0.355 N 
ATOM      4  C   UNL A   1      32.996  25.971  23.830  1.00  0.00     0.228 C 
ATOM      5  O   UNL A   1      33.516  25.442  22.841  1.00  0.00    -0.274 OA
ATOM      6  H   UNL A   1      34.660  27.003  24.173  1.00  0.00     0.163 HD
BRANCH   4   7
ATOM      7  C   UNL A   1      31.470  25.866  24.094  1.00  0.00     0.120 C 
BRANCH   7   8
ATOM      8  C   UNL A   1      30.906  24.516  23.596  1.00  0.00     0.107 C 
BRANCH   8   9
ATOM      9  C   UNL A   1      31.161  23.404  24.600  1.00  0.00    -0.106 C 
ATOM     10  C   UNL A   1      31.380  22.450  25.462  1.00  0.00     0.004 C 
ENDBRANCH   8   9
ENDBRANCH   7   8
BRANCH   7  11
ATOM     11  C   UNL A   1      30.768  27.073  23.435  1.00  0.00    -0.034 A 
ATOM     12  C   UNL A   1      31.464  28.101  22.772  1.00  0.00     0.004 A 
ATOM     13  C   UNL A   1      29.374  27.208  23.575  1.00  0.00     0.020 A 
ATOM     14  C   UNL A   1      30.799  29.230  22.286  1.00  0.00     0.001 A 
ATOM     15  C   UNL A   1      28.718  28.350  23.103  1.00  0.00     0.018 A 
ATOM     16  C   UNL A   1      29.426  29.362  22.461  1.00  0.00     0.016 A 
ATOM     17  Br  UNL A   1      26.855  28.541  23.369  1.00  0.00    -0.051 Br
ENDBRANCH   7  11
ENDBRANCH   4   7
ENDBRANCH   2   3
ENDBRANCH   1   2
BRANCH   1  18
ATOM     18  C   UNL A   1      32.709  29.085  27.417  1.00  0.00     0.118 C 
BRANCH  18  19
ATOM     19  N   UNL A   1      33.197  30.424  27.705  1.00  0.00    -0.352 N 
ATOM     20  C   UNL A   1      34.366  30.922  28.230  1.00  0.00     0.251 C 
ATOM     21  H   UNL A   1      32.549  31.128  27.474  1.00  0.00     0.163 HD
ATOM     22  O   UNL A   1      34.314  32.080  28.655  1.00  0.00    -0.269 OA
BRANCH  20  23
ATOM     23  C   UNL A   1      35.672  30.194  28.304  1.00  0.00     0.039 A 
ATOM     24  C   UNL A   1      36.035  29.655  29.554  1.00  0.00     0.014 A 
ATOM     25  C   UNL A   1      36.619  30.150  27.283  1.00  0.00     0.014 A 
ATOM     26  C   UNL A   1      37.322  29.147  29.787  1.00  0.00     0.010 A 
ATOM     27  C   UNL A   1      37.878  29.560  27.489  1.00  0.00     0.010 A 
ATOM     28  C   UNL A   1      38.271  29.112  28.759  1.00  0.00    -0.014 A 
BRANCH  28  29
ATOM     29  C   UNL A   1      39.697  28.748  29.021  1.00  0.00     0.031 A 
ATOM     30  C   UNL A   1      40.623  29.756  29.670  1.00  0.00     0.074 A 
ATOM     31  C   UNL A   1      40.184  27.539  28.677  1.00  0.00     0.049 A 
ATOM     32  N   UNL A   1      41.909  29.670  29.913  1.00  0.00    -0.248 NA
ATOM     33  C   UNL A   1      40.029  31.041  30.071  1.00  0.00     0.031 C 
ATOM     34  C   UNL A   1      39.426  26.470  28.028  1.00  0.00     0.029 A 
ATOM     35  N   UNL A   1      41.445  27.009  28.825  1.00  0.00    -0.354 N 
ATOM     36  C   UNL A   1      42.279  30.898  30.455  1.00  0.00     0.074 A 
ATOM     37  C   UNL A   1      41.094  31.727  30.459  1.00  0.00     0.031 C 
ATOM     38  C   UNL A   1      40.229  25.408  27.849  1.00  0.00     0.029 A 
ATOM     39  C   UNL A   1      41.567  25.727  28.342  1.00  0.00     0.049 A 
ATOM     40  H   UNL A   1      42.191  27.501  29.239  1.00  0.00     0.167 HD
ATOM     41  C   UNL A   1      43.483  31.302  30.930  1.00  0.00     0.031 A 
ATOM     42  C   UNL A   1      42.630  24.899  28.298  1.00  0.00     0.031 A 
ATOM     43  C   UNL A   1      44.658  30.473  30.973  1.00  0.00     0.049 A 
ATOM     44  C   UNL A   1      43.948  25.346  28.872  1.00  0.00     0.074 A 
ATOM     45  C   UNL A   1      45.914  30.778  31.469  1.00  0.00     0.029 A 
ATOM     46  N   UNL A   1      44.717  29.165  30.516  1.00  0.00    -0.354 N 
ATOM     47  N   UNL A   1      44.268  26.504  29.396  1.00  0.00    -0.248 NA
ATOM     48  C   UNL A   1      45.041  24.363  28.870  1.00  0.00     0.031 C 
ATOM     49  C   UNL A   1      46.740  29.663  31.292  1.00  0.00     0.029 A 
ATOM     50  C   UNL A   1      45.986  28.648  30.725  1.00  0.00     0.049 A 
ATOM     51  H   UNL A   1      43.969  28.676  30.106  1.00  0.00     0.167 HD
ATOM     52  C   UNL A   1      45.591  26.381  29.810  1.00  0.00     0.074 A 
ATOM     53  C   UNL A   1      46.006  25.031  29.487  1.00  0.00     0.031 C 
ATOM     54  C   UNL A   1      46.387  27.303  30.406  1.00  0.00     0.031 A 
BRANCH  41  55
ATOM     55  C   UNL A   1      43.583  32.716  31.446  1.00  0.00    -0.014 A 
ATOM     56  C   UNL A   1      43.649  33.809  30.563  1.00  0.00     0.010 A 
ATOM     57  C   UNL A   1      43.608  32.956  32.832  1.00  0.00     0.010 A 
ATOM     58  C   UNL A   1      43.803  35.109  31.053  1.00  0.00     0.020 A 
ATOM     59  C   UNL A   1      43.731  34.259  33.328  1.00  0.00     0.020 A 
ATOM     60  C   UNL A   1      43.853  35.325  32.433  1.00  0.00     0.054 A 
BRANCH  60  61
ATOM     61  S   UNL A   1      44.065  37.018  33.047  1.00  0.00     0.124 S 
ATOM     62  O   UNL A   1      42.778  37.262  33.699  1.00  0.00    -0.237 OA
ATOM     63  O   UNL A   1      45.208  36.892  33.952  1.00  0.00    -0.237 OA
ATOM     64  O   UNL A   1      44.312  37.798  31.842  1.00  0.00    -0.744 OA
ENDBRANCH  60  61
ENDBRANCH  41  55
BRANCH  42  65
ATOM     65  C   UNL A   1      42.480  23.541  27.707  1.00  0.00    -0.014 A 
ATOM     66  C   UNL A   1      42.773  23.317  26.350  1.00  0.00     0.010 A 
ATOM     67  C   UNL A   1      42.071  22.459  28.507  1.00  0.00     0.010 A 
ATOM     68  C   UNL A   1      42.655  22.035  25.802  1.00  0.00     0.020 A 
ATOM     69  C   UNL A   1      41.976  21.172  27.969  1.00  0.00     0.020 A 
ATOM     70  C   UNL A   1      42.262  20.970  26.617  1.00  0.00     0.054 A 
BRANCH  70  71
ATOM     71  S   UNL A   1      42.191  19.301  25.906  1.00  0.00     0.124 S 
ATOM     72  O   UNL A   1      40.767  19.147  25.632  1.00  0.00    -0.237 OA
ATOM     73  O   UNL A   1      43.052  19.421  24.731  1.00  0.00    -0.237 OA
ATOM     74  O   UNL A   1      42.722  18.454  26.971  1.00  0.00    -0.744 OA
ENDBRANCH  70  71
ENDBRANCH  42  65
BRANCH  54  75
ATOM     75  C   UNL A   1      47.778  26.872  30.790  1.00  0.00    -0.014 A 
ATOM     76  C   UNL A   1      48.870  27.067  29.927  1.00  0.00     0.010 A 
ATOM     77  C   UNL A   1      47.998  26.297  32.055  1.00  0.00     0.010 A 
ATOM     78  C   UNL A   1      50.152  26.658  30.306  1.00  0.00     0.020 A 
ATOM     79  C   UNL A   1      49.282  25.909  32.447  1.00  0.00     0.020 A 
ATOM     80  C   UNL A   1      50.349  26.076  31.563  1.00  0.00     0.054 A 
BRANCH  80  81
ATOM     81  S   UNL A   1      52.024  25.574  32.044  1.00  0.00     0.124 S 
ATOM     82  O   UNL A   1      52.796  25.910  30.851  1.00  0.00    -0.237 OA
ATOM     83  O   UNL A   1      52.286  26.405  33.217  1.00  0.00    -0.237 OA
ATOM     84  O   UNL A   1      51.891  24.145  32.318  1.00  0.00    -0.744 OA
ENDBRANCH  80  81
ENDBRANCH  54  75
ENDBRANCH  28  29
ENDBRANCH  20  23
ENDBRANCH  18  19
ENDBRANCH   1  18
TORSDOF 16
ENDMDL
MODEL 3
REMARK VINA RESULT:     -10.3      5.109     10.758
REMARK SMILES C#CC[C@@H](C(=O)NCCCNC(=O)c1ccc(-c2c3nc(c(-c4ccc(S(=O)(=O)[O-])cc4)c4ccc([nH]4)c(-c4ccc(S(=O)(=O)[O-])cc4)c4nc(c(-c5ccc(S(=O)(=O)[O-])cc5)c5ccc2[nH]5)C=C4)C=C3)cc1)c1cccc(Br)c1
REMARK SMILES IDX 9 1 8 2 7 3 5 4 6 5 4 7 3 8 2 9 1 10 74 11 75 12 80 13 76 14
REMARK SMILES IDX 78 15 77 16 79 17 10 18 11 19 12 20 13 22 14 23 15 24 73 25
REMARK SMILES IDX 16 26 72 27 17 28 18 29 19 30 66 31 20 32 71 33 65 34 67 35
REMARK SMILES IDX 21 36 70 37 64 38 63 39 22 41 52 42 33 43 51 44 34 45 37 46
REMARK SMILES IDX 50 47 68 48 35 49 36 50 49 52 69 53 38 54 23 55 24 56 32 57
REMARK SMILES IDX 25 58 31 59 26 60 27 61 28 62 29 63 30 64 53 65 54 66 62 67
REMARK SMILES IDX 55 68 61 69 56 70 57 71 58 72 59 73 60 74 39 75 40 76 48 77
REMARK SMILES IDX 41 78 47 79 42 80 43 81 44 82 45 83 46 84
REMARK H PARENT 7 6 11 21 67 40 37 51
REMARK Flexibility Score: inf
ROOT
ATOM      1  C   UNL A   1      33.023  29.077  25.670  1.00  0.00     0.042 C 
ENDROOT
BRANCH   1   2
ATOM      2  C   UNL A   1      33.831  27.879  25.146  1.00  0.00     0.117 C 
BRANCH   2   3
ATOM      3  N   UNL A   1      33.566  26.694  25.951  1.00  0.00    -0.355 N 
ATOM      4  C   UNL A   1      33.317  25.397  25.596  1.00  0.00     0.228 C 
ATOM      5  O   UNL A   1      32.764  24.698  26.453  1.00  0.00    -0.274 OA
ATOM      6  H   UNL A   1      33.565  26.856  26.923  1.00  0.00     0.163 HD
BRANCH   4   7
ATOM      7  C   UNL A   1      33.778  24.799  24.240  1.00  0.00     0.120 C 
BRANCH   7   8
ATOM      8  C   UNL A   1      32.572  24.475  23.330  1.00  0.00     0.107 C 
BRANCH   8   9
ATOM      9  C   UNL A   1      31.984  25.736  22.718  1.00  0.00    -0.106 C 
ATOM     10  C   UNL A   1      31.479  26.818  22.193  1.00  0.00     0.004 C 
ENDBRANCH   8   9
ENDBRANCH   7   8
BRANCH   7  11
ATOM     11  C   UNL A   1      34.653  23.557  24.517  1.00  0.00    -0.034 A 
ATOM     12  C   UNL A   1      36.055  23.614  24.634  1.00  0.00     0.004 A 
ATOM     13  C   UNL A   1      34.041  22.291  24.570  1.00  0.00     0.020 A 
ATOM     14  C   UNL A   1      36.819  22.452  24.775  1.00  0.00     0.001 A 
ATOM     15  C   UNL A   1      34.813  21.131  24.692  1.00  0.00     0.018 A 
ATOM     16  C   UNL A   1      36.199  21.207  24.793  1.00  0.00     0.016 A 
ATOM     17  Br  UNL A   1      33.972  19.437  24.685  1.00  0.00    -0.051 Br
ENDBRANCH   7  11
ENDBRANCH   4   7
ENDBRANCH   2   3
ENDBRANCH   1   2
BRANCH   1  18
ATOM     18  C   UNL A   1      32.879  29.168  27.183  1.00  0.00     0.118 C 
BRANCH  18  19
ATOM     19  N   UNL A   1      33.306  30.472  27.665  1.00  0.00    -0.352 N 
ATOM     20  C   UNL A   1      34.432  30.930  28.309  1.00  0.00     0.251 C 
ATOM     21  H   UNL A   1      32.646  31.182  27.493  1.00  0.00     0.163 HD
ATOM     22  O   UNL A   1      34.320  32.021  28.875  1.00  0.00    -0.269 OA
BRANCH  20  23
ATOM     23  C   UNL A   1      35.756  30.235  28.355  1.00  0.00     0.039 A 
ATOM     24  C   UNL A   1      36.145  29.679  29.590  1.00  0.00     0.014 A 
ATOM     25  C   UNL A   1      36.695  30.237  27.325  1.00  0.00     0.014 A 
ATOM     26  C   UNL A   1      37.448  29.200  29.800  1.00  0.00     0.010 A 
ATOM     27  C   UNL A   1      37.971  29.676  27.507  1.00  0.00     0.010 A 
ATOM     28  C   UNL A   1      38.388  29.212  28.763  1.00  0.00    -0.014 A 
BRANCH  28  29
ATOM     29  C   UNL A   1      39.824  28.880  29.005  1.00  0.00     0.031 A 
ATOM     30  C   UNL A   1      40.745  29.919  29.611  1.00  0.00     0.074 A 
ATOM     31  C   UNL A   1      40.327  27.672  28.680  1.00  0.00     0.049 A 
ATOM     32  N   UNL A   1      42.037  29.862  29.830  1.00  0.00    -0.248 NA
ATOM     33  C   UNL A   1      40.135  31.203  29.994  1.00  0.00     0.031 C 
ATOM     34  C   UNL A   1      39.576  26.575  28.071  1.00  0.00     0.029 A 
ATOM     35  N   UNL A   1      41.600  27.168  28.814  1.00  0.00    -0.354 N 
ATOM     36  C   UNL A   1      42.395  31.109  30.336  1.00  0.00     0.074 A 
ATOM     37  C   UNL A   1      41.195  31.917  30.344  1.00  0.00     0.031 C 
ATOM     38  C   UNL A   1      40.395  25.523  27.901  1.00  0.00     0.029 A 
ATOM     39  C   UNL A   1      41.736  25.878  28.359  1.00  0.00     0.049 A 
ATOM     40  H   UNL A   1      42.345  27.684  29.201  1.00  0.00     0.167 HD
ATOM     41  C   UNL A   1      43.601  31.546  30.776  1.00  0.00     0.031 A 
ATOM     42  C   UNL A   1      42.813  25.068  28.312  1.00  0.00     0.031 A 
ATOM     43  C   UNL A   1      44.791  30.740  30.814  1.00  0.00     0.049 A 
ATOM     44  C   UNL A   1      44.134  25.552  28.849  1.00  0.00     0.074 A 
ATOM     45  C   UNL A   1      46.050  31.079  31.278  1.00  0.00     0.029 A 
ATOM     46  N   UNL A   1      44.865  29.422  30.388  1.00  0.00    -0.354 N 
ATOM     47  N   UNL A   1      44.442  26.728  29.339  1.00  0.00    -0.248 NA
ATOM     48  C   UNL A   1      45.245  24.589  28.848  1.00  0.00     0.031 C 
ATOM     49  C   UNL A   1      46.894  29.974  31.110  1.00  0.00     0.029 A 
ATOM     50  C   UNL A   1      46.147  28.934  30.583  1.00  0.00     0.049 A 
ATOM     51  H   UNL A   1      44.118  28.910  30.004  1.00  0.00     0.167 HD
ATOM     52  C   UNL A   1      45.775  26.639  29.729  1.00  0.00     0.074 A 
ATOM     53  C   UNL A   1      46.209  25.289  29.429  1.00  0.00     0.031 C 
ATOM     54  C   UNL A   1      46.566  27.588  30.287  1.00  0.00     0.031 A 
BRANCH  41  55
ATOM     55  C   UNL A   1      43.684  32.973  31.257  1.00  0.00    -0.014 A 
ATOM     56  C   UNL A   1      44.075  34.011  30.390  1.00  0.00     0.010 A 
ATOM     57  C   UNL A   1      43.366  33.283  32.591  1.00  0.00     0.010 A 
ATOM     58  C   UNL A   1      44.208  35.318  30.864  1.00  0.00     0.020 A 
ATOM     59  C   UNL A   1      43.468  34.597  33.062  1.00  0.00     0.020 A 
ATOM     60  C   UNL A   1      43.913  35.602  32.200  1.00  0.00     0.054 A 
BRANCH  60  61
ATOM     61  S   UNL A   1      44.104  37.305  32.797  1.00  0.00     0.124 S 
ATOM     62  O   UNL A   1      45.424  37.254  33.424  1.00  0.00    -0.237 OA
ATOM     63  O   UNL A   1      44.028  38.089  31.565  1.00  0.00    -0.237 OA
ATOM     64  O   UNL A   1      42.984  37.480  33.712  1.00  0.00    -0.744 OA
ENDBRANCH  60  61
ENDBRANCH  41  55
BRANCH  42  65
ATOM     65  C   UNL A   1      42.676  23.694  27.756  1.00  0.00    -0.014 A 
ATOM     66  C   UNL A   1      42.436  22.600  28.608  1.00  0.00     0.010 A 
ATOM     67  C   UNL A   1      42.754  23.477  26.369  1.00  0.00     0.010 A 
ATOM     68  C   UNL A   1      42.284  21.314  28.082  1.00  0.00     0.020 A 
ATOM     69  C   UNL A   1      42.578  22.196  25.838  1.00  0.00     0.020 A 
ATOM     70  C   UNL A   1      42.350  21.121  26.699  1.00  0.00     0.054 A 
BRANCH  70  71
ATOM     71  S   UNL A   1      42.070  19.456  26.031  1.00  0.00     0.124 S 
ATOM     72  O   UNL A   1      40.626  19.448  25.829  1.00  0.00    -0.237 OA
ATOM     73  O   UNL A   1      42.879  19.463  24.814  1.00  0.00    -0.237 OA
ATOM     74  O   UNL A   1      42.562  18.577  27.090  1.00  0.00    -0.744 OA
ENDBRANCH  70  71
ENDBRANCH  42  65
BRANCH  54  75
ATOM     75  C   UNL A   1      47.972  27.192  30.653  1.00  0.00    -0.014 A 
ATOM     76  C   UNL A   1      49.027  27.297  29.729  1.00  0.00     0.010 A 
ATOM     77  C   UNL A   1      48.246  26.743  31.958  1.00  0.00     0.010 A 
ATOM     78  C   UNL A   1      50.324  26.922  30.092  1.00  0.00     0.020 A 
ATOM     79  C   UNL A   1      49.545  26.390  32.332  1.00  0.00     0.020 A 
ATOM     80  C   UNL A   1      50.574  26.465  31.391  1.00  0.00     0.054 A 
BRANCH  80  81
ATOM     81  S   UNL A   1      52.268  26.006  31.849  1.00  0.00     0.124 S 
ATOM     82  O   UNL A   1      53.020  26.401  30.661  1.00  0.00    -0.237 OA
ATOM     83  O   UNL A   1      52.510  26.812  33.042  1.00  0.00    -0.237 OA
ATOM     84  O   UNL A   1      52.184  24.566  32.084  1.00  0.00    -0.744 OA
ENDBRANCH  80  81
ENDBRANCH  54  75
ENDBRANCH  28  29
ENDBRANCH  20  23
ENDBRANCH  18  19
ENDBRANCH   1  18
TORSDOF 16
ENDMDL
