MODEL 1
REMARK VINA RESULT:     -14.7      0.000      0.000
REMARK SMILES Cc1c(C(=O)NCCCNC(=O)c2ccc(-c3c4nc(c(-c5ccc(S(=O)(=O)[O-])cc5)c5ccc([nH]5)c(-c5ccc(S(=O)(=O)[O-])cc5)c5nc(c(-c6ccc(S(=O)(=O)[O-])cc6)c6ccc3[nH]6)C=C5)C=C4)cc2)oc2c1/C(=N/NC(=O)C(c1ccccc1)c1ccccc1)CCC2
REMARK SMILES IDX 8 1 7 2 6 3 4 4 5 5 3 7 1 8 2 9 75 10 73 11 74 12 76 13
REMARK SMILES IDX 96 14 77 15 94 16 95 17 78 18 79 19 80 21 81 22 82 23 83 24
REMARK SMILES IDX 87 25 84 26 86 27 85 28 88 29 89 30 93 31 90 32 92 33 91 34
REMARK SMILES IDX 9 35 10 36 11 37 12 39 13 40 14 41 72 42 15 43 71 44 16 45
REMARK SMILES IDX 17 46 18 47 65 48 19 49 70 50 64 51 66 52 20 53 69 54 63 55
REMARK SMILES IDX 62 56 21 58 51 59 32 60 50 61 33 62 36 63 49 64 67 65 34 66
REMARK SMILES IDX 35 67 48 69 68 70 37 71 22 72 23 73 31 74 24 75 30 76 25 77
REMARK SMILES IDX 26 78 27 79 28 80 29 81 52 82 53 83 61 84 54 85 60 86 55 87
REMARK SMILES IDX 56 88 57 89 58 90 59 91 38 92 39 93 47 94 40 95 46 96 41 97
REMARK SMILES IDX 42 98 43 99 44 100 45 101
REMARK H PARENT 6 6 78 20 10 38 66 57 36 68
REMARK Flexibility Score: inf
ROOT
ATOM      1  C   UNL A   1      36.749  21.860  24.838  1.00  0.00     0.042 C 
ENDROOT
BRANCH   1   2
ATOM      2  C   UNL A   1      35.622  21.361  25.767  1.00  0.00     0.118 C 
BRANCH   2   3
ATOM      3  N   UNL A   1      34.851  20.230  25.241  1.00  0.00    -0.349 N 
ATOM      4  C   UNL A   1      33.635  20.250  24.569  1.00  0.00     0.287 C 
ATOM      5  O   UNL A   1      33.266  19.230  23.992  1.00  0.00    -0.266 OA
ATOM      6  H   UNL A   1      35.247  19.340  25.382  1.00  0.00     0.163 HD
BRANCH   4   7
ATOM      7  C   UNL A   1      32.912  21.500  24.531  1.00  0.00     0.195 A 
ATOM      8  C   UNL A   1      34.112  23.019  22.823  1.00  0.00     0.049 C 
ATOM      9  C   UNL A   1      33.090  22.704  23.856  1.00  0.00     0.010 A 
ATOM     10  C   UNL A   1      32.208  23.618  24.523  1.00  0.00     0.043 A 
ATOM     11  O   UNL A   1      31.863  21.614  25.382  1.00  0.00    -0.455 OA
ATOM     12  C   UNL A   1      31.531  22.890  25.463  1.00  0.00     0.114 A 
ATOM     13  C   UNL A   1      32.046  25.055  24.488  1.00  0.00     0.072 C 
ATOM     14  C   UNL A   1      30.684  23.298  26.596  1.00  0.00     0.076 C 
ATOM     15  N   UNL A   1      32.575  25.558  23.407  1.00  0.00    -0.177 NA
ATOM     16  C   UNL A   1      31.420  25.560  25.823  1.00  0.00     0.059 C 
ATOM     17  C   UNL A   1      30.235  24.722  26.340  1.00  0.00     0.014 C 
BRANCH  15  18
ATOM     18  N   UNL A   1      32.799  26.774  22.823  1.00  0.00    -0.246 N 
ATOM     19  C   UNL A   1      32.398  28.069  23.051  1.00  0.00     0.252 C 
ATOM     20  H   UNL A   1      33.397  26.705  22.043  1.00  0.00     0.193 HD
ATOM     21  O   UNL A   1      32.716  28.953  22.248  1.00  0.00    -0.272 OA
BRANCH  19  22
ATOM     22  C   UNL A   1      31.588  28.397  24.286  1.00  0.00     0.140 C 
BRANCH  22  23
ATOM     23  C   UNL A   1      32.555  29.050  25.379  1.00  0.00    -0.031 A 
ATOM     24  C   UNL A   1      33.800  28.510  25.733  1.00  0.00     0.005 A 
ATOM     25  C   UNL A   1      32.236  30.269  26.054  1.00  0.00     0.005 A 
ATOM     26  C   UNL A   1      34.579  29.081  26.775  1.00  0.00     0.000 A 
ATOM     27  C   UNL A   1      32.950  30.781  27.144  1.00  0.00     0.000 A 
ATOM     28  C   UNL A   1      34.131  30.177  27.514  1.00  0.00     0.000 A 
ENDBRANCH  22  23
BRANCH  22  29
ATOM     29  C   UNL A   1      30.175  28.933  23.755  1.00  0.00    -0.031 A 
ATOM     30  C   UNL A   1      29.093  28.078  23.385  1.00  0.00     0.005 A 
ATOM     31  C   UNL A   1      29.822  30.287  23.798  1.00  0.00     0.005 A 
ATOM     32  C   UNL A   1      27.849  28.504  22.907  1.00  0.00     0.000 A 
ATOM     33  C   UNL A   1      28.526  30.726  23.413  1.00  0.00     0.000 A 
ATOM     34  C   UNL A   1      27.560  29.845  22.924  1.00  0.00     0.000 A 
ENDBRANCH  22  29
ENDBRANCH  19  22
ENDBRANCH  15  18
ENDBRANCH   4   7
ENDBRANCH   2   3
ENDBRANCH   1   2
BRANCH   1  35
ATOM     35  C   UNL A   1      37.788  22.667  25.576  1.00  0.00     0.118 C 
BRANCH  35  36
ATOM     36  N   UNL A   1      38.721  21.807  26.298  1.00  0.00    -0.352 N 
ATOM     37  C   UNL A   1      39.898  22.151  26.943  1.00  0.00     0.251 C 
ATOM     38  H   UNL A   1      38.482  20.853  26.332  1.00  0.00     0.163 HD
ATOM     39  O   UNL A   1      40.728  21.311  27.209  1.00  0.00    -0.269 OA
BRANCH  37  40
ATOM     40  C   UNL A   1      40.106  23.573  27.273  1.00  0.00     0.039 A 
ATOM     41  C   UNL A   1      39.057  24.490  27.209  1.00  0.00     0.014 A 
ATOM     42  C   UNL A   1      41.359  23.950  27.741  1.00  0.00     0.014 A 
ATOM     43  C   UNL A   1      39.260  25.772  27.716  1.00  0.00     0.010 A 
ATOM     44  C   UNL A   1      41.487  25.126  28.427  1.00  0.00     0.010 A 
ATOM     45  C   UNL A   1      40.475  26.073  28.355  1.00  0.00    -0.014 A 
BRANCH  45  46
ATOM     46  C   UNL A   1      40.683  27.348  29.030  1.00  0.00     0.031 A 
ATOM     47  C   UNL A   1      41.700  28.239  28.411  1.00  0.00     0.074 A 
ATOM     48  C   UNL A   1      39.874  27.796  30.015  1.00  0.00     0.049 A 
ATOM     49  N   UNL A   1      42.868  28.535  28.875  1.00  0.00    -0.248 NA
ATOM     50  C   UNL A   1      41.450  28.760  27.057  1.00  0.00     0.031 C 
ATOM     51  C   UNL A   1      38.640  27.194  30.542  1.00  0.00     0.029 A 
ATOM     52  N   UNL A   1      39.923  28.980  30.677  1.00  0.00    -0.354 N 
ATOM     53  C   UNL A   1      43.416  29.456  27.988  1.00  0.00     0.074 A 
ATOM     54  C   UNL A   1      42.589  29.411  26.808  1.00  0.00     0.031 C 
ATOM     55  C   UNL A   1      37.937  28.123  31.227  1.00  0.00     0.029 A 
ATOM     56  C   UNL A   1      38.757  29.311  31.356  1.00  0.00     0.049 A 
ATOM     57  H   UNL A   1      40.720  29.556  30.675  1.00  0.00     0.167 HD
ATOM     58  C   UNL A   1      44.364  30.352  28.386  1.00  0.00     0.031 A 
ATOM     59  C   UNL A   1      38.480  30.492  31.963  1.00  0.00     0.031 A 
ATOM     60  C   UNL A   1      44.884  30.028  29.692  1.00  0.00     0.049 A 
ATOM     61  C   UNL A   1      39.786  31.150  32.223  1.00  0.00     0.074 A 
ATOM     62  C   UNL A   1      45.518  28.930  30.240  1.00  0.00     0.029 A 
ATOM     63  N   UNL A   1      44.396  30.750  30.758  1.00  0.00    -0.354 N 
ATOM     64  N   UNL A   1      40.669  30.673  33.056  1.00  0.00    -0.248 NA
ATOM     65  C   UNL A   1      40.306  32.066  31.220  1.00  0.00     0.031 C 
ATOM     66  C   UNL A   1      44.941  28.787  31.537  1.00  0.00     0.029 A 
ATOM     67  C   UNL A   1      44.057  29.851  31.737  1.00  0.00     0.049 A 
ATOM     68  H   UNL A   1      44.305  31.730  30.808  1.00  0.00     0.167 HD
ATOM     69  C   UNL A   1      41.890  30.863  32.424  1.00  0.00     0.074 A 
ATOM     70  C   UNL A   1      41.613  31.816  31.349  1.00  0.00     0.031 C 
ATOM     71  C   UNL A   1      42.944  30.021  32.647  1.00  0.00     0.031 A 
BRANCH  58  72
ATOM     72  C   UNL A   1      44.538  31.727  27.790  1.00  0.00    -0.014 A 
ATOM     73  C   UNL A   1      45.690  31.991  27.020  1.00  0.00     0.010 A 
ATOM     74  C   UNL A   1      43.765  32.839  28.183  1.00  0.00     0.010 A 
ATOM     75  C   UNL A   1      46.091  33.302  26.732  1.00  0.00     0.020 A 
ATOM     76  C   UNL A   1      44.131  34.148  27.863  1.00  0.00     0.020 A 
ATOM     77  C   UNL A   1      45.313  34.373  27.173  1.00  0.00     0.054 A 
BRANCH  77  78
ATOM     78  S   UNL A   1      45.899  36.063  26.900  1.00  0.00     0.124 S 
ATOM     79  O   UNL A   1      46.613  36.337  28.144  1.00  0.00    -0.237 OA
ATOM     80  O   UNL A   1      46.732  35.913  25.710  1.00  0.00    -0.237 OA
ATOM     81  O   UNL A   1      44.667  36.823  26.702  1.00  0.00    -0.744 OA
ENDBRANCH  77  78
ENDBRANCH  58  72
BRANCH  59  82
ATOM     82  C   UNL A   1      37.182  31.200  32.070  1.00  0.00    -0.014 A 
ATOM     83  C   UNL A   1      36.818  31.853  33.263  1.00  0.00     0.010 A 
ATOM     84  C   UNL A   1      36.431  31.489  30.910  1.00  0.00     0.010 A 
ATOM     85  C   UNL A   1      35.804  32.825  33.276  1.00  0.00     0.020 A 
ATOM     86  C   UNL A   1      35.412  32.450  30.918  1.00  0.00     0.020 A 
ATOM     87  C   UNL A   1      35.126  33.139  32.095  1.00  0.00     0.054 A 
BRANCH  87  88
ATOM     88  S   UNL A   1      33.976  34.548  32.073  1.00  0.00     0.124 S 
ATOM     89  O   UNL A   1      33.597  34.619  30.665  1.00  0.00    -0.237 OA
ATOM     90  O   UNL A   1      32.925  34.112  32.989  1.00  0.00    -0.237 OA
ATOM     91  O   UNL A   1      34.788  35.663  32.555  1.00  0.00    -0.744 OA
ENDBRANCH  87  88
ENDBRANCH  59  82
BRANCH  71  92
ATOM     92  C   UNL A   1      42.850  29.025  33.783  1.00  0.00    -0.014 A 
ATOM     93  C   UNL A   1      43.310  29.279  35.092  1.00  0.00     0.010 A 
ATOM     94  C   UNL A   1      42.122  27.844  33.552  1.00  0.00     0.010 A 
ATOM     95  C   UNL A   1      43.072  28.362  36.129  1.00  0.00     0.020 A 
ATOM     96  C   UNL A   1      41.865  26.938  34.584  1.00  0.00     0.020 A 
ATOM     97  C   UNL A   1      42.351  27.194  35.866  1.00  0.00     0.054 A 
BRANCH  97  98
ATOM     98  S   UNL A   1      42.009  26.030  37.215  1.00  0.00     0.124 S 
ATOM     99  O   UNL A   1      42.978  26.429  38.233  1.00  0.00    -0.237 OA
ATOM    100  O   UNL A   1      40.611  26.302  37.537  1.00  0.00    -0.237 OA
ATOM    101  O   UNL A   1      42.252  24.718  36.613  1.00  0.00    -0.744 OA
ENDBRANCH  97  98
ENDBRANCH  71  92
ENDBRANCH  45  46
ENDBRANCH  37  40
ENDBRANCH  35  36
ENDBRANCH   1  35
TORSDOF 17
ENDMDL
MODEL 2
REMARK VINA RESULT:     -14.3      2.627      9.635
REMARK SMILES Cc1c(C(=O)NCCCNC(=O)c2ccc(-c3c4nc(c(-c5ccc(S(=O)(=O)[O-])cc5)c5ccc([nH]5)c(-c5ccc(S(=O)(=O)[O-])cc5)c5nc(c(-c6ccc(S(=O)(=O)[O-])cc6)c6ccc3[nH]6)C=C5)C=C4)cc2)oc2c1/C(=N/NC(=O)C(c1ccccc1)c1ccccc1)CCC2
REMARK SMILES IDX 8 1 7 2 6 3 4 4 5 5 3 7 1 8 2 9 75 10 73 11 74 12 76 13
REMARK SMILES IDX 96 14 77 15 94 16 95 17 78 18 79 19 80 21 81 22 82 23 83 24
REMARK SMILES IDX 87 25 84 26 86 27 85 28 88 29 89 30 93 31 90 32 92 33 91 34
REMARK SMILES IDX 9 35 10 36 11 37 12 39 13 40 14 41 72 42 15 43 71 44 16 45
REMARK SMILES IDX 17 46 18 47 65 48 19 49 70 50 64 51 66 52 20 53 69 54 63 55
REMARK SMILES IDX 62 56 21 58 51 59 32 60 50 61 33 62 36 63 49 64 67 65 34 66
REMARK SMILES IDX 35 67 48 69 68 70 37 71 22 72 23 73 31 74 24 75 30 76 25 77
REMARK SMILES IDX 26 78 27 79 28 80 29 81 52 82 53 83 61 84 54 85 60 86 55 87
REMARK SMILES IDX 56 88 57 89 58 90 59 91 38 92 39 93 47 94 40 95 46 96 41 97
REMARK SMILES IDX 42 98 43 99 44 100 45 101
REMARK H PARENT 6 6 78 20 10 38 66 57 36 68
REMARK Flexibility Score: inf
ROOT
ATOM      1  C   UNL A   1      32.090  29.812  26.802  1.00  0.00     0.042 C 
ENDROOT
BRANCH   1   2
ATOM      2  C   UNL A   1      32.252  29.580  25.285  1.00  0.00     0.118 C 
BRANCH   2   3
ATOM      3  N   UNL A   1      31.037  29.807  24.497  1.00  0.00    -0.349 N 
ATOM      4  C   UNL A   1      30.254  28.875  23.826  1.00  0.00     0.287 C 
ATOM      5  O   UNL A   1      29.144  29.218  23.428  1.00  0.00    -0.266 OA
ATOM      6  H   UNL A   1      30.735  30.742  24.435  1.00  0.00     0.163 HD
BRANCH   4   7
ATOM      7  C   UNL A   1      30.772  27.532  23.703  1.00  0.00     0.195 A 
ATOM      8  C   UNL A   1      30.830  26.520  26.077  1.00  0.00     0.049 C 
ATOM      9  C   UNL A   1      31.075  26.522  24.610  1.00  0.00     0.010 A 
ATOM     10  C   UNL A   1      31.849  25.583  23.850  1.00  0.00     0.043 A 
ATOM     11  O   UNL A   1      31.139  27.141  22.457  1.00  0.00    -0.455 OA
ATOM     12  C   UNL A   1      31.879  26.051  22.565  1.00  0.00     0.114 A 
ATOM     13  C   UNL A   1      32.656  24.435  24.204  1.00  0.00     0.072 C 
ATOM     14  C   UNL A   1      32.694  25.669  21.400  1.00  0.00     0.076 C 
ATOM     15  N   UNL A   1      32.341  23.992  25.390  1.00  0.00    -0.177 NA
ATOM     16  C   UNL A   1      33.745  24.185  23.117  1.00  0.00     0.059 C 
ATOM     17  C   UNL A   1      33.243  24.282  21.664  1.00  0.00     0.014 C 
BRANCH  15  18
ATOM     18  N   UNL A   1      32.731  23.032  26.283  1.00  0.00    -0.246 N 
ATOM     19  C   UNL A   1      33.572  21.945  26.261  1.00  0.00     0.252 C 
ATOM     20  H   UNL A   1      32.300  23.148  27.161  1.00  0.00     0.193 HD
ATOM     21  O   UNL A   1      33.628  21.200  27.246  1.00  0.00    -0.272 OA
BRANCH  19  22
ATOM     22  C   UNL A   1      34.430  21.684  25.042  1.00  0.00     0.140 C 
BRANCH  22  23
ATOM     23  C   UNL A   1      35.927  22.152  25.354  1.00  0.00    -0.031 A 
ATOM     24  C   UNL A   1      37.048  21.329  25.177  1.00  0.00     0.005 A 
ATOM     25  C   UNL A   1      36.239  23.473  25.801  1.00  0.00     0.005 A 
ATOM     26  C   UNL A   1      38.347  21.765  25.555  1.00  0.00     0.000 A 
ATOM     27  C   UNL A   1      37.498  23.876  26.264  1.00  0.00     0.000 A 
ATOM     28  C   UNL A   1      38.563  23.010  26.147  1.00  0.00     0.000 A 
ENDBRANCH  22  23
BRANCH  22  29
ATOM     29  C   UNL A   1      33.925  20.289  24.441  1.00  0.00    -0.031 A 
ATOM     30  C   UNL A   1      34.546  19.034  24.723  1.00  0.00     0.005 A 
ATOM     31  C   UNL A   1      32.714  20.165  23.748  1.00  0.00     0.005 A 
ATOM     32  C   UNL A   1      34.144  17.797  24.210  1.00  0.00     0.000 A 
ATOM     33  C   UNL A   1      32.239  18.898  23.310  1.00  0.00     0.000 A 
ATOM     34  C   UNL A   1      32.973  17.727  23.497  1.00  0.00     0.000 A 
ENDBRANCH  22  29
ENDBRANCH  19  22
ENDBRANCH  15  18
ENDBRANCH   4   7
ENDBRANCH   2   3
ENDBRANCH   1   2
BRANCH   1  35
ATOM     35  C   UNL A   1      33.401  30.121  27.481  1.00  0.00     0.118 C 
BRANCH  35  36
ATOM     36  N   UNL A   1      33.813  31.502  27.245  1.00  0.00    -0.352 N 
ATOM     37  C   UNL A   1      34.945  32.159  27.697  1.00  0.00     0.251 C 
ATOM     38  H   UNL A   1      33.203  32.040  26.690  1.00  0.00     0.163 HD
ATOM     39  O   UNL A   1      34.998  33.369  27.707  1.00  0.00    -0.269 OA
BRANCH  37  40
ATOM     40  C   UNL A   1      36.068  31.333  28.178  1.00  0.00     0.039 A 
ATOM     41  C   UNL A   1      36.297  30.056  27.666  1.00  0.00     0.014 A 
ATOM     42  C   UNL A   1      36.947  31.907  29.089  1.00  0.00     0.014 A 
ATOM     43  C   UNL A   1      37.477  29.401  28.011  1.00  0.00     0.010 A 
ATOM     44  C   UNL A   1      38.189  31.360  29.251  1.00  0.00     0.010 A 
ATOM     45  C   UNL A   1      38.437  30.076  28.783  1.00  0.00    -0.014 A 
BRANCH  45  46
ATOM     46  C   UNL A   1      39.747  29.494  29.048  1.00  0.00     0.031 A 
ATOM     47  C   UNL A   1      40.076  29.290  30.483  1.00  0.00     0.074 A 
ATOM     48  C   UNL A   1      40.527  28.973  28.075  1.00  0.00     0.049 A 
ATOM     49  N   UNL A   1      40.936  29.943  31.190  1.00  0.00    -0.248 NA
ATOM     50  C   UNL A   1      39.265  28.341  31.265  1.00  0.00     0.031 C 
ATOM     51  C   UNL A   1      40.231  28.806  26.645  1.00  0.00     0.029 A 
ATOM     52  N   UNL A   1      41.728  28.353  28.196  1.00  0.00    -0.354 N 
ATOM     53  C   UNL A   1      40.943  29.345  32.446  1.00  0.00     0.074 A 
ATOM     54  C   UNL A   1      39.775  28.501  32.488  1.00  0.00     0.031 C 
ATOM     55  C   UNL A   1      41.088  27.911  26.105  1.00  0.00     0.029 A 
ATOM     56  C   UNL A   1      42.105  27.601  27.090  1.00  0.00     0.049 A 
ATOM     57  H   UNL A   1      42.287  28.431  29.002  1.00  0.00     0.167 HD
ATOM     58  C   UNL A   1      42.035  29.408  33.260  1.00  0.00     0.031 A 
ATOM     59  C   UNL A   1      43.169  26.765  27.003  1.00  0.00     0.031 A 
ATOM     60  C   UNL A   1      42.999  30.368  32.780  1.00  0.00     0.049 A 
ATOM     61  C   UNL A   1      44.121  27.179  28.064  1.00  0.00     0.074 A 
ATOM     62  C   UNL A   1      42.971  31.722  32.510  1.00  0.00     0.029 A 
ATOM     63  N   UNL A   1      44.091  29.873  32.102  1.00  0.00    -0.354 N 
ATOM     64  N   UNL A   1      44.739  28.328  28.056  1.00  0.00    -0.248 NA
ATOM     65  C   UNL A   1      44.028  26.531  29.363  1.00  0.00     0.031 C 
ATOM     66  C   UNL A   1      43.718  31.868  31.304  1.00  0.00     0.029 A 
ATOM     67  C   UNL A   1      44.228  30.614  30.956  1.00  0.00     0.049 A 
ATOM     68  H   UNL A   1      44.666  29.125  32.387  1.00  0.00     0.167 HD
ATOM     69  C   UNL A   1      44.714  28.752  29.377  1.00  0.00     0.074 A 
ATOM     70  C   UNL A   1      44.357  27.561  30.149  1.00  0.00     0.031 C 
ATOM     71  C   UNL A   1      44.703  30.082  29.696  1.00  0.00     0.031 A 
BRANCH  58  72
ATOM     72  C   UNL A   1      42.418  28.340  34.255  1.00  0.00    -0.014 A 
ATOM     73  C   UNL A   1      42.198  28.581  35.627  1.00  0.00     0.010 A 
ATOM     74  C   UNL A   1      43.232  27.238  33.923  1.00  0.00     0.010 A 
ATOM     75  C   UNL A   1      42.827  27.812  36.614  1.00  0.00     0.020 A 
ATOM     76  C   UNL A   1      43.828  26.436  34.898  1.00  0.00     0.020 A 
ATOM     77  C   UNL A   1      43.654  26.753  36.238  1.00  0.00     0.054 A 
BRANCH  77  78
ATOM     78  S   UNL A   1      44.557  25.840  37.513  1.00  0.00     0.124 S 
ATOM     79  O   UNL A   1      44.297  24.456  37.130  1.00  0.00    -0.237 OA
ATOM     80  O   UNL A   1      45.926  26.307  37.316  1.00  0.00    -0.237 OA
ATOM     81  O   UNL A   1      43.927  26.278  38.756  1.00  0.00    -0.744 OA
ENDBRANCH  77  78
ENDBRANCH  58  72
BRANCH  59  82
ATOM     82  C   UNL A   1      43.285  25.482  26.268  1.00  0.00    -0.014 A 
ATOM     83  C   UNL A   1      44.303  25.293  25.314  1.00  0.00     0.010 A 
ATOM     84  C   UNL A   1      42.584  24.341  26.714  1.00  0.00     0.010 A 
ATOM     85  C   UNL A   1      44.667  24.004  24.891  1.00  0.00     0.020 A 
ATOM     86  C   UNL A   1      42.936  23.054  26.289  1.00  0.00     0.020 A 
ATOM     87  C   UNL A   1      44.000  22.889  25.404  1.00  0.00     0.054 A 
BRANCH  87  88
ATOM     88  S   UNL A   1      44.623  21.223  25.024  1.00  0.00     0.124 S 
ATOM     89  O   UNL A   1      43.663  20.366  25.713  1.00  0.00    -0.237 OA
ATOM     90  O   UNL A   1      44.566  21.190  23.564  1.00  0.00    -0.237 OA
ATOM     91  O   UNL A   1      45.972  21.223  25.586  1.00  0.00    -0.744 OA
ENDBRANCH  87  88
ENDBRANCH  59  82
BRANCH  71  92
ATOM     92  C   UNL A   1      44.976  31.094  28.603  1.00  0.00    -0.014 A 
ATOM     93  C   UNL A   1      43.998  31.554  27.696  1.00  0.00     0.010 A 
ATOM     94  C   UNL A   1      46.234  31.720  28.599  1.00  0.00     0.010 A 
ATOM     95  C   UNL A   1      44.286  32.591  26.793  1.00  0.00     0.020 A 
ATOM     96  C   UNL A   1      46.520  32.766  27.717  1.00  0.00     0.020 A 
ATOM     97  C   UNL A   1      45.549  33.189  26.810  1.00  0.00     0.054 A 
BRANCH  97  98
ATOM     98  S   UNL A   1      45.907  34.556  25.670  1.00  0.00     0.124 S 
ATOM     99  O   UNL A   1      45.038  34.259  24.535  1.00  0.00    -0.237 OA
ATOM    100  O   UNL A   1      45.543  35.736  26.450  1.00  0.00    -0.237 OA
ATOM    101  O   UNL A   1      47.339  34.420  25.402  1.00  0.00    -0.744 OA
ENDBRANCH  97  98
ENDBRANCH  71  92
ENDBRANCH  45  46
ENDBRANCH  37  40
ENDBRANCH  35  36
ENDBRANCH   1  35
TORSDOF 17
ENDMDL
MODEL 3
REMARK VINA RESULT:     -14.0      1.363      2.814
REMARK SMILES Cc1c(C(=O)NCCCNC(=O)c2ccc(-c3c4nc(c(-c5ccc(S(=O)(=O)[O-])cc5)c5ccc([nH]5)c(-c5ccc(S(=O)(=O)[O-])cc5)c5nc(c(-c6ccc(S(=O)(=O)[O-])cc6)c6ccc3[nH]6)C=C5)C=C4)cc2)oc2c1/C(=N/NC(=O)C(c1ccccc1)c1ccccc1)CCC2
REMARK SMILES IDX 8 1 7 2 6 3 4 4 5 5 3 7 1 8 2 9 75 10 73 11 74 12 76 13
REMARK SMILES IDX 96 14 77 15 94 16 95 17 78 18 79 19 80 21 81 22 82 23 83 24
REMARK SMILES IDX 87 25 84 26 86 27 85 28 88 29 89 30 93 31 90 32 92 33 91 34
REMARK SMILES IDX 9 35 10 36 11 37 12 39 13 40 14 41 72 42 15 43 71 44 16 45
REMARK SMILES IDX 17 46 18 47 65 48 19 49 70 50 64 51 66 52 20 53 69 54 63 55
REMARK SMILES IDX 62 56 21 58 51 59 32 60 50 61 33 62 36 63 49 64 67 65 34 66
REMARK SMILES IDX 35 67 48 69 68 70 37 71 22 72 23 73 31 74 24 75 30 76 25 77
REMARK SMILES IDX 26 78 27 79 28 80 29 81 52 82 53 83 61 84 54 85 60 86 55 87
REMARK SMILES IDX 56 88 57 89 58 90 59 91 38 92 39 93 47 94 40 95 46 96 41 97
REMARK SMILES IDX 42 98 43 99 44 100 45 101
REMARK H PARENT 6 6 78 20 10 38 66 57 36 68
REMARK Flexibility Score: inf
ROOT
ATOM      1  C   UNL A   1      36.351  22.456  24.881  1.00  0.00     0.042 C 
ENDROOT
BRANCH   1   2
ATOM      2  C   UNL A   1      36.230  20.991  24.412  1.00  0.00     0.118 C 
BRANCH   2   3
ATOM      3  N   UNL A   1      35.334  20.161  25.223  1.00  0.00    -0.349 N 
ATOM      4  C   UNL A   1      34.004  20.393  25.554  1.00  0.00     0.287 C 
ATOM      5  O   UNL A   1      33.348  19.471  26.032  1.00  0.00    -0.266 OA
ATOM      6  H   UNL A   1      35.724  19.330  25.579  1.00  0.00     0.163 HD
BRANCH   4   7
ATOM      7  C   UNL A   1      33.454  21.692  25.243  1.00  0.00     0.195 A 
ATOM      8  C   UNL A   1      33.397  23.038  27.445  1.00  0.00     0.049 C 
ATOM      9  C   UNL A   1      33.138  22.817  25.997  1.00  0.00     0.010 A 
ATOM     10  C   UNL A   1      32.334  23.618  25.119  1.00  0.00     0.043 A 
ATOM     11  O   UNL A   1      33.065  21.889  23.959  1.00  0.00    -0.455 OA
ATOM     12  C   UNL A   1      32.301  22.966  23.917  1.00  0.00     0.114 A 
ATOM     13  C   UNL A   1      31.505  24.788  25.313  1.00  0.00     0.072 C 
ATOM     14  C   UNL A   1      31.466  23.157  22.720  1.00  0.00     0.076 C 
ATOM     15  N   UNL A   1      31.821  25.407  26.417  1.00  0.00    -0.177 NA
ATOM     16  C   UNL A   1      30.399  24.854  24.216  1.00  0.00     0.059 C 
ATOM     17  C   UNL A   1      30.888  24.556  22.786  1.00  0.00     0.014 C 
BRANCH  15  18
ATOM     18  N   UNL A   1      31.419  26.479  27.165  1.00  0.00    -0.246 N 
ATOM     19  C   UNL A   1      31.753  27.810  27.244  1.00  0.00     0.252 C 
ATOM     20  H   UNL A   1      30.714  26.236  27.809  1.00  0.00     0.193 HD
ATOM     21  O   UNL A   1      31.248  28.510  28.129  1.00  0.00    -0.272 OA
BRANCH  19  22
ATOM     22  C   UNL A   1      32.718  28.402  26.242  1.00  0.00     0.140 C 
BRANCH  22  23
ATOM     23  C   UNL A   1      31.948  28.641  24.861  1.00  0.00    -0.031 A 
ATOM     24  C   UNL A   1      30.868  29.524  24.720  1.00  0.00     0.005 A 
ATOM     25  C   UNL A   1      32.336  27.996  23.646  1.00  0.00     0.005 A 
ATOM     26  C   UNL A   1      30.162  29.631  23.491  1.00  0.00     0.000 A 
ATOM     27  C   UNL A   1      31.589  28.024  22.462  1.00  0.00     0.000 A 
ATOM     28  C   UNL A   1      30.486  28.844  22.385  1.00  0.00     0.000 A 
ENDBRANCH  22  23
BRANCH  22  29
ATOM     29  C   UNL A   1      33.632  29.427  27.066  1.00  0.00    -0.031 A 
ATOM     30  C   UNL A   1      34.953  29.123  27.517  1.00  0.00     0.005 A 
ATOM     31  C   UNL A   1      33.284  30.772  27.237  1.00  0.00     0.005 A 
ATOM     32  C   UNL A   1      35.779  29.984  28.248  1.00  0.00     0.000 A 
ATOM     33  C   UNL A   1      34.159  31.685  27.887  1.00  0.00     0.000 A 
ATOM     34  C   UNL A   1      35.378  31.283  28.433  1.00  0.00     0.000 A 
ENDBRANCH  22  29
ENDBRANCH  19  22
ENDBRANCH  15  18
ENDBRANCH   4   7
ENDBRANCH   2   3
ENDBRANCH   1   2
BRANCH   1  35
ATOM     35  C   UNL A   1      37.271  22.607  26.068  1.00  0.00     0.118 C 
BRANCH  35  36
ATOM     36  N   UNL A   1      38.434  21.732  25.958  1.00  0.00    -0.352 N 
ATOM     37  C   UNL A   1      39.756  22.003  26.269  1.00  0.00     0.251 C 
ATOM     38  H   UNL A   1      38.255  20.825  25.619  1.00  0.00     0.163 HD
ATOM     39  O   UNL A   1      40.651  21.316  25.827  1.00  0.00    -0.269 OA
BRANCH  37  40
ATOM     40  C   UNL A   1      40.031  23.163  27.136  1.00  0.00     0.039 A 
ATOM     41  C   UNL A   1      41.232  23.271  27.838  1.00  0.00     0.014 A 
ATOM     42  C   UNL A   1      39.095  24.190  27.157  1.00  0.00     0.014 A 
ATOM     43  C   UNL A   1      41.521  24.472  28.484  1.00  0.00     0.010 A 
ATOM     44  C   UNL A   1      39.473  25.426  27.603  1.00  0.00     0.010 A 
ATOM     45  C   UNL A   1      40.645  25.560  28.334  1.00  0.00    -0.014 A 
BRANCH  45  46
ATOM     46  C   UNL A   1      40.972  26.878  28.865  1.00  0.00     0.031 A 
ATOM     47  C   UNL A   1      42.107  27.570  28.198  1.00  0.00     0.074 A 
ATOM     48  C   UNL A   1      40.183  27.528  29.748  1.00  0.00     0.049 A 
ATOM     49  N   UNL A   1      43.282  27.792  28.682  1.00  0.00    -0.248 NA
ATOM     50  C   UNL A   1      41.969  27.945  26.781  1.00  0.00     0.031 C 
ATOM     51  C   UNL A   1      38.870  27.133  30.278  1.00  0.00     0.029 A 
ATOM     52  N   UNL A   1      40.342  28.772  30.268  1.00  0.00    -0.354 N 
ATOM     53  C   UNL A   1      43.965  28.532  27.722  1.00  0.00     0.074 A 
ATOM     54  C   UNL A   1      43.183  28.433  26.516  1.00  0.00     0.031 C 
ATOM     55  C   UNL A   1      38.253  28.209  30.813  1.00  0.00     0.029 A 
ATOM     56  C   UNL A   1      39.197  29.309  30.843  1.00  0.00     0.049 A 
ATOM     57  H   UNL A   1      41.199  29.254  30.239  1.00  0.00     0.167 HD
ATOM     58  C   UNL A   1      44.993  29.362  28.060  1.00  0.00     0.031 A 
ATOM     59  C   UNL A   1      39.035  30.578  31.292  1.00  0.00     0.031 A 
ATOM     60  C   UNL A   1      45.424  29.146  29.419  1.00  0.00     0.049 A 
ATOM     61  C   UNL A   1      40.396  31.117  31.540  1.00  0.00     0.074 A 
ATOM     62  C   UNL A   1      45.908  28.061  30.125  1.00  0.00     0.029 A 
ATOM     63  N   UNL A   1      44.982  30.042  30.367  1.00  0.00    -0.354 N 
ATOM     64  N   UNL A   1      41.187  30.652  32.466  1.00  0.00    -0.248 NA
ATOM     65  C   UNL A   1      41.054  31.841  30.464  1.00  0.00     0.031 C 
ATOM     66  C   UNL A   1      45.271  28.142  31.398  1.00  0.00     0.029 A 
ATOM     67  C   UNL A   1      44.506  29.312  31.426  1.00  0.00     0.049 A 
ATOM     68  H   UNL A   1      45.002  31.025  30.297  1.00  0.00     0.167 HD
ATOM     69  C   UNL A   1      42.444  30.630  31.879  1.00  0.00     0.074 A 
ATOM     70  C   UNL A   1      42.318  31.468  30.687  1.00  0.00     0.031 C 
ATOM     71  C   UNL A   1      43.386  29.712  32.252  1.00  0.00     0.031 A 
BRANCH  58  72
ATOM     72  C   UNL A   1      45.345  30.627  27.316  1.00  0.00    -0.014 A 
ATOM     73  C   UNL A   1      46.705  30.923  27.088  1.00  0.00     0.010 A 
ATOM     74  C   UNL A   1      44.419  31.664  27.082  1.00  0.00     0.010 A 
ATOM     75  C   UNL A   1      47.122  32.210  26.726  1.00  0.00     0.020 A 
ATOM     76  C   UNL A   1      44.819  32.939  26.676  1.00  0.00     0.020 A 
ATOM     77  C   UNL A   1      46.172  33.215  26.539  1.00  0.00     0.054 A 
BRANCH  77  78
ATOM     78  S   UNL A   1      46.725  34.901  26.189  1.00  0.00     0.124 S 
ATOM     79  O   UNL A   1      47.540  34.706  24.994  1.00  0.00    -0.237 OA
ATOM     80  O   UNL A   1      45.461  35.605  25.987  1.00  0.00    -0.237 OA
ATOM     81  O   UNL A   1      47.457  35.278  27.395  1.00  0.00    -0.744 OA
ENDBRANCH  77  78
ENDBRANCH  58  72
BRANCH  59  82
ATOM     82  C   UNL A   1      37.822  31.430  31.249  1.00  0.00    -0.014 A 
ATOM     83  C   UNL A   1      36.669  31.073  31.973  1.00  0.00     0.010 A 
ATOM     84  C   UNL A   1      37.894  32.744  30.739  1.00  0.00     0.010 A 
ATOM     85  C   UNL A   1      35.669  32.018  32.255  1.00  0.00     0.020 A 
ATOM     86  C   UNL A   1      36.896  33.689  31.008  1.00  0.00     0.020 A 
ATOM     87  C   UNL A   1      35.803  33.331  31.795  1.00  0.00     0.054 A 
BRANCH  87  88
ATOM     88  S   UNL A   1      34.621  34.597  32.350  1.00  0.00     0.124 S 
ATOM     89  O   UNL A   1      34.162  35.169  31.089  1.00  0.00    -0.237 OA
ATOM     90  O   UNL A   1      33.634  33.807  33.083  1.00  0.00    -0.237 OA
ATOM     91  O   UNL A   1      35.433  35.486  33.178  1.00  0.00    -0.744 OA
ENDBRANCH  87  88
ENDBRANCH  59  82
BRANCH  71  92
ATOM     92  C   UNL A   1      43.138  28.878  33.492  1.00  0.00    -0.014 A 
ATOM     93  C   UNL A   1      43.261  29.370  34.808  1.00  0.00     0.010 A 
ATOM     94  C   UNL A   1      42.603  27.591  33.310  1.00  0.00     0.010 A 
ATOM     95  C   UNL A   1      42.886  28.581  35.908  1.00  0.00     0.020 A 
ATOM     96  C   UNL A   1      42.211  26.809  34.400  1.00  0.00     0.020 A 
ATOM     97  C   UNL A   1      42.364  27.302  35.695  1.00  0.00     0.054 A 
BRANCH  97  98
ATOM     98  S   UNL A   1      41.844  26.300  37.116  1.00  0.00     0.124 S 
ATOM     99  O   UNL A   1      41.739  24.962  36.540  1.00  0.00    -0.237 OA
ATOM    100  O   UNL A   1      42.935  26.491  38.068  1.00  0.00    -0.237 OA
ATOM    101  O   UNL A   1      40.572  26.900  37.518  1.00  0.00    -0.744 OA
ENDBRANCH  97  98
ENDBRANCH  71  92
ENDBRANCH  45  46
ENDBRANCH  37  40
ENDBRANCH  35  36
ENDBRANCH   1  35
TORSDOF 17
ENDMDL
