MODEL 1
REMARK VINA RESULT:     -11.0      0.000      0.000
REMARK SMILES CCCCc1nc(C[N@H+]2CC[NH2+][C@H](C(=O)NCCCNC(=O)c3ccc(-c4c5nc(c(-c6ccc(S(=O)(=O)[O-])cc6)c6ccc([nH]6)c(-c6ccc(S(=O)(=O)[O-])cc6)c6nc(c(-c7ccc(S(=O)(=O)[O-])cc7)c7ccc4[nH]7)C=C6)C=C5)cc3)C2)c(Cl)[nH]1
REMARK SMILES IDX 17 1 16 2 14 3 15 4 13 6 9 7 10 8 83 9 11 11 12 12 8 15 7 16
REMARK SMILES IDX 5 17 6 18 86 19 84 20 85 22 4 23 3 24 2 25 1 26 18 27 19 28
REMARK SMILES IDX 20 29 21 30 22 32 23 33 24 34 82 35 25 36 81 37 26 38 27 39
REMARK SMILES IDX 28 40 75 41 29 42 80 43 74 44 76 45 30 46 79 47 73 48 72 49
REMARK SMILES IDX 31 51 61 52 42 53 60 54 43 55 46 56 59 57 77 58 44 59 45 60
REMARK SMILES IDX 58 62 78 63 47 64 32 65 33 66 41 67 34 68 40 69 35 70 36 71
REMARK SMILES IDX 37 72 38 73 39 74 62 75 63 76 71 77 64 78 70 79 65 80 66 81
REMARK SMILES IDX 67 82 68 83 69 84 48 85 49 86 57 87 50 88 56 89 51 90 52 91
REMARK SMILES IDX 53 92 54 93 55 94
REMARK H PARENT 16 5 9 10 12 13 12 14 86 21 20 31 76 50 46 61
REMARK Flexibility Score: inf
ROOT
ATOM      1  C   UNL A   1      31.985  27.554  26.918  1.00  0.00     0.118 C 
ENDROOT
BRANCH   1   2
ATOM      2  N   UNL A   1      31.241  27.332  25.691  1.00  0.00    -0.351 N 
ATOM      3  C   UNL A   1      30.733  26.166  25.182  1.00  0.00     0.284 C 
ATOM      4  O   UNL A   1      29.913  26.267  24.265  1.00  0.00    -0.268 OA
ATOM      5  H   UNL A   1      31.078  28.137  25.147  1.00  0.00     0.163 HD
BRANCH   3   6
ATOM      6  C   UNL A   1      31.273  24.801  25.650  1.00  0.00     0.328 C 
ATOM      7  N   UNL A   1      33.221  23.148  25.260  1.00  0.00    -0.320 N 
ATOM      8  C   UNL A   1      32.211  22.086  25.330  1.00  0.00     0.324 C 
ATOM      9  C   UNL A   1      32.630  24.477  24.960  1.00  0.00     0.339 C 
ATOM     10  H   UNL A   1      33.798  22.905  24.455  1.00  0.00     0.348 HD
ATOM     11  C   UNL A   1      30.875  22.466  26.001  1.00  0.00     0.323 C 
ATOM     12  N   UNL A   1      30.300  23.691  25.435  1.00  0.00    -0.327 N 
ATOM     13  H   UNL A   1      29.420  23.908  25.902  1.00  0.00     0.347 HD
ATOM     14  H   UNL A   1      30.119  23.569  24.439  1.00  0.00     0.347 HD
BRANCH   7  15
ATOM     15  C   UNL A   1      34.191  23.163  26.372  1.00  0.00     0.323 C 
BRANCH  15  16
ATOM     16  C   UNL A   1      35.574  22.760  25.988  1.00  0.00     0.132 A 
ATOM     17  C   UNL A   1      37.738  22.874  26.017  1.00  0.00     0.107 A 
ATOM     18  N   UNL A   1      36.649  23.587  26.245  1.00  0.00    -0.231 NA
ATOM     19  N   UNL A   1      37.398  21.674  25.442  1.00  0.00    -0.333 N 
ATOM     20  C   UNL A   1      36.039  21.598  25.433  1.00  0.00     0.135 A 
ATOM     21  H   UNL A   1      38.022  20.995  25.099  1.00  0.00     0.169 HD
ATOM     22  Cl  UNL A   1      35.309  20.164  24.913  1.00  0.00    -0.062 Cl
BRANCH  17  23
ATOM     23  C   UNL A   1      39.114  23.291  26.430  1.00  0.00     0.075 C 
BRANCH  23  24
ATOM     24  C   UNL A   1      39.401  24.796  26.426  1.00  0.00     0.008 C 
BRANCH  24  25
ATOM     25  C   UNL A   1      39.226  25.537  27.755  1.00  0.00    -0.003 C 
ATOM     26  C   UNL A   1      40.430  25.464  28.677  1.00  0.00     0.004 C 
ENDBRANCH  24  25
ENDBRANCH  23  24
ENDBRANCH  17  23
ENDBRANCH  15  16
ENDBRANCH   7  15
ENDBRANCH   3   6
ENDBRANCH   1   2
BRANCH   1  27
ATOM     27  C   UNL A   1      32.206  29.027  27.266  1.00  0.00     0.042 C 
BRANCH  27  28
ATOM     28  C   UNL A   1      33.688  29.345  27.366  1.00  0.00     0.118 C 
BRANCH  28  29
ATOM     29  N   UNL A   1      33.940  30.793  27.260  1.00  0.00    -0.352 N 
ATOM     30  C   UNL A   1      35.010  31.557  27.691  1.00  0.00     0.251 C 
ATOM     31  H   UNL A   1      33.230  31.301  26.805  1.00  0.00     0.163 HD
ATOM     32  O   UNL A   1      34.913  32.769  27.771  1.00  0.00    -0.269 OA
BRANCH  30  33
ATOM     33  C   UNL A   1      36.266  30.874  28.045  1.00  0.00     0.039 A 
ATOM     34  C   UNL A   1      36.588  29.600  27.565  1.00  0.00     0.014 A 
ATOM     35  C   UNL A   1      37.148  31.568  28.859  1.00  0.00     0.014 A 
ATOM     36  C   UNL A   1      37.841  29.071  27.874  1.00  0.00     0.010 A 
ATOM     37  C   UNL A   1      38.447  31.174  28.930  1.00  0.00     0.010 A 
ATOM     38  C   UNL A   1      38.762  29.879  28.553  1.00  0.00    -0.014 A 
BRANCH  38  39
ATOM     39  C   UNL A   1      40.132  29.475  28.817  1.00  0.00     0.031 A 
ATOM     40  C   UNL A   1      40.407  29.301  30.264  1.00  0.00     0.074 A 
ATOM     41  C   UNL A   1      40.919  28.985  27.830  1.00  0.00     0.049 A 
ATOM     42  N   UNL A   1      41.076  30.087  31.041  1.00  0.00    -0.248 NA
ATOM     43  C   UNL A   1      39.649  28.260  30.988  1.00  0.00     0.031 C 
ATOM     44  C   UNL A   1      40.569  28.758  26.418  1.00  0.00     0.029 A 
ATOM     45  N   UNL A   1      42.163  28.448  27.903  1.00  0.00    -0.354 N 
ATOM     46  C   UNL A   1      41.064  29.462  32.283  1.00  0.00     0.074 A 
ATOM     47  C   UNL A   1      39.946  28.557  32.253  1.00  0.00     0.031 C 
ATOM     48  C   UNL A   1      41.469  27.920  25.855  1.00  0.00     0.029 A 
ATOM     49  C   UNL A   1      42.539  27.676  26.805  1.00  0.00     0.049 A 
ATOM     50  H   UNL A   1      42.755  28.592  28.676  1.00  0.00     0.167 HD
ATOM     51  C   UNL A   1      42.172  29.460  33.080  1.00  0.00     0.031 A 
ATOM     52  C   UNL A   1      43.627  26.867  26.712  1.00  0.00     0.031 A 
ATOM     53  C   UNL A   1      43.153  30.404  32.597  1.00  0.00     0.049 A 
ATOM     54  C   UNL A   1      44.552  27.274  27.802  1.00  0.00     0.074 A 
ATOM     55  C   UNL A   1      43.155  31.760  32.336  1.00  0.00     0.029 A 
ATOM     56  N   UNL A   1      44.211  29.877  31.887  1.00  0.00    -0.354 N 
ATOM     57  N   UNL A   1      45.130  28.443  27.851  1.00  0.00    -0.248 NA
ATOM     58  C   UNL A   1      44.431  26.586  29.078  1.00  0.00     0.031 C 
ATOM     59  C   UNL A   1      43.904  31.901  31.130  1.00  0.00     0.029 A 
ATOM     60  C   UNL A   1      44.410  30.650  30.774  1.00  0.00     0.049 A 
ATOM     61  H   UNL A   1      44.733  29.082  32.137  1.00  0.00     0.167 HD
ATOM     62  C   UNL A   1      45.036  28.829  29.182  1.00  0.00     0.074 A 
ATOM     63  C   UNL A   1      44.677  27.606  29.905  1.00  0.00     0.031 C 
ATOM     64  C   UNL A   1      44.957  30.149  29.527  1.00  0.00     0.031 A 
BRANCH  51  65
ATOM     65  C   UNL A   1      42.564  28.299  33.975  1.00  0.00    -0.014 A 
ATOM     66  C   UNL A   1      42.828  28.566  35.335  1.00  0.00     0.010 A 
ATOM     67  C   UNL A   1      42.944  27.028  33.499  1.00  0.00     0.010 A 
ATOM     68  C   UNL A   1      43.524  27.653  36.138  1.00  0.00     0.020 A 
ATOM     69  C   UNL A   1      43.599  26.092  34.301  1.00  0.00     0.020 A 
ATOM     70  C   UNL A   1      43.919  26.427  35.607  1.00  0.00     0.054 A 
BRANCH  70  71
ATOM     71  S   UNL A   1      44.900  25.294  36.617  1.00  0.00     0.124 S 
ATOM     72  O   UNL A   1      45.256  24.264  35.648  1.00  0.00    -0.237 OA
ATOM     73  O   UNL A   1      45.992  26.153  37.065  1.00  0.00    -0.237 OA
ATOM     74  O   UNL A   1      43.970  24.880  37.664  1.00  0.00    -0.744 OA
ENDBRANCH  70  71
ENDBRANCH  51  65
BRANCH  52  75
ATOM     75  C   UNL A   1      43.784  25.578  25.979  1.00  0.00    -0.014 A 
ATOM     76  C   UNL A   1      44.993  25.246  25.334  1.00  0.00     0.010 A 
ATOM     77  C   UNL A   1      42.843  24.543  26.158  1.00  0.00     0.010 A 
ATOM     78  C   UNL A   1      45.276  23.920  24.948  1.00  0.00     0.020 A 
ATOM     79  C   UNL A   1      43.115  23.222  25.771  1.00  0.00     0.020 A 
ATOM     80  C   UNL A   1      44.343  22.910  25.191  1.00  0.00     0.054 A 
BRANCH  80  81
ATOM     81  S   UNL A   1      44.786  21.174  24.868  1.00  0.00     0.124 S 
ATOM     82  O   UNL A   1      46.191  21.131  25.262  1.00  0.00    -0.237 OA
ATOM     83  O   UNL A   1      43.866  20.443  25.735  1.00  0.00    -0.237 OA
ATOM     84  O   UNL A   1      44.539  21.016  23.436  1.00  0.00    -0.744 OA
ENDBRANCH  80  81
ENDBRANCH  52  75
BRANCH  64  85
ATOM     85  C   UNL A   1      45.281  31.193  28.481  1.00  0.00    -0.014 A 
ATOM     86  C   UNL A   1      44.355  31.713  27.553  1.00  0.00     0.010 A 
ATOM     87  C   UNL A   1      46.556  31.779  28.550  1.00  0.00     0.010 A 
ATOM     88  C   UNL A   1      44.713  32.773  26.702  1.00  0.00     0.020 A 
ATOM     89  C   UNL A   1      46.911  32.845  27.723  1.00  0.00     0.020 A 
ATOM     90  C   UNL A   1      45.993  33.330  26.793  1.00  0.00     0.054 A 
BRANCH  90  91
ATOM     91  S   UNL A   1      46.453  34.714  25.713  1.00  0.00     0.124 S 
ATOM     92  O   UNL A   1      47.861  34.444  25.433  1.00  0.00    -0.237 OA
ATOM     93  O   UNL A   1      45.546  34.560  24.579  1.00  0.00    -0.237 OA
ATOM     94  O   UNL A   1      46.204  35.897  26.536  1.00  0.00    -0.744 OA
ENDBRANCH  90  91
ENDBRANCH  64  85
ENDBRANCH  38  39
ENDBRANCH  30  33
ENDBRANCH  28  29
ENDBRANCH  27  28
ENDBRANCH   1  27
TORSDOF 18
ENDMDL
MODEL 2
REMARK VINA RESULT:     -10.7      2.862      9.343
REMARK SMILES CCCCc1nc(C[N@H+]2CC[NH2+][C@H](C(=O)NCCCNC(=O)c3ccc(-c4c5nc(c(-c6ccc(S(=O)(=O)[O-])cc6)c6ccc([nH]6)c(-c6ccc(S(=O)(=O)[O-])cc6)c6nc(c(-c7ccc(S(=O)(=O)[O-])cc7)c7ccc4[nH]7)C=C6)C=C5)cc3)C2)c(Cl)[nH]1
REMARK SMILES IDX 17 1 16 2 14 3 15 4 13 6 9 7 10 8 83 9 11 11 12 12 8 15 7 16
REMARK SMILES IDX 5 17 6 18 86 19 84 20 85 22 4 23 3 24 2 25 1 26 18 27 19 28
REMARK SMILES IDX 20 29 21 30 22 32 23 33 24 34 82 35 25 36 81 37 26 38 27 39
REMARK SMILES IDX 28 40 75 41 29 42 80 43 74 44 76 45 30 46 79 47 73 48 72 49
REMARK SMILES IDX 31 51 61 52 42 53 60 54 43 55 46 56 59 57 77 58 44 59 45 60
REMARK SMILES IDX 58 62 78 63 47 64 32 65 33 66 41 67 34 68 40 69 35 70 36 71
REMARK SMILES IDX 37 72 38 73 39 74 62 75 63 76 71 77 64 78 70 79 65 80 66 81
REMARK SMILES IDX 67 82 68 83 69 84 48 85 49 86 57 87 50 88 56 89 51 90 52 91
REMARK SMILES IDX 53 92 54 93 55 94
REMARK H PARENT 16 5 9 10 12 13 12 14 86 21 20 31 76 50 46 61
REMARK Flexibility Score: inf
ROOT
ATOM      1  C   UNL A   1      37.860  22.236  25.701  1.00  0.00     0.118 C 
ENDROOT
BRANCH   1   2
ATOM      2  N   UNL A   1      37.482  22.250  24.300  1.00  0.00    -0.351 N 
ATOM      3  C   UNL A   1      36.418  22.864  23.693  1.00  0.00     0.284 C 
ATOM      4  O   UNL A   1      36.452  22.957  22.463  1.00  0.00    -0.268 OA
ATOM      5  H   UNL A   1      38.078  21.747  23.698  1.00  0.00     0.163 HD
BRANCH   3   6
ATOM      6  C   UNL A   1      35.182  23.289  24.511  1.00  0.00     0.328 C 
ATOM      7  N   UNL A   1      32.620  23.569  24.317  1.00  0.00    -0.320 N 
ATOM      8  C   UNL A   1      32.793  24.811  25.079  1.00  0.00     0.324 C 
ATOM      9  C   UNL A   1      33.880  23.116  23.675  1.00  0.00     0.339 C 
ATOM     10  H   UNL A   1      31.987  23.816  23.557  1.00  0.00     0.348 HD
ATOM     11  C   UNL A   1      34.111  24.943  25.870  1.00  0.00     0.323 C 
ATOM     12  N   UNL A   1      35.286  24.682  25.033  1.00  0.00    -0.327 N 
ATOM     13  H   UNL A   1      36.135  24.779  25.589  1.00  0.00     0.347 HD
ATOM     14  H   UNL A   1      35.325  25.346  24.261  1.00  0.00     0.347 HD
BRANCH   7  15
ATOM     15  C   UNL A   1      31.891  22.498  25.023  1.00  0.00     0.323 C 
BRANCH  15  16
ATOM     16  C   UNL A   1      32.286  21.118  24.623  1.00  0.00     0.132 A 
ATOM     17  C   UNL A   1      32.751  19.027  24.958  1.00  0.00     0.107 A 
ATOM     18  N   UNL A   1      32.701  20.199  25.566  1.00  0.00    -0.231 NA
ATOM     19  N   UNL A   1      32.561  19.195  23.608  1.00  0.00    -0.333 N 
ATOM     20  C   UNL A   1      32.259  20.505  23.398  1.00  0.00     0.135 A 
ATOM     21  H   UNL A   1      32.631  18.496  22.918  1.00  0.00     0.169 HD
ATOM     22  Cl  UNL A   1      31.828  21.001  21.840  1.00  0.00    -0.062 Cl
BRANCH  17  23
ATOM     23  C   UNL A   1      32.888  17.719  25.669  1.00  0.00     0.075 C 
BRANCH  23  24
ATOM     24  C   UNL A   1      33.011  16.472  24.789  1.00  0.00     0.008 C 
BRANCH  24  25
ATOM     25  C   UNL A   1      34.407  16.139  24.251  1.00  0.00    -0.003 C 
ATOM     26  C   UNL A   1      35.417  15.764  25.321  1.00  0.00     0.004 C 
ENDBRANCH  24  25
ENDBRANCH  23  24
ENDBRANCH  17  23
ENDBRANCH  15  16
ENDBRANCH   7  15
ENDBRANCH   3   6
ENDBRANCH   1   2
BRANCH   1  27
ATOM     27  C   UNL A   1      39.142  21.457  26.002  1.00  0.00     0.042 C 
BRANCH  27  28
ATOM     28  C   UNL A   1      40.221  22.377  26.549  1.00  0.00     0.118 C 
BRANCH  28  29
ATOM     29  N   UNL A   1      41.491  22.215  25.821  1.00  0.00    -0.352 N 
ATOM     30  C   UNL A   1      42.435  23.151  25.435  1.00  0.00     0.251 C 
ATOM     31  H   UNL A   1      41.704  21.288  25.569  1.00  0.00     0.163 HD
ATOM     32  O   UNL A   1      43.274  22.874  24.596  1.00  0.00    -0.269 OA
BRANCH  30  33
ATOM     33  C   UNL A   1      42.406  24.482  26.064  1.00  0.00     0.039 A 
ATOM     34  C   UNL A   1      41.763  25.577  25.476  1.00  0.00     0.014 A 
ATOM     35  C   UNL A   1      43.023  24.604  27.300  1.00  0.00     0.014 A 
ATOM     36  C   UNL A   1      41.704  26.774  26.187  1.00  0.00     0.010 A 
ATOM     37  C   UNL A   1      42.733  25.670  28.091  1.00  0.00     0.010 A 
ATOM     38  C   UNL A   1      42.190  26.799  27.501  1.00  0.00    -0.014 A 
BRANCH  38  39
ATOM     39  C   UNL A   1      42.068  27.954  28.373  1.00  0.00     0.031 A 
ATOM     40  C   UNL A   1      43.169  28.930  28.185  1.00  0.00     0.074 A 
ATOM     41  C   UNL A   1      40.902  28.237  29.000  1.00  0.00     0.049 A 
ATOM     42  N   UNL A   1      44.176  29.144  28.964  1.00  0.00    -0.248 NA
ATOM     43  C   UNL A   1      43.299  29.573  26.861  1.00  0.00     0.031 C 
ATOM     44  C   UNL A   1      39.625  27.508  28.915  1.00  0.00     0.029 A 
ATOM     45  N   UNL A   1      40.560  29.319  29.742  1.00  0.00    -0.354 N 
ATOM     46  C   UNL A   1      44.893  30.168  28.354  1.00  0.00     0.074 A 
ATOM     47  C   UNL A   1      44.495  30.153  26.972  1.00  0.00     0.031 C 
ATOM     48  C   UNL A   1      38.620  28.296  29.361  1.00  0.00     0.029 A 
ATOM     49  C   UNL A   1      39.190  29.513  29.910  1.00  0.00     0.049 A 
ATOM     50  H   UNL A   1      41.232  29.925  30.133  1.00  0.00     0.167 HD
ATOM     51  C   UNL A   1      45.458  31.168  29.092  1.00  0.00     0.031 A 
ATOM     52  C   UNL A   1      38.579  30.615  30.423  1.00  0.00     0.031 A 
ATOM     53  C   UNL A   1      45.458  30.831  30.497  1.00  0.00     0.049 A 
ATOM     54  C   UNL A   1      39.625  31.379  31.151  1.00  0.00     0.074 A 
ATOM     55  C   UNL A   1      45.957  29.785  31.249  1.00  0.00     0.029 A 
ATOM     56  N   UNL A   1      44.480  31.423  31.268  1.00  0.00    -0.354 N 
ATOM     57  N   UNL A   1      40.231  30.928  32.215  1.00  0.00    -0.248 NA
ATOM     58  C   UNL A   1      40.347  32.402  30.410  1.00  0.00     0.031 C 
ATOM     59  C   UNL A   1      44.944  29.512  32.216  1.00  0.00     0.029 A 
ATOM     60  C   UNL A   1      43.932  30.464  32.079  1.00  0.00     0.049 A 
ATOM     61  H   UNL A   1      44.219  32.371  31.239  1.00  0.00     0.167 HD
ATOM     62  C   UNL A   1      41.566  31.265  32.032  1.00  0.00     0.074 A 
ATOM     63  C   UNL A   1      41.562  32.249  30.947  1.00  0.00     0.031 C 
ATOM     64  C   UNL A   1      42.565  30.495  32.561  1.00  0.00     0.031 A 
BRANCH  51  65
ATOM     65  C   UNL A   1      45.559  32.607  28.623  1.00  0.00    -0.014 A 
ATOM     66  C   UNL A   1      46.807  33.256  28.730  1.00  0.00     0.010 A 
ATOM     67  C   UNL A   1      44.447  33.427  28.341  1.00  0.00     0.010 A 
ATOM     68  C   UNL A   1      46.915  34.651  28.661  1.00  0.00     0.020 A 
ATOM     69  C   UNL A   1      44.548  34.814  28.227  1.00  0.00     0.020 A 
ATOM     70  C   UNL A   1      45.778  35.421  28.426  1.00  0.00     0.054 A 
BRANCH  70  71
ATOM     71  S   UNL A   1      45.905  37.224  28.435  1.00  0.00     0.124 S 
ATOM     72  O   UNL A   1      46.489  37.487  27.125  1.00  0.00    -0.237 OA
ATOM     73  O   UNL A   1      44.513  37.627  28.607  1.00  0.00    -0.237 OA
ATOM     74  O   UNL A   1      46.773  37.497  29.578  1.00  0.00    -0.744 OA
ENDBRANCH  70  71
ENDBRANCH  51  65
BRANCH  52  75
ATOM     75  C   UNL A   1      37.263  31.216  30.063  1.00  0.00    -0.014 A 
ATOM     76  C   UNL A   1      36.401  31.735  31.050  1.00  0.00     0.010 A 
ATOM     77  C   UNL A   1      36.979  31.545  28.721  1.00  0.00     0.010 A 
ATOM     78  C   UNL A   1      35.343  32.603  30.714  1.00  0.00     0.020 A 
ATOM     79  C   UNL A   1      35.924  32.404  28.378  1.00  0.00     0.020 A 
ATOM     80  C   UNL A   1      35.125  32.951  29.380  1.00  0.00     0.054 A 
BRANCH  80  81
ATOM     81  S   UNL A   1      33.884  34.218  28.968  1.00  0.00     0.124 S 
ATOM     82  O   UNL A   1      33.307  34.527  30.273  1.00  0.00    -0.237 OA
ATOM     83  O   UNL A   1      34.693  35.276  28.370  1.00  0.00    -0.237 OA
ATOM     84  O   UNL A   1      32.985  33.532  28.041  1.00  0.00    -0.744 OA
ENDBRANCH  80  81
ENDBRANCH  52  75
BRANCH  64  85
ATOM     85  C   UNL A   1      42.205  29.454  33.598  1.00  0.00    -0.014 A 
ATOM     86  C   UNL A   1      41.756  28.150  33.305  1.00  0.00     0.010 A 
ATOM     87  C   UNL A   1      42.486  29.777  34.937  1.00  0.00     0.010 A 
ATOM     88  C   UNL A   1      41.568  27.210  34.332  1.00  0.00     0.020 A 
ATOM     89  C   UNL A   1      42.322  28.842  35.959  1.00  0.00     0.020 A 
ATOM     90  C   UNL A   1      41.851  27.565  35.654  1.00  0.00     0.054 A 
BRANCH  90  91
ATOM     91  S   UNL A   1      41.633  26.348  36.983  1.00  0.00     0.124 S 
ATOM     92  O   UNL A   1      41.569  25.086  36.251  1.00  0.00    -0.237 OA
ATOM     93  O   UNL A   1      42.828  26.540  37.802  1.00  0.00    -0.237 OA
ATOM     94  O   UNL A   1      40.383  26.753  37.626  1.00  0.00    -0.744 OA
ENDBRANCH  90  91
ENDBRANCH  64  85
ENDBRANCH  38  39
ENDBRANCH  30  33
ENDBRANCH  28  29
ENDBRANCH  27  28
ENDBRANCH   1  27
TORSDOF 18
ENDMDL
MODEL 3
REMARK VINA RESULT:     -10.2      2.862      9.600
REMARK SMILES CCCCc1nc(C[N@H+]2CC[NH2+][C@H](C(=O)NCCCNC(=O)c3ccc(-c4c5nc(c(-c6ccc(S(=O)(=O)[O-])cc6)c6ccc([nH]6)c(-c6ccc(S(=O)(=O)[O-])cc6)c6nc(c(-c7ccc(S(=O)(=O)[O-])cc7)c7ccc4[nH]7)C=C6)C=C5)cc3)C2)c(Cl)[nH]1
REMARK SMILES IDX 17 1 16 2 14 3 15 4 13 6 9 7 10 8 83 9 11 11 12 12 8 15 7 16
REMARK SMILES IDX 5 17 6 18 86 19 84 20 85 22 4 23 3 24 2 25 1 26 18 27 19 28
REMARK SMILES IDX 20 29 21 30 22 32 23 33 24 34 82 35 25 36 81 37 26 38 27 39
REMARK SMILES IDX 28 40 75 41 29 42 80 43 74 44 76 45 30 46 79 47 73 48 72 49
REMARK SMILES IDX 31 51 61 52 42 53 60 54 43 55 46 56 59 57 77 58 44 59 45 60
REMARK SMILES IDX 58 62 78 63 47 64 32 65 33 66 41 67 34 68 40 69 35 70 36 71
REMARK SMILES IDX 37 72 38 73 39 74 62 75 63 76 71 77 64 78 70 79 65 80 66 81
REMARK SMILES IDX 67 82 68 83 69 84 48 85 49 86 57 87 50 88 56 89 51 90 52 91
REMARK SMILES IDX 53 92 54 93 55 94
REMARK H PARENT 16 5 9 10 12 13 12 14 86 21 20 31 76 50 46 61
REMARK Flexibility Score: inf
ROOT
ATOM      1  C   UNL A   1      37.642  22.266  25.608  1.00  0.00     0.118 C 
ENDROOT
BRANCH   1   2
ATOM      2  N   UNL A   1      37.336  22.300  24.190  1.00  0.00    -0.351 N 
ATOM      3  C   UNL A   1      36.228  22.793  23.552  1.00  0.00     0.284 C 
ATOM      4  O   UNL A   1      36.310  22.951  22.331  1.00  0.00    -0.268 OA
ATOM      5  H   UNL A   1      38.024  21.912  23.601  1.00  0.00     0.163 HD
BRANCH   3   6
ATOM      6  C   UNL A   1      34.907  23.005  24.317  1.00  0.00     0.328 C 
ATOM      7  N   UNL A   1      33.483  24.852  25.432  1.00  0.00    -0.320 N 
ATOM      8  C   UNL A   1      33.241  23.885  26.509  1.00  0.00     0.324 C 
ATOM      9  C   UNL A   1      34.682  24.515  24.624  1.00  0.00     0.339 C 
ATOM     10  H   UNL A   1      33.700  25.726  25.912  1.00  0.00     0.348 HD
ATOM     11  C   UNL A   1      33.502  22.404  26.161  1.00  0.00     0.323 C 
ATOM     12  N   UNL A   1      34.829  22.201  25.571  1.00  0.00    -0.327 N 
ATOM     13  H   UNL A   1      34.965  21.214  25.356  1.00  0.00     0.347 HD
ATOM     14  H   UNL A   1      35.556  22.495  26.223  1.00  0.00     0.347 HD
BRANCH   7  15
ATOM     15  C   UNL A   1      32.297  25.200  24.625  1.00  0.00     0.323 C 
BRANCH  15  16
ATOM     16  C   UNL A   1      32.028  26.662  24.527  1.00  0.00     0.132 A 
ATOM     17  C   UNL A   1      31.108  28.444  23.704  1.00  0.00     0.107 A 
ATOM     18  N   UNL A   1      31.426  27.197  23.406  1.00  0.00    -0.231 NA
ATOM     19  N   UNL A   1      31.655  28.787  24.917  1.00  0.00    -0.333 N 
ATOM     20  C   UNL A   1      32.224  27.666  25.439  1.00  0.00     0.135 A 
ATOM     21  H   UNL A   1      31.639  29.679  25.332  1.00  0.00     0.169 HD
ATOM     22  Cl  UNL A   1      32.862  27.730  27.003  1.00  0.00    -0.062 Cl
BRANCH  17  23
ATOM     23  C   UNL A   1      30.200  29.298  22.878  1.00  0.00     0.075 C 
BRANCH  23  24
ATOM     24  C   UNL A   1      28.756  28.812  22.726  1.00  0.00     0.008 C 
BRANCH  24  25
ATOM     25  C   UNL A   1      27.654  29.872  22.828  1.00  0.00    -0.003 C 
ATOM     26  C   UNL A   1      27.921  31.133  22.026  1.00  0.00     0.004 C 
ENDBRANCH  24  25
ENDBRANCH  23  24
ENDBRANCH  17  23
ENDBRANCH  15  16
ENDBRANCH   7  15
ENDBRANCH   3   6
ENDBRANCH   1   2
BRANCH   1  27
ATOM     27  C   UNL A   1      38.888  21.454  25.967  1.00  0.00     0.042 C 
BRANCH  27  28
ATOM     28  C   UNL A   1      39.969  22.348  26.552  1.00  0.00     0.118 C 
BRANCH  28  29
ATOM     29  N   UNL A   1      41.265  22.141  25.882  1.00  0.00    -0.352 N 
ATOM     30  C   UNL A   1      42.250  23.044  25.525  1.00  0.00     0.251 C 
ATOM     31  H   UNL A   1      41.462  21.204  25.652  1.00  0.00     0.163 HD
ATOM     32  O   UNL A   1      43.117  22.731  24.727  1.00  0.00    -0.269 OA
BRANCH  30  33
ATOM     33  C   UNL A   1      42.232  24.385  26.133  1.00  0.00     0.039 A 
ATOM     34  C   UNL A   1      41.565  25.466  25.545  1.00  0.00     0.014 A 
ATOM     35  C   UNL A   1      42.883  24.531  27.347  1.00  0.00     0.014 A 
ATOM     36  C   UNL A   1      41.519  26.675  26.239  1.00  0.00     0.010 A 
ATOM     37  C   UNL A   1      42.610  25.608  28.130  1.00  0.00     0.010 A 
ATOM     38  C   UNL A   1      42.043  26.724  27.537  1.00  0.00    -0.014 A 
BRANCH  38  39
ATOM     39  C   UNL A   1      41.939  27.893  28.394  1.00  0.00     0.031 A 
ATOM     40  C   UNL A   1      43.041  28.861  28.174  1.00  0.00     0.074 A 
ATOM     41  C   UNL A   1      40.784  28.189  29.035  1.00  0.00     0.049 A 
ATOM     42  N   UNL A   1      44.061  29.082  28.934  1.00  0.00    -0.248 NA
ATOM     43  C   UNL A   1      43.152  29.484  26.838  1.00  0.00     0.031 C 
ATOM     44  C   UNL A   1      39.503  27.465  28.980  1.00  0.00     0.029 A 
ATOM     45  N   UNL A   1      40.458  29.284  29.766  1.00  0.00    -0.354 N 
ATOM     46  C   UNL A   1      44.772  30.094  28.298  1.00  0.00     0.074 A 
ATOM     47  C   UNL A   1      44.352  30.060  26.922  1.00  0.00     0.031 C 
ATOM     48  C   UNL A   1      38.509  28.263  29.431  1.00  0.00     0.029 A 
ATOM     49  C   UNL A   1      39.092  29.485  29.953  1.00  0.00     0.049 A 
ATOM     50  H   UNL A   1      41.138  29.893  30.137  1.00  0.00     0.167 HD
ATOM     51  C   UNL A   1      45.352  31.102  29.011  1.00  0.00     0.031 A 
ATOM     52  C   UNL A   1      38.493  30.597  30.458  1.00  0.00     0.031 A 
ATOM     53  C   UNL A   1      45.373  30.787  30.421  1.00  0.00     0.049 A 
ATOM     54  C   UNL A   1      39.554  31.368  31.158  1.00  0.00     0.074 A 
ATOM     55  C   UNL A   1      45.880  29.750  31.180  1.00  0.00     0.029 A 
ATOM     56  N   UNL A   1      44.410  31.393  31.198  1.00  0.00    -0.354 N 
ATOM     57  N   UNL A   1      40.175  30.931  32.219  1.00  0.00    -0.248 NA
ATOM     58  C   UNL A   1      40.268  32.377  30.391  1.00  0.00     0.031 C 
ATOM     59  C   UNL A   1      44.881  29.495  32.167  1.00  0.00     0.029 A 
ATOM     60  C   UNL A   1      43.871  30.450  32.032  1.00  0.00     0.049 A 
ATOM     61  H   UNL A   1      44.153  32.342  31.160  1.00  0.00     0.167 HD
ATOM     62  C   UNL A   1      41.508  31.259  32.010  1.00  0.00     0.074 A 
ATOM     63  C   UNL A   1      41.490  32.227  30.911  1.00  0.00     0.031 C 
ATOM     64  C   UNL A   1      42.511  30.493  32.535  1.00  0.00     0.031 A 
BRANCH  51  65
ATOM     65  C   UNL A   1      45.452  32.534  28.520  1.00  0.00    -0.014 A 
ATOM     66  C   UNL A   1      46.584  33.289  28.891  1.00  0.00     0.010 A 
ATOM     67  C   UNL A   1      44.380  33.250  27.948  1.00  0.00     0.010 A 
ATOM     68  C   UNL A   1      46.598  34.686  28.791  1.00  0.00     0.020 A 
ATOM     69  C   UNL A   1      44.398  34.638  27.803  1.00  0.00     0.020 A 
ATOM     70  C   UNL A   1      45.494  35.352  28.262  1.00  0.00     0.054 A 
BRANCH  70  71
ATOM     71  S   UNL A   1      45.476  37.158  28.225  1.00  0.00     0.124 S 
ATOM     72  O   UNL A   1      46.328  37.440  27.075  1.00  0.00    -0.237 OA
ATOM     73  O   UNL A   1      44.056  37.446  28.053  1.00  0.00    -0.237 OA
ATOM     74  O   UNL A   1      46.030  37.530  29.525  1.00  0.00    -0.744 OA
ENDBRANCH  70  71
ENDBRANCH  51  65
BRANCH  52  75
ATOM     75  C   UNL A   1      37.174  31.198  30.110  1.00  0.00    -0.014 A 
ATOM     76  C   UNL A   1      36.376  31.828  31.087  1.00  0.00     0.010 A 
ATOM     77  C   UNL A   1      36.828  31.412  28.759  1.00  0.00     0.010 A 
ATOM     78  C   UNL A   1      35.321  32.690  30.726  1.00  0.00     0.020 A 
ATOM     79  C   UNL A   1      35.776  32.265  28.392  1.00  0.00     0.020 A 
ATOM     80  C   UNL A   1      35.042  32.922  29.378  1.00  0.00     0.054 A 
BRANCH  80  81
ATOM     81  S   UNL A   1      33.810  34.179  28.913  1.00  0.00     0.124 S 
ATOM     82  O   UNL A   1      32.942  33.443  27.998  1.00  0.00    -0.237 OA
ATOM     83  O   UNL A   1      33.215  34.534  30.199  1.00  0.00    -0.237 OA
ATOM     84  O   UNL A   1      34.610  35.234  28.293  1.00  0.00    -0.744 OA
ENDBRANCH  80  81
ENDBRANCH  52  75
BRANCH  64  85
ATOM     85  C   UNL A   1      42.164  29.470  33.594  1.00  0.00    -0.014 A 
ATOM     86  C   UNL A   1      41.598  28.205  33.331  1.00  0.00     0.010 A 
ATOM     87  C   UNL A   1      42.578  29.756  34.905  1.00  0.00     0.010 A 
ATOM     88  C   UNL A   1      41.428  27.268  34.366  1.00  0.00     0.020 A 
ATOM     89  C   UNL A   1      42.431  28.823  35.932  1.00  0.00     0.020 A 
ATOM     90  C   UNL A   1      41.846  27.588  35.662  1.00  0.00     0.054 A 
BRANCH  90  91
ATOM     91  S   UNL A   1      41.650  26.374  36.997  1.00  0.00     0.124 S 
ATOM     92  O   UNL A   1      40.397  26.787  37.622  1.00  0.00    -0.237 OA
ATOM     93  O   UNL A   1      41.607  25.102  36.280  1.00  0.00    -0.237 OA
ATOM     94  O   UNL A   1      42.843  26.568  37.822  1.00  0.00    -0.744 OA
ENDBRANCH  90  91
ENDBRANCH  64  85
ENDBRANCH  38  39
ENDBRANCH  30  33
ENDBRANCH  28  29
ENDBRANCH  27  28
ENDBRANCH   1  27
TORSDOF 18
ENDMDL
