MODEL 1
REMARK VINA RESULT:      -9.5      0.000      0.000
REMARK SMILES Cc1ccc([C@H](C)Nc2ccc(C(=O)NCCCNC(=O)c3ccc(-c4c5nc(c(-c6ccc(S(=O)(=O)[O-])cc6)c6ccc([nH]6)c(-c6ccc(S(=O)(=O)[O-])cc6)c6nc(c(-c7ccc(S(=O)(=O)[O-])cc7)c7ccc4[nH]7)C=C6)C=C5)cc3)cc2Cl)cc1F
REMARK SMILES IDX 17 1 16 2 15 3 13 4 14 5 12 7 9 8 10 9 83 10 11 11 82 12
REMARK SMILES IDX 84 13 8 14 6 16 7 17 5 18 1 19 2 20 3 21 86 22 4 23 85 24
REMARK SMILES IDX 87 25 18 26 19 27 20 28 21 30 22 31 23 32 81 33 24 34 80 35
REMARK SMILES IDX 25 36 26 37 27 38 74 39 28 40 79 41 73 42 75 43 29 44 78 45
REMARK SMILES IDX 72 46 71 47 30 49 60 50 41 51 59 52 42 53 45 54 58 55 76 56
REMARK SMILES IDX 43 57 44 58 57 60 77 61 46 62 31 63 32 64 40 65 33 66 39 67
REMARK SMILES IDX 34 68 35 69 36 70 37 71 38 72 61 73 62 74 70 75 63 76 69 77
REMARK SMILES IDX 64 78 65 79 66 80 67 81 68 82 47 83 48 84 56 85 49 86 55 87
REMARK SMILES IDX 50 88 51 89 52 90 53 91 54 92
REMARK H PARENT 15 6 8 15 19 29 75 48 45 59
REMARK Flexibility Score: inf
ROOT
ATOM      1  C   UNL A   1      40.942  20.055  26.307  1.00  0.00     0.042 C 
ENDROOT
BRANCH   1   2
ATOM      2  C   UNL A   1      42.363  19.698  26.752  1.00  0.00     0.118 C 
BRANCH   2   3
ATOM      3  N   UNL A   1      43.274  19.650  25.623  1.00  0.00    -0.352 N 
ATOM      4  C   UNL A   1      44.050  20.597  25.004  1.00  0.00     0.251 C 
ATOM      5  O   UNL A   1      44.767  20.215  24.076  1.00  0.00    -0.269 OA
ATOM      6  H   UNL A   1      43.351  18.755  25.219  1.00  0.00     0.163 HD
BRANCH   4   7
ATOM      7  C   UNL A   1      44.107  22.032  25.411  1.00  0.00     0.041 A 
ATOM      8  C   UNL A   1      44.162  24.833  26.034  1.00  0.00     0.053 A 
ATOM      9  C   UNL A   1      43.436  24.323  24.941  1.00  0.00     0.028 A 
ATOM     10  C   UNL A   1      44.885  23.893  26.788  1.00  0.00     0.065 A 
ATOM     11  C   UNL A   1      43.425  22.958  24.619  1.00  0.00     0.016 A 
ATOM     12  C   UNL A   1      44.784  22.518  26.522  1.00  0.00     0.036 A 
ATOM     13  Cl  UNL A   1      45.928  24.267  28.120  1.00  0.00    -0.082 Cl
BRANCH   8  14
ATOM     14  N   UNL A   1      44.100  26.200  26.220  1.00  0.00    -0.377 N 
ATOM     15  H   UNL A   1      43.197  26.580  26.312  1.00  0.00     0.161 HD
BRANCH  14  16
ATOM     16  C   UNL A   1      45.200  27.153  26.296  1.00  0.00     0.106 C 
ATOM     17  C   UNL A   1      45.655  27.401  24.848  1.00  0.00     0.036 C 
BRANCH  16  18
ATOM     18  C   UNL A   1      44.782  28.392  27.087  1.00  0.00    -0.023 A 
ATOM     19  C   UNL A   1      44.077  32.315  28.807  1.00  0.00     0.047 C 
ATOM     20  C   UNL A   1      44.269  30.932  28.270  1.00  0.00    -0.015 A 
ATOM     21  C   UNL A   1      43.304  30.306  27.477  1.00  0.00     0.007 A 
ATOM     22  C   UNL A   1      45.463  30.260  28.504  1.00  0.00     0.126 A 
ATOM     23  C   UNL A   1      43.559  29.054  26.891  1.00  0.00     0.006 A 
ATOM     24  C   UNL A   1      45.706  29.008  27.951  1.00  0.00     0.045 A 
ATOM     25  F   UNL A   1      46.420  30.835  29.247  1.00  0.00    -0.207 F 
ENDBRANCH  16  18
ENDBRANCH  14  16
ENDBRANCH   8  14
ENDBRANCH   4   7
ENDBRANCH   2   3
ENDBRANCH   1   2
BRANCH   1  26
ATOM     26  C   UNL A   1      40.588  21.512  26.585  1.00  0.00     0.118 C 
BRANCH  26  27
ATOM     27  N   UNL A   1      39.439  21.936  25.797  1.00  0.00    -0.352 N 
ATOM     28  C   UNL A   1      38.688  23.081  25.879  1.00  0.00     0.251 C 
ATOM     29  H   UNL A   1      39.158  21.304  25.098  1.00  0.00     0.163 HD
ATOM     30  O   UNL A   1      37.615  23.133  25.286  1.00  0.00    -0.269 OA
BRANCH  28  31
ATOM     31  C   UNL A   1      39.156  24.239  26.671  1.00  0.00     0.039 A 
ATOM     32  C   UNL A   1      40.013  25.163  26.064  1.00  0.00     0.014 A 
ATOM     33  C   UNL A   1      38.808  24.386  28.015  1.00  0.00     0.014 A 
ATOM     34  C   UNL A   1      40.487  26.254  26.795  1.00  0.00     0.010 A 
ATOM     35  C   UNL A   1      39.224  25.512  28.722  1.00  0.00     0.010 A 
ATOM     36  C   UNL A   1      40.078  26.449  28.123  1.00  0.00    -0.014 A 
BRANCH  36  37
ATOM     37  C   UNL A   1      40.543  27.621  28.907  1.00  0.00     0.031 A 
ATOM     38  C   UNL A   1      41.886  27.593  29.584  1.00  0.00     0.074 A 
ATOM     39  C   UNL A   1      39.729  28.684  29.057  1.00  0.00     0.049 A 
ATOM     40  N   UNL A   1      42.436  28.489  30.364  1.00  0.00    -0.248 NA
ATOM     41  C   UNL A   1      42.709  26.390  29.381  1.00  0.00     0.031 C 
ATOM     42  C   UNL A   1      38.389  28.813  28.477  1.00  0.00     0.029 A 
ATOM     43  N   UNL A   1      39.905  29.855  29.750  1.00  0.00    -0.354 N 
ATOM     44  C   UNL A   1      43.656  27.950  30.759  1.00  0.00     0.074 A 
ATOM     45  C   UNL A   1      43.745  26.632  30.170  1.00  0.00     0.031 C 
ATOM     46  C   UNL A   1      37.877  30.006  28.818  1.00  0.00     0.029 A 
ATOM     47  C   UNL A   1      38.829  30.708  29.674  1.00  0.00     0.049 A 
ATOM     48  H   UNL A   1      40.724  30.064  30.254  1.00  0.00     0.167 HD
ATOM     49  C   UNL A   1      44.621  28.510  31.526  1.00  0.00     0.031 A 
ATOM     50  C   UNL A   1      38.628  31.916  30.234  1.00  0.00     0.031 A 
ATOM     51  C   UNL A   1      44.530  29.827  32.099  1.00  0.00     0.049 A 
ATOM     52  C   UNL A   1      39.712  32.514  31.088  1.00  0.00     0.074 A 
ATOM     53  C   UNL A   1      45.475  30.508  32.847  1.00  0.00     0.029 A 
ATOM     54  N   UNL A   1      43.429  30.663  31.989  1.00  0.00    -0.354 N 
ATOM     55  N   UNL A   1      40.884  32.015  31.401  1.00  0.00    -0.248 NA
ATOM     56  C   UNL A   1      39.450  33.844  31.655  1.00  0.00     0.031 C 
ATOM     57  C   UNL A   1      44.925  31.736  33.230  1.00  0.00     0.029 A 
ATOM     58  C   UNL A   1      43.661  31.844  32.673  1.00  0.00     0.049 A 
ATOM     59  H   UNL A   1      42.604  30.449  31.496  1.00  0.00     0.167 HD
ATOM     60  C   UNL A   1      41.510  32.980  32.181  1.00  0.00     0.074 A 
ATOM     61  C   UNL A   1      40.593  34.097  32.279  1.00  0.00     0.031 C 
ATOM     62  C   UNL A   1      42.734  32.945  32.762  1.00  0.00     0.031 A 
BRANCH  49  63
ATOM     63  C   UNL A   1      45.856  27.691  31.797  1.00  0.00    -0.014 A 
ATOM     64  C   UNL A   1      45.969  26.906  32.960  1.00  0.00     0.010 A 
ATOM     65  C   UNL A   1      46.910  27.681  30.864  1.00  0.00     0.010 A 
ATOM     66  C   UNL A   1      47.129  26.167  33.208  1.00  0.00     0.020 A 
ATOM     67  C   UNL A   1      48.060  26.921  31.093  1.00  0.00     0.020 A 
ATOM     68  C   UNL A   1      48.171  26.184  32.274  1.00  0.00     0.054 A 
BRANCH  68  69
ATOM     69  S   UNL A   1      49.661  25.208  32.617  1.00  0.00     0.124 S 
ATOM     70  O   UNL A   1      49.120  24.101  33.403  1.00  0.00    -0.237 OA
ATOM     71  O   UNL A   1      50.131  24.857  31.279  1.00  0.00    -0.237 OA
ATOM     72  O   UNL A   1      50.520  26.133  33.353  1.00  0.00    -0.744 OA
ENDBRANCH  68  69
ENDBRANCH  49  63
BRANCH  50  73
ATOM     73  C   UNL A   1      37.355  32.644  29.987  1.00  0.00    -0.014 A 
ATOM     74  C   UNL A   1      36.262  32.482  30.856  1.00  0.00     0.010 A 
ATOM     75  C   UNL A   1      37.236  33.525  28.896  1.00  0.00     0.010 A 
ATOM     76  C   UNL A   1      35.068  33.174  30.630  1.00  0.00     0.020 A 
ATOM     77  C   UNL A   1      36.054  34.240  28.683  1.00  0.00     0.020 A 
ATOM     78  C   UNL A   1      34.972  34.051  29.547  1.00  0.00     0.054 A 
BRANCH  78  79
ATOM     79  S   UNL A   1      33.433  34.980  29.307  1.00  0.00     0.124 S 
ATOM     80  O   UNL A   1      32.705  34.125  28.373  1.00  0.00    -0.237 OA
ATOM     81  O   UNL A   1      32.889  35.045  30.661  1.00  0.00    -0.237 OA
ATOM     82  O   UNL A   1      33.886  36.258  28.763  1.00  0.00    -0.744 OA
ENDBRANCH  78  79
ENDBRANCH  50  73
BRANCH  62  83
ATOM     83  C   UNL A   1      43.168  34.163  33.533  1.00  0.00    -0.014 A 
ATOM     84  C   UNL A   1      43.541  35.348  32.875  1.00  0.00     0.010 A 
ATOM     85  C   UNL A   1      43.151  34.135  34.940  1.00  0.00     0.010 A 
ATOM     86  C   UNL A   1      43.917  36.475  33.610  1.00  0.00     0.020 A 
ATOM     87  C   UNL A   1      43.500  35.269  35.678  1.00  0.00     0.020 A 
ATOM     88  C   UNL A   1      43.894  36.428  35.007  1.00  0.00     0.054 A 
BRANCH  88  89
ATOM     89  S   UNL A   1      44.343  37.918  35.940  1.00  0.00     0.124 S 
ATOM     90  O   UNL A   1      43.355  37.913  37.014  1.00  0.00    -0.237 OA
ATOM     91  O   UNL A   1      45.718  37.638  36.349  1.00  0.00    -0.237 OA
ATOM     92  O   UNL A   1      44.198  38.995  34.963  1.00  0.00    -0.744 OA
ENDBRANCH  88  89
ENDBRANCH  62  83
ENDBRANCH  36  37
ENDBRANCH  28  31
ENDBRANCH  26  27
ENDBRANCH   1  26
TORSDOF 16
ENDMDL
MODEL 2
REMARK VINA RESULT:      -9.4      4.344      6.722
REMARK SMILES Cc1ccc([C@H](C)Nc2ccc(C(=O)NCCCNC(=O)c3ccc(-c4c5nc(c(-c6ccc(S(=O)(=O)[O-])cc6)c6ccc([nH]6)c(-c6ccc(S(=O)(=O)[O-])cc6)c6nc(c(-c7ccc(S(=O)(=O)[O-])cc7)c7ccc4[nH]7)C=C6)C=C5)cc3)cc2Cl)cc1F
REMARK SMILES IDX 17 1 16 2 15 3 13 4 14 5 12 7 9 8 10 9 83 10 11 11 82 12
REMARK SMILES IDX 84 13 8 14 6 16 7 17 5 18 1 19 2 20 3 21 86 22 4 23 85 24
REMARK SMILES IDX 87 25 18 26 19 27 20 28 21 30 22 31 23 32 81 33 24 34 80 35
REMARK SMILES IDX 25 36 26 37 27 38 74 39 28 40 79 41 73 42 75 43 29 44 78 45
REMARK SMILES IDX 72 46 71 47 30 49 60 50 41 51 59 52 42 53 45 54 58 55 76 56
REMARK SMILES IDX 43 57 44 58 57 60 77 61 46 62 31 63 32 64 40 65 33 66 39 67
REMARK SMILES IDX 34 68 35 69 36 70 37 71 38 72 61 73 62 74 70 75 63 76 69 77
REMARK SMILES IDX 64 78 65 79 66 80 67 81 68 82 47 83 48 84 56 85 49 86 55 87
REMARK SMILES IDX 50 88 51 89 52 90 53 91 54 92
REMARK H PARENT 15 6 8 15 19 29 75 48 45 59
REMARK Flexibility Score: inf
ROOT
ATOM      1  C   UNL A   1      35.113  23.291  25.812  1.00  0.00     0.042 C 
ENDROOT
BRANCH   1   2
ATOM      2  C   UNL A   1      34.757  22.329  24.677  1.00  0.00     0.118 C 
BRANCH   2   3
ATOM      3  N   UNL A   1      33.582  21.540  25.001  1.00  0.00    -0.352 N 
ATOM      4  C   UNL A   1      32.245  21.836  25.075  1.00  0.00     0.251 C 
ATOM      5  O   UNL A   1      31.478  20.907  25.338  1.00  0.00    -0.269 OA
ATOM      6  H   UNL A   1      33.787  20.600  25.210  1.00  0.00     0.163 HD
BRANCH   4   7
ATOM      7  C   UNL A   1      31.670  23.190  24.817  1.00  0.00     0.041 A 
ATOM      8  C   UNL A   1      30.584  25.761  24.149  1.00  0.00     0.053 A 
ATOM      9  C   UNL A   1      30.662  24.714  23.210  1.00  0.00     0.028 A 
ATOM     10  C   UNL A   1      31.097  25.483  25.427  1.00  0.00     0.065 A 
ATOM     11  C   UNL A   1      31.213  23.464  23.525  1.00  0.00     0.016 A 
ATOM     12  C   UNL A   1      31.549  24.198  25.764  1.00  0.00     0.036 A 
ATOM     13  Cl  UNL A   1      31.206  26.620  26.731  1.00  0.00    -0.082 Cl
BRANCH   8  14
ATOM     14  N   UNL A   1      30.038  26.946  23.694  1.00  0.00    -0.377 N 
ATOM     15  H   UNL A   1      29.072  27.058  23.846  1.00  0.00     0.161 HD
BRANCH  14  16
ATOM     16  C   UNL A   1      30.709  28.049  23.020  1.00  0.00     0.106 C 
ATOM     17  C   UNL A   1      29.596  28.932  22.430  1.00  0.00     0.036 C 
BRANCH  16  18
ATOM     18  C   UNL A   1      31.681  28.747  23.970  1.00  0.00    -0.023 A 
ATOM     19  C   UNL A   1      34.089  30.267  27.247  1.00  0.00     0.047 C 
ATOM     20  C   UNL A   1      33.301  29.792  26.068  1.00  0.00    -0.015 A 
ATOM     21  C   UNL A   1      33.827  28.887  25.142  1.00  0.00     0.007 A 
ATOM     22  C   UNL A   1      31.983  30.204  25.906  1.00  0.00     0.126 A 
ATOM     23  C   UNL A   1      33.027  28.369  24.110  1.00  0.00     0.006 A 
ATOM     24  C   UNL A   1      31.198  29.717  24.868  1.00  0.00     0.045 A 
ATOM     25  F   UNL A   1      31.438  31.060  26.782  1.00  0.00    -0.207 F 
ENDBRANCH  16  18
ENDBRANCH  14  16
ENDBRANCH   8  14
ENDBRANCH   4   7
ENDBRANCH   2   3
ENDBRANCH   1   2
BRANCH   1  26
ATOM     26  C   UNL A   1      36.507  23.891  25.660  1.00  0.00     0.118 C 
BRANCH  26  27
ATOM     27  N   UNL A   1      37.539  22.882  25.848  1.00  0.00    -0.352 N 
ATOM     28  C   UNL A   1      38.830  23.014  26.293  1.00  0.00     0.251 C 
ATOM     29  H   UNL A   1      37.271  21.963  25.619  1.00  0.00     0.163 HD
ATOM     30  O   UNL A   1      39.610  22.078  26.146  1.00  0.00    -0.269 OA
BRANCH  28  31
ATOM     31  C   UNL A   1      39.283  24.263  26.942  1.00  0.00     0.039 A 
ATOM     32  C   UNL A   1      40.020  25.181  26.187  1.00  0.00     0.014 A 
ATOM     33  C   UNL A   1      39.039  24.508  28.295  1.00  0.00     0.014 A 
ATOM     34  C   UNL A   1      40.477  26.360  26.780  1.00  0.00     0.010 A 
ATOM     35  C   UNL A   1      39.434  25.715  28.867  1.00  0.00     0.010 A 
ATOM     36  C   UNL A   1      40.169  26.646  28.118  1.00  0.00    -0.014 A 
BRANCH  36  37
ATOM     37  C   UNL A   1      40.616  27.909  28.758  1.00  0.00     0.031 A 
ATOM     38  C   UNL A   1      42.003  28.016  29.331  1.00  0.00     0.074 A 
ATOM     39  C   UNL A   1      39.751  28.936  28.874  1.00  0.00     0.049 A 
ATOM     40  N   UNL A   1      42.551  29.009  29.984  1.00  0.00    -0.248 NA
ATOM     41  C   UNL A   1      42.881  26.845  29.173  1.00  0.00     0.031 C 
ATOM     42  C   UNL A   1      38.369  28.938  28.388  1.00  0.00     0.029 A 
ATOM     43  N   UNL A   1      39.905  30.174  29.445  1.00  0.00    -0.354 N 
ATOM     44  C   UNL A   1      43.826  28.576  30.331  1.00  0.00     0.074 A 
ATOM     45  C   UNL A   1      43.953  27.216  29.857  1.00  0.00     0.031 C 
ATOM     46  C   UNL A   1      37.811  30.129  28.659  1.00  0.00     0.029 A 
ATOM     47  C   UNL A   1      38.777  30.957  29.375  1.00  0.00     0.049 A 
ATOM     48  H   UNL A   1      40.743  30.473  29.865  1.00  0.00     0.167 HD
ATOM     49  C   UNL A   1      44.807  29.256  30.971  1.00  0.00     0.031 A 
ATOM     50  C   UNL A   1      38.543  32.199  29.840  1.00  0.00     0.031 A 
ATOM     51  C   UNL A   1      44.677  30.613  31.430  1.00  0.00     0.049 A 
ATOM     52  C   UNL A   1      39.646  32.932  30.552  1.00  0.00     0.074 A 
ATOM     53  C   UNL A   1      45.630  31.411  32.041  1.00  0.00     0.029 A 
ATOM     54  N   UNL A   1      43.522  31.375  31.330  1.00  0.00    -0.354 N 
ATOM     55  N   UNL A   1      40.865  32.527  30.819  1.00  0.00    -0.248 NA
ATOM     56  C   UNL A   1      39.345  34.292  31.018  1.00  0.00     0.031 C 
ATOM     57  C   UNL A   1      45.035  32.638  32.354  1.00  0.00     0.029 A 
ATOM     58  C   UNL A   1      43.730  32.625  31.887  1.00  0.00     0.049 A 
ATOM     59  H   UNL A   1      42.679  31.072  30.922  1.00  0.00     0.167 HD
ATOM     60  C   UNL A   1      41.485  33.593  31.461  1.00  0.00     0.074 A 
ATOM     61  C   UNL A   1      40.511  34.664  31.528  1.00  0.00     0.031 C 
ATOM     62  C   UNL A   1      42.747  33.678  31.948  1.00  0.00     0.031 A 
BRANCH  49  63
ATOM     63  C   UNL A   1      46.106  28.533  31.219  1.00  0.00    -0.014 A 
ATOM     64  C   UNL A   1      47.191  28.661  30.332  1.00  0.00     0.010 A 
ATOM     65  C   UNL A   1      46.256  27.736  32.369  1.00  0.00     0.010 A 
ATOM     66  C   UNL A   1      48.382  27.968  30.565  1.00  0.00     0.020 A 
ATOM     67  C   UNL A   1      47.455  27.064  32.621  1.00  0.00     0.020 A 
ATOM     68  C   UNL A   1      48.505  27.169  31.706  1.00  0.00     0.054 A 
BRANCH  68  69
ATOM     69  S   UNL A   1      50.066  26.289  31.988  1.00  0.00     0.124 S 
ATOM     70  O   UNL A   1      50.674  26.323  30.659  1.00  0.00    -0.237 OA
ATOM     71  O   UNL A   1      50.722  27.113  33.000  1.00  0.00    -0.237 OA
ATOM     72  O   UNL A   1      49.642  24.967  32.444  1.00  0.00    -0.744 OA
ENDBRANCH  68  69
ENDBRANCH  49  63
BRANCH  50  73
ATOM     73  C   UNL A   1      37.213  32.832  29.626  1.00  0.00    -0.014 A 
ATOM     74  C   UNL A   1      36.347  33.051  30.711  1.00  0.00     0.010 A 
ATOM     75  C   UNL A   1      36.817  33.243  28.340  1.00  0.00     0.010 A 
ATOM     76  C   UNL A   1      35.102  33.655  30.513  1.00  0.00     0.020 A 
ATOM     77  C   UNL A   1      35.584  33.872  28.142  1.00  0.00     0.020 A 
ATOM     78  C   UNL A   1      34.729  34.064  29.230  1.00  0.00     0.054 A 
BRANCH  78  79
ATOM     79  S   UNL A   1      33.132  34.896  29.006  1.00  0.00     0.124 S 
ATOM     80  O   UNL A   1      32.557  34.813  30.345  1.00  0.00    -0.237 OA
ATOM     81  O   UNL A   1      33.530  36.232  28.570  1.00  0.00    -0.237 OA
ATOM     82  O   UNL A   1      32.466  34.088  27.987  1.00  0.00    -0.744 OA
ENDBRANCH  78  79
ENDBRANCH  50  73
BRANCH  62  83
ATOM     83  C   UNL A   1      43.160  34.985  32.573  1.00  0.00    -0.014 A 
ATOM     84  C   UNL A   1      43.691  36.029  31.796  1.00  0.00     0.010 A 
ATOM     85  C   UNL A   1      42.962  35.186  33.951  1.00  0.00     0.010 A 
ATOM     86  C   UNL A   1      44.045  37.242  32.392  1.00  0.00     0.020 A 
ATOM     87  C   UNL A   1      43.288  36.407  34.546  1.00  0.00     0.020 A 
ATOM     88  C   UNL A   1      43.841  37.423  33.764  1.00  0.00     0.054 A 
BRANCH  88  89
ATOM     89  S   UNL A   1      44.266  39.023  34.506  1.00  0.00     0.124 S 
ATOM     90  O   UNL A   1      45.634  39.222  34.036  1.00  0.00    -0.237 OA
ATOM     91  O   UNL A   1      43.267  39.919  33.931  1.00  0.00    -0.237 OA
ATOM     92  O   UNL A   1      44.129  38.786  35.942  1.00  0.00    -0.744 OA
ENDBRANCH  88  89
ENDBRANCH  62  83
ENDBRANCH  36  37
ENDBRANCH  28  31
ENDBRANCH  26  27
ENDBRANCH   1  26
TORSDOF 16
ENDMDL
MODEL 3
REMARK VINA RESULT:      -9.4      3.111     10.653
REMARK SMILES Cc1ccc([C@H](C)Nc2ccc(C(=O)NCCCNC(=O)c3ccc(-c4c5nc(c(-c6ccc(S(=O)(=O)[O-])cc6)c6ccc([nH]6)c(-c6ccc(S(=O)(=O)[O-])cc6)c6nc(c(-c7ccc(S(=O)(=O)[O-])cc7)c7ccc4[nH]7)C=C6)C=C5)cc3)cc2Cl)cc1F
REMARK SMILES IDX 17 1 16 2 15 3 13 4 14 5 12 7 9 8 10 9 83 10 11 11 82 12
REMARK SMILES IDX 84 13 8 14 6 16 7 17 5 18 1 19 2 20 3 21 86 22 4 23 85 24
REMARK SMILES IDX 87 25 18 26 19 27 20 28 21 30 22 31 23 32 81 33 24 34 80 35
REMARK SMILES IDX 25 36 26 37 27 38 74 39 28 40 79 41 73 42 75 43 29 44 78 45
REMARK SMILES IDX 72 46 71 47 30 49 60 50 41 51 59 52 42 53 45 54 58 55 76 56
REMARK SMILES IDX 43 57 44 58 57 60 77 61 46 62 31 63 32 64 40 65 33 66 39 67
REMARK SMILES IDX 34 68 35 69 36 70 37 71 38 72 61 73 62 74 70 75 63 76 69 77
REMARK SMILES IDX 64 78 65 79 66 80 67 81 68 82 47 83 48 84 56 85 49 86 55 87
REMARK SMILES IDX 50 88 51 89 52 90 53 91 54 92
REMARK H PARENT 15 6 8 15 19 29 75 48 45 59
REMARK Flexibility Score: inf
ROOT
ATOM      1  C   UNL A   1      34.821  32.961  29.911  1.00  0.00     0.042 C 
ENDROOT
BRANCH   1   2
ATOM      2  C   UNL A   1      36.142  33.676  30.206  1.00  0.00     0.118 C 
BRANCH   2   3
ATOM      3  N   UNL A   1      36.054  34.471  31.418  1.00  0.00    -0.352 N 
ATOM      4  C   UNL A   1      36.607  34.342  32.666  1.00  0.00     0.251 C 
ATOM      5  O   UNL A   1      36.366  35.235  33.481  1.00  0.00    -0.269 OA
ATOM      6  H   UNL A   1      35.480  35.266  31.324  1.00  0.00     0.163 HD
BRANCH   4   7
ATOM      7  C   UNL A   1      37.503  33.220  33.074  1.00  0.00     0.041 A 
ATOM      8  C   UNL A   1      39.362  31.174  33.844  1.00  0.00     0.053 A 
ATOM      9  C   UNL A   1      39.690  32.543  33.898  1.00  0.00     0.028 A 
ATOM     10  C   UNL A   1      38.080  30.865  33.362  1.00  0.00     0.065 A 
ATOM     11  C   UNL A   1      38.794  33.545  33.501  1.00  0.00     0.016 A 
ATOM     12  C   UNL A   1      37.152  31.877  33.068  1.00  0.00     0.036 A 
ATOM     13  Cl  UNL A   1      37.463  29.265  33.111  1.00  0.00    -0.082 Cl
BRANCH   8  14
ATOM     14  N   UNL A   1      40.351  30.296  34.245  1.00  0.00    -0.377 N 
ATOM     15  H   UNL A   1      40.064  29.367  34.394  1.00  0.00     0.161 HD
BRANCH  14  16
ATOM     16  C   UNL A   1      41.764  30.570  34.475  1.00  0.00     0.106 C 
ATOM     17  C   UNL A   1      41.897  30.918  35.967  1.00  0.00     0.036 C 
BRANCH  16  18
ATOM     18  C   UNL A   1      42.622  29.406  33.981  1.00  0.00    -0.023 A 
ATOM     19  C   UNL A   1      44.940  25.793  33.330  1.00  0.00     0.047 C 
ATOM     20  C   UNL A   1      44.158  27.060  33.477  1.00  0.00    -0.015 A 
ATOM     21  C   UNL A   1      42.880  27.208  32.931  1.00  0.00     0.007 A 
ATOM     22  C   UNL A   1      44.676  28.107  34.229  1.00  0.00     0.126 A 
ATOM     23  C   UNL A   1      42.122  28.364  33.183  1.00  0.00     0.006 A 
ATOM     24  C   UNL A   1      43.939  29.265  34.455  1.00  0.00     0.045 A 
ATOM     25  F   UNL A   1      45.892  27.997  34.783  1.00  0.00    -0.207 F 
ENDBRANCH  16  18
ENDBRANCH  14  16
ENDBRANCH   8  14
ENDBRANCH   4   7
ENDBRANCH   2   3
ENDBRANCH   1   2
BRANCH   1  26
ATOM     26  C   UNL A   1      34.550  32.819  28.417  1.00  0.00     0.118 C 
BRANCH  26  27
ATOM     27  N   UNL A   1      33.845  31.580  28.123  1.00  0.00    -0.352 N 
ATOM     28  C   UNL A   1      34.334  30.315  27.914  1.00  0.00     0.251 C 
ATOM     29  H   UNL A   1      32.866  31.661  28.064  1.00  0.00     0.163 HD
ATOM     30  O   UNL A   1      33.593  29.460  27.440  1.00  0.00    -0.269 OA
BRANCH  28  31
ATOM     31  C   UNL A   1      35.734  29.980  28.253  1.00  0.00     0.039 A 
ATOM     32  C   UNL A   1      36.704  30.062  27.248  1.00  0.00     0.014 A 
ATOM     33  C   UNL A   1      36.085  29.532  29.528  1.00  0.00     0.014 A 
ATOM     34  C   UNL A   1      38.030  29.731  27.535  1.00  0.00     0.010 A 
ATOM     35  C   UNL A   1      37.418  29.271  29.832  1.00  0.00     0.010 A 
ATOM     36  C   UNL A   1      38.401  29.355  28.835  1.00  0.00    -0.014 A 
BRANCH  36  37
ATOM     37  C   UNL A   1      39.812  29.033  29.169  1.00  0.00     0.031 A 
ATOM     38  C   UNL A   1      40.689  30.069  29.818  1.00  0.00     0.074 A 
ATOM     39  C   UNL A   1      40.316  27.830  28.833  1.00  0.00     0.049 A 
ATOM     40  N   UNL A   1      41.960  29.999  30.125  1.00  0.00    -0.248 NA
ATOM     41  C   UNL A   1      40.065  31.362  30.142  1.00  0.00     0.031 C 
ATOM     42  C   UNL A   1      39.572  26.756  28.169  1.00  0.00     0.029 A 
ATOM     43  N   UNL A   1      41.575  27.310  28.996  1.00  0.00    -0.354 N 
ATOM     44  C   UNL A   1      42.291  31.241  30.656  1.00  0.00     0.074 A 
ATOM     45  C   UNL A   1      41.100  32.059  30.588  1.00  0.00     0.031 C 
ATOM     46  C   UNL A   1      40.382  25.698  28.005  1.00  0.00     0.029 A 
ATOM     47  C   UNL A   1      41.711  26.032  28.510  1.00  0.00     0.049 A 
ATOM     48  H   UNL A   1      42.312  27.807  29.420  1.00  0.00     0.167 HD
ATOM     49  C   UNL A   1      43.473  31.656  31.170  1.00  0.00     0.031 A 
ATOM     50  C   UNL A   1      42.785  25.220  28.469  1.00  0.00     0.031 A 
ATOM     51  C   UNL A   1      44.650  30.832  31.244  1.00  0.00     0.049 A 
ATOM     52  C   UNL A   1      44.089  25.705  29.040  1.00  0.00     0.074 A 
ATOM     53  C   UNL A   1      45.882  31.138  31.795  1.00  0.00     0.029 A 
ATOM     54  N   UNL A   1      44.743  29.538  30.751  1.00  0.00    -0.354 N 
ATOM     55  N   UNL A   1      44.366  26.862  29.592  1.00  0.00    -0.248 NA
ATOM     56  C   UNL A   1      45.222  24.771  28.991  1.00  0.00     0.031 C 
ATOM     57  C   UNL A   1      46.735  30.048  31.591  1.00  0.00     0.029 A 
ATOM     58  C   UNL A   1      46.018  29.041  30.964  1.00  0.00     0.049 A 
ATOM     59  H   UNL A   1      44.011  29.046  30.314  1.00  0.00     0.167 HD
ATOM     60  C   UNL A   1      45.699  26.785  29.981  1.00  0.00     0.074 A 
ATOM     61  C   UNL A   1      46.166  25.464  29.613  1.00  0.00     0.031 C 
ATOM     62  C   UNL A   1      46.466  27.724  30.589  1.00  0.00     0.031 A 
BRANCH  49  63
ATOM     63  C   UNL A   1      43.550  33.070  31.684  1.00  0.00    -0.014 A 
ATOM     64  C   UNL A   1      43.941  34.130  30.844  1.00  0.00     0.010 A 
ATOM     65  C   UNL A   1      43.200  33.351  33.017  1.00  0.00     0.010 A 
ATOM     66  C   UNL A   1      44.028  35.433  31.339  1.00  0.00     0.020 A 
ATOM     67  C   UNL A   1      43.257  34.658  33.510  1.00  0.00     0.020 A 
ATOM     68  C   UNL A   1      43.690  35.688  32.673  1.00  0.00     0.054 A 
BRANCH  68  69
ATOM     69  S   UNL A   1      43.802  37.392  33.286  1.00  0.00     0.124 S 
ATOM     70  O   UNL A   1      42.646  37.467  34.176  1.00  0.00    -0.237 OA
ATOM     71  O   UNL A   1      45.105  37.411  33.947  1.00  0.00    -0.237 OA
ATOM     72  O   UNL A   1      43.710  38.204  32.075  1.00  0.00    -0.744 OA
ENDBRANCH  68  69
ENDBRANCH  49  63
BRANCH  50  73
ATOM     73  C   UNL A   1      42.662  23.859  27.882  1.00  0.00    -0.014 A 
ATOM     74  C   UNL A   1      42.427  22.746  28.708  1.00  0.00     0.010 A 
ATOM     75  C   UNL A   1      42.753  23.670  26.490  1.00  0.00     0.010 A 
ATOM     76  C   UNL A   1      42.301  21.468  28.155  1.00  0.00     0.020 A 
ATOM     77  C   UNL A   1      42.601  22.398  25.932  1.00  0.00     0.020 A 
ATOM     78  C   UNL A   1      42.387  21.302  26.771  1.00  0.00     0.054 A 
BRANCH  78  79
ATOM     79  S   UNL A   1      42.165  19.642  26.073  1.00  0.00     0.124 S 
ATOM     80  O   UNL A   1      40.747  19.646  25.725  1.00  0.00    -0.237 OA
ATOM     81  O   UNL A   1      43.094  19.646  24.945  1.00  0.00    -0.237 OA
ATOM     82  O   UNL A   1      42.538  18.756  27.174  1.00  0.00    -0.744 OA
ENDBRANCH  78  79
ENDBRANCH  50  73
BRANCH  62  83
ATOM     83  C   UNL A   1      47.884  27.346  30.923  1.00  0.00    -0.014 A 
ATOM     84  C   UNL A   1      48.208  26.738  32.148  1.00  0.00     0.010 A 
ATOM     85  C   UNL A   1      48.899  27.555  29.970  1.00  0.00     0.010 A 
ATOM     86  C   UNL A   1      49.528  26.373  32.428  1.00  0.00     0.020 A 
ATOM     87  C   UNL A   1      50.215  27.166  30.235  1.00  0.00     0.020 A 
ATOM     88  C   UNL A   1      50.522  26.590  31.469  1.00  0.00     0.054 A 
BRANCH  88  89
ATOM     89  S   UNL A   1      52.220  26.066  31.838  1.00  0.00     0.124 S 
ATOM     90  O   UNL A   1      52.561  26.919  32.973  1.00  0.00    -0.237 OA
ATOM     91  O   UNL A   1      52.059  24.647  32.144  1.00  0.00    -0.237 OA
ATOM     92  O   UNL A   1      52.946  26.352  30.602  1.00  0.00    -0.744 OA
ENDBRANCH  88  89
ENDBRANCH  62  83
ENDBRANCH  36  37
ENDBRANCH  28  31
ENDBRANCH  26  27
ENDBRANCH   1  26
TORSDOF 16
ENDMDL
