MODEL 1
REMARK VINA RESULT:     -13.4      0.000      0.000
REMARK SMILES COc1ccc(-c2cnc(N)c(C(=O)NCCCNC(=O)c3ccc(-c4c5nc(c(-c6ccc(S(=O)(=O)[O-])cc6)c6ccc([nH]6)c(-c6ccc(S(=O)(=O)[O-])cc6)c6nc(c(-c7ccc(S(=O)(=O)[O-])cc7)c7ccc4[nH]7)C=C6)C=C5)cc3)c2)c(C)c1
REMARK SMILES IDX 17 1 16 2 15 3 13 4 14 5 12 7 7 8 8 9 82 10 9 11 10 12 6 13
REMARK SMILES IDX 3 14 4 15 85 16 5 17 83 18 84 19 2 20 1 21 11 22 18 25 19 26
REMARK SMILES IDX 20 27 21 29 22 30 23 31 81 32 24 33 80 34 25 35 26 36 27 37
REMARK SMILES IDX 74 38 28 39 79 40 73 41 75 42 29 43 78 44 72 45 71 46 30 48
REMARK SMILES IDX 60 49 41 50 59 51 42 52 45 53 58 54 76 55 43 56 44 57 57 59
REMARK SMILES IDX 77 60 46 61 31 62 32 63 40 64 33 65 39 66 34 67 35 68 36 69
REMARK SMILES IDX 37 70 38 71 61 72 62 73 70 74 63 75 69 76 64 77 65 78 66 79
REMARK SMILES IDX 67 80 68 81 47 82 48 83 56 84 49 85 55 86 50 87 51 88 52 89
REMARK SMILES IDX 53 90 54 91
REMARK H PARENT 15 6 11 23 11 24 19 28 75 47 45 58
REMARK Flexibility Score: inf
ROOT
ATOM      1  C   UNL A   1      33.255  30.695  27.083  1.00  0.00     0.042 C 
ENDROOT
BRANCH   1   2
ATOM      2  C   UNL A   1      32.398  29.708  26.319  1.00  0.00     0.118 C 
BRANCH   2   3
ATOM      3  N   UNL A   1      32.509  29.854  24.871  1.00  0.00    -0.352 N 
ATOM      4  C   UNL A   1      32.473  28.887  23.894  1.00  0.00     0.255 C 
ATOM      5  O   UNL A   1      32.634  29.206  22.717  1.00  0.00    -0.269 OA
ATOM      6  H   UNL A   1      32.627  30.776  24.547  1.00  0.00     0.163 HD
BRANCH   4   7
ATOM      7  C   UNL A   1      32.314  27.450  24.224  1.00  0.00     0.082 A 
ATOM      8  C   UNL A   1      33.409  25.341  24.737  1.00  0.00     0.001 A 
ATOM      9  C   UNL A   1      32.128  24.853  24.986  1.00  0.00     0.122 A 
ATOM     10  C   UNL A   1      33.489  26.694  24.402  1.00  0.00     0.028 A 
ATOM     11  N   UNL A   1      30.983  25.524  24.744  1.00  0.00    -0.238 NA
ATOM     12  C   UNL A   1      31.089  26.781  24.274  1.00  0.00     0.136 A 
BRANCH   8  13
ATOM     13  C   UNL A   1      34.543  24.404  24.633  1.00  0.00    -0.014 A 
ATOM     14  C   UNL A   1      36.791  22.681  24.743  1.00  0.00     0.119 A 
ATOM     15  C   UNL A   1      36.615  23.643  25.724  1.00  0.00     0.047 A 
ATOM     16  C   UNL A   1      35.874  22.599  23.692  1.00  0.00     0.050 A 
ATOM     17  C   UNL A   1      35.502  24.477  25.671  1.00  0.00     0.013 A 
ATOM     18  C   UNL A   1      34.744  23.447  23.621  1.00  0.00    -0.040 A 
ATOM     19  C   UNL A   1      33.803  23.235  22.465  1.00  0.00     0.045 C 
BRANCH  14  20
ATOM     20  O   UNL A   1      37.842  21.805  24.709  1.00  0.00    -0.497 OA
ATOM     21  C   UNL A   1      38.665  21.838  25.874  1.00  0.00     0.278 C 
ENDBRANCH  14  20
ENDBRANCH   8  13
BRANCH  12  22
ATOM     22  N   UNL A   1      29.888  27.319  23.873  1.00  0.00    -0.383 N 
ATOM     23  H   UNL A   1      29.775  28.296  23.833  1.00  0.00     0.158 HD
ATOM     24  H   UNL A   1      29.142  26.727  23.626  1.00  0.00     0.158 HD
ENDBRANCH  12  22
ENDBRANCH   4   7
ENDBRANCH   2   3
ENDBRANCH   1   2
BRANCH   1  25
ATOM     25  C   UNL A   1      34.637  30.130  27.378  1.00  0.00     0.118 C 
BRANCH  25  26
ATOM     26  N   UNL A   1      35.540  31.173  27.876  1.00  0.00    -0.352 N 
ATOM     27  C   UNL A   1      36.805  31.055  28.430  1.00  0.00     0.251 C 
ATOM     28  H   UNL A   1      35.196  32.093  27.806  1.00  0.00     0.163 HD
ATOM     29  O   UNL A   1      37.389  31.963  28.979  1.00  0.00    -0.269 OA
BRANCH  27  30
ATOM     30  C   UNL A   1      37.460  29.750  28.230  1.00  0.00     0.039 A 
ATOM     31  C   UNL A   1      37.521  28.926  29.361  1.00  0.00     0.014 A 
ATOM     32  C   UNL A   1      38.360  29.633  27.176  1.00  0.00     0.014 A 
ATOM     33  C   UNL A   1      38.647  28.143  29.559  1.00  0.00     0.010 A 
ATOM     34  C   UNL A   1      39.515  28.913  27.416  1.00  0.00     0.010 A 
ATOM     35  C   UNL A   1      39.689  28.244  28.642  1.00  0.00    -0.014 A 
BRANCH  35  36
ATOM     36  C   UNL A   1      41.034  27.748  28.910  1.00  0.00     0.031 A 
ATOM     37  C   UNL A   1      41.322  26.328  28.589  1.00  0.00     0.074 A 
ATOM     38  C   UNL A   1      42.007  28.576  29.362  1.00  0.00     0.049 A 
ATOM     39  N   UNL A   1      42.332  25.659  29.027  1.00  0.00    -0.248 NA
ATOM     40  C   UNL A   1      40.414  25.518  27.777  1.00  0.00     0.031 C 
ATOM     41  C   UNL A   1      43.442  28.282  29.403  1.00  0.00     0.029 A 
ATOM     42  N   UNL A   1      41.919  29.796  30.046  1.00  0.00    -0.354 N 
ATOM     43  C   UNL A   1      42.380  24.474  28.325  1.00  0.00     0.074 A 
ATOM     44  C   UNL A   1      41.111  24.387  27.648  1.00  0.00     0.031 C 
ATOM     45  C   UNL A   1      44.019  29.075  30.318  1.00  0.00     0.029 A 
ATOM     46  C   UNL A   1      42.947  29.772  31.006  1.00  0.00     0.049 A 
ATOM     47  H   UNL A   1      41.272  30.520  29.887  1.00  0.00     0.167 HD
ATOM     48  C   UNL A   1      43.551  23.776  28.281  1.00  0.00     0.031 A 
ATOM     49  C   UNL A   1      42.747  29.720  32.359  1.00  0.00     0.031 A 
ATOM     50  C   UNL A   1      44.506  24.295  29.262  1.00  0.00     0.049 A 
ATOM     51  C   UNL A   1      43.371  28.491  33.009  1.00  0.00     0.074 A 
ATOM     52  C   UNL A   1      45.610  25.124  29.172  1.00  0.00     0.029 A 
ATOM     53  N   UNL A   1      44.174  24.232  30.614  1.00  0.00    -0.354 N 
ATOM     54  N   UNL A   1      43.749  27.432  32.345  1.00  0.00    -0.248 NA
ATOM     55  C   UNL A   1      43.593  28.343  34.448  1.00  0.00     0.031 C 
ATOM     56  C   UNL A   1      45.855  25.665  30.465  1.00  0.00     0.029 A 
ATOM     57  C   UNL A   1      44.932  25.126  31.347  1.00  0.00     0.049 A 
ATOM     58  H   UNL A   1      43.492  23.631  30.996  1.00  0.00     0.167 HD
ATOM     59  C   UNL A   1      44.250  26.492  33.206  1.00  0.00     0.074 A 
ATOM     60  C   UNL A   1      44.140  27.115  34.514  1.00  0.00     0.031 C 
ATOM     61  C   UNL A   1      44.711  25.277  32.781  1.00  0.00     0.031 A 
BRANCH  48  62
ATOM     62  C   UNL A   1      43.910  22.828  27.149  1.00  0.00    -0.014 A 
ATOM     63  C   UNL A   1      42.983  21.849  26.734  1.00  0.00     0.010 A 
ATOM     64  C   UNL A   1      45.172  22.771  26.525  1.00  0.00     0.010 A 
ATOM     65  C   UNL A   1      43.324  20.834  25.820  1.00  0.00     0.020 A 
ATOM     66  C   UNL A   1      45.536  21.756  25.630  1.00  0.00     0.020 A 
ATOM     67  C   UNL A   1      44.611  20.781  25.290  1.00  0.00     0.054 A 
BRANCH  67  68
ATOM     68  S   UNL A   1      45.073  19.435  24.169  1.00  0.00     0.124 S 
ATOM     69  O   UNL A   1      44.477  19.860  22.905  1.00  0.00    -0.237 OA
ATOM     70  O   UNL A   1      46.531  19.467  24.224  1.00  0.00    -0.237 OA
ATOM     71  O   UNL A   1      44.458  18.254  24.771  1.00  0.00    -0.744 OA
ENDBRANCH  67  68
ENDBRANCH  48  62
BRANCH  49  72
ATOM     72  C   UNL A   1      41.521  30.417  32.837  1.00  0.00    -0.014 A 
ATOM     73  C   UNL A   1      40.368  29.629  33.035  1.00  0.00     0.010 A 
ATOM     74  C   UNL A   1      41.605  31.668  33.470  1.00  0.00     0.010 A 
ATOM     75  C   UNL A   1      39.419  29.986  33.996  1.00  0.00     0.020 A 
ATOM     76  C   UNL A   1      40.648  32.033  34.431  1.00  0.00     0.020 A 
ATOM     77  C   UNL A   1      39.604  31.153  34.736  1.00  0.00     0.054 A 
BRANCH  77  78
ATOM     78  S   UNL A   1      38.599  31.372  36.237  1.00  0.00     0.124 S 
ATOM     79  O   UNL A   1      37.465  32.146  35.744  1.00  0.00    -0.237 OA
ATOM     80  O   UNL A   1      38.302  29.987  36.608  1.00  0.00    -0.237 OA
ATOM     81  O   UNL A   1      39.499  32.078  37.143  1.00  0.00    -0.744 OA
ENDBRANCH  77  78
ENDBRANCH  49  72
BRANCH  61  82
ATOM     82  C   UNL A   1      45.072  24.123  33.685  1.00  0.00    -0.014 A 
ATOM     83  C   UNL A   1      44.154  23.154  34.122  1.00  0.00     0.010 A 
ATOM     84  C   UNL A   1      46.433  23.913  34.016  1.00  0.00     0.010 A 
ATOM     85  C   UNL A   1      44.560  22.070  34.914  1.00  0.00     0.020 A 
ATOM     86  C   UNL A   1      46.855  22.812  34.766  1.00  0.00     0.020 A 
ATOM     87  C   UNL A   1      45.908  21.910  35.236  1.00  0.00     0.054 A 
BRANCH  87  88
ATOM     88  S   UNL A   1      46.432  20.482  36.218  1.00  0.00     0.124 S 
ATOM     89  O   UNL A   1      45.630  20.639  37.429  1.00  0.00    -0.237 OA
ATOM     90  O   UNL A   1      46.069  19.347  35.370  1.00  0.00    -0.237 OA
ATOM     91  O   UNL A   1      47.868  20.690  36.384  1.00  0.00    -0.744 OA
ENDBRANCH  87  88
ENDBRANCH  61  82
ENDBRANCH  35  36
ENDBRANCH  27  30
ENDBRANCH  25  26
ENDBRANCH   1  25
TORSDOF 16
ENDMDL
MODEL 2
REMARK VINA RESULT:     -13.1      4.826     11.489
REMARK SMILES COc1ccc(-c2cnc(N)c(C(=O)NCCCNC(=O)c3ccc(-c4c5nc(c(-c6ccc(S(=O)(=O)[O-])cc6)c6ccc([nH]6)c(-c6ccc(S(=O)(=O)[O-])cc6)c6nc(c(-c7ccc(S(=O)(=O)[O-])cc7)c7ccc4[nH]7)C=C6)C=C5)cc3)c2)c(C)c1
REMARK SMILES IDX 17 1 16 2 15 3 13 4 14 5 12 7 7 8 8 9 82 10 9 11 10 12 6 13
REMARK SMILES IDX 3 14 4 15 85 16 5 17 83 18 84 19 2 20 1 21 11 22 18 25 19 26
REMARK SMILES IDX 20 27 21 29 22 30 23 31 81 32 24 33 80 34 25 35 26 36 27 37
REMARK SMILES IDX 74 38 28 39 79 40 73 41 75 42 29 43 78 44 72 45 71 46 30 48
REMARK SMILES IDX 60 49 41 50 59 51 42 52 45 53 58 54 76 55 43 56 44 57 57 59
REMARK SMILES IDX 77 60 46 61 31 62 32 63 40 64 33 65 39 66 34 67 35 68 36 69
REMARK SMILES IDX 37 70 38 71 61 72 62 73 70 74 63 75 69 76 64 77 65 78 66 79
REMARK SMILES IDX 67 80 68 81 47 82 48 83 56 84 49 85 55 86 50 87 51 88 52 89
REMARK SMILES IDX 53 90 54 91
REMARK H PARENT 15 6 11 23 11 24 19 28 75 47 45 58
REMARK Flexibility Score: inf
ROOT
ATOM      1  C   UNL A   1      38.183  21.732  25.440  1.00  0.00     0.042 C 
ENDROOT
BRANCH   1   2
ATOM      2  C   UNL A   1      36.740  21.555  25.015  1.00  0.00     0.118 C 
BRANCH   2   3
ATOM      3  N   UNL A   1      35.841  21.298  26.136  1.00  0.00    -0.352 N 
ATOM      4  C   UNL A   1      34.628  21.877  26.427  1.00  0.00     0.255 C 
ATOM      5  O   UNL A   1      34.035  21.557  27.456  1.00  0.00    -0.269 OA
ATOM      6  H   UNL A   1      36.146  20.613  26.773  1.00  0.00     0.163 HD
BRANCH   4   7
ATOM      7  C   UNL A   1      34.041  22.934  25.569  1.00  0.00     0.082 A 
ATOM      8  C   UNL A   1      33.507  25.293  25.315  1.00  0.00     0.001 A 
ATOM      9  C   UNL A   1      33.135  24.963  24.012  1.00  0.00     0.122 A 
ATOM     10  C   UNL A   1      34.025  24.246  26.081  1.00  0.00     0.028 A 
ATOM     11  N   UNL A   1      33.059  23.708  23.523  1.00  0.00    -0.238 NA
ATOM     12  C   UNL A   1      33.422  22.701  24.339  1.00  0.00     0.136 A 
BRANCH   8  13
ATOM     13  C   UNL A   1      33.155  26.614  25.866  1.00  0.00    -0.014 A 
ATOM     14  C   UNL A   1      32.766  29.258  26.812  1.00  0.00     0.119 A 
ATOM     15  C   UNL A   1      34.030  28.848  26.420  1.00  0.00     0.047 A 
ATOM     16  C   UNL A   1      31.707  28.348  26.767  1.00  0.00     0.050 A 
ATOM     17  C   UNL A   1      34.211  27.552  25.944  1.00  0.00     0.013 A 
ATOM     18  C   UNL A   1      31.879  27.026  26.295  1.00  0.00    -0.040 A 
ATOM     19  C   UNL A   1      30.655  26.151  26.253  1.00  0.00     0.045 C 
BRANCH  14  20
ATOM     20  O   UNL A   1      32.479  30.510  27.281  1.00  0.00    -0.497 OA
ATOM     21  C   UNL A   1      33.631  31.302  27.570  1.00  0.00     0.278 C 
ENDBRANCH  14  20
ENDBRANCH   8  13
BRANCH  12  22
ATOM     22  N   UNL A   1      33.133  21.455  23.834  1.00  0.00    -0.383 N 
ATOM     23  H   UNL A   1      33.806  20.738  23.876  1.00  0.00     0.158 HD
ATOM     24  H   UNL A   1      32.253  21.280  23.430  1.00  0.00     0.158 HD
ENDBRANCH  12  22
ENDBRANCH   4   7
ENDBRANCH   2   3
ENDBRANCH   1   2
BRANCH   1  25
ATOM     25  C   UNL A   1      38.390  23.033  26.203  1.00  0.00     0.118 C 
BRANCH  25  26
ATOM     26  N   UNL A   1      39.608  22.980  27.018  1.00  0.00    -0.352 N 
ATOM     27  C   UNL A   1      40.305  24.009  27.631  1.00  0.00     0.251 C 
ATOM     28  H   UNL A   1      39.985  22.080  27.150  1.00  0.00     0.163 HD
ATOM     29  O   UNL A   1      41.404  23.879  28.126  1.00  0.00    -0.269 OA
BRANCH  27  30
ATOM     30  C   UNL A   1      39.581  25.289  27.730  1.00  0.00     0.039 A 
ATOM     31  C   UNL A   1      40.038  26.307  26.883  1.00  0.00     0.014 A 
ATOM     32  C   UNL A   1      38.897  25.555  28.911  1.00  0.00     0.014 A 
ATOM     33  C   UNL A   1      40.034  27.614  27.345  1.00  0.00     0.010 A 
ATOM     34  C   UNL A   1      38.969  26.846  29.399  1.00  0.00     0.010 A 
ATOM     35  C   UNL A   1      39.615  27.849  28.652  1.00  0.00    -0.014 A 
BRANCH  35  36
ATOM     36  C   UNL A   1      39.880  29.097  29.358  1.00  0.00     0.031 A 
ATOM     37  C   UNL A   1      38.897  30.198  29.204  1.00  0.00     0.074 A 
ATOM     38  C   UNL A   1      40.944  29.217  30.189  1.00  0.00     0.049 A 
ATOM     39  N   UNL A   1      39.116  31.433  29.500  1.00  0.00    -0.248 NA
ATOM     40  C   UNL A   1      37.576  29.982  28.615  1.00  0.00     0.031 C 
ATOM     41  C   UNL A   1      41.166  30.293  31.158  1.00  0.00     0.029 A 
ATOM     42  N   UNL A   1      42.148  28.503  30.234  1.00  0.00    -0.354 N 
ATOM     43  C   UNL A   1      37.907  32.092  29.447  1.00  0.00     0.074 A 
ATOM     44  C   UNL A   1      37.010  31.178  28.787  1.00  0.00     0.031 C 
ATOM     45  C   UNL A   1      42.477  30.362  31.434  1.00  0.00     0.029 A 
ATOM     46  C   UNL A   1      43.146  29.453  30.521  1.00  0.00     0.049 A 
ATOM     47  H   UNL A   1      42.271  27.536  30.094  1.00  0.00     0.167 HD
ATOM     48  C   UNL A   1      37.768  33.279  30.103  1.00  0.00     0.031 A 
ATOM     49  C   UNL A   1      44.133  29.831  29.652  1.00  0.00     0.031 A 
ATOM     50  C   UNL A   1      39.071  33.795  30.530  1.00  0.00     0.049 A 
ATOM     51  C   UNL A   1      44.107  31.319  29.329  1.00  0.00     0.074 A 
ATOM     52  C   UNL A   1      39.741  33.808  31.741  1.00  0.00     0.029 A 
ATOM     53  N   UNL A   1      40.018  34.104  29.555  1.00  0.00    -0.354 N 
ATOM     54  N   UNL A   1      43.080  32.094  29.558  1.00  0.00    -0.248 NA
ATOM     55  C   UNL A   1      45.212  32.046  28.703  1.00  0.00     0.031 C 
ATOM     56  C   UNL A   1      41.126  33.995  31.470  1.00  0.00     0.029 A 
ATOM     57  C   UNL A   1      41.287  34.143  30.102  1.00  0.00     0.049 A 
ATOM     58  H   UNL A   1      39.812  34.271  28.607  1.00  0.00     0.167 HD
ATOM     59  C   UNL A   1      43.353  33.370  29.142  1.00  0.00     0.074 A 
ATOM     60  C   UNL A   1      44.707  33.292  28.622  1.00  0.00     0.031 C 
ATOM     61  C   UNL A   1      42.448  34.388  29.252  1.00  0.00     0.031 A 
BRANCH  48  62
ATOM     62  C   UNL A   1      36.432  33.802  30.600  1.00  0.00    -0.014 A 
ATOM     63  C   UNL A   1      35.411  34.108  29.676  1.00  0.00     0.010 A 
ATOM     64  C   UNL A   1      36.147  34.119  31.944  1.00  0.00     0.010 A 
ATOM     65  C   UNL A   1      34.224  34.761  30.058  1.00  0.00     0.020 A 
ATOM     66  C   UNL A   1      34.981  34.788  32.340  1.00  0.00     0.020 A 
ATOM     67  C   UNL A   1      34.027  35.119  31.391  1.00  0.00     0.054 A 
BRANCH  67  68
ATOM     68  S   UNL A   1      32.533  36.021  31.873  1.00  0.00     0.124 S 
ATOM     69  O   UNL A   1      31.741  34.988  32.537  1.00  0.00    -0.237 OA
ATOM     70  O   UNL A   1      33.065  37.067  32.741  1.00  0.00    -0.237 OA
ATOM     71  O   UNL A   1      31.985  36.492  30.602  1.00  0.00    -0.744 OA
ENDBRANCH  67  68
ENDBRANCH  48  62
BRANCH  49  72
ATOM     72  C   UNL A   1      44.599  28.758  28.730  1.00  0.00    -0.014 A 
ATOM     73  C   UNL A   1      44.125  28.801  27.401  1.00  0.00     0.010 A 
ATOM     74  C   UNL A   1      45.759  28.019  29.013  1.00  0.00     0.010 A 
ATOM     75  C   UNL A   1      44.897  28.291  26.355  1.00  0.00     0.020 A 
ATOM     76  C   UNL A   1      46.533  27.498  27.963  1.00  0.00     0.020 A 
ATOM     77  C   UNL A   1      46.130  27.704  26.640  1.00  0.00     0.054 A 
BRANCH  77  78
ATOM     78  S   UNL A   1      47.279  27.434  25.254  1.00  0.00     0.124 S 
ATOM     79  O   UNL A   1      46.389  27.470  24.098  1.00  0.00    -0.237 OA
ATOM     80  O   UNL A   1      48.186  28.576  25.386  1.00  0.00    -0.237 OA
ATOM     81  O   UNL A   1      47.868  26.134  25.556  1.00  0.00    -0.744 OA
ENDBRANCH  77  78
ENDBRANCH  49  72
BRANCH  61  82
ATOM     82  C   UNL A   1      42.599  35.754  28.625  1.00  0.00    -0.014 A 
ATOM     83  C   UNL A   1      42.062  36.104  27.375  1.00  0.00     0.010 A 
ATOM     84  C   UNL A   1      43.198  36.791  29.380  1.00  0.00     0.010 A 
ATOM     85  C   UNL A   1      42.185  37.407  26.870  1.00  0.00     0.020 A 
ATOM     86  C   UNL A   1      43.285  38.102  28.905  1.00  0.00     0.020 A 
ATOM     87  C   UNL A   1      42.802  38.396  27.636  1.00  0.00     0.054 A 
BRANCH  87  88
ATOM     88  S   UNL A   1      42.913  40.087  26.998  1.00  0.00     0.124 S 
ATOM     89  O   UNL A   1      41.575  40.288  26.447  1.00  0.00    -0.237 OA
ATOM     90  O   UNL A   1      43.222  40.872  28.192  1.00  0.00    -0.237 OA
ATOM     91  O   UNL A   1      43.992  40.011  26.017  1.00  0.00    -0.744 OA
ENDBRANCH  87  88
ENDBRANCH  61  82
ENDBRANCH  35  36
ENDBRANCH  27  30
ENDBRANCH  25  26
ENDBRANCH   1  25
TORSDOF 16
ENDMDL
MODEL 3
REMARK VINA RESULT:     -12.7      1.515      2.027
REMARK SMILES COc1ccc(-c2cnc(N)c(C(=O)NCCCNC(=O)c3ccc(-c4c5nc(c(-c6ccc(S(=O)(=O)[O-])cc6)c6ccc([nH]6)c(-c6ccc(S(=O)(=O)[O-])cc6)c6nc(c(-c7ccc(S(=O)(=O)[O-])cc7)c7ccc4[nH]7)C=C6)C=C5)cc3)c2)c(C)c1
REMARK SMILES IDX 17 1 16 2 15 3 13 4 14 5 12 7 7 8 8 9 82 10 9 11 10 12 6 13
REMARK SMILES IDX 3 14 4 15 85 16 5 17 83 18 84 19 2 20 1 21 11 22 18 25 19 26
REMARK SMILES IDX 20 27 21 29 22 30 23 31 81 32 24 33 80 34 25 35 26 36 27 37
REMARK SMILES IDX 74 38 28 39 79 40 73 41 75 42 29 43 78 44 72 45 71 46 30 48
REMARK SMILES IDX 60 49 41 50 59 51 42 52 45 53 58 54 76 55 43 56 44 57 57 59
REMARK SMILES IDX 77 60 46 61 31 62 32 63 40 64 33 65 39 66 34 67 35 68 36 69
REMARK SMILES IDX 37 70 38 71 61 72 62 73 70 74 63 75 69 76 64 77 65 78 66 79
REMARK SMILES IDX 67 80 68 81 47 82 48 83 56 84 49 85 55 86 50 87 51 88 52 89
REMARK SMILES IDX 53 90 54 91
REMARK H PARENT 15 6 11 23 11 24 19 28 75 47 45 58
REMARK Flexibility Score: inf
ROOT
ATOM      1  C   UNL A   1      33.182  30.608  26.932  1.00  0.00     0.042 C 
ENDROOT
BRANCH   1   2
ATOM      2  C   UNL A   1      32.602  29.840  25.764  1.00  0.00     0.118 C 
BRANCH   2   3
ATOM      3  N   UNL A   1      33.509  29.766  24.622  1.00  0.00    -0.352 N 
ATOM      4  C   UNL A   1      33.516  28.873  23.575  1.00  0.00     0.255 C 
ATOM      5  O   UNL A   1      34.401  28.945  22.723  1.00  0.00    -0.269 OA
ATOM      6  H   UNL A   1      34.214  30.451  24.598  1.00  0.00     0.163 HD
BRANCH   4   7
ATOM      7  C   UNL A   1      32.524  27.776  23.477  1.00  0.00     0.082 A 
ATOM      8  C   UNL A   1      32.023  25.435  23.903  1.00  0.00     0.001 A 
ATOM      9  C   UNL A   1      30.727  25.743  23.489  1.00  0.00     0.122 A 
ATOM     10  C   UNL A   1      32.917  26.507  23.945  1.00  0.00     0.028 A 
ATOM     11  N   UNL A   1      30.344  26.922  22.958  1.00  0.00    -0.238 NA
ATOM     12  C   UNL A   1      31.272  27.894  22.870  1.00  0.00     0.136 A 
BRANCH   8  13
ATOM     13  C   UNL A   1      32.426  24.026  24.062  1.00  0.00    -0.014 A 
ATOM     14  C   UNL A   1      33.131  21.280  24.052  1.00  0.00     0.119 A 
ATOM     15  C   UNL A   1      32.403  21.806  22.997  1.00  0.00     0.047 A 
ATOM     16  C   UNL A   1      33.476  22.107  25.124  1.00  0.00     0.050 A 
ATOM     17  C   UNL A   1      32.071  23.158  23.002  1.00  0.00     0.013 A 
ATOM     18  C   UNL A   1      33.137  23.480  25.147  1.00  0.00    -0.040 A 
ATOM     19  C   UNL A   1      33.601  24.278  26.336  1.00  0.00     0.045 C 
BRANCH  14  20
ATOM     20  O   UNL A   1      33.517  19.971  24.138  1.00  0.00    -0.497 OA
ATOM     21  C   UNL A   1      32.513  19.100  24.658  1.00  0.00     0.278 C 
ENDBRANCH  14  20
ENDBRANCH   8  13
BRANCH  12  22
ATOM     22  N   UNL A   1      30.855  28.986  22.146  1.00  0.00    -0.383 N 
ATOM     23  H   UNL A   1      31.505  29.669  21.866  1.00  0.00     0.158 HD
ATOM     24  H   UNL A   1      29.905  29.084  21.908  1.00  0.00     0.158 HD
ENDBRANCH  12  22
ENDBRANCH   4   7
ENDBRANCH   2   3
ENDBRANCH   1   2
BRANCH   1  25
ATOM     25  C   UNL A   1      34.513  30.025  27.385  1.00  0.00     0.118 C 
BRANCH  25  26
ATOM     26  N   UNL A   1      35.439  31.083  27.803  1.00  0.00    -0.352 N 
ATOM     27  C   UNL A   1      36.713  30.980  28.339  1.00  0.00     0.251 C 
ATOM     28  H   UNL A   1      35.106  32.002  27.687  1.00  0.00     0.163 HD
ATOM     29  O   UNL A   1      37.320  31.911  28.823  1.00  0.00    -0.269 OA
BRANCH  27  30
ATOM     30  C   UNL A   1      37.348  29.656  28.204  1.00  0.00     0.039 A 
ATOM     31  C   UNL A   1      37.422  28.900  29.380  1.00  0.00     0.014 A 
ATOM     32  C   UNL A   1      38.224  29.465  27.140  1.00  0.00     0.014 A 
ATOM     33  C   UNL A   1      38.542  28.114  29.601  1.00  0.00     0.010 A 
ATOM     34  C   UNL A   1      39.374  28.745  27.399  1.00  0.00     0.010 A 
ATOM     35  C   UNL A   1      39.565  28.147  28.659  1.00  0.00    -0.014 A 
BRANCH  35  36
ATOM     36  C   UNL A   1      40.909  27.648  28.929  1.00  0.00     0.031 A 
ATOM     37  C   UNL A   1      41.199  26.232  28.595  1.00  0.00     0.074 A 
ATOM     38  C   UNL A   1      41.880  28.473  29.393  1.00  0.00     0.049 A 
ATOM     39  N   UNL A   1      42.208  25.559  29.032  1.00  0.00    -0.248 NA
ATOM     40  C   UNL A   1      40.296  25.429  27.771  1.00  0.00     0.031 C 
ATOM     41  C   UNL A   1      43.315  28.179  29.438  1.00  0.00     0.029 A 
ATOM     42  N   UNL A   1      41.787  29.686  30.089  1.00  0.00    -0.354 N 
ATOM     43  C   UNL A   1      42.260  24.382  28.319  1.00  0.00     0.074 A 
ATOM     44  C   UNL A   1      40.995  24.301  27.634  1.00  0.00     0.031 C 
ATOM     45  C   UNL A   1      43.887  28.964  30.364  1.00  0.00     0.029 A 
ATOM     46  C   UNL A   1      42.811  29.653  31.054  1.00  0.00     0.049 A 
ATOM     47  H   UNL A   1      41.141  30.412  29.934  1.00  0.00     0.167 HD
ATOM     48  C   UNL A   1      43.431  23.684  28.273  1.00  0.00     0.031 A 
ATOM     49  C   UNL A   1      42.605  29.588  32.405  1.00  0.00     0.031 A 
ATOM     50  C   UNL A   1      44.381  24.194  29.264  1.00  0.00     0.049 A 
ATOM     51  C   UNL A   1      43.226  28.353  33.046  1.00  0.00     0.074 A 
ATOM     52  C   UNL A   1      45.485  25.025  29.187  1.00  0.00     0.029 A 
ATOM     53  N   UNL A   1      44.043  24.118  30.614  1.00  0.00    -0.354 N 
ATOM     54  N   UNL A   1      43.608  27.301  32.373  1.00  0.00    -0.248 NA
ATOM     55  C   UNL A   1      43.441  28.192  34.484  1.00  0.00     0.031 C 
ATOM     56  C   UNL A   1      45.724  25.553  30.487  1.00  0.00     0.029 A 
ATOM     57  C   UNL A   1      44.797  25.005  31.358  1.00  0.00     0.049 A 
ATOM     58  H   UNL A   1      43.360  23.513  30.987  1.00  0.00     0.167 HD
ATOM     59  C   UNL A   1      44.105  26.353  33.227  1.00  0.00     0.074 A 
ATOM     60  C   UNL A   1      43.988  26.963  34.541  1.00  0.00     0.031 C 
ATOM     61  C   UNL A   1      44.569  25.143  32.793  1.00  0.00     0.031 A 
BRANCH  48  62
ATOM     62  C   UNL A   1      43.796  22.748  27.134  1.00  0.00    -0.014 A 
ATOM     63  C   UNL A   1      42.924  21.695  26.785  1.00  0.00     0.010 A 
ATOM     64  C   UNL A   1      45.021  22.776  26.438  1.00  0.00     0.010 A 
ATOM     65  C   UNL A   1      43.289  20.694  25.866  1.00  0.00     0.020 A 
ATOM     66  C   UNL A   1      45.410  21.776  25.535  1.00  0.00     0.020 A 
ATOM     67  C   UNL A   1      44.545  20.729  25.262  1.00  0.00     0.054 A 
BRANCH  67  68
ATOM     68  S   UNL A   1      45.043  19.403  24.133  1.00  0.00     0.124 S 
ATOM     69  O   UNL A   1      44.409  18.228  24.727  1.00  0.00    -0.237 OA
ATOM     70  O   UNL A   1      44.484  19.848  22.860  1.00  0.00    -0.237 OA
ATOM     71  O   UNL A   1      46.503  19.415  24.205  1.00  0.00    -0.744 OA
ENDBRANCH  67  68
ENDBRANCH  48  62
BRANCH  49  72
ATOM     72  C   UNL A   1      41.376  30.280  32.883  1.00  0.00    -0.014 A 
ATOM     73  C   UNL A   1      41.542  31.545  33.484  1.00  0.00     0.010 A 
ATOM     74  C   UNL A   1      40.110  29.926  32.385  1.00  0.00     0.010 A 
ATOM     75  C   UNL A   1      40.531  32.507  33.408  1.00  0.00     0.020 A 
ATOM     76  C   UNL A   1      39.090  30.889  32.315  1.00  0.00     0.020 A 
ATOM     77  C   UNL A   1      39.337  32.191  32.762  1.00  0.00     0.054 A 
BRANCH  77  78
ATOM     78  S   UNL A   1      38.226  33.563  32.318  1.00  0.00     0.124 S 
ATOM     79  O   UNL A   1      38.668  33.899  30.969  1.00  0.00    -0.237 OA
ATOM     80  O   UNL A   1      36.910  32.928  32.409  1.00  0.00    -0.237 OA
ATOM     81  O   UNL A   1      38.505  34.565  33.341  1.00  0.00    -0.744 OA
ENDBRANCH  77  78
ENDBRANCH  49  72
BRANCH  61  82
ATOM     82  C   UNL A   1      44.926  23.979  33.688  1.00  0.00    -0.014 A 
ATOM     83  C   UNL A   1      44.065  22.901  33.950  1.00  0.00     0.010 A 
ATOM     84  C   UNL A   1      46.244  23.887  34.195  1.00  0.00     0.010 A 
ATOM     85  C   UNL A   1      44.475  21.819  34.743  1.00  0.00     0.020 A 
ATOM     86  C   UNL A   1      46.677  22.792  34.948  1.00  0.00     0.020 A 
ATOM     87  C   UNL A   1      45.777  21.775  35.243  1.00  0.00     0.054 A 
BRANCH  87  88
ATOM     88  S   UNL A   1      46.314  20.352  36.225  1.00  0.00     0.124 S 
ATOM     89  O   UNL A   1      45.886  20.736  37.568  1.00  0.00    -0.237 OA
ATOM     90  O   UNL A   1      45.575  19.241  35.628  1.00  0.00    -0.237 OA
ATOM     91  O   UNL A   1      47.757  20.315  36.011  1.00  0.00    -0.744 OA
ENDBRANCH  87  88
ENDBRANCH  61  82
ENDBRANCH  35  36
ENDBRANCH  27  30
ENDBRANCH  25  26
ENDBRANCH   1  25
TORSDOF 16
ENDMDL
