MODEL 1
REMARK VINA RESULT:     -10.3      0.000      0.000
REMARK SMILES O=C(COc1ccc2c(=O)c(-c3ccc4c(c3)OCCO4)coc2c1)NCCCNC(=O)c1ccc(-c2c3nc(c(-c4ccc(S(=O)(=O)[O-])cc4)c4ccc([nH]4)c(-c4ccc(S(=O)(=O)[O-])cc4)c4nc(c(-c5ccc(S(=O)(=O)[O-])cc5)c5ccc2[nH]5)C=C4)C=C3)cc1
REMARK SMILES IDX 28 1 27 2 26 3 1 4 2 5 3 7 4 8 5 9 6 10 25 11 7 12 24 13
REMARK SMILES IDX 8 14 23 15 9 16 22 17 10 18 11 19 12 20 13 21 17 22 14 23
REMARK SMILES IDX 16 24 15 25 18 26 21 27 19 28 20 29 29 30 30 31 31 32 32 34
REMARK SMILES IDX 33 35 34 36 92 37 35 38 91 39 36 40 37 41 38 42 85 43 39 44
REMARK SMILES IDX 90 45 84 46 86 47 40 48 89 49 83 50 82 51 41 53 71 54 52 55
REMARK SMILES IDX 70 56 53 57 56 58 69 59 87 60 54 61 55 62 68 64 88 65 57 66
REMARK SMILES IDX 42 67 43 68 51 69 44 70 50 71 45 72 46 73 47 74 48 75 49 76
REMARK SMILES IDX 72 77 73 78 81 79 74 80 80 81 75 82 76 83 77 84 78 85 79 86
REMARK SMILES IDX 58 87 59 88 67 89 60 90 66 91 61 92 62 93 63 94 64 95 65 96
REMARK H PARENT 26 6 30 33 86 52 56 63
REMARK Flexibility Score: inf
ROOT
ATOM      1  C   UNL A   1      34.733  32.844  30.417  1.00  0.00     0.042 C 
ENDROOT
BRANCH   1   2
ATOM      2  C   UNL A   1      35.156  34.162  31.038  1.00  0.00     0.117 C 
BRANCH   2   3
ATOM      3  N   UNL A   1      36.567  34.229  31.361  1.00  0.00    -0.353 N 
ATOM      4  O   UNL A   1      36.304  35.114  33.469  1.00  0.00    -0.271 OA
ATOM      5  C   UNL A   1      37.011  34.576  32.622  1.00  0.00     0.257 C 
ATOM      6  H   UNL A   1      37.228  34.023  30.661  1.00  0.00     0.163 HD
BRANCH   5   7
ATOM      7  C   UNL A   1      38.462  34.171  32.904  1.00  0.00     0.329 C 
BRANCH   7   8
ATOM      8  O   UNL A   1      38.835  34.026  34.275  1.00  0.00    -0.484 OA
BRANCH   8   9
ATOM      9  C   UNL A   1      39.567  32.905  34.575  1.00  0.00     0.123 A 
ATOM     10  C   UNL A   1      40.305  32.762  35.752  1.00  0.00     0.047 A 
ATOM     11  C   UNL A   1      39.445  31.818  33.704  1.00  0.00     0.094 A 
ATOM     12  C   UNL A   1      40.915  31.552  36.066  1.00  0.00     0.020 A 
ATOM     13  C   UNL A   1      40.075  30.605  34.007  1.00  0.00     0.141 A 
ATOM     14  C   UNL A   1      40.795  30.478  35.192  1.00  0.00     0.066 A 
ATOM     15  O   UNL A   1      39.945  29.571  33.114  1.00  0.00    -0.463 OA
ATOM     16  C   UNL A   1      41.423  29.196  35.527  1.00  0.00     0.200 A 
ATOM     17  C   UNL A   1      40.576  28.383  33.415  1.00  0.00     0.208 A 
ATOM     18  O   UNL A   1      42.030  29.049  36.581  1.00  0.00    -0.288 OA
ATOM     19  C   UNL A   1      41.290  28.112  34.520  1.00  0.00     0.065 A 
BRANCH  19  20
ATOM     20  C   UNL A   1      41.927  26.806  34.741  1.00  0.00    -0.007 A 
ATOM     21  C   UNL A   1      41.312  25.840  35.549  1.00  0.00     0.013 A 
ATOM     22  C   UNL A   1      43.119  26.485  34.075  1.00  0.00     0.059 A 
ATOM     23  C   UNL A   1      41.880  24.571  35.689  1.00  0.00     0.051 A 
ATOM     24  C   UNL A   1      43.676  25.215  34.206  1.00  0.00     0.161 A 
ATOM     25  C   UNL A   1      43.066  24.262  35.026  1.00  0.00     0.161 A 
ATOM     26  O   UNL A   1      44.824  24.970  33.497  1.00  0.00    -0.486 OA
ATOM     27  O   UNL A   1      43.564  22.998  35.211  1.00  0.00    -0.486 OA
ATOM     28  C   UNL A   1      45.078  23.565  33.393  1.00  0.00     0.271 C 
ATOM     29  C   UNL A   1      44.915  22.895  34.747  1.00  0.00     0.271 C 
ENDBRANCH  19  20
ENDBRANCH   8   9
ENDBRANCH   7   8
ENDBRANCH   5   7
ENDBRANCH   2   3
ENDBRANCH   1   2
BRANCH   1  30
ATOM     30  C   UNL A   1      34.766  32.830  28.894  1.00  0.00     0.118 C 
BRANCH  30  31
ATOM     31  N   UNL A   1      34.014  31.728  28.307  1.00  0.00    -0.352 N 
ATOM     32  C   UNL A   1      34.421  30.463  27.960  1.00  0.00     0.251 C 
ATOM     33  H   UNL A   1      33.064  31.922  28.131  1.00  0.00     0.163 HD
ATOM     34  O   UNL A   1      33.636  29.728  27.364  1.00  0.00    -0.269 OA
BRANCH  32  35
ATOM     35  C   UNL A   1      35.791  29.990  28.264  1.00  0.00     0.039 A 
ATOM     36  C   UNL A   1      36.762  30.073  27.261  1.00  0.00     0.014 A 
ATOM     37  C   UNL A   1      36.129  29.451  29.508  1.00  0.00     0.014 A 
ATOM     38  C   UNL A   1      38.074  29.675  27.528  1.00  0.00     0.010 A 
ATOM     39  C   UNL A   1      37.457  29.141  29.800  1.00  0.00     0.010 A 
ATOM     40  C   UNL A   1      38.445  29.243  28.813  1.00  0.00    -0.014 A 
BRANCH  40  41
ATOM     41  C   UNL A   1      39.863  28.916  29.119  1.00  0.00     0.031 A 
ATOM     42  C   UNL A   1      40.755  29.912  29.814  1.00  0.00     0.074 A 
ATOM     43  C   UNL A   1      40.360  27.718  28.747  1.00  0.00     0.049 A 
ATOM     44  N   UNL A   1      41.998  29.772  30.203  1.00  0.00    -0.248 NA
ATOM     45  C   UNL A   1      40.192  31.244  30.087  1.00  0.00     0.031 C 
ATOM     46  C   UNL A   1      39.620  26.688  28.012  1.00  0.00     0.029 A 
ATOM     47  N   UNL A   1      41.596  27.157  28.945  1.00  0.00    -0.354 N 
ATOM     48  C   UNL A   1      42.364  30.993  30.760  1.00  0.00     0.074 A 
ATOM     49  C   UNL A   1      41.233  31.881  30.603  1.00  0.00     0.031 C 
ATOM     50  C   UNL A   1      40.398  25.604  27.868  1.00  0.00     0.029 A 
ATOM     51  C   UNL A   1      41.704  25.873  28.463  1.00  0.00     0.049 A 
ATOM     52  H   UNL A   1      42.336  27.629  29.390  1.00  0.00     0.167 HD
ATOM     53  C   UNL A   1      43.525  31.338  31.368  1.00  0.00     0.031 A 
ATOM     54  C   UNL A   1      42.731  25.003  28.502  1.00  0.00     0.031 A 
ATOM     55  C   UNL A   1      44.650  30.452  31.523  1.00  0.00     0.049 A 
ATOM     56  C   UNL A   1      44.005  25.407  29.191  1.00  0.00     0.074 A 
ATOM     57  C   UNL A   1      45.851  30.691  32.171  1.00  0.00     0.029 A 
ATOM     58  N   UNL A   1      44.719  29.161  31.021  1.00  0.00    -0.354 N 
ATOM     59  N   UNL A   1      44.301  26.540  29.781  1.00  0.00    -0.248 NA
ATOM     60  C   UNL A   1      45.076  24.402  29.238  1.00  0.00     0.031 C 
ATOM     61  C   UNL A   1      46.667  29.565  32.010  1.00  0.00     0.029 A 
ATOM     62  C   UNL A   1      45.950  28.599  31.324  1.00  0.00     0.049 A 
ATOM     63  H   UNL A   1      44.000  28.710  30.523  1.00  0.00     0.167 HD
ATOM     64  C   UNL A   1      45.584  26.374  30.294  1.00  0.00     0.074 A 
ATOM     65  C   UNL A   1      45.991  25.023  29.966  1.00  0.00     0.031 C 
ATOM     66  C   UNL A   1      46.353  27.259  30.977  1.00  0.00     0.031 A 
BRANCH  53  67
ATOM     67  C   UNL A   1      43.638  32.742  31.910  1.00  0.00    -0.014 A 
ATOM     68  C   UNL A   1      44.217  33.774  31.147  1.00  0.00     0.010 A 
ATOM     69  C   UNL A   1      43.118  33.046  33.182  1.00  0.00     0.010 A 
ATOM     70  C   UNL A   1      44.312  35.070  31.662  1.00  0.00     0.020 A 
ATOM     71  C   UNL A   1      43.183  34.348  33.688  1.00  0.00     0.020 A 
ATOM     72  C   UNL A   1      43.795  35.348  32.930  1.00  0.00     0.054 A 
BRANCH  72  73
ATOM     73  S   UNL A   1      43.912  37.045  33.563  1.00  0.00     0.124 S 
ATOM     74  O   UNL A   1      43.921  37.826  32.329  1.00  0.00    -0.237 OA
ATOM     75  O   UNL A   1      42.703  37.167  34.374  1.00  0.00    -0.237 OA
ATOM     76  O   UNL A   1      45.166  37.051  34.312  1.00  0.00    -0.744 OA
ENDBRANCH  72  73
ENDBRANCH  53  67
BRANCH  54  77
ATOM     77  C   UNL A   1      42.583  23.650  27.896  1.00  0.00    -0.014 A 
ATOM     78  C   UNL A   1      42.197  22.550  28.682  1.00  0.00     0.010 A 
ATOM     79  C   UNL A   1      42.820  23.458  26.522  1.00  0.00     0.010 A 
ATOM     80  C   UNL A   1      42.074  21.279  28.112  1.00  0.00     0.020 A 
ATOM     81  C   UNL A   1      42.666  22.196  25.942  1.00  0.00     0.020 A 
ATOM     82  C   UNL A   1      42.306  21.111  26.744  1.00  0.00     0.054 A 
BRANCH  82  83
ATOM     83  S   UNL A   1      42.094  19.463  26.016  1.00  0.00     0.124 S 
ATOM     84  O   UNL A   1      42.545  18.592  27.096  1.00  0.00    -0.237 OA
ATOM     85  O   UNL A   1      40.662  19.427  25.729  1.00  0.00    -0.237 OA
ATOM     86  O   UNL A   1      42.955  19.497  24.836  1.00  0.00    -0.744 OA
ENDBRANCH  82  83
ENDBRANCH  54  77
BRANCH  66  87
ATOM     87  C   UNL A   1      47.703  26.776  31.444  1.00  0.00    -0.014 A 
ATOM     88  C   UNL A   1      48.861  26.968  30.669  1.00  0.00     0.010 A 
ATOM     89  C   UNL A   1      47.811  26.116  32.682  1.00  0.00     0.010 A 
ATOM     90  C   UNL A   1      50.089  26.450  31.091  1.00  0.00     0.020 A 
ATOM     91  C   UNL A   1      49.043  25.629  33.125  1.00  0.00     0.020 A 
ATOM     92  C   UNL A   1      50.169  25.775  32.314  1.00  0.00     0.054 A 
BRANCH  92  93
ATOM     93  S   UNL A   1      51.770  25.100  32.835  1.00  0.00     0.124 S 
ATOM     94  O   UNL A   1      52.017  25.829  34.076  1.00  0.00    -0.237 OA
ATOM     95  O   UNL A   1      51.485  23.676  32.987  1.00  0.00    -0.237 OA
ATOM     96  O   UNL A   1      52.664  25.435  31.728  1.00  0.00    -0.744 OA
ENDBRANCH  92  93
ENDBRANCH  66  87
ENDBRANCH  40  41
ENDBRANCH  32  35
ENDBRANCH  30  31
ENDBRANCH   1  30
TORSDOF 16
ENDMDL
MODEL 2
REMARK VINA RESULT:     -10.2      4.789      8.051
REMARK SMILES O=C(COc1ccc2c(=O)c(-c3ccc4c(c3)OCCO4)coc2c1)NCCCNC(=O)c1ccc(-c2c3nc(c(-c4ccc(S(=O)(=O)[O-])cc4)c4ccc([nH]4)c(-c4ccc(S(=O)(=O)[O-])cc4)c4nc(c(-c5ccc(S(=O)(=O)[O-])cc5)c5ccc2[nH]5)C=C4)C=C3)cc1
REMARK SMILES IDX 28 1 27 2 26 3 1 4 2 5 3 7 4 8 5 9 6 10 25 11 7 12 24 13
REMARK SMILES IDX 8 14 23 15 9 16 22 17 10 18 11 19 12 20 13 21 17 22 14 23
REMARK SMILES IDX 16 24 15 25 18 26 21 27 19 28 20 29 29 30 30 31 31 32 32 34
REMARK SMILES IDX 33 35 34 36 92 37 35 38 91 39 36 40 37 41 38 42 85 43 39 44
REMARK SMILES IDX 90 45 84 46 86 47 40 48 89 49 83 50 82 51 41 53 71 54 52 55
REMARK SMILES IDX 70 56 53 57 56 58 69 59 87 60 54 61 55 62 68 64 88 65 57 66
REMARK SMILES IDX 42 67 43 68 51 69 44 70 50 71 45 72 46 73 47 74 48 75 49 76
REMARK SMILES IDX 72 77 73 78 81 79 74 80 80 81 75 82 76 83 77 84 78 85 79 86
REMARK SMILES IDX 58 87 59 88 67 89 60 90 66 91 61 92 62 93 63 94 64 95 65 96
REMARK H PARENT 26 6 30 33 86 52 56 63
REMARK Flexibility Score: inf
ROOT
ATOM      1  C   UNL A   1      35.611  32.671  28.033  1.00  0.00     0.042 C 
ENDROOT
BRANCH   1   2
ATOM      2  C   UNL A   1      34.110  32.525  28.200  1.00  0.00     0.117 C 
BRANCH   2   3
ATOM      3  N   UNL A   1      33.560  31.358  27.541  1.00  0.00    -0.353 N 
ATOM      4  O   UNL A   1      31.562  32.325  26.937  1.00  0.00    -0.271 OA
ATOM      5  C   UNL A   1      32.373  31.409  26.838  1.00  0.00     0.257 C 
ATOM      6  H   UNL A   1      34.047  30.503  27.598  1.00  0.00     0.163 HD
BRANCH   5   7
ATOM      7  C   UNL A   1      32.177  30.245  25.861  1.00  0.00     0.329 C 
BRANCH   7   8
ATOM      8  O   UNL A   1      31.469  29.105  26.350  1.00  0.00    -0.484 OA
BRANCH   8   9
ATOM      9  C   UNL A   1      31.881  27.894  25.856  1.00  0.00     0.123 A 
ATOM     10  C   UNL A   1      32.677  27.760  24.716  1.00  0.00     0.047 A 
ATOM     11  C   UNL A   1      31.584  26.763  26.624  1.00  0.00     0.094 A 
ATOM     12  C   UNL A   1      33.178  26.517  24.341  1.00  0.00     0.020 A 
ATOM     13  C   UNL A   1      32.069  25.509  26.237  1.00  0.00     0.141 A 
ATOM     14  C   UNL A   1      32.872  25.397  25.105  1.00  0.00     0.066 A 
ATOM     15  O   UNL A   1      31.737  24.423  27.009  1.00  0.00    -0.463 OA
ATOM     16  C   UNL A   1      33.411  24.088  24.722  1.00  0.00     0.200 A 
ATOM     17  C   UNL A   1      32.211  23.189  26.616  1.00  0.00     0.208 A 
ATOM     18  O   UNL A   1      34.151  23.972  23.752  1.00  0.00    -0.288 OA
ATOM     19  C   UNL A   1      33.001  22.934  25.561  1.00  0.00     0.065 A 
BRANCH  19  20
ATOM     20  C   UNL A   1      33.448  21.573  25.229  1.00  0.00    -0.007 A 
ATOM     21  C   UNL A   1      34.808  21.297  25.033  1.00  0.00     0.013 A 
ATOM     22  C   UNL A   1      32.522  20.520  25.187  1.00  0.00     0.059 A 
ATOM     23  C   UNL A   1      35.236  19.988  24.800  1.00  0.00     0.051 A 
ATOM     24  C   UNL A   1      32.953  19.214  24.967  1.00  0.00     0.161 A 
ATOM     25  C   UNL A   1      34.309  18.949  24.757  1.00  0.00     0.161 A 
ATOM     26  O   UNL A   1      31.990  18.238  24.973  1.00  0.00    -0.486 OA
ATOM     27  O   UNL A   1      34.803  17.692  24.523  1.00  0.00    -0.486 OA
ATOM     28  C   UNL A   1      32.570  16.939  25.131  1.00  0.00     0.271 C 
ATOM     29  C   UNL A   1      33.755  16.772  24.195  1.00  0.00     0.271 C 
ENDBRANCH  19  20
ENDBRANCH   8   9
ENDBRANCH   7   8
ENDBRANCH   5   7
ENDBRANCH   2   3
ENDBRANCH   1   2
BRANCH   1  30
ATOM     30  C   UNL A   1      36.384  32.744  29.343  1.00  0.00     0.118 C 
BRANCH  30  31
ATOM     31  N   UNL A   1      36.047  31.677  30.276  1.00  0.00    -0.352 N 
ATOM     32  C   UNL A   1      36.727  30.524  30.587  1.00  0.00     0.251 C 
ATOM     33  H   UNL A   1      35.199  31.802  30.760  1.00  0.00     0.163 HD
ATOM     34  O   UNL A   1      36.192  29.700  31.327  1.00  0.00    -0.269 OA
BRANCH  32  35
ATOM     35  C   UNL A   1      38.068  30.251  30.023  1.00  0.00     0.039 A 
ATOM     36  C   UNL A   1      39.170  30.273  30.883  1.00  0.00     0.014 A 
ATOM     37  C   UNL A   1      38.261  29.994  28.662  1.00  0.00     0.014 A 
ATOM     38  C   UNL A   1      40.444  29.978  30.392  1.00  0.00     0.010 A 
ATOM     39  C   UNL A   1      39.516  29.610  28.193  1.00  0.00     0.010 A 
ATOM     40  C   UNL A   1      40.625  29.604  29.049  1.00  0.00    -0.014 A 
BRANCH  40  41
ATOM     41  C   UNL A   1      41.966  29.192  28.554  1.00  0.00     0.031 A 
ATOM     42  C   UNL A   1      43.100  30.180  28.479  1.00  0.00     0.074 A 
ATOM     43  C   UNL A   1      42.157  27.920  28.146  1.00  0.00     0.049 A 
ATOM     44  N   UNL A   1      44.345  29.978  28.123  1.00  0.00    -0.248 NA
ATOM     45  C   UNL A   1      42.799  31.579  28.823  1.00  0.00     0.031 C 
ATOM     46  C   UNL A   1      41.124  26.881  28.109  1.00  0.00     0.029 A 
ATOM     47  N   UNL A   1      43.285  27.281  27.699  1.00  0.00    -0.354 N 
ATOM     48  C   UNL A   1      44.969  31.219  28.196  1.00  0.00     0.074 A 
ATOM     49  C   UNL A   1      43.954  32.178  28.571  1.00  0.00     0.031 C 
ATOM     50  C   UNL A   1      41.678  25.723  27.713  1.00  0.00     0.029 A 
ATOM     51  C   UNL A   1      43.092  25.944  27.431  1.00  0.00     0.049 A 
ATOM     52  H   UNL A   1      44.150  27.734  27.581  1.00  0.00     0.167 HD
ATOM     53  C   UNL A   1      46.273  31.529  27.994  1.00  0.00     0.031 A 
ATOM     54  C   UNL A   1      43.956  24.999  27.016  1.00  0.00     0.031 A 
ATOM     55  C   UNL A   1      47.283  30.573  27.621  1.00  0.00     0.049 A 
ATOM     56  C   UNL A   1      45.399  25.367  26.808  1.00  0.00     0.074 A 
ATOM     57  C   UNL A   1      48.641  30.779  27.444  1.00  0.00     0.029 A 
ATOM     58  N   UNL A   1      47.048  29.231  27.359  1.00  0.00    -0.354 N 
ATOM     59  N   UNL A   1      45.985  26.530  26.960  1.00  0.00    -0.248 NA
ATOM     60  C   UNL A   1      46.302  24.284  26.394  1.00  0.00     0.031 C 
ATOM     61  C   UNL A   1      49.216  29.575  27.020  1.00  0.00     0.029 A 
ATOM     62  C   UNL A   1      48.230  28.602  27.001  1.00  0.00     0.049 A 
ATOM     63  H   UNL A   1      46.170  28.789  27.420  1.00  0.00     0.167 HD
ATOM     64  C   UNL A   1      47.331  26.314  26.687  1.00  0.00     0.074 A 
ATOM     65  C   UNL A   1      47.474  24.903  26.387  1.00  0.00     0.031 C 
ATOM     66  C   UNL A   1      48.358  27.201  26.686  1.00  0.00     0.031 A 
BRANCH  53  67
ATOM     67  C   UNL A   1      46.682  32.971  28.170  1.00  0.00    -0.014 A 
ATOM     68  C   UNL A   1      46.660  33.873  27.089  1.00  0.00     0.010 A 
ATOM     69  C   UNL A   1      47.051  33.444  29.443  1.00  0.00     0.010 A 
ATOM     70  C   UNL A   1      47.039  35.206  27.268  1.00  0.00     0.020 A 
ATOM     71  C   UNL A   1      47.400  34.785  29.633  1.00  0.00     0.020 A 
ATOM     72  C   UNL A   1      47.408  35.653  28.540  1.00  0.00     0.054 A 
BRANCH  72  73
ATOM     73  S   UNL A   1      47.873  37.395  28.747  1.00  0.00     0.124 S 
ATOM     74  O   UNL A   1      47.945  37.517  30.201  1.00  0.00    -0.237 OA
ATOM     75  O   UNL A   1      49.153  37.469  28.047  1.00  0.00    -0.237 OA
ATOM     76  O   UNL A   1      46.776  38.125  28.115  1.00  0.00    -0.744 OA
ENDBRANCH  72  73
ENDBRANCH  53  67
BRANCH  54  77
ATOM     77  C   UNL A   1      43.483  23.603  26.800  1.00  0.00    -0.014 A 
ATOM     78  C   UNL A   1      43.365  23.077  25.500  1.00  0.00     0.010 A 
ATOM     79  C   UNL A   1      43.154  22.787  27.898  1.00  0.00     0.010 A 
ATOM     80  C   UNL A   1      42.906  21.771  25.302  1.00  0.00     0.020 A 
ATOM     81  C   UNL A   1      42.727  21.470  27.705  1.00  0.00     0.020 A 
ATOM     82  C   UNL A   1      42.593  20.975  26.406  1.00  0.00     0.054 A 
BRANCH  82  83
ATOM     83  S   UNL A   1      42.046  19.268  26.127  1.00  0.00     0.124 S 
ATOM     84  O   UNL A   1      42.842  18.878  24.968  1.00  0.00    -0.237 OA
ATOM     85  O   UNL A   1      42.397  18.615  27.386  1.00  0.00    -0.237 OA
ATOM     86  O   UNL A   1      40.611  19.404  25.886  1.00  0.00    -0.744 OA
ENDBRANCH  82  83
ENDBRANCH  54  77
BRANCH  66  87
ATOM     87  C   UNL A   1      49.732  26.660  26.383  1.00  0.00    -0.014 A 
ATOM     88  C   UNL A   1      50.266  26.693  25.082  1.00  0.00     0.010 A 
ATOM     89  C   UNL A   1      50.502  26.106  27.423  1.00  0.00     0.010 A 
ATOM     90  C   UNL A   1      51.513  26.121  24.814  1.00  0.00     0.020 A 
ATOM     91  C   UNL A   1      51.765  25.567  27.166  1.00  0.00     0.020 A 
ATOM     92  C   UNL A   1      52.251  25.553  25.858  1.00  0.00     0.054 A 
BRANCH  92  93
ATOM     93  S   UNL A   1      53.860  24.807  25.484  1.00  0.00     0.124 S 
ATOM     94  O   UNL A   1      54.362  25.681  24.427  1.00  0.00    -0.237 OA
ATOM     95  O   UNL A   1      54.562  24.897  26.762  1.00  0.00    -0.237 OA
ATOM     96  O   UNL A   1      53.523  23.450  25.060  1.00  0.00    -0.744 OA
ENDBRANCH  92  93
ENDBRANCH  66  87
ENDBRANCH  40  41
ENDBRANCH  32  35
ENDBRANCH  30  31
ENDBRANCH   1  30
TORSDOF 16
ENDMDL
MODEL 3
REMARK VINA RESULT:     -10.1      1.368      2.440
REMARK SMILES O=C(COc1ccc2c(=O)c(-c3ccc4c(c3)OCCO4)coc2c1)NCCCNC(=O)c1ccc(-c2c3nc(c(-c4ccc(S(=O)(=O)[O-])cc4)c4ccc([nH]4)c(-c4ccc(S(=O)(=O)[O-])cc4)c4nc(c(-c5ccc(S(=O)(=O)[O-])cc5)c5ccc2[nH]5)C=C4)C=C3)cc1
REMARK SMILES IDX 28 1 27 2 26 3 1 4 2 5 3 7 4 8 5 9 6 10 25 11 7 12 24 13
REMARK SMILES IDX 8 14 23 15 9 16 22 17 10 18 11 19 12 20 13 21 17 22 14 23
REMARK SMILES IDX 16 24 15 25 18 26 21 27 19 28 20 29 29 30 30 31 31 32 32 34
REMARK SMILES IDX 33 35 34 36 92 37 35 38 91 39 36 40 37 41 38 42 85 43 39 44
REMARK SMILES IDX 90 45 84 46 86 47 40 48 89 49 83 50 82 51 41 53 71 54 52 55
REMARK SMILES IDX 70 56 53 57 56 58 69 59 87 60 54 61 55 62 68 64 88 65 57 66
REMARK SMILES IDX 42 67 43 68 51 69 44 70 50 71 45 72 46 73 47 74 48 75 49 76
REMARK SMILES IDX 72 77 73 78 81 79 74 80 80 81 75 82 76 83 77 84 78 85 79 86
REMARK SMILES IDX 58 87 59 88 67 89 60 90 66 91 61 92 62 93 63 94 64 95 65 96
REMARK H PARENT 26 6 30 33 86 52 56 63
REMARK Flexibility Score: inf
ROOT
ATOM      1  C   UNL A   1      34.350  34.372  28.215  1.00  0.00     0.042 C 
ENDROOT
BRANCH   1   2
ATOM      2  C   UNL A   1      33.464  35.013  29.266  1.00  0.00     0.117 C 
BRANCH   2   3
ATOM      3  N   UNL A   1      34.190  35.514  30.415  1.00  0.00    -0.353 N 
ATOM      4  O   UNL A   1      32.528  35.119  31.957  1.00  0.00    -0.271 OA
ATOM      5  C   UNL A   1      33.698  35.391  31.700  1.00  0.00     0.257 C 
ATOM      6  H   UNL A   1      35.059  35.956  30.276  1.00  0.00     0.163 HD
BRANCH   5   7
ATOM      7  C   UNL A   1      34.759  35.558  32.792  1.00  0.00     0.329 C 
BRANCH   7   8
ATOM      8  O   UNL A   1      34.664  34.690  33.922  1.00  0.00    -0.484 OA
BRANCH   8   9
ATOM      9  C   UNL A   1      35.522  33.621  33.922  1.00  0.00     0.123 A 
ATOM     10  C   UNL A   1      35.442  32.572  33.002  1.00  0.00     0.047 A 
ATOM     11  C   UNL A   1      36.599  33.673  34.813  1.00  0.00     0.094 A 
ATOM     12  C   UNL A   1      36.422  31.584  32.964  1.00  0.00     0.020 A 
ATOM     13  C   UNL A   1      37.574  32.670  34.790  1.00  0.00     0.141 A 
ATOM     14  C   UNL A   1      37.485  31.639  33.858  1.00  0.00     0.066 A 
ATOM     15  O   UNL A   1      38.602  32.750  35.696  1.00  0.00    -0.463 OA
ATOM     16  C   UNL A   1      38.528  30.610  33.810  1.00  0.00     0.200 A 
ATOM     17  C   UNL A   1      39.555  31.753  35.674  1.00  0.00     0.208 A 
ATOM     18  O   UNL A   1      38.490  29.715  32.973  1.00  0.00    -0.288 OA
ATOM     19  C   UNL A   1      39.604  30.712  34.828  1.00  0.00     0.065 A 
BRANCH  19  20
ATOM     20  C   UNL A   1      40.667  29.699  34.894  1.00  0.00    -0.007 A 
ATOM     21  C   UNL A   1      40.777  28.714  33.901  1.00  0.00     0.013 A 
ATOM     22  C   UNL A   1      41.634  29.760  35.908  1.00  0.00     0.059 A 
ATOM     23  C   UNL A   1      41.838  27.806  33.923  1.00  0.00     0.051 A 
ATOM     24  C   UNL A   1      42.697  28.860  35.920  1.00  0.00     0.161 A 
ATOM     25  C   UNL A   1      42.791  27.872  34.937  1.00  0.00     0.161 A 
ATOM     26  O   UNL A   1      43.618  29.007  36.926  1.00  0.00    -0.486 OA
ATOM     27  O   UNL A   1      43.803  26.947  34.893  1.00  0.00    -0.486 OA
ATOM     28  C   UNL A   1      44.832  28.314  36.622  1.00  0.00     0.271 C 
ATOM     29  C   UNL A   1      44.531  26.911  36.125  1.00  0.00     0.271 C 
ENDBRANCH  19  20
ENDBRANCH   8   9
ENDBRANCH   7   8
ENDBRANCH   5   7
ENDBRANCH   2   3
ENDBRANCH   1   2
BRANCH   1  30
ATOM     30  C   UNL A   1      34.873  32.992  28.593  1.00  0.00     0.118 C 
BRANCH  30  31
ATOM     31  N   UNL A   1      34.111  31.900  28.000  1.00  0.00    -0.352 N 
ATOM     32  C   UNL A   1      34.481  30.603  27.737  1.00  0.00     0.251 C 
ATOM     33  H   UNL A   1      33.187  32.127  27.750  1.00  0.00     0.163 HD
ATOM     34  O   UNL A   1      33.704  29.878  27.118  1.00  0.00    -0.269 OA
BRANCH  32  35
ATOM     35  C   UNL A   1      35.802  30.083  28.157  1.00  0.00     0.039 A 
ATOM     36  C   UNL A   1      36.862  30.144  27.247  1.00  0.00     0.014 A 
ATOM     37  C   UNL A   1      36.009  29.521  29.420  1.00  0.00     0.014 A 
ATOM     38  C   UNL A   1      38.131  29.703  27.626  1.00  0.00     0.010 A 
ATOM     39  C   UNL A   1      37.294  29.166  29.827  1.00  0.00     0.010 A 
ATOM     40  C   UNL A   1      38.370  29.246  28.934  1.00  0.00    -0.014 A 
BRANCH  40  41
ATOM     41  C   UNL A   1      39.744  28.871  29.363  1.00  0.00     0.031 A 
ATOM     42  C   UNL A   1      40.577  29.807  30.199  1.00  0.00     0.074 A 
ATOM     43  C   UNL A   1      40.256  27.684  28.975  1.00  0.00     0.049 A 
ATOM     44  N   UNL A   1      41.772  29.617  30.704  1.00  0.00    -0.248 NA
ATOM     45  C   UNL A   1      40.012  31.134  30.490  1.00  0.00     0.031 C 
ATOM     46  C   UNL A   1      39.577  26.713  28.112  1.00  0.00     0.029 A 
ATOM     47  N   UNL A   1      41.455  27.085  29.266  1.00  0.00    -0.354 N 
ATOM     48  C   UNL A   1      42.099  30.797  31.363  1.00  0.00     0.074 A 
ATOM     49  C   UNL A   1      41.005  31.718  31.144  1.00  0.00     0.031 C 
ATOM     50  C   UNL A   1      40.348  25.621  27.986  1.00  0.00     0.029 A 
ATOM     51  C   UNL A   1      41.590  25.827  28.724  1.00  0.00     0.049 A 
ATOM     52  H   UNL A   1      42.154  27.514  29.809  1.00  0.00     0.167 HD
ATOM     53  C   UNL A   1      43.198  31.082  32.104  1.00  0.00     0.031 A 
ATOM     54  C   UNL A   1      42.592  24.933  28.818  1.00  0.00     0.031 A 
ATOM     55  C   UNL A   1      44.286  30.164  32.322  1.00  0.00     0.049 A 
ATOM     56  C   UNL A   1      43.796  25.269  29.653  1.00  0.00     0.074 A 
ATOM     57  C   UNL A   1      45.418  30.339  33.100  1.00  0.00     0.029 A 
ATOM     58  N   UNL A   1      44.384  28.900  31.757  1.00  0.00    -0.354 N 
ATOM     59  N   UNL A   1      44.050  26.361  30.334  1.00  0.00    -0.248 NA
ATOM     60  C   UNL A   1      44.839  24.239  29.752  1.00  0.00     0.031 C 
ATOM     61  C   UNL A   1      46.227  29.205  32.959  1.00  0.00     0.029 A 
ATOM     62  C   UNL A   1      45.567  28.294  32.150  1.00  0.00     0.049 A 
ATOM     63  H   UNL A   1      43.711  28.494  31.164  1.00  0.00     0.167 HD
ATOM     64  C   UNL A   1      45.270  26.139  30.964  1.00  0.00     0.074 A 
ATOM     65  C   UNL A   1      45.686  24.798  30.603  1.00  0.00     0.031 C 
ATOM     66  C   UNL A   1      45.981  26.967  31.770  1.00  0.00     0.031 A 
BRANCH  53  67
ATOM     67  C   UNL A   1      43.279  32.451  32.734  1.00  0.00    -0.014 A 
ATOM     68  C   UNL A   1      43.836  33.542  32.039  1.00  0.00     0.010 A 
ATOM     69  C   UNL A   1      42.750  32.662  34.021  1.00  0.00     0.010 A 
ATOM     70  C   UNL A   1      43.901  34.804  32.635  1.00  0.00     0.020 A 
ATOM     71  C   UNL A   1      42.786  33.931  34.608  1.00  0.00     0.020 A 
ATOM     72  C   UNL A   1      43.376  34.990  33.917  1.00  0.00     0.054 A 
BRANCH  72  73
ATOM     73  S   UNL A   1      43.454  36.646  34.655  1.00  0.00     0.124 S 
ATOM     74  O   UNL A   1      44.313  37.357  33.711  1.00  0.00    -0.237 OA
ATOM     75  O   UNL A   1      42.053  37.059  34.660  1.00  0.00    -0.237 OA
ATOM     76  O   UNL A   1      44.038  36.412  35.973  1.00  0.00    -0.744 OA
ENDBRANCH  72  73
ENDBRANCH  53  67
BRANCH  54  77
ATOM     77  C   UNL A   1      42.484  23.619  28.124  1.00  0.00    -0.014 A 
ATOM     78  C   UNL A   1      41.708  22.581  28.670  1.00  0.00     0.010 A 
ATOM     79  C   UNL A   1      43.152  23.403  26.905  1.00  0.00     0.010 A 
ATOM     80  C   UNL A   1      41.622  21.344  28.023  1.00  0.00     0.020 A 
ATOM     81  C   UNL A   1      43.041  22.180  26.238  1.00  0.00     0.020 A 
ATOM     82  C   UNL A   1      42.287  21.153  26.808  1.00  0.00     0.054 A 
BRANCH  82  83
ATOM     83  S   UNL A   1      42.121  19.556  25.962  1.00  0.00     0.124 S 
ATOM     84  O   UNL A   1      43.072  19.694  24.864  1.00  0.00    -0.237 OA
ATOM     85  O   UNL A   1      42.494  18.606  27.007  1.00  0.00    -0.237 OA
ATOM     86  O   UNL A   1      40.713  19.520  25.573  1.00  0.00    -0.744 OA
ENDBRANCH  82  83
ENDBRANCH  54  77
BRANCH  66  87
ATOM     87  C   UNL A   1      47.268  26.429  32.343  1.00  0.00    -0.014 A 
ATOM     88  C   UNL A   1      48.501  26.630  31.698  1.00  0.00     0.010 A 
ATOM     89  C   UNL A   1      47.238  25.706  33.550  1.00  0.00     0.010 A 
ATOM     90  C   UNL A   1      49.670  26.062  32.212  1.00  0.00     0.020 A 
ATOM     91  C   UNL A   1      48.410  25.167  34.087  1.00  0.00     0.020 A 
ATOM     92  C   UNL A   1      49.614  25.325  33.400  1.00  0.00     0.054 A 
BRANCH  92  93
ATOM     93  S   UNL A   1      51.141  24.587  34.042  1.00  0.00     0.124 S 
ATOM     94  O   UNL A   1      51.962  24.493  32.837  1.00  0.00    -0.237 OA
ATOM     95  O   UNL A   1      51.583  25.567  35.030  1.00  0.00    -0.237 OA
ATOM     96  O   UNL A   1      50.701  23.308  34.595  1.00  0.00    -0.744 OA
ENDBRANCH  92  93
ENDBRANCH  66  87
ENDBRANCH  40  41
ENDBRANCH  32  35
ENDBRANCH  30  31
ENDBRANCH   1  30
TORSDOF 16
ENDMDL
