MODEL 1
REMARK VINA RESULT:     -10.9      0.000      0.000
REMARK SMILES C[C@H](C(=O)NCCCNC(=O)c1ccc(-c2c3nc(c(-c4ccc(S(=O)(=O)[O-])cc4)c4ccc([nH]4)c(-c4ccc(S(=O)(=O)[O-])cc4)c4nc(c(-c5ccc(S(=O)(=O)[O-])cc5)c5ccc2[nH]5)C=C4)C=C3)cc1)c1cccc(C(=O)c2ccccc2)c1
REMARK SMILES IDX 7 1 6 2 5 3 3 4 4 5 2 7 1 8 72 9 73 10 85 11 74 12 76 13
REMARK SMILES IDX 75 14 77 15 78 16 79 17 80 18 84 19 81 20 83 21 82 22 8 23
REMARK SMILES IDX 9 24 10 25 11 27 12 28 13 29 71 30 14 31 70 32 15 33 16 34
REMARK SMILES IDX 17 35 64 36 18 37 69 38 63 39 65 40 19 41 68 42 62 43 61 44
REMARK SMILES IDX 20 46 50 47 31 48 49 49 32 50 35 51 48 52 66 53 33 54 34 55
REMARK SMILES IDX 47 57 67 58 36 59 21 60 22 61 30 62 23 63 29 64 24 65 25 66
REMARK SMILES IDX 26 67 27 68 28 69 51 70 52 71 60 72 53 73 59 74 54 75 55 76
REMARK SMILES IDX 56 77 57 78 58 79 37 80 38 81 46 82 39 83 45 84 40 85 41 86
REMARK SMILES IDX 42 87 43 88 44 89
REMARK H PARENT 5 6 9 26 65 45 35 56
REMARK Flexibility Score: inf
ROOT
ATOM      1  C   UNL A   1      33.843  27.957  26.268  1.00  0.00     0.042 C 
ENDROOT
BRANCH   1   2
ATOM      2  C   UNL A   1      33.558  28.761  25.009  1.00  0.00     0.117 C 
BRANCH   2   3
ATOM      3  N   UNL A   1      33.962  28.074  23.792  1.00  0.00    -0.356 N 
ATOM      4  C   UNL A   1      33.391  27.037  23.115  1.00  0.00     0.227 C 
ATOM      5  O   UNL A   1      33.892  26.740  22.026  1.00  0.00    -0.274 OA
ATOM      6  H   UNL A   1      34.792  28.416  23.387  1.00  0.00     0.163 HD
BRANCH   4   7
ATOM      7  C   UNL A   1      32.162  26.285  23.639  1.00  0.00     0.105 C 
ATOM      8  C   UNL A   1      31.208  25.880  22.514  1.00  0.00     0.023 C 
BRANCH   7   9
ATOM      9  C   UNL A   1      32.445  25.159  24.629  1.00  0.00    -0.035 A 
ATOM     10  C   UNL A   1      31.667  25.037  25.791  1.00  0.00     0.004 A 
ATOM     11  C   UNL A   1      33.476  24.227  24.433  1.00  0.00     0.016 A 
ATOM     12  C   UNL A   1      31.902  24.010  26.707  1.00  0.00     0.001 A 
ATOM     13  C   UNL A   1      33.727  23.192  25.344  1.00  0.00     0.023 A 
ATOM     14  C   UNL A   1      32.925  23.087  26.484  1.00  0.00     0.012 A 
BRANCH  13  15
ATOM     15  C   UNL A   1      34.783  22.161  25.099  1.00  0.00     0.193 C 
ATOM     16  O   UNL A   1      34.494  21.095  24.562  1.00  0.00    -0.289 OA
BRANCH  15  17
ATOM     17  C   UNL A   1      36.205  22.420  25.428  1.00  0.00     0.022 A 
ATOM     18  C   UNL A   1      36.562  23.693  25.884  1.00  0.00     0.012 A 
ATOM     19  C   UNL A   1      37.177  21.420  25.306  1.00  0.00     0.012 A 
ATOM     20  C   UNL A   1      37.880  23.949  26.266  1.00  0.00     0.001 A 
ATOM     21  C   UNL A   1      38.491  21.677  25.700  1.00  0.00     0.001 A 
ATOM     22  C   UNL A   1      38.840  22.938  26.185  1.00  0.00     0.000 A 
ENDBRANCH  15  17
ENDBRANCH  13  15
ENDBRANCH   7   9
ENDBRANCH   4   7
ENDBRANCH   2   3
ENDBRANCH   1   2
BRANCH   1  23
ATOM     23  C   UNL A   1      33.322  28.596  27.549  1.00  0.00     0.118 C 
BRANCH  23  24
ATOM     24  N   UNL A   1      33.452  30.045  27.555  1.00  0.00    -0.352 N 
ATOM     25  C   UNL A   1      34.517  30.836  27.916  1.00  0.00     0.251 C 
ATOM     26  H   UNL A   1      32.654  30.536  27.251  1.00  0.00     0.163 HD
ATOM     27  O   UNL A   1      34.359  32.053  28.002  1.00  0.00    -0.269 OA
BRANCH  25  28
ATOM     28  C   UNL A   1      35.833  30.237  28.234  1.00  0.00     0.039 A 
ATOM     29  C   UNL A   1      36.814  30.204  27.239  1.00  0.00     0.014 A 
ATOM     30  C   UNL A   1      36.109  29.707  29.497  1.00  0.00     0.014 A 
ATOM     31  C   UNL A   1      38.092  29.722  27.536  1.00  0.00     0.010 A 
ATOM     32  C   UNL A   1      37.406  29.305  29.816  1.00  0.00     0.010 A 
ATOM     33  C   UNL A   1      38.414  29.316  28.842  1.00  0.00    -0.014 A 
BRANCH  33  34
ATOM     34  C   UNL A   1      39.808  28.945  29.210  1.00  0.00     0.031 A 
ATOM     35  C   UNL A   1      40.716  29.939  29.885  1.00  0.00     0.074 A 
ATOM     36  C   UNL A   1      40.276  27.723  28.877  1.00  0.00     0.049 A 
ATOM     37  N   UNL A   1      41.970  29.802  30.234  1.00  0.00    -0.248 NA
ATOM     38  C   UNL A   1      40.152  31.263  30.193  1.00  0.00     0.031 C 
ATOM     39  C   UNL A   1      39.512  26.682  28.183  1.00  0.00     0.029 A 
ATOM     40  N   UNL A   1      41.509  27.149  29.071  1.00  0.00    -0.354 N 
ATOM     41  C   UNL A   1      42.348  31.019  30.787  1.00  0.00     0.074 A 
ATOM     42  C   UNL A   1      41.203  31.899  30.692  1.00  0.00     0.031 C 
ATOM     43  C   UNL A   1      40.282  25.592  28.037  1.00  0.00     0.029 A 
ATOM     44  C   UNL A   1      41.608  25.869  28.577  1.00  0.00     0.049 A 
ATOM     45  H   UNL A   1      42.253  27.612  29.521  1.00  0.00     0.167 HD
ATOM     46  C   UNL A   1      43.535  31.369  31.339  1.00  0.00     0.031 A 
ATOM     47  C   UNL A   1      42.650  25.015  28.547  1.00  0.00     0.031 A 
ATOM     48  C   UNL A   1      44.669  30.489  31.443  1.00  0.00     0.049 A 
ATOM     49  C   UNL A   1      43.964  25.441  29.144  1.00  0.00     0.074 A 
ATOM     50  C   UNL A   1      45.892  30.734  32.044  1.00  0.00     0.029 A 
ATOM     51  N   UNL A   1      44.728  29.201  30.931  1.00  0.00    -0.354 N 
ATOM     52  N   UNL A   1      44.272  26.569  29.737  1.00  0.00    -0.248 NA
ATOM     53  C   UNL A   1      45.069  24.474  29.077  1.00  0.00     0.031 C 
ATOM     54  C   UNL A   1      46.713  29.621  31.837  1.00  0.00     0.029 A 
ATOM     55  C   UNL A   1      45.978  28.655  31.170  1.00  0.00     0.049 A 
ATOM     56  H   UNL A   1      43.991  28.744  30.466  1.00  0.00     0.167 HD
ATOM     57  C   UNL A   1      45.598  26.436  30.136  1.00  0.00     0.074 A 
ATOM     58  C   UNL A   1      46.024  25.111  29.740  1.00  0.00     0.031 C 
ATOM     59  C   UNL A   1      46.392  27.334  30.771  1.00  0.00     0.031 A 
BRANCH  46  60
ATOM     60  C   UNL A   1      43.683  32.769  31.874  1.00  0.00    -0.014 A 
ATOM     61  C   UNL A   1      44.273  33.785  31.101  1.00  0.00     0.010 A 
ATOM     62  C   UNL A   1      43.138  33.096  33.130  1.00  0.00     0.010 A 
ATOM     63  C   UNL A   1      44.332  35.096  31.582  1.00  0.00     0.020 A 
ATOM     64  C   UNL A   1      43.170  34.412  33.602  1.00  0.00     0.020 A 
ATOM     65  C   UNL A   1      43.776  35.403  32.828  1.00  0.00     0.054 A 
BRANCH  65  66
ATOM     66  S   UNL A   1      43.812  37.124  33.395  1.00  0.00     0.124 S 
ATOM     67  O   UNL A   1      42.635  37.183  34.258  1.00  0.00    -0.237 OA
ATOM     68  O   UNL A   1      45.098  37.208  34.081  1.00  0.00    -0.237 OA
ATOM     69  O   UNL A   1      43.716  37.900  32.160  1.00  0.00    -0.744 OA
ENDBRANCH  65  66
ENDBRANCH  46  60
BRANCH  47  70
ATOM     70  C   UNL A   1      42.506  23.673  27.916  1.00  0.00    -0.014 A 
ATOM     71  C   UNL A   1      42.154  22.549  28.685  1.00  0.00     0.010 A 
ATOM     72  C   UNL A   1      42.748  23.506  26.539  1.00  0.00     0.010 A 
ATOM     73  C   UNL A   1      42.085  21.281  28.100  1.00  0.00     0.020 A 
ATOM     74  C   UNL A   1      42.644  22.247  25.943  1.00  0.00     0.020 A 
ATOM     75  C   UNL A   1      42.332  21.138  26.731  1.00  0.00     0.054 A 
BRANCH  75  76
ATOM     76  S   UNL A   1      42.220  19.487  25.988  1.00  0.00     0.124 S 
ATOM     77  O   UNL A   1      43.081  19.623  24.819  1.00  0.00    -0.237 OA
ATOM     78  O   UNL A   1      42.727  18.627  27.054  1.00  0.00    -0.237 OA
ATOM     79  O   UNL A   1      40.795  19.338  25.703  1.00  0.00    -0.744 OA
ENDBRANCH  75  76
ENDBRANCH  47  70
BRANCH  59  80
ATOM     80  C   UNL A   1      47.796  26.902  31.109  1.00  0.00    -0.014 A 
ATOM     81  C   UNL A   1      48.088  26.250  32.320  1.00  0.00     0.010 A 
ATOM     82  C   UNL A   1      48.829  27.110  30.177  1.00  0.00     0.010 A 
ATOM     83  C   UNL A   1      49.395  25.846  32.606  1.00  0.00     0.020 A 
ATOM     84  C   UNL A   1      50.130  26.678  30.445  1.00  0.00     0.020 A 
ATOM     85  C   UNL A   1      50.407  26.061  31.666  1.00  0.00     0.054 A 
BRANCH  85  86
ATOM     86  S   UNL A   1      52.086  25.488  32.047  1.00  0.00     0.124 S 
ATOM     87  O   UNL A   1      52.411  26.271  33.236  1.00  0.00    -0.237 OA
ATOM     88  O   UNL A   1      51.893  24.057  32.268  1.00  0.00    -0.237 OA
ATOM     89  O   UNL A   1      52.850  25.830  30.848  1.00  0.00    -0.744 OA
ENDBRANCH  85  86
ENDBRANCH  59  80
ENDBRANCH  33  34
ENDBRANCH  25  28
ENDBRANCH  23  24
ENDBRANCH   1  23
TORSDOF 16
ENDMDL
MODEL 2
REMARK VINA RESULT:     -10.8      3.054      6.557
REMARK SMILES C[C@H](C(=O)NCCCNC(=O)c1ccc(-c2c3nc(c(-c4ccc(S(=O)(=O)[O-])cc4)c4ccc([nH]4)c(-c4ccc(S(=O)(=O)[O-])cc4)c4nc(c(-c5ccc(S(=O)(=O)[O-])cc5)c5ccc2[nH]5)C=C4)C=C3)cc1)c1cccc(C(=O)c2ccccc2)c1
REMARK SMILES IDX 7 1 6 2 5 3 3 4 4 5 2 7 1 8 72 9 73 10 85 11 74 12 76 13
REMARK SMILES IDX 75 14 77 15 78 16 79 17 80 18 84 19 81 20 83 21 82 22 8 23
REMARK SMILES IDX 9 24 10 25 11 27 12 28 13 29 71 30 14 31 70 32 15 33 16 34
REMARK SMILES IDX 17 35 64 36 18 37 69 38 63 39 65 40 19 41 68 42 62 43 61 44
REMARK SMILES IDX 20 46 50 47 31 48 49 49 32 50 35 51 48 52 66 53 33 54 34 55
REMARK SMILES IDX 47 57 67 58 36 59 21 60 22 61 30 62 23 63 29 64 24 65 25 66
REMARK SMILES IDX 26 67 27 68 28 69 51 70 52 71 60 72 53 73 59 74 54 75 55 76
REMARK SMILES IDX 56 77 57 78 58 79 37 80 38 81 46 82 39 83 45 84 40 85 41 86
REMARK SMILES IDX 42 87 43 88 44 89
REMARK H PARENT 5 6 9 26 65 45 35 56
REMARK Flexibility Score: inf
ROOT
ATOM      1  C   UNL A   1      34.788  34.000  29.367  1.00  0.00     0.042 C 
ENDROOT
BRANCH   1   2
ATOM      2  C   UNL A   1      34.996  33.234  30.664  1.00  0.00     0.117 C 
BRANCH   2   3
ATOM      3  N   UNL A   1      35.097  34.101  31.827  1.00  0.00    -0.356 N 
ATOM      4  C   UNL A   1      36.170  34.465  32.586  1.00  0.00     0.227 C 
ATOM      5  O   UNL A   1      35.976  35.329  33.447  1.00  0.00    -0.274 OA
ATOM      6  H   UNL A   1      34.242  34.495  32.118  1.00  0.00     0.163 HD
BRANCH   4   7
ATOM      7  C   UNL A   1      37.569  33.874  32.375  1.00  0.00     0.105 C 
ATOM      8  C   UNL A   1      38.367  34.638  31.317  1.00  0.00     0.023 C 
BRANCH   7   9
ATOM      9  C   UNL A   1      38.365  33.586  33.645  1.00  0.00    -0.035 A 
ATOM     10  C   UNL A   1      38.828  34.648  34.437  1.00  0.00     0.004 A 
ATOM     11  C   UNL A   1      38.670  32.281  34.061  1.00  0.00     0.016 A 
ATOM     12  C   UNL A   1      39.550  34.409  35.607  1.00  0.00     0.001 A 
ATOM     13  C   UNL A   1      39.396  32.023  35.232  1.00  0.00     0.023 A 
ATOM     14  C   UNL A   1      39.831  33.101  36.007  1.00  0.00     0.012 A 
BRANCH  13  15
ATOM     15  C   UNL A   1      39.662  30.630  35.707  1.00  0.00     0.193 C 
ATOM     16  O   UNL A   1      38.866  30.068  36.454  1.00  0.00    -0.289 OA
BRANCH  15  17
ATOM     17  C   UNL A   1      40.845  29.868  35.239  1.00  0.00     0.022 A 
ATOM     18  C   UNL A   1      42.044  29.998  35.948  1.00  0.00     0.012 A 
ATOM     19  C   UNL A   1      40.775  29.021  34.126  1.00  0.00     0.012 A 
ATOM     20  C   UNL A   1      43.156  29.243  35.574  1.00  0.00     0.001 A 
ATOM     21  C   UNL A   1      41.887  28.260  33.764  1.00  0.00     0.001 A 
ATOM     22  C   UNL A   1      43.074  28.366  34.491  1.00  0.00     0.000 A 
ENDBRANCH  15  17
ENDBRANCH  13  15
ENDBRANCH   7   9
ENDBRANCH   4   7
ENDBRANCH   2   3
ENDBRANCH   1   2
BRANCH   1  23
ATOM     23  C   UNL A   1      35.111  33.202  28.110  1.00  0.00     0.118 C 
BRANCH  23  24
ATOM     24  N   UNL A   1      34.160  32.131  27.857  1.00  0.00    -0.352 N 
ATOM     25  C   UNL A   1      34.351  30.771  27.810  1.00  0.00     0.251 C 
ATOM     26  H   UNL A   1      33.234  32.426  27.697  1.00  0.00     0.163 HD
ATOM     27  O   UNL A   1      33.437  30.048  27.415  1.00  0.00    -0.269 OA
BRANCH  25  28
ATOM     28  C   UNL A   1      35.652  30.175  28.192  1.00  0.00     0.039 A 
ATOM     29  C   UNL A   1      36.656  30.077  27.225  1.00  0.00     0.014 A 
ATOM     30  C   UNL A   1      35.890  29.711  29.489  1.00  0.00     0.014 A 
ATOM     31  C   UNL A   1      37.920  29.597  27.580  1.00  0.00     0.010 A 
ATOM     32  C   UNL A   1      37.174  29.313  29.861  1.00  0.00     0.010 A 
ATOM     33  C   UNL A   1      38.206  29.259  28.913  1.00  0.00    -0.014 A 
BRANCH  33  34
ATOM     34  C   UNL A   1      39.586  28.893  29.335  1.00  0.00     0.031 A 
ATOM     35  C   UNL A   1      40.442  29.870  30.097  1.00  0.00     0.074 A 
ATOM     36  C   UNL A   1      40.090  27.694  28.974  1.00  0.00     0.049 A 
ATOM     37  N   UNL A   1      41.679  29.736  30.502  1.00  0.00    -0.248 NA
ATOM     38  C   UNL A   1      39.841  31.171  30.432  1.00  0.00     0.031 C 
ATOM     39  C   UNL A   1      39.379  26.673  28.200  1.00  0.00     0.029 A 
ATOM     40  N   UNL A   1      41.321  27.130  29.206  1.00  0.00    -0.354 N 
ATOM     41  C   UNL A   1      42.008  30.934  31.124  1.00  0.00     0.074 A 
ATOM     42  C   UNL A   1      40.856  31.800  31.009  1.00  0.00     0.031 C 
ATOM     43  C   UNL A   1      40.173  25.601  28.046  1.00  0.00     0.029 A 
ATOM     44  C   UNL A   1      41.466  25.874  28.664  1.00  0.00     0.049 A 
ATOM     45  H   UNL A   1      42.034  27.583  29.712  1.00  0.00     0.167 HD
ATOM     46  C   UNL A   1      43.160  31.277  31.750  1.00  0.00     0.031 A 
ATOM     47  C   UNL A   1      42.522  25.037  28.650  1.00  0.00     0.031 A 
ATOM     48  C   UNL A   1      44.303  30.409  31.874  1.00  0.00     0.049 A 
ATOM     49  C   UNL A   1      43.797  25.456  29.330  1.00  0.00     0.074 A 
ATOM     50  C   UNL A   1      45.490  30.646  32.546  1.00  0.00     0.029 A 
ATOM     51  N   UNL A   1      44.409  29.146  31.312  1.00  0.00    -0.354 N 
ATOM     52  N   UNL A   1      44.057  26.562  29.985  1.00  0.00    -0.248 NA
ATOM     53  C   UNL A   1      44.920  24.509  29.279  1.00  0.00     0.031 C 
ATOM     54  C   UNL A   1      46.339  29.555  32.334  1.00  0.00     0.029 A 
ATOM     55  C   UNL A   1      45.654  28.608  31.590  1.00  0.00     0.049 A 
ATOM     56  H   UNL A   1      43.703  28.699  30.791  1.00  0.00     0.167 HD
ATOM     57  C   UNL A   1      45.363  26.431  30.445  1.00  0.00     0.074 A 
ATOM     58  C   UNL A   1      45.830  25.130  30.015  1.00  0.00     0.031 C 
ATOM     59  C   UNL A   1      46.109  27.312  31.157  1.00  0.00     0.031 A 
BRANCH  46  60
ATOM     60  C   UNL A   1      43.259  32.655  32.351  1.00  0.00    -0.014 A 
ATOM     61  C   UNL A   1      43.734  33.744  31.600  1.00  0.00     0.010 A 
ATOM     62  C   UNL A   1      42.778  32.881  33.655  1.00  0.00     0.010 A 
ATOM     63  C   UNL A   1      43.745  35.030  32.147  1.00  0.00     0.020 A 
ATOM     64  C   UNL A   1      42.762  34.171  34.196  1.00  0.00     0.020 A 
ATOM     65  C   UNL A   1      43.254  35.237  33.440  1.00  0.00     0.054 A 
BRANCH  65  66
ATOM     66  S   UNL A   1      43.223  36.926  34.097  1.00  0.00     0.124 S 
ATOM     67  O   UNL A   1      43.402  37.724  32.887  1.00  0.00    -0.237 OA
ATOM     68  O   UNL A   1      41.900  37.006  34.711  1.00  0.00    -0.237 OA
ATOM     69  O   UNL A   1      44.343  36.957  35.034  1.00  0.00    -0.744 OA
ENDBRANCH  65  66
ENDBRANCH  46  60
BRANCH  47  70
ATOM     70  C   UNL A   1      42.432  23.722  27.956  1.00  0.00    -0.014 A 
ATOM     71  C   UNL A   1      41.985  22.576  28.639  1.00  0.00     0.010 A 
ATOM     72  C   UNL A   1      42.821  23.602  26.609  1.00  0.00     0.010 A 
ATOM     73  C   UNL A   1      41.965  21.332  28.001  1.00  0.00     0.020 A 
ATOM     74  C   UNL A   1      42.768  22.367  25.957  1.00  0.00     0.020 A 
ATOM     75  C   UNL A   1      42.359  21.235  26.664  1.00  0.00     0.054 A 
BRANCH  75  76
ATOM     76  S   UNL A   1      42.309  19.614  25.850  1.00  0.00     0.124 S 
ATOM     77  O   UNL A   1      43.317  19.769  24.807  1.00  0.00    -0.237 OA
ATOM     78  O   UNL A   1      42.656  18.705  26.939  1.00  0.00    -0.237 OA
ATOM     79  O   UNL A   1      40.930  19.512  25.379  1.00  0.00    -0.744 OA
ENDBRANCH  75  76
ENDBRANCH  47  70
BRANCH  59  80
ATOM     80  C   UNL A   1      47.502  26.886  31.547  1.00  0.00    -0.014 A 
ATOM     81  C   UNL A   1      48.606  27.156  30.719  1.00  0.00     0.010 A 
ATOM     82  C   UNL A   1      47.712  26.250  32.784  1.00  0.00     0.010 A 
ATOM     83  C   UNL A   1      49.891  26.765  31.106  1.00  0.00     0.020 A 
ATOM     84  C   UNL A   1      49.000  25.888  33.190  1.00  0.00     0.020 A 
ATOM     85  C   UNL A   1      50.079  26.135  32.340  1.00  0.00     0.054 A 
BRANCH  85  86
ATOM     86  S   UNL A   1      51.762  25.676  32.836  1.00  0.00     0.124 S 
ATOM     87  O   UNL A   1      52.393  25.399  31.549  1.00  0.00    -0.237 OA
ATOM     88  O   UNL A   1      52.232  26.877  33.522  1.00  0.00    -0.237 OA
ATOM     89  O   UNL A   1      51.566  24.511  33.697  1.00  0.00    -0.744 OA
ENDBRANCH  85  86
ENDBRANCH  59  80
ENDBRANCH  33  34
ENDBRANCH  25  28
ENDBRANCH  23  24
ENDBRANCH   1  23
TORSDOF 16
ENDMDL
MODEL 3
REMARK VINA RESULT:     -10.8      1.827      2.664
REMARK SMILES C[C@H](C(=O)NCCCNC(=O)c1ccc(-c2c3nc(c(-c4ccc(S(=O)(=O)[O-])cc4)c4ccc([nH]4)c(-c4ccc(S(=O)(=O)[O-])cc4)c4nc(c(-c5ccc(S(=O)(=O)[O-])cc5)c5ccc2[nH]5)C=C4)C=C3)cc1)c1cccc(C(=O)c2ccccc2)c1
REMARK SMILES IDX 7 1 6 2 5 3 3 4 4 5 2 7 1 8 72 9 73 10 85 11 74 12 76 13
REMARK SMILES IDX 75 14 77 15 78 16 79 17 80 18 84 19 81 20 83 21 82 22 8 23
REMARK SMILES IDX 9 24 10 25 11 27 12 28 13 29 71 30 14 31 70 32 15 33 16 34
REMARK SMILES IDX 17 35 64 36 18 37 69 38 63 39 65 40 19 41 68 42 62 43 61 44
REMARK SMILES IDX 20 46 50 47 31 48 49 49 32 50 35 51 48 52 66 53 33 54 34 55
REMARK SMILES IDX 47 57 67 58 36 59 21 60 22 61 30 62 23 63 29 64 24 65 25 66
REMARK SMILES IDX 26 67 27 68 28 69 51 70 52 71 60 72 53 73 59 74 54 75 55 76
REMARK SMILES IDX 56 77 57 78 58 79 37 80 38 81 46 82 39 83 45 84 40 85 41 86
REMARK SMILES IDX 42 87 43 88 44 89
REMARK H PARENT 5 6 9 26 65 45 35 56
REMARK Flexibility Score: inf
ROOT
ATOM      1  C   UNL A   1      31.860  28.251  27.405  1.00  0.00     0.042 C 
ENDROOT
BRANCH   1   2
ATOM      2  C   UNL A   1      31.509  27.210  26.353  1.00  0.00     0.117 C 
BRANCH   2   3
ATOM      3  N   UNL A   1      31.318  25.881  26.911  1.00  0.00    -0.356 N 
ATOM      4  C   UNL A   1      31.951  24.700  26.656  1.00  0.00     0.227 C 
ATOM      5  O   UNL A   1      31.662  23.744  27.383  1.00  0.00    -0.274 OA
ATOM      6  H   UNL A   1      30.607  25.821  27.590  1.00  0.00     0.163 HD
BRANCH   4   7
ATOM      7  C   UNL A   1      33.005  24.550  25.553  1.00  0.00     0.105 C 
ATOM      8  C   UNL A   1      34.042  25.674  25.584  1.00  0.00     0.023 C 
BRANCH   7   9
ATOM      9  C   UNL A   1      33.620  23.160  25.409  1.00  0.00    -0.035 A 
ATOM     10  C   UNL A   1      34.873  22.888  25.979  1.00  0.00     0.004 A 
ATOM     11  C   UNL A   1      32.982  22.124  24.709  1.00  0.00     0.016 A 
ATOM     12  C   UNL A   1      35.451  21.621  25.868  1.00  0.00     0.001 A 
ATOM     13  C   UNL A   1      33.550  20.849  24.586  1.00  0.00     0.023 A 
ATOM     14  C   UNL A   1      34.791  20.603  25.178  1.00  0.00     0.012 A 
BRANCH  13  15
ATOM     15  C   UNL A   1      32.836  19.729  23.898  1.00  0.00     0.193 C 
ATOM     16  O   UNL A   1      32.047  19.965  22.987  1.00  0.00    -0.289 OA
BRANCH  15  17
ATOM     17  C   UNL A   1      33.110  18.313  24.241  1.00  0.00     0.022 A 
ATOM     18  C   UNL A   1      32.614  17.813  25.449  1.00  0.00     0.012 A 
ATOM     19  C   UNL A   1      33.832  17.479  23.380  1.00  0.00     0.012 A 
ATOM     20  C   UNL A   1      32.796  16.467  25.770  1.00  0.00     0.001 A 
ATOM     21  C   UNL A   1      34.002  16.131  23.700  1.00  0.00     0.001 A 
ATOM     22  C   UNL A   1      33.479  15.625  24.890  1.00  0.00     0.000 A 
ENDBRANCH  15  17
ENDBRANCH  13  15
ENDBRANCH   7   9
ENDBRANCH   4   7
ENDBRANCH   2   3
ENDBRANCH   1   2
BRANCH   1  23
ATOM     23  C   UNL A   1      33.300  28.742  27.342  1.00  0.00     0.118 C 
BRANCH  23  24
ATOM     24  N   UNL A   1      33.416  30.185  27.502  1.00  0.00    -0.352 N 
ATOM     25  C   UNL A   1      34.455  30.940  27.990  1.00  0.00     0.251 C 
ATOM     26  H   UNL A   1      32.627  30.699  27.214  1.00  0.00     0.163 HD
ATOM     27  O   UNL A   1      34.282  32.141  28.193  1.00  0.00    -0.269 OA
BRANCH  25  28
ATOM     28  C   UNL A   1      35.761  30.318  28.306  1.00  0.00     0.039 A 
ATOM     29  C   UNL A   1      36.743  30.276  27.311  1.00  0.00     0.014 A 
ATOM     30  C   UNL A   1      36.027  29.776  29.566  1.00  0.00     0.014 A 
ATOM     31  C   UNL A   1      38.012  29.772  27.607  1.00  0.00     0.010 A 
ATOM     32  C   UNL A   1      37.318  29.352  29.884  1.00  0.00     0.010 A 
ATOM     33  C   UNL A   1      38.327  29.353  28.911  1.00  0.00    -0.014 A 
BRANCH  33  34
ATOM     34  C   UNL A   1      39.715  28.958  29.277  1.00  0.00     0.031 A 
ATOM     35  C   UNL A   1      40.638  29.933  29.959  1.00  0.00     0.074 A 
ATOM     36  C   UNL A   1      40.164  27.730  28.938  1.00  0.00     0.049 A 
ATOM     37  N   UNL A   1      41.889  29.774  30.308  1.00  0.00    -0.248 NA
ATOM     38  C   UNL A   1      40.094  31.264  30.275  1.00  0.00     0.031 C 
ATOM     39  C   UNL A   1      39.384  26.706  28.237  1.00  0.00     0.029 A 
ATOM     40  N   UNL A   1      41.387  27.136  29.129  1.00  0.00    -0.354 N 
ATOM     41  C   UNL A   1      42.285  30.982  30.868  1.00  0.00     0.074 A 
ATOM     42  C   UNL A   1      41.155  31.881  30.777  1.00  0.00     0.031 C 
ATOM     43  C   UNL A   1      40.136  25.605  28.085  1.00  0.00     0.029 A 
ATOM     44  C   UNL A   1      41.466  25.857  28.628  1.00  0.00     0.049 A 
ATOM     45  H   UNL A   1      42.138  27.584  29.582  1.00  0.00     0.167 HD
ATOM     46  C   UNL A   1      43.477  31.310  31.423  1.00  0.00     0.031 A 
ATOM     47  C   UNL A   1      42.495  24.987  28.593  1.00  0.00     0.031 A 
ATOM     48  C   UNL A   1      44.598  30.411  31.523  1.00  0.00     0.049 A 
ATOM     49  C   UNL A   1      43.815  25.389  29.194  1.00  0.00     0.074 A 
ATOM     50  C   UNL A   1      45.824  30.633  32.127  1.00  0.00     0.029 A 
ATOM     51  N   UNL A   1      44.636  29.126  31.004  1.00  0.00    -0.354 N 
ATOM     52  N   UNL A   1      44.140  26.509  29.794  1.00  0.00    -0.248 NA
ATOM     53  C   UNL A   1      44.904  24.405  29.123  1.00  0.00     0.031 C 
ATOM     54  C   UNL A   1      46.627  29.509  31.914  1.00  0.00     0.029 A 
ATOM     55  C   UNL A   1      45.878  28.558  31.240  1.00  0.00     0.049 A 
ATOM     56  H   UNL A   1      43.892  28.683  30.536  1.00  0.00     0.167 HD
ATOM     57  C   UNL A   1      45.463  26.352  30.193  1.00  0.00     0.074 A 
ATOM     58  C   UNL A   1      45.869  25.023  29.789  1.00  0.00     0.031 C 
ATOM     59  C   UNL A   1      46.271  27.233  30.834  1.00  0.00     0.031 A 
BRANCH  46  60
ATOM     60  C   UNL A   1      43.647  32.705  31.967  1.00  0.00    -0.014 A 
ATOM     61  C   UNL A   1      43.437  32.984  33.329  1.00  0.00     0.010 A 
ATOM     62  C   UNL A   1      44.117  33.729  31.123  1.00  0.00     0.010 A 
ATOM     63  C   UNL A   1      43.676  34.267  33.833  1.00  0.00     0.020 A 
ATOM     64  C   UNL A   1      44.383  35.005  31.629  1.00  0.00     0.020 A 
ATOM     65  C   UNL A   1      44.153  35.268  32.981  1.00  0.00     0.054 A 
BRANCH  65  66
ATOM     66  S   UNL A   1      44.513  36.902  33.678  1.00  0.00     0.124 S 
ATOM     67  O   UNL A   1      45.941  36.800  33.965  1.00  0.00    -0.237 OA
ATOM     68  O   UNL A   1      44.156  37.802  32.584  1.00  0.00    -0.237 OA
ATOM     69  O   UNL A   1      43.647  36.979  34.852  1.00  0.00    -0.744 OA
ENDBRANCH  65  66
ENDBRANCH  46  60
BRANCH  47  70
ATOM     70  C   UNL A   1      42.330  23.651  27.954  1.00  0.00    -0.014 A 
ATOM     71  C   UNL A   1      41.617  22.626  28.603  1.00  0.00     0.010 A 
ATOM     72  C   UNL A   1      42.911  23.388  26.700  1.00  0.00     0.010 A 
ATOM     73  C   UNL A   1      41.522  21.355  28.028  1.00  0.00     0.020 A 
ATOM     74  C   UNL A   1      42.787  22.130  26.105  1.00  0.00     0.020 A 
ATOM     75  C   UNL A   1      42.110  21.115  26.782  1.00  0.00     0.054 A 
BRANCH  75  76
ATOM     76  S   UNL A   1      41.960  19.463  26.046  1.00  0.00     0.124 S 
ATOM     77  O   UNL A   1      40.525  19.372  25.798  1.00  0.00    -0.237 OA
ATOM     78  O   UNL A   1      42.803  19.569  24.859  1.00  0.00    -0.237 OA
ATOM     79  O   UNL A   1      42.473  18.578  27.089  1.00  0.00    -0.744 OA
ENDBRANCH  75  76
ENDBRANCH  47  70
BRANCH  59  80
ATOM     80  C   UNL A   1      47.667  26.778  31.171  1.00  0.00    -0.014 A 
ATOM     81  C   UNL A   1      47.919  25.952  32.281  1.00  0.00     0.010 A 
ATOM     82  C   UNL A   1      48.737  27.142  30.332  1.00  0.00     0.010 A 
ATOM     83  C   UNL A   1      49.220  25.530  32.566  1.00  0.00     0.020 A 
ATOM     84  C   UNL A   1      50.034  26.694  30.595  1.00  0.00     0.020 A 
ATOM     85  C   UNL A   1      50.269  25.902  31.720  1.00  0.00     0.054 A 
BRANCH  85  86
ATOM     86  S   UNL A   1      51.941  25.305  32.091  1.00  0.00     0.124 S 
ATOM     87  O   UNL A   1      52.275  26.064  33.293  1.00  0.00    -0.237 OA
ATOM     88  O   UNL A   1      51.733  23.873  32.288  1.00  0.00    -0.237 OA
ATOM     89  O   UNL A   1      52.709  25.660  30.898  1.00  0.00    -0.744 OA
ENDBRANCH  85  86
ENDBRANCH  59  80
ENDBRANCH  33  34
ENDBRANCH  25  28
ENDBRANCH  23  24
ENDBRANCH   1  23
TORSDOF 16
ENDMDL
