MODEL 1
REMARK VINA RESULT:     -11.6      0.000      0.000
REMARK SMILES COc1ccc(/C=C(\Sc2nc(C)n[nH]2)C(=O)NCCCNC(=O)c2ccc(-c3c4nc(c(-c5ccc(S(=O)(=O)[O-])cc5)c5ccc([nH]5)c(-c5ccc(S(=O)(=O)[O-])cc5)c5nc(c(-c6ccc(S(=O)(=O)[O-])cc6)c6ccc3[nH]6)C=C5)C=C4)cc2)c(OC)c1
REMARK SMILES IDX 20 1 19 2 18 3 16 4 17 5 8 7 7 8 6 9 3 10 4 11 88 12 5 13
REMARK SMILES IDX 85 14 2 15 1 16 86 17 87 18 9 19 10 20 11 21 15 22 12 23
REMARK SMILES IDX 14 24 13 26 21 27 22 28 23 29 24 31 25 32 26 33 84 34 27 35
REMARK SMILES IDX 83 36 28 37 29 38 30 39 77 40 31 41 82 42 76 43 78 44 32 45
REMARK SMILES IDX 81 46 75 47 74 48 33 50 63 51 44 52 62 53 45 54 48 55 61 56
REMARK SMILES IDX 79 57 46 58 47 59 60 61 80 62 49 63 34 64 35 65 43 66 36 67
REMARK SMILES IDX 42 68 37 69 38 70 39 71 40 72 41 73 64 74 65 75 73 76 66 77
REMARK SMILES IDX 72 78 67 79 68 80 69 81 70 82 71 83 50 84 51 85 59 86 52 87
REMARK SMILES IDX 58 88 53 89 54 90 55 91 56 92 57 93
REMARK H PARENT 18 6 15 25 22 30 78 49 48 60
REMARK Flexibility Score: inf
ROOT
ATOM      1  C   UNL A   1      31.605  31.123  26.171  1.00  0.00     0.042 C 
ENDROOT
BRANCH   1   2
ATOM      2  C   UNL A   1      32.047  29.723  25.722  1.00  0.00     0.118 C 
BRANCH   2   3
ATOM      3  N   UNL A   1      32.989  29.754  24.608  1.00  0.00    -0.352 N 
ATOM      4  C   UNL A   1      33.479  28.772  23.791  1.00  0.00     0.258 C 
ATOM      5  O   UNL A   1      34.181  29.135  22.843  1.00  0.00    -0.269 OA
ATOM      6  H   UNL A   1      33.337  30.652  24.405  1.00  0.00     0.163 HD
BRANCH   4   7
ATOM      7  C   UNL A   1      33.170  27.301  24.002  1.00  0.00     0.081 C 
ATOM      8  C   UNL A   1      33.685  26.804  25.153  1.00  0.00     0.033 C 
BRANCH   8   9
ATOM      9  C   UNL A   1      33.565  25.455  25.727  1.00  0.00     0.018 A 
ATOM     10  C   UNL A   1      33.370  22.731  26.358  1.00  0.00     0.122 A 
ATOM     11  C   UNL A   1      34.600  23.281  26.027  1.00  0.00     0.047 A 
ATOM     12  C   UNL A   1      32.292  23.575  26.589  1.00  0.00     0.093 A 
ATOM     13  C   UNL A   1      34.694  24.635  25.702  1.00  0.00     0.016 A 
ATOM     14  C   UNL A   1      32.419  24.953  26.355  1.00  0.00     0.129 A 
BRANCH  10  15
ATOM     15  O   UNL A   1      33.324  21.371  26.478  1.00  0.00    -0.497 OA
ATOM     16  C   UNL A   1      34.083  20.683  25.483  1.00  0.00     0.278 C 
ENDBRANCH  10  15
BRANCH  14  17
ATOM     17  O   UNL A   1      31.435  25.815  26.773  1.00  0.00    -0.496 OA
ATOM     18  C   UNL A   1      30.223  25.627  26.021  1.00  0.00     0.278 C 
ENDBRANCH  14  17
ENDBRANCH   8   9
BRANCH   7  19
ATOM     19  S   UNL A   1      31.947  26.665  22.948  1.00  0.00    -0.045 SA
BRANCH  19  20
ATOM     20  C   UNL A   1      32.277  25.008  22.675  1.00  0.00     0.188 A 
ATOM     21  N   UNL A   1      31.641  23.919  23.043  1.00  0.00    -0.206 NA
ATOM     22  N   UNL A   1      33.484  24.673  22.144  1.00  0.00    -0.254 N 
ATOM     23  C   UNL A   1      32.493  22.915  22.614  1.00  0.00     0.148 A 
ATOM     24  N   UNL A   1      33.652  23.342  22.096  1.00  0.00    -0.158 NA
ATOM     25  H   UNL A   1      34.152  25.327  21.833  1.00  0.00     0.192 HD
ATOM     26  C   UNL A   1      32.127  21.480  22.605  1.00  0.00     0.092 C 
ENDBRANCH  19  20
ENDBRANCH   7  19
ENDBRANCH   4   7
ENDBRANCH   2   3
ENDBRANCH   1   2
BRANCH   1  27
ATOM     27  C   UNL A   1      32.536  31.740  27.205  1.00  0.00     0.118 C 
BRANCH  27  28
ATOM     28  N   UNL A   1      32.315  33.175  27.409  1.00  0.00    -0.352 N 
ATOM     29  C   UNL A   1      32.979  34.031  28.280  1.00  0.00     0.251 C 
ATOM     30  H   UNL A   1      31.606  33.585  26.862  1.00  0.00     0.163 HD
ATOM     31  O   UNL A   1      32.479  35.091  28.611  1.00  0.00    -0.269 OA
BRANCH  29  32
ATOM     32  C   UNL A   1      34.308  33.628  28.789  1.00  0.00     0.039 A 
ATOM     33  C   UNL A   1      34.470  32.973  30.014  1.00  0.00     0.014 A 
ATOM     34  C   UNL A   1      35.409  33.898  27.985  1.00  0.00     0.014 A 
ATOM     35  C   UNL A   1      35.745  32.530  30.371  1.00  0.00     0.010 A 
ATOM     36  C   UNL A   1      36.604  33.284  28.234  1.00  0.00     0.010 A 
ATOM     37  C   UNL A   1      36.805  32.671  29.460  1.00  0.00    -0.014 A 
BRANCH  37  38
ATOM     38  C   UNL A   1      38.112  32.066  29.693  1.00  0.00     0.031 A 
ATOM     39  C   UNL A   1      38.152  30.628  29.325  1.00  0.00     0.074 A 
ATOM     40  C   UNL A   1      39.228  32.785  29.957  1.00  0.00     0.049 A 
ATOM     41  N   UNL A   1      38.108  29.616  30.124  1.00  0.00    -0.248 NA
ATOM     42  C   UNL A   1      38.009  30.267  27.902  1.00  0.00     0.031 C 
ATOM     43  C   UNL A   1      39.364  34.251  29.988  1.00  0.00     0.029 A 
ATOM     44  N   UNL A   1      40.513  32.372  30.137  1.00  0.00    -0.354 N 
ATOM     45  C   UNL A   1      38.247  28.500  29.306  1.00  0.00     0.074 A 
ATOM     46  C   UNL A   1      37.909  28.936  27.977  1.00  0.00     0.031 C 
ATOM     47  C   UNL A   1      40.671  34.593  29.922  1.00  0.00     0.029 A 
ATOM     48  C   UNL A   1      41.466  33.387  30.046  1.00  0.00     0.049 A 
ATOM     49  H   UNL A   1      40.750  31.434  30.316  1.00  0.00     0.167 HD
ATOM     50  C   UNL A   1      38.990  27.432  29.714  1.00  0.00     0.031 A 
ATOM     51  C   UNL A   1      42.816  33.247  30.078  1.00  0.00     0.031 A 
ATOM     52  C   UNL A   1      39.333  27.557  31.109  1.00  0.00     0.049 A 
ATOM     53  C   UNL A   1      43.091  31.956  30.747  1.00  0.00     0.074 A 
ATOM     54  C   UNL A   1      38.676  27.481  32.317  1.00  0.00     0.029 A 
ATOM     55  N   UNL A   1      40.502  28.245  31.316  1.00  0.00    -0.354 N 
ATOM     56  N   UNL A   1      42.777  31.721  31.992  1.00  0.00    -0.248 NA
ATOM     57  C   UNL A   1      43.363  30.777  29.936  1.00  0.00     0.031 C 
ATOM     58  C   UNL A   1      39.396  28.336  33.206  1.00  0.00     0.029 A 
ATOM     59  C   UNL A   1      40.506  28.854  32.541  1.00  0.00     0.049 A 
ATOM     60  H   UNL A   1      41.241  28.293  30.668  1.00  0.00     0.167 HD
ATOM     61  C   UNL A   1      42.385  30.396  32.001  1.00  0.00     0.074 A 
ATOM     62  C   UNL A   1      42.926  29.829  30.770  1.00  0.00     0.031 C 
ATOM     63  C   UNL A   1      41.395  29.963  32.835  1.00  0.00     0.031 A 
BRANCH  50  64
ATOM     64  C   UNL A   1      39.859  26.598  28.793  1.00  0.00    -0.014 A 
ATOM     65  C   UNL A   1      39.360  25.361  28.334  1.00  0.00     0.010 A 
ATOM     66  C   UNL A   1      41.236  26.836  28.598  1.00  0.00     0.010 A 
ATOM     67  C   UNL A   1      40.201  24.400  27.755  1.00  0.00     0.020 A 
ATOM     68  C   UNL A   1      42.077  25.900  27.991  1.00  0.00     0.020 A 
ATOM     69  C   UNL A   1      41.558  24.676  27.593  1.00  0.00     0.054 A 
BRANCH  69  70
ATOM     70  S   UNL A   1      42.652  23.412  26.901  1.00  0.00     0.124 S 
ATOM     71  O   UNL A   1      43.392  24.169  25.897  1.00  0.00    -0.237 OA
ATOM     72  O   UNL A   1      43.416  22.994  28.073  1.00  0.00    -0.237 OA
ATOM     73  O   UNL A   1      41.727  22.410  26.377  1.00  0.00    -0.744 OA
ENDBRANCH  69  70
ENDBRANCH  50  64
BRANCH  51  74
ATOM     74  C   UNL A   1      43.871  34.010  29.362  1.00  0.00    -0.014 A 
ATOM     75  C   UNL A   1      45.181  34.097  29.873  1.00  0.00     0.010 A 
ATOM     76  C   UNL A   1      43.668  34.388  28.020  1.00  0.00     0.010 A 
ATOM     77  C   UNL A   1      46.260  34.471  29.051  1.00  0.00     0.020 A 
ATOM     78  C   UNL A   1      44.739  34.764  27.194  1.00  0.00     0.020 A 
ATOM     79  C   UNL A   1      46.035  34.778  27.707  1.00  0.00     0.054 A 
BRANCH  79  80
ATOM     80  S   UNL A   1      47.454  35.073  26.604  1.00  0.00     0.124 S 
ATOM     81  O   UNL A   1      47.482  33.856  25.799  1.00  0.00    -0.237 OA
ATOM     82  O   UNL A   1      47.061  36.289  25.896  1.00  0.00    -0.237 OA
ATOM     83  O   UNL A   1      48.579  35.233  27.525  1.00  0.00    -0.744 OA
ENDBRANCH  79  80
ENDBRANCH  51  74
BRANCH  63  84
ATOM     84  C   UNL A   1      41.126  30.755  34.086  1.00  0.00    -0.014 A 
ATOM     85  C   UNL A   1      41.848  30.643  35.288  1.00  0.00     0.010 A 
ATOM     86  C   UNL A   1      40.126  31.739  33.989  1.00  0.00     0.010 A 
ATOM     87  C   UNL A   1      41.557  31.489  36.373  1.00  0.00     0.020 A 
ATOM     88  C   UNL A   1      39.846  32.593  35.054  1.00  0.00     0.020 A 
ATOM     89  C   UNL A   1      40.555  32.458  36.246  1.00  0.00     0.054 A 
BRANCH  89  90
ATOM     90  S   UNL A   1      40.193  33.569  37.635  1.00  0.00     0.124 S 
ATOM     91  O   UNL A   1      39.838  32.638  38.702  1.00  0.00    -0.237 OA
ATOM     92  O   UNL A   1      41.453  34.284  37.815  1.00  0.00    -0.237 OA
ATOM     93  O   UNL A   1      39.089  34.393  37.142  1.00  0.00    -0.744 OA
ENDBRANCH  89  90
ENDBRANCH  63  84
ENDBRANCH  37  38
ENDBRANCH  29  32
ENDBRANCH  27  28
ENDBRANCH   1  27
TORSDOF 18
ENDMDL
MODEL 2
REMARK VINA RESULT:     -11.6      3.229      7.188
REMARK SMILES COc1ccc(/C=C(\Sc2nc(C)n[nH]2)C(=O)NCCCNC(=O)c2ccc(-c3c4nc(c(-c5ccc(S(=O)(=O)[O-])cc5)c5ccc([nH]5)c(-c5ccc(S(=O)(=O)[O-])cc5)c5nc(c(-c6ccc(S(=O)(=O)[O-])cc6)c6ccc3[nH]6)C=C5)C=C4)cc2)c(OC)c1
REMARK SMILES IDX 20 1 19 2 18 3 16 4 17 5 8 7 7 8 6 9 3 10 4 11 88 12 5 13
REMARK SMILES IDX 85 14 2 15 1 16 86 17 87 18 9 19 10 20 11 21 15 22 12 23
REMARK SMILES IDX 14 24 13 26 21 27 22 28 23 29 24 31 25 32 26 33 84 34 27 35
REMARK SMILES IDX 83 36 28 37 29 38 30 39 77 40 31 41 82 42 76 43 78 44 32 45
REMARK SMILES IDX 81 46 75 47 74 48 33 50 63 51 44 52 62 53 45 54 48 55 61 56
REMARK SMILES IDX 79 57 46 58 47 59 60 61 80 62 49 63 34 64 35 65 43 66 36 67
REMARK SMILES IDX 42 68 37 69 38 70 39 71 40 72 41 73 64 74 65 75 73 76 66 77
REMARK SMILES IDX 72 78 67 79 68 80 69 81 70 82 71 83 50 84 51 85 59 86 52 87
REMARK SMILES IDX 58 88 53 89 54 90 55 91 56 92 57 93
REMARK H PARENT 18 6 15 25 22 30 78 49 48 60
REMARK Flexibility Score: inf
ROOT
ATOM      1  C   UNL A   1      33.162  29.429  27.097  1.00  0.00     0.042 C 
ENDROOT
BRANCH   1   2
ATOM      2  C   UNL A   1      32.247  29.613  25.878  1.00  0.00     0.118 C 
BRANCH   2   3
ATOM      3  N   UNL A   1      32.985  29.716  24.624  1.00  0.00    -0.352 N 
ATOM      4  C   UNL A   1      33.344  28.783  23.689  1.00  0.00     0.258 C 
ATOM      5  O   UNL A   1      33.868  29.204  22.655  1.00  0.00    -0.269 OA
ATOM      6  H   UNL A   1      33.279  30.630  24.408  1.00  0.00     0.163 HD
BRANCH   4   7
ATOM      7  C   UNL A   1      33.100  27.297  23.879  1.00  0.00     0.081 C 
ATOM      8  C   UNL A   1      33.757  26.777  24.945  1.00  0.00     0.033 C 
BRANCH   8   9
ATOM      9  C   UNL A   1      33.739  25.406  25.478  1.00  0.00     0.018 A 
ATOM     10  C   UNL A   1      33.744  22.657  26.027  1.00  0.00     0.122 A 
ATOM     11  C   UNL A   1      34.928  23.303  25.704  1.00  0.00     0.047 A 
ATOM     12  C   UNL A   1      32.611  23.415  26.291  1.00  0.00     0.093 A 
ATOM     13  C   UNL A   1      34.923  24.670  25.420  1.00  0.00     0.016 A 
ATOM     14  C   UNL A   1      32.636  24.805  26.098  1.00  0.00     0.129 A 
BRANCH  10  15
ATOM     15  O   UNL A   1      33.796  21.294  26.106  1.00  0.00    -0.497 OA
ATOM     16  C   UNL A   1      34.868  20.719  25.358  1.00  0.00     0.278 C 
ENDBRANCH  10  15
BRANCH  14  17
ATOM     17  O   UNL A   1      31.598  25.581  26.550  1.00  0.00    -0.496 OA
ATOM     18  C   UNL A   1      30.326  24.992  26.224  1.00  0.00     0.278 C 
ENDBRANCH  14  17
ENDBRANCH   8   9
BRANCH   7  19
ATOM     19  S   UNL A   1      31.780  26.661  22.950  1.00  0.00    -0.045 SA
BRANCH  19  20
ATOM     20  C   UNL A   1      30.602  27.890  22.774  1.00  0.00     0.188 A 
ATOM     21  N   UNL A   1      29.425  28.058  23.333  1.00  0.00    -0.206 NA
ATOM     22  N   UNL A   1      30.760  28.793  21.769  1.00  0.00    -0.254 N 
ATOM     23  C   UNL A   1      28.933  29.170  22.670  1.00  0.00     0.148 A 
ATOM     24  N   UNL A   1      29.708  29.621  21.675  1.00  0.00    -0.158 NA
ATOM     25  H   UNL A   1      31.550  28.833  21.182  1.00  0.00     0.192 HD
ATOM     26  C   UNL A   1      27.710  29.894  23.084  1.00  0.00     0.092 C 
ENDBRANCH  19  20
ENDBRANCH   7  19
ENDBRANCH   4   7
ENDBRANCH   2   3
ENDBRANCH   1   2
BRANCH   1  27
ATOM     27  C   UNL A   1      34.429  30.269  27.025  1.00  0.00     0.118 C 
BRANCH  27  28
ATOM     28  N   UNL A   1      34.329  31.542  27.744  1.00  0.00    -0.352 N 
ATOM     29  C   UNL A   1      34.985  31.925  28.908  1.00  0.00     0.251 C 
ATOM     30  H   UNL A   1      33.719  32.211  27.356  1.00  0.00     0.163 HD
ATOM     31  O   UNL A   1      34.560  32.842  29.589  1.00  0.00    -0.269 OA
BRANCH  29  32
ATOM     32  C   UNL A   1      36.213  31.199  29.298  1.00  0.00     0.039 A 
ATOM     33  C   UNL A   1      36.243  29.809  29.443  1.00  0.00     0.014 A 
ATOM     34  C   UNL A   1      37.365  31.951  29.491  1.00  0.00     0.014 A 
ATOM     35  C   UNL A   1      37.467  29.190  29.706  1.00  0.00     0.010 A 
ATOM     36  C   UNL A   1      38.584  31.334  29.537  1.00  0.00     0.010 A 
ATOM     37  C   UNL A   1      38.639  29.964  29.729  1.00  0.00    -0.014 A 
BRANCH  37  38
ATOM     38  C   UNL A   1      39.964  29.357  29.813  1.00  0.00     0.031 A 
ATOM     39  C   UNL A   1      40.400  29.120  31.211  1.00  0.00     0.074 A 
ATOM     40  C   UNL A   1      40.606  28.826  28.746  1.00  0.00     0.049 A 
ATOM     41  N   UNL A   1      41.238  29.821  31.899  1.00  0.00    -0.248 NA
ATOM     42  C   UNL A   1      39.666  28.122  32.012  1.00  0.00     0.031 C 
ATOM     43  C   UNL A   1      40.100  28.689  27.370  1.00  0.00     0.029 A 
ATOM     44  N   UNL A   1      41.804  28.181  28.678  1.00  0.00    -0.354 N 
ATOM     45  C   UNL A   1      41.360  29.155  33.113  1.00  0.00     0.074 A 
ATOM     46  C   UNL A   1      40.199  28.311  33.223  1.00  0.00     0.031 C 
ATOM     47  C   UNL A   1      40.858  27.801  26.688  1.00  0.00     0.029 A 
ATOM     48  C   UNL A   1      42.009  27.461  27.501  1.00  0.00     0.049 A 
ATOM     49  H   UNL A   1      42.471  28.221  29.401  1.00  0.00     0.167 HD
ATOM     50  C   UNL A   1      42.571  29.062  33.731  1.00  0.00     0.031 A 
ATOM     51  C   UNL A   1      43.056  26.647  27.211  1.00  0.00     0.031 A 
ATOM     52  C   UNL A   1      43.534  29.926  33.093  1.00  0.00     0.049 A 
ATOM     53  C   UNL A   1      44.170  27.062  28.092  1.00  0.00     0.074 A 
ATOM     54  C   UNL A   1      43.760  31.280  32.993  1.00  0.00     0.029 A 
ATOM     55  N   UNL A   1      44.197  29.318  32.056  1.00  0.00    -0.354 N 
ATOM     56  N   UNL A   1      44.730  28.238  28.023  1.00  0.00    -0.248 NA
ATOM     57  C   UNL A   1      44.418  26.322  29.322  1.00  0.00     0.031 C 
ATOM     58  C   UNL A   1      44.405  31.476  31.735  1.00  0.00     0.029 A 
ATOM     59  C   UNL A   1      44.616  30.236  31.132  1.00  0.00     0.049 A 
ATOM     60  H   UNL A   1      44.350  28.349  31.985  1.00  0.00     0.167 HD
ATOM     61  C   UNL A   1      45.015  28.559  29.336  1.00  0.00     0.074 A 
ATOM     62  C   UNL A   1      44.966  27.293  30.059  1.00  0.00     0.031 C 
ATOM     63  C   UNL A   1      44.947  29.851  29.773  1.00  0.00     0.031 A 
BRANCH  50  64
ATOM     64  C   UNL A   1      43.042  27.844  34.503  1.00  0.00    -0.014 A 
ATOM     65  C   UNL A   1      44.313  27.883  35.113  1.00  0.00     0.010 A 
ATOM     66  C   UNL A   1      42.424  26.579  34.409  1.00  0.00     0.010 A 
ATOM     67  C   UNL A   1      44.947  26.716  35.561  1.00  0.00     0.020 A 
ATOM     68  C   UNL A   1      43.031  25.414  34.884  1.00  0.00     0.020 A 
ATOM     69  C   UNL A   1      44.301  25.487  35.438  1.00  0.00     0.054 A 
BRANCH  69  70
ATOM     70  S   UNL A   1      45.147  23.975  35.962  1.00  0.00     0.124 S 
ATOM     71  O   UNL A   1      45.051  24.064  37.416  1.00  0.00    -0.237 OA
ATOM     72  O   UNL A   1      44.335  22.937  35.335  1.00  0.00    -0.237 OA
ATOM     73  O   UNL A   1      46.490  24.126  35.410  1.00  0.00    -0.744 OA
ENDBRANCH  69  70
ENDBRANCH  50  64
BRANCH  51  74
ATOM     74  C   UNL A   1      43.096  25.390  26.420  1.00  0.00    -0.014 A 
ATOM     75  C   UNL A   1      43.985  25.238  25.337  1.00  0.00     0.010 A 
ATOM     76  C   UNL A   1      42.483  24.228  26.928  1.00  0.00     0.010 A 
ATOM     77  C   UNL A   1      44.308  23.965  24.833  1.00  0.00     0.020 A 
ATOM     78  C   UNL A   1      42.799  22.954  26.429  1.00  0.00     0.020 A 
ATOM     79  C   UNL A   1      43.731  22.827  25.401  1.00  0.00     0.054 A 
BRANCH  79  80
ATOM     80  S   UNL A   1      44.297  21.177  24.875  1.00  0.00     0.124 S 
ATOM     81  O   UNL A   1      43.198  20.318  25.306  1.00  0.00    -0.237 OA
ATOM     82  O   UNL A   1      44.444  21.335  23.430  1.00  0.00    -0.237 OA
ATOM     83  O   UNL A   1      45.550  20.993  25.606  1.00  0.00    -0.744 OA
ENDBRANCH  79  80
ENDBRANCH  51  74
BRANCH  63  84
ATOM     84  C   UNL A   1      45.107  30.951  28.759  1.00  0.00    -0.014 A 
ATOM     85  C   UNL A   1      46.332  31.391  28.227  1.00  0.00     0.010 A 
ATOM     86  C   UNL A   1      43.916  31.505  28.257  1.00  0.00     0.010 A 
ATOM     87  C   UNL A   1      46.358  32.379  27.227  1.00  0.00     0.020 A 
ATOM     88  C   UNL A   1      43.934  32.470  27.252  1.00  0.00     0.020 A 
ATOM     89  C   UNL A   1      45.156  32.911  26.748  1.00  0.00     0.054 A 
BRANCH  89  90
ATOM     90  S   UNL A   1      45.182  34.168  25.439  1.00  0.00     0.124 S 
ATOM     91  O   UNL A   1      44.436  35.270  26.040  1.00  0.00    -0.237 OA
ATOM     92  O   UNL A   1      46.611  34.405  25.246  1.00  0.00    -0.237 OA
ATOM     93  O   UNL A   1      44.516  33.513  24.313  1.00  0.00    -0.744 OA
ENDBRANCH  89  90
ENDBRANCH  63  84
ENDBRANCH  37  38
ENDBRANCH  29  32
ENDBRANCH  27  28
ENDBRANCH   1  27
TORSDOF 18
ENDMDL
MODEL 3
REMARK VINA RESULT:     -11.3      3.059      8.079
REMARK SMILES COc1ccc(/C=C(\Sc2nc(C)n[nH]2)C(=O)NCCCNC(=O)c2ccc(-c3c4nc(c(-c5ccc(S(=O)(=O)[O-])cc5)c5ccc([nH]5)c(-c5ccc(S(=O)(=O)[O-])cc5)c5nc(c(-c6ccc(S(=O)(=O)[O-])cc6)c6ccc3[nH]6)C=C5)C=C4)cc2)c(OC)c1
REMARK SMILES IDX 20 1 19 2 18 3 16 4 17 5 8 7 7 8 6 9 3 10 4 11 88 12 5 13
REMARK SMILES IDX 85 14 2 15 1 16 86 17 87 18 9 19 10 20 11 21 15 22 12 23
REMARK SMILES IDX 14 24 13 26 21 27 22 28 23 29 24 31 25 32 26 33 84 34 27 35
REMARK SMILES IDX 83 36 28 37 29 38 30 39 77 40 31 41 82 42 76 43 78 44 32 45
REMARK SMILES IDX 81 46 75 47 74 48 33 50 63 51 44 52 62 53 45 54 48 55 61 56
REMARK SMILES IDX 79 57 46 58 47 59 60 61 80 62 49 63 34 64 35 65 43 66 36 67
REMARK SMILES IDX 42 68 37 69 38 70 39 71 40 72 41 73 64 74 65 75 73 76 66 77
REMARK SMILES IDX 72 78 67 79 68 80 69 81 70 82 71 83 50 84 51 85 59 86 52 87
REMARK SMILES IDX 58 88 53 89 54 90 55 91 56 92 57 93
REMARK H PARENT 18 6 15 25 22 30 78 49 48 60
REMARK Flexibility Score: inf
ROOT
ATOM      1  C   UNL A   1      37.094  22.393  24.432  1.00  0.00     0.042 C 
ENDROOT
BRANCH   1   2
ATOM      2  C   UNL A   1      35.580  22.281  24.659  1.00  0.00     0.118 C 
BRANCH   2   3
ATOM      3  N   UNL A   1      34.800  22.692  23.497  1.00  0.00    -0.352 N 
ATOM      4  C   UNL A   1      34.067  23.817  23.232  1.00  0.00     0.258 C 
ATOM      5  O   UNL A   1      33.612  23.931  22.090  1.00  0.00    -0.269 OA
ATOM      6  H   UNL A   1      34.800  22.036  22.763  1.00  0.00     0.163 HD
BRANCH   4   7
ATOM      7  C   UNL A   1      33.831  24.903  24.266  1.00  0.00     0.081 C 
ATOM      8  C   UNL A   1      33.437  26.083  23.725  1.00  0.00     0.033 C 
BRANCH   8   9
ATOM      9  C   UNL A   1      33.070  27.342  24.391  1.00  0.00     0.018 A 
ATOM     10  C   UNL A   1      32.300  29.463  26.054  1.00  0.00     0.122 A 
ATOM     11  C   UNL A   1      33.567  28.911  26.174  1.00  0.00     0.047 A 
ATOM     12  C   UNL A   1      31.509  29.109  24.969  1.00  0.00     0.093 A 
ATOM     13  C   UNL A   1      33.946  27.848  25.353  1.00  0.00     0.016 A 
ATOM     14  C   UNL A   1      31.937  28.106  24.087  1.00  0.00     0.129 A 
BRANCH  10  15
ATOM     15  O   UNL A   1      31.936  30.367  27.012  1.00  0.00    -0.497 OA
ATOM     16  C   UNL A   1      31.433  31.592  26.478  1.00  0.00     0.278 C 
ENDBRANCH  10  15
BRANCH  14  17
ATOM     17  O   UNL A   1      31.268  27.896  22.906  1.00  0.00    -0.496 OA
ATOM     18  C   UNL A   1      29.864  28.182  23.046  1.00  0.00     0.278 C 
ENDBRANCH  14  17
ENDBRANCH   8   9
BRANCH   7  19
ATOM     19  S   UNL A   1      33.752  24.333  25.903  1.00  0.00    -0.045 SA
BRANCH  19  20
ATOM     20  C   UNL A   1      32.218  23.618  26.153  1.00  0.00     0.188 A 
ATOM     21  N   UNL A   1      31.319  23.787  27.097  1.00  0.00    -0.206 NA
ATOM     22  N   UNL A   1      31.872  22.553  25.381  1.00  0.00    -0.254 N 
ATOM     23  C   UNL A   1      30.373  22.826  26.785  1.00  0.00     0.148 A 
ATOM     24  N   UNL A   1      30.699  22.023  25.764  1.00  0.00    -0.158 NA
ATOM     25  H   UNL A   1      32.414  22.213  24.633  1.00  0.00     0.192 HD
ATOM     26  C   UNL A   1      29.045  22.746  27.435  1.00  0.00     0.092 C 
ENDBRANCH  19  20
ENDBRANCH   7  19
ENDBRANCH   4   7
ENDBRANCH   2   3
ENDBRANCH   1   2
BRANCH   1  27
ATOM     27  C   UNL A   1      37.818  23.093  25.573  1.00  0.00     0.118 C 
BRANCH  27  28
ATOM     28  N   UNL A   1      38.706  22.208  26.334  1.00  0.00    -0.352 N 
ATOM     29  C   UNL A   1      39.864  22.542  27.026  1.00  0.00     0.251 C 
ATOM     30  H   UNL A   1      38.451  21.257  26.357  1.00  0.00     0.163 HD
ATOM     31  O   UNL A   1      40.687  21.689  27.307  1.00  0.00    -0.269 OA
BRANCH  29  32
ATOM     32  C   UNL A   1      40.071  23.953  27.417  1.00  0.00     0.039 A 
ATOM     33  C   UNL A   1      39.073  24.921  27.272  1.00  0.00     0.014 A 
ATOM     34  C   UNL A   1      41.301  24.288  27.971  1.00  0.00     0.014 A 
ATOM     35  C   UNL A   1      39.311  26.205  27.766  1.00  0.00     0.010 A 
ATOM     36  C   UNL A   1      41.450  25.472  28.637  1.00  0.00     0.010 A 
ATOM     37  C   UNL A   1      40.499  26.465  28.469  1.00  0.00    -0.014 A 
BRANCH  37  38
ATOM     38  C   UNL A   1      40.724  27.726  29.169  1.00  0.00     0.031 A 
ATOM     39  C   UNL A   1      41.801  28.539  28.551  1.00  0.00     0.074 A 
ATOM     40  C   UNL A   1      39.877  28.220  30.101  1.00  0.00     0.049 A 
ATOM     41  N   UNL A   1      43.014  28.679  28.971  1.00  0.00    -0.248 NA
ATOM     42  C   UNL A   1      41.574  29.091  27.202  1.00  0.00     0.031 C 
ATOM     43  C   UNL A   1      38.585  27.656  30.529  1.00  0.00     0.029 A 
ATOM     44  N   UNL A   1      39.921  29.394  30.789  1.00  0.00    -0.354 N 
ATOM     45  C   UNL A   1      43.599  29.588  28.096  1.00  0.00     0.074 A 
ATOM     46  C   UNL A   1      42.781  29.585  26.912  1.00  0.00     0.031 C 
ATOM     47  C   UNL A   1      37.871  28.595  31.192  1.00  0.00     0.029 A 
ATOM     48  C   UNL A   1      38.723  29.747  31.411  1.00  0.00     0.049 A 
ATOM     49  H   UNL A   1      40.732  29.950  30.842  1.00  0.00     0.167 HD
ATOM     50  C   UNL A   1      44.463  30.535  28.561  1.00  0.00     0.031 A 
ATOM     51  C   UNL A   1      38.451  30.904  32.068  1.00  0.00     0.031 A 
ATOM     52  C   UNL A   1      44.823  30.265  29.930  1.00  0.00     0.049 A 
ATOM     53  C   UNL A   1      39.755  31.476  32.472  1.00  0.00     0.074 A 
ATOM     54  C   UNL A   1      45.579  29.334  30.607  1.00  0.00     0.029 A 
ATOM     55  N   UNL A   1      43.963  30.837  30.835  1.00  0.00    -0.354 N 
ATOM     56  N   UNL A   1      40.560  30.885  33.311  1.00  0.00    -0.248 NA
ATOM     57  C   UNL A   1      40.358  32.519  31.654  1.00  0.00     0.031 C 
ATOM     58  C   UNL A   1      44.989  29.221  31.903  1.00  0.00     0.029 A 
ATOM     59  C   UNL A   1      43.937  30.130  32.006  1.00  0.00     0.049 A 
ATOM     60  H   UNL A   1      43.435  31.649  30.664  1.00  0.00     0.167 HD
ATOM     61  C   UNL A   1      41.824  31.161  32.824  1.00  0.00     0.074 A 
ATOM     62  C   UNL A   1      41.648  32.296  31.925  1.00  0.00     0.031 C 
ATOM     63  C   UNL A   1      42.835  30.252  32.942  1.00  0.00     0.031 A 
BRANCH  50  64
ATOM     64  C   UNL A   1      44.545  31.950  28.021  1.00  0.00    -0.014 A 
ATOM     65  C   UNL A   1      45.777  32.403  27.504  1.00  0.00     0.010 A 
ATOM     66  C   UNL A   1      43.562  32.932  28.265  1.00  0.00     0.010 A 
ATOM     67  C   UNL A   1      46.024  33.767  27.288  1.00  0.00     0.020 A 
ATOM     68  C   UNL A   1      43.785  34.289  28.020  1.00  0.00     0.020 A 
ATOM     69  C   UNL A   1      45.025  34.701  27.553  1.00  0.00     0.054 A 
BRANCH  69  70
ATOM     70  S   UNL A   1      45.367  36.464  27.330  1.00  0.00     0.124 S 
ATOM     71  O   UNL A   1      46.228  36.458  26.151  1.00  0.00    -0.237 OA
ATOM     72  O   UNL A   1      44.028  37.013  27.135  1.00  0.00    -0.237 OA
ATOM     73  O   UNL A   1      46.016  36.848  28.580  1.00  0.00    -0.744 OA
ENDBRANCH  69  70
ENDBRANCH  50  64
BRANCH  51  74
ATOM     74  C   UNL A   1      37.184  31.675  32.157  1.00  0.00    -0.014 A 
ATOM     75  C   UNL A   1      36.831  32.362  33.335  1.00  0.00     0.010 A 
ATOM     76  C   UNL A   1      36.478  31.993  30.980  1.00  0.00     0.010 A 
ATOM     77  C   UNL A   1      35.863  33.384  33.320  1.00  0.00     0.020 A 
ATOM     78  C   UNL A   1      35.511  33.010  30.957  1.00  0.00     0.020 A 
ATOM     79  C   UNL A   1      35.226  33.719  32.123  1.00  0.00     0.054 A 
BRANCH  79  80
ATOM     80  S   UNL A   1      34.120  35.165  32.070  1.00  0.00     0.124 S 
ATOM     81  O   UNL A   1      32.886  34.635  32.642  1.00  0.00    -0.237 OA
ATOM     82  O   UNL A   1      34.829  36.140  32.894  1.00  0.00    -0.237 OA
ATOM     83  O   UNL A   1      34.051  35.494  30.647  1.00  0.00    -0.744 OA
ENDBRANCH  79  80
ENDBRANCH  51  74
BRANCH  63  84
ATOM     84  C   UNL A   1      42.743  29.229  34.043  1.00  0.00    -0.014 A 
ATOM     85  C   UNL A   1      43.220  29.406  35.355  1.00  0.00     0.010 A 
ATOM     86  C   UNL A   1      42.045  28.049  33.732  1.00  0.00     0.010 A 
ATOM     87  C   UNL A   1      43.014  28.410  36.325  1.00  0.00     0.020 A 
ATOM     88  C   UNL A   1      41.821  27.067  34.694  1.00  0.00     0.020 A 
ATOM     89  C   UNL A   1      42.315  27.246  35.985  1.00  0.00     0.054 A 
BRANCH  89  90
ATOM     90  S   UNL A   1      42.025  25.968  37.240  1.00  0.00     0.124 S 
ATOM     91  O   UNL A   1      40.618  26.167  37.578  1.00  0.00    -0.237 OA
ATOM     92  O   UNL A   1      42.332  24.733  36.523  1.00  0.00    -0.237 OA
ATOM     93  O   UNL A   1      42.969  26.304  38.306  1.00  0.00    -0.744 OA
ENDBRANCH  89  90
ENDBRANCH  63  84
ENDBRANCH  37  38
ENDBRANCH  29  32
ENDBRANCH  27  28
ENDBRANCH   1  27
TORSDOF 18
ENDMDL
