MODEL 1
REMARK VINA RESULT:     -11.3      0.000      0.000
REMARK SMILES N#C[C@@]1([C@@H](O)C(=O)NCCCNC(=O)c2ccc(-c3c4nc(c(-c5ccc(S(=O)(=O)[O-])cc5)c5ccc([nH]5)c(-c5ccc(S(=O)(=O)[O-])cc5)c5nc(c(-c6ccc(S(=O)(=O)[O-])cc6)c6ccc3[nH]6)C=C5)C=C4)cc2)CCCc2ccccc21
REMARK SMILES IDX 10 1 9 2 8 3 6 4 7 5 4 7 3 8 75 9 83 10 76 11 78 12 82 13
REMARK SMILES IDX 77 14 79 15 81 16 80 17 2 18 1 19 5 20 11 22 12 23 13 24
REMARK SMILES IDX 14 26 15 27 16 28 74 29 17 30 73 31 18 32 19 33 20 34 67 35
REMARK SMILES IDX 21 36 72 37 66 38 68 39 22 40 71 41 65 42 64 43 23 45 53 46
REMARK SMILES IDX 34 47 52 48 35 49 38 50 51 51 69 52 36 53 37 54 50 56 70 57
REMARK SMILES IDX 39 58 24 59 25 60 33 61 26 62 32 63 27 64 28 65 29 66 30 67
REMARK SMILES IDX 31 68 54 69 55 70 63 71 56 72 62 73 57 74 58 75 59 76 60 77
REMARK SMILES IDX 61 78 40 79 41 80 49 81 42 82 48 83 43 84 44 85 45 86 46 87
REMARK SMILES IDX 47 88
REMARK H PARENT 8 6 5 21 12 25 68 44 38 55
REMARK Flexibility Score: inf
ROOT
ATOM      1  C   UNL A   1      32.122  27.962  27.186  1.00  0.00     0.042 C 
ENDROOT
BRANCH   1   2
ATOM      2  C   UNL A   1      31.579  27.187  25.978  1.00  0.00     0.117 C 
BRANCH   2   3
ATOM      3  N   UNL A   1      32.519  27.065  24.865  1.00  0.00    -0.354 N 
ATOM      4  C   UNL A   1      32.837  26.029  24.028  1.00  0.00     0.250 C 
ATOM      5  O   UNL A   1      33.612  26.286  23.099  1.00  0.00    -0.272 OA
ATOM      6  H   UNL A   1      33.021  27.891  24.679  1.00  0.00     0.163 HD
BRANCH   4   7
ATOM      7  C   UNL A   1      32.297  24.597  24.209  1.00  0.00     0.227 C 
BRANCH   7   8
ATOM      8  C   UNL A   1      32.816  23.744  25.431  1.00  0.00     0.117 C 
ATOM      9  C   UNL A   1      34.019  24.336  26.188  1.00  0.00     0.031 C 
ATOM     10  C   UNL A   1      33.183  22.288  25.053  1.00  0.00    -0.021 A 
ATOM     11  C   UNL A   1      35.343  24.204  25.441  1.00  0.00     0.007 C 
ATOM     12  C   UNL A   1      34.527  21.842  25.023  1.00  0.00    -0.043 A 
ATOM     13  C   UNL A   1      32.163  21.331  24.868  1.00  0.00     0.006 A 
ATOM     14  C   UNL A   1      35.711  22.740  25.292  1.00  0.00     0.036 C 
ATOM     15  C   UNL A   1      34.806  20.475  24.853  1.00  0.00     0.004 A 
ATOM     16  C   UNL A   1      32.460  19.973  24.732  1.00  0.00     0.000 A 
ATOM     17  C   UNL A   1      33.780  19.545  24.730  1.00  0.00     0.000 A 
BRANCH   8  18
ATOM     18  C   UNL A   1      31.698  23.719  26.434  1.00  0.00     0.077 C 
ATOM     19  N   UNL A   1      30.804  23.681  27.169  1.00  0.00    -0.197 NA
ENDBRANCH   8  18
ENDBRANCH   7   8
BRANCH   7  20
ATOM     20  O   UNL A   1      30.860  24.693  24.137  1.00  0.00    -0.381 OA
ATOM     21  H   UNL A   1      30.463  24.086  24.780  1.00  0.00     0.211 HD
ENDBRANCH   7  20
ENDBRANCH   4   7
ENDBRANCH   2   3
ENDBRANCH   1   2
BRANCH   1  22
ATOM     22  C   UNL A   1      33.526  28.516  27.031  1.00  0.00     0.118 C 
BRANCH  22  23
ATOM     23  N   UNL A   1      33.552  29.954  27.212  1.00  0.00    -0.352 N 
ATOM     24  C   UNL A   1      34.475  30.727  27.880  1.00  0.00     0.251 C 
ATOM     25  H   UNL A   1      32.806  30.447  26.801  1.00  0.00     0.163 HD
ATOM     26  O   UNL A   1      34.176  31.873  28.204  1.00  0.00    -0.269 OA
BRANCH  24  27
ATOM     27  C   UNL A   1      35.807  30.177  28.234  1.00  0.00     0.039 A 
ATOM     28  C   UNL A   1      36.041  29.592  29.480  1.00  0.00     0.014 A 
ATOM     29  C   UNL A   1      36.840  30.220  27.292  1.00  0.00     0.014 A 
ATOM     30  C   UNL A   1      37.332  29.225  29.848  1.00  0.00     0.010 A 
ATOM     31  C   UNL A   1      38.113  29.741  27.625  1.00  0.00     0.010 A 
ATOM     32  C   UNL A   1      38.386  29.282  28.923  1.00  0.00    -0.014 A 
BRANCH  32  33
ATOM     33  C   UNL A   1      39.752  28.839  29.326  1.00  0.00     0.031 A 
ATOM     34  C   UNL A   1      40.620  29.708  30.200  1.00  0.00     0.074 A 
ATOM     35  C   UNL A   1      40.202  27.629  28.931  1.00  0.00     0.049 A 
ATOM     36  N   UNL A   1      41.828  29.474  30.650  1.00  0.00    -0.248 NA
ATOM     37  C   UNL A   1      40.071  31.007  30.623  1.00  0.00     0.031 C 
ATOM     38  C   UNL A   1      39.452  26.688  28.096  1.00  0.00     0.029 A 
ATOM     39  N   UNL A   1      41.378  26.970  29.193  1.00  0.00    -0.354 N 
ATOM     40  C   UNL A   1      42.185  30.595  31.392  1.00  0.00     0.074 A 
ATOM     41  C   UNL A   1      41.088  31.529  31.297  1.00  0.00     0.031 C 
ATOM     42  C   UNL A   1      40.157  25.557  27.965  1.00  0.00     0.029 A 
ATOM     43  C   UNL A   1      41.447  25.717  28.629  1.00  0.00     0.049 A 
ATOM     44  H   UNL A   1      42.104  27.358  29.733  1.00  0.00     0.167 HD
ATOM     45  C   UNL A   1      43.318  30.814  32.103  1.00  0.00     0.031 A 
ATOM     46  C   UNL A   1      42.434  24.797  28.623  1.00  0.00     0.031 A 
ATOM     47  C   UNL A   1      44.401  29.868  32.203  1.00  0.00     0.049 A 
ATOM     48  C   UNL A   1      43.704  25.087  29.372  1.00  0.00     0.074 A 
ATOM     49  C   UNL A   1      45.575  29.990  32.925  1.00  0.00     0.029 A 
ATOM     50  N   UNL A   1      44.449  28.632  31.573  1.00  0.00    -0.354 N 
ATOM     51  N   UNL A   1      44.007  26.138  30.097  1.00  0.00    -0.248 NA
ATOM     52  C   UNL A   1      44.763  24.071  29.314  1.00  0.00     0.031 C 
ATOM     53  C   UNL A   1      46.370  28.875  32.660  1.00  0.00     0.029 A 
ATOM     54  C   UNL A   1      45.650  28.002  31.858  1.00  0.00     0.049 A 
ATOM     55  H   UNL A   1      43.735  28.257  31.009  1.00  0.00     0.167 HD
ATOM     56  C   UNL A   1      45.281  25.900  30.599  1.00  0.00     0.074 A 
ATOM     57  C   UNL A   1      45.681  24.594  30.116  1.00  0.00     0.031 C 
ATOM     58  C   UNL A   1      46.047  26.697  31.383  1.00  0.00     0.031 A 
BRANCH  45  59
ATOM     59  C   UNL A   1      43.463  32.121  32.846  1.00  0.00    -0.014 A 
ATOM     60  C   UNL A   1      42.992  32.230  34.170  1.00  0.00     0.010 A 
ATOM     61  C   UNL A   1      43.935  33.278  32.198  1.00  0.00     0.010 A 
ATOM     62  C   UNL A   1      42.945  33.470  34.811  1.00  0.00     0.020 A 
ATOM     63  C   UNL A   1      43.925  34.515  32.851  1.00  0.00     0.020 A 
ATOM     64  C   UNL A   1      43.402  34.609  34.143  1.00  0.00     0.054 A 
BRANCH  64  65
ATOM     65  S   UNL A   1      43.282  36.217  34.974  1.00  0.00     0.124 S 
ATOM     66  O   UNL A   1      42.521  35.888  36.175  1.00  0.00    -0.237 OA
ATOM     67  O   UNL A   1      44.684  36.569  35.188  1.00  0.00    -0.237 OA
ATOM     68  O   UNL A   1      42.582  37.053  34.000  1.00  0.00    -0.744 OA
ENDBRANCH  64  65
ENDBRANCH  45  59
BRANCH  46  69
ATOM     69  C   UNL A   1      42.225  23.511  27.894  1.00  0.00    -0.014 A 
ATOM     70  C   UNL A   1      41.623  22.414  28.543  1.00  0.00     0.010 A 
ATOM     71  C   UNL A   1      42.715  23.339  26.588  1.00  0.00     0.010 A 
ATOM     72  C   UNL A   1      41.591  21.157  27.937  1.00  0.00     0.020 A 
ATOM     73  C   UNL A   1      42.645  22.091  25.960  1.00  0.00     0.020 A 
ATOM     74  C   UNL A   1      42.118  21.000  26.653  1.00  0.00     0.054 A 
BRANCH  74  75
ATOM     75  S   UNL A   1      42.142  19.339  25.925  1.00  0.00     0.124 S 
ATOM     76  O   UNL A   1      42.729  18.548  27.003  1.00  0.00    -0.237 OA
ATOM     77  O   UNL A   1      40.728  19.089  25.659  1.00  0.00    -0.237 OA
ATOM     78  O   UNL A   1      42.979  19.496  24.738  1.00  0.00    -0.744 OA
ENDBRANCH  74  75
ENDBRANCH  46  69
BRANCH  58  79
ATOM     79  C   UNL A   1      47.412  26.202  31.795  1.00  0.00    -0.014 A 
ATOM     80  C   UNL A   1      48.481  26.262  30.879  1.00  0.00     0.010 A 
ATOM     81  C   UNL A   1      47.605  25.543  33.023  1.00  0.00     0.010 A 
ATOM     82  C   UNL A   1      49.695  25.628  31.158  1.00  0.00     0.020 A 
ATOM     83  C   UNL A   1      48.831  24.943  33.323  1.00  0.00     0.020 A 
ATOM     84  C   UNL A   1      49.857  24.963  32.376  1.00  0.00     0.054 A 
BRANCH  84  85
ATOM     85  S   UNL A   1      51.419  24.095  32.691  1.00  0.00     0.124 S 
ATOM     86  O   UNL A   1      51.469  24.072  34.150  1.00  0.00    -0.237 OA
ATOM     87  O   UNL A   1      51.200  22.802  32.047  1.00  0.00    -0.237 OA
ATOM     88  O   UNL A   1      52.420  24.942  32.046  1.00  0.00    -0.744 OA
ENDBRANCH  84  85
ENDBRANCH  58  79
ENDBRANCH  32  33
ENDBRANCH  24  27
ENDBRANCH  22  23
ENDBRANCH   1  22
TORSDOF 16
ENDMDL
MODEL 2
REMARK VINA RESULT:     -11.2      2.794      9.573
REMARK SMILES N#C[C@@]1([C@@H](O)C(=O)NCCCNC(=O)c2ccc(-c3c4nc(c(-c5ccc(S(=O)(=O)[O-])cc5)c5ccc([nH]5)c(-c5ccc(S(=O)(=O)[O-])cc5)c5nc(c(-c6ccc(S(=O)(=O)[O-])cc6)c6ccc3[nH]6)C=C5)C=C4)cc2)CCCc2ccccc21
REMARK SMILES IDX 10 1 9 2 8 3 6 4 7 5 4 7 3 8 75 9 83 10 76 11 78 12 82 13
REMARK SMILES IDX 77 14 79 15 81 16 80 17 2 18 1 19 5 20 11 22 12 23 13 24
REMARK SMILES IDX 14 26 15 27 16 28 74 29 17 30 73 31 18 32 19 33 20 34 67 35
REMARK SMILES IDX 21 36 72 37 66 38 68 39 22 40 71 41 65 42 64 43 23 45 53 46
REMARK SMILES IDX 34 47 52 48 35 49 38 50 51 51 69 52 36 53 37 54 50 56 70 57
REMARK SMILES IDX 39 58 24 59 25 60 33 61 26 62 32 63 27 64 28 65 29 66 30 67
REMARK SMILES IDX 31 68 54 69 55 70 63 71 56 72 62 73 57 74 58 75 59 76 60 77
REMARK SMILES IDX 61 78 40 79 41 80 49 81 42 82 48 83 43 84 44 85 45 86 46 87
REMARK SMILES IDX 47 88
REMARK H PARENT 8 6 5 21 12 25 68 44 38 55
REMARK Flexibility Score: inf
ROOT
ATOM      1  C   UNL A   1      35.408  23.714  24.673  1.00  0.00     0.042 C 
ENDROOT
BRANCH   1   2
ATOM      2  C   UNL A   1      34.102  22.934  24.879  1.00  0.00     0.117 C 
BRANCH   2   3
ATOM      3  N   UNL A   1      33.290  23.396  26.003  1.00  0.00    -0.354 N 
ATOM      4  C   UNL A   1      32.182  24.196  26.081  1.00  0.00     0.250 C 
ATOM      5  O   UNL A   1      31.659  24.310  27.196  1.00  0.00    -0.272 OA
ATOM      6  H   UNL A   1      33.601  23.066  26.877  1.00  0.00     0.163 HD
BRANCH   4   7
ATOM      7  C   UNL A   1      31.595  24.950  24.872  1.00  0.00     0.227 C 
BRANCH   7   8
ATOM      8  C   UNL A   1      32.354  26.227  24.338  1.00  0.00     0.117 C 
ATOM      9  C   UNL A   1      33.493  26.743  25.236  1.00  0.00     0.031 C 
ATOM     10  C   UNL A   1      31.417  27.424  24.051  1.00  0.00    -0.021 A 
ATOM     11  C   UNL A   1      33.010  27.467  26.489  1.00  0.00     0.007 C 
ATOM     12  C   UNL A   1      31.416  28.582  24.866  1.00  0.00    -0.043 A 
ATOM     13  C   UNL A   1      30.638  27.442  22.873  1.00  0.00     0.006 A 
ATOM     14  C   UNL A   1      32.268  28.733  26.103  1.00  0.00     0.036 C 
ATOM     15  C   UNL A   1      30.685  29.717  24.470  1.00  0.00     0.004 A 
ATOM     16  C   UNL A   1      29.945  28.589  22.481  1.00  0.00     0.000 A 
ATOM     17  C   UNL A   1      29.973  29.727  23.276  1.00  0.00     0.000 A 
BRANCH   8  18
ATOM     18  C   UNL A   1      33.023  25.815  23.057  1.00  0.00     0.077 C 
ATOM     19  N   UNL A   1      33.504  25.526  22.044  1.00  0.00    -0.197 NA
ENDBRANCH   8  18
ENDBRANCH   7   8
BRANCH   7  20
ATOM     20  O   UNL A   1      31.343  23.957  23.858  1.00  0.00    -0.381 OA
ATOM     21  H   UNL A   1      31.663  23.094  24.163  1.00  0.00     0.211 HD
ENDBRANCH   7  20
ENDBRANCH   4   7
ENDBRANCH   2   3
ENDBRANCH   1   2
BRANCH   1  22
ATOM     22  C   UNL A   1      36.304  23.823  25.893  1.00  0.00     0.118 C 
BRANCH  22  23
ATOM     23  N   UNL A   1      37.303  22.772  25.912  1.00  0.00    -0.352 N 
ATOM     24  C   UNL A   1      38.651  22.863  26.176  1.00  0.00     0.251 C 
ATOM     25  H   UNL A   1      36.972  21.868  25.707  1.00  0.00     0.163 HD
ATOM     26  O   UNL A   1      39.392  21.944  25.838  1.00  0.00    -0.269 OA
BRANCH  24  27
ATOM     27  C   UNL A   1      39.212  24.069  26.836  1.00  0.00     0.039 A 
ATOM     28  C   UNL A   1      39.030  24.297  28.201  1.00  0.00     0.014 A 
ATOM     29  C   UNL A   1      39.960  24.979  26.082  1.00  0.00     0.014 A 
ATOM     30  C   UNL A   1      39.428  25.506  28.766  1.00  0.00     0.010 A 
ATOM     31  C   UNL A   1      40.462  26.141  26.681  1.00  0.00     0.010 A 
ATOM     32  C   UNL A   1      40.161  26.441  28.019  1.00  0.00    -0.014 A 
BRANCH  32  33
ATOM     33  C   UNL A   1      40.617  27.708  28.659  1.00  0.00     0.031 A 
ATOM     34  C   UNL A   1      42.048  27.880  29.102  1.00  0.00     0.074 A 
ATOM     35  C   UNL A   1      39.745  28.727  28.811  1.00  0.00     0.049 A 
ATOM     36  N   UNL A   1      42.614  28.917  29.667  1.00  0.00    -0.248 NA
ATOM     37  C   UNL A   1      42.963  26.746  28.891  1.00  0.00     0.031 C 
ATOM     38  C   UNL A   1      38.337  28.692  28.409  1.00  0.00     0.029 A 
ATOM     39  N   UNL A   1      39.910  29.994  29.317  1.00  0.00    -0.354 N 
ATOM     40  C   UNL A   1      43.938  28.557  29.890  1.00  0.00     0.074 A 
ATOM     41  C   UNL A   1      44.085  27.192  29.441  1.00  0.00     0.031 C 
ATOM     42  C   UNL A   1      37.786  29.893  28.628  1.00  0.00     0.029 A 
ATOM     43  C   UNL A   1      38.769  30.762  29.266  1.00  0.00     0.049 A 
ATOM     44  H   UNL A   1      40.764  30.320  29.682  1.00  0.00     0.167 HD
ATOM     45  C   UNL A   1      44.944  29.306  30.404  1.00  0.00     0.031 A 
ATOM     46  C   UNL A   1      38.523  32.017  29.695  1.00  0.00     0.031 A 
ATOM     47  C   UNL A   1      44.791  30.673  30.836  1.00  0.00     0.049 A 
ATOM     48  C   UNL A   1      39.641  32.808  30.314  1.00  0.00     0.074 A 
ATOM     49  C   UNL A   1      45.760  31.521  31.342  1.00  0.00     0.029 A 
ATOM     50  N   UNL A   1      43.605  31.394  30.813  1.00  0.00    -0.354 N 
ATOM     51  N   UNL A   1      40.895  32.462  30.482  1.00  0.00    -0.248 NA
ATOM     52  C   UNL A   1      39.321  34.159  30.793  1.00  0.00     0.031 C 
ATOM     53  C   UNL A   1      45.147  32.718  31.709  1.00  0.00     0.029 A 
ATOM     54  C   UNL A   1      43.813  32.661  31.334  1.00  0.00     0.049 A 
ATOM     55  H   UNL A   1      42.745  31.056  30.475  1.00  0.00     0.167 HD
ATOM     56  C   UNL A   1      41.518  33.558  31.066  1.00  0.00     0.074 A 
ATOM     57  C   UNL A   1      40.508  34.589  31.199  1.00  0.00     0.031 C 
ATOM     58  C   UNL A   1      42.808  33.691  31.460  1.00  0.00     0.031 A 
BRANCH  45  59
ATOM     59  C   UNL A   1      46.316  28.685  30.531  1.00  0.00    -0.014 A 
ATOM     60  C   UNL A   1      47.259  28.853  29.497  1.00  0.00     0.010 A 
ATOM     61  C   UNL A   1      46.629  27.823  31.599  1.00  0.00     0.010 A 
ATOM     62  C   UNL A   1      48.460  28.139  29.503  1.00  0.00     0.020 A 
ATOM     63  C   UNL A   1      47.847  27.136  31.628  1.00  0.00     0.020 A 
ATOM     64  C   UNL A   1      48.742  27.276  30.565  1.00  0.00     0.054 A 
BRANCH  64  65
ATOM     65  S   UNL A   1      50.283  26.319  30.526  1.00  0.00     0.124 S 
ATOM     66  O   UNL A   1      50.442  26.045  29.102  1.00  0.00    -0.237 OA
ATOM     67  O   UNL A   1      51.250  27.250  31.103  1.00  0.00    -0.237 OA
ATOM     68  O   UNL A   1      49.983  25.154  31.357  1.00  0.00    -0.744 OA
ENDBRANCH  64  65
ENDBRANCH  45  59
BRANCH  46  69
ATOM     69  C   UNL A   1      37.155  32.590  29.520  1.00  0.00    -0.014 A 
ATOM     70  C   UNL A   1      36.784  33.186  28.297  1.00  0.00     0.010 A 
ATOM     71  C   UNL A   1      36.254  32.638  30.597  1.00  0.00     0.010 A 
ATOM     72  C   UNL A   1      35.582  33.887  28.182  1.00  0.00     0.020 A 
ATOM     73  C   UNL A   1      35.029  33.301  30.472  1.00  0.00     0.020 A 
ATOM     74  C   UNL A   1      34.718  33.953  29.278  1.00  0.00     0.054 A 
BRANCH  74  75
ATOM     75  S   UNL A   1      33.205  34.942  29.128  1.00  0.00     0.124 S 
ATOM     76  O   UNL A   1      32.693  34.914  30.495  1.00  0.00    -0.237 OA
ATOM     77  O   UNL A   1      33.714  36.232  28.671  1.00  0.00    -0.237 OA
ATOM     78  O   UNL A   1      32.409  34.206  28.148  1.00  0.00    -0.744 OA
ENDBRANCH  74  75
ENDBRANCH  46  69
BRANCH  58  79
ATOM     79  C   UNL A   1      43.240  35.000  32.076  1.00  0.00    -0.014 A 
ATOM     80  C   UNL A   1      42.997  35.240  33.443  1.00  0.00     0.010 A 
ATOM     81  C   UNL A   1      43.745  36.045  31.282  1.00  0.00     0.010 A 
ATOM     82  C   UNL A   1      43.198  36.511  33.990  1.00  0.00     0.020 A 
ATOM     83  C   UNL A   1      43.986  37.307  31.834  1.00  0.00     0.020 A 
ATOM     84  C   UNL A   1      43.680  37.539  33.177  1.00  0.00     0.054 A 
BRANCH  84  85
ATOM     85  S   UNL A   1      43.875  39.195  33.892  1.00  0.00     0.124 S 
ATOM     86  O   UNL A   1      44.004  38.902  35.316  1.00  0.00    -0.237 OA
ATOM     87  O   UNL A   1      45.086  39.684  33.236  1.00  0.00    -0.237 OA
ATOM     88  O   UNL A   1      42.645  39.883  33.506  1.00  0.00    -0.744 OA
ENDBRANCH  84  85
ENDBRANCH  58  79
ENDBRANCH  32  33
ENDBRANCH  24  27
ENDBRANCH  22  23
ENDBRANCH   1  22
TORSDOF 16
ENDMDL
MODEL 3
REMARK VINA RESULT:     -11.1      2.919      9.498
REMARK SMILES N#C[C@@]1([C@@H](O)C(=O)NCCCNC(=O)c2ccc(-c3c4nc(c(-c5ccc(S(=O)(=O)[O-])cc5)c5ccc([nH]5)c(-c5ccc(S(=O)(=O)[O-])cc5)c5nc(c(-c6ccc(S(=O)(=O)[O-])cc6)c6ccc3[nH]6)C=C5)C=C4)cc2)CCCc2ccccc21
REMARK SMILES IDX 10 1 9 2 8 3 6 4 7 5 4 7 3 8 75 9 83 10 76 11 78 12 82 13
REMARK SMILES IDX 77 14 79 15 81 16 80 17 2 18 1 19 5 20 11 22 12 23 13 24
REMARK SMILES IDX 14 26 15 27 16 28 74 29 17 30 73 31 18 32 19 33 20 34 67 35
REMARK SMILES IDX 21 36 72 37 66 38 68 39 22 40 71 41 65 42 64 43 23 45 53 46
REMARK SMILES IDX 34 47 52 48 35 49 38 50 51 51 69 52 36 53 37 54 50 56 70 57
REMARK SMILES IDX 39 58 24 59 25 60 33 61 26 62 32 63 27 64 28 65 29 66 30 67
REMARK SMILES IDX 31 68 54 69 55 70 63 71 56 72 62 73 57 74 58 75 59 76 60 77
REMARK SMILES IDX 61 78 40 79 41 80 49 81 42 82 48 83 43 84 44 85 45 86 46 87
REMARK SMILES IDX 47 88
REMARK H PARENT 8 6 5 21 12 25 68 44 38 55
REMARK Flexibility Score: inf
ROOT
ATOM      1  C   UNL A   1      35.688  23.047  24.467  1.00  0.00     0.042 C 
ENDROOT
BRANCH   1   2
ATOM      2  C   UNL A   1      34.429  23.915  24.608  1.00  0.00     0.117 C 
BRANCH   2   3
ATOM      3  N   UNL A   1      33.993  24.554  23.368  1.00  0.00    -0.354 N 
ATOM      4  C   UNL A   1      32.784  25.042  22.951  1.00  0.00     0.250 C 
ATOM      5  O   UNL A   1      32.770  25.632  21.865  1.00  0.00    -0.272 OA
ATOM      6  H   UNL A   1      34.711  24.656  22.702  1.00  0.00     0.163 HD
BRANCH   4   7
ATOM      7  C   UNL A   1      31.478  24.869  23.752  1.00  0.00     0.227 C 
BRANCH   7   8
ATOM      8  C   UNL A   1      30.885  26.121  24.508  1.00  0.00     0.117 C 
ATOM      9  C   UNL A   1      29.792  26.896  23.749  1.00  0.00     0.031 C 
ATOM     10  C   UNL A   1      31.962  27.148  24.936  1.00  0.00    -0.021 A 
ATOM     11  C   UNL A   1      30.324  27.750  22.603  1.00  0.00     0.007 C 
ATOM     12  C   UNL A   1      32.076  28.413  24.309  1.00  0.00    -0.043 A 
ATOM     13  C   UNL A   1      32.766  26.894  26.068  1.00  0.00     0.006 A 
ATOM     14  C   UNL A   1      31.217  28.849  23.147  1.00  0.00     0.036 C 
ATOM     15  C   UNL A   1      32.943  29.383  24.844  1.00  0.00     0.004 A 
ATOM     16  C   UNL A   1      33.596  27.882  26.602  1.00  0.00     0.000 A 
ATOM     17  C   UNL A   1      33.681  29.126  25.994  1.00  0.00     0.000 A 
BRANCH   8  18
ATOM     18  C   UNL A   1      30.204  25.589  25.737  1.00  0.00     0.077 C 
ATOM     19  N   UNL A   1      29.633  25.196  26.664  1.00  0.00    -0.197 NA
ENDBRANCH   8  18
ENDBRANCH   7   8
BRANCH   7  20
ATOM     20  O   UNL A   1      30.540  24.229  22.865  1.00  0.00    -0.381 OA
ATOM     21  H   UNL A   1      30.223  24.870  22.211  1.00  0.00     0.211 HD
ENDBRANCH   7  20
ENDBRANCH   4   7
ENDBRANCH   2   3
ENDBRANCH   1   2
BRANCH   1  22
ATOM     22  C   UNL A   1      36.975  23.674  24.971  1.00  0.00     0.118 C 
BRANCH  22  23
ATOM     23  N   UNL A   1      37.894  22.670  25.471  1.00  0.00    -0.352 N 
ATOM     24  C   UNL A   1      39.086  22.842  26.138  1.00  0.00     0.251 C 
ATOM     25  H   UNL A   1      37.629  21.735  25.311  1.00  0.00     0.163 HD
ATOM     26  O   UNL A   1      39.878  21.906  26.201  1.00  0.00    -0.269 OA
BRANCH  24  27
ATOM     27  C   UNL A   1      39.427  24.150  26.750  1.00  0.00     0.039 A 
ATOM     28  C   UNL A   1      40.108  25.132  26.027  1.00  0.00     0.014 A 
ATOM     29  C   UNL A   1      39.037  24.415  28.066  1.00  0.00     0.014 A 
ATOM     30  C   UNL A   1      40.555  26.285  26.666  1.00  0.00     0.010 A 
ATOM     31  C   UNL A   1      39.386  25.628  28.671  1.00  0.00     0.010 A 
ATOM     32  C   UNL A   1      40.191  26.558  27.993  1.00  0.00    -0.014 A 
BRANCH  32  33
ATOM     33  C   UNL A   1      40.642  27.823  28.641  1.00  0.00     0.031 A 
ATOM     34  C   UNL A   1      42.074  28.000  29.078  1.00  0.00     0.074 A 
ATOM     35  C   UNL A   1      39.764  28.835  28.807  1.00  0.00     0.049 A 
ATOM     36  N   UNL A   1      42.637  29.036  29.649  1.00  0.00    -0.248 NA
ATOM     37  C   UNL A   1      42.996  26.875  28.852  1.00  0.00     0.031 C 
ATOM     38  C   UNL A   1      38.354  28.794  28.412  1.00  0.00     0.029 A 
ATOM     39  N   UNL A   1      39.924  30.098  29.322  1.00  0.00    -0.354 N 
ATOM     40  C   UNL A   1      43.965  28.683  29.862  1.00  0.00     0.074 A 
ATOM     41  C   UNL A   1      44.118  27.323  29.401  1.00  0.00     0.031 C 
ATOM     42  C   UNL A   1      37.797  29.989  28.644  1.00  0.00     0.029 A 
ATOM     43  C   UNL A   1      38.778  30.860  29.284  1.00  0.00     0.049 A 
ATOM     44  H   UNL A   1      40.778  30.427  29.685  1.00  0.00     0.167 HD
ATOM     45  C   UNL A   1      44.969  29.434  30.376  1.00  0.00     0.031 A 
ATOM     46  C   UNL A   1      38.526  32.109  29.725  1.00  0.00     0.031 A 
ATOM     47  C   UNL A   1      44.808  30.796  30.821  1.00  0.00     0.049 A 
ATOM     48  C   UNL A   1      39.642  32.902  30.345  1.00  0.00     0.074 A 
ATOM     49  C   UNL A   1      45.775  31.646  31.329  1.00  0.00     0.029 A 
ATOM     50  N   UNL A   1      43.618  31.510  30.810  1.00  0.00    -0.354 N 
ATOM     51  N   UNL A   1      40.899  32.563  30.503  1.00  0.00    -0.248 NA
ATOM     52  C   UNL A   1      39.316  34.247  30.837  1.00  0.00     0.031 C 
ATOM     53  C   UNL A   1      45.156  32.836  31.710  1.00  0.00     0.029 A 
ATOM     54  C   UNL A   1      43.820  32.774  31.341  1.00  0.00     0.049 A 
ATOM     55  H   UNL A   1      42.758  31.169  30.474  1.00  0.00     0.167 HD
ATOM     56  C   UNL A   1      41.518  33.658  31.093  1.00  0.00     0.074 A 
ATOM     57  C   UNL A   1      40.503  34.681  31.240  1.00  0.00     0.031 C 
ATOM     58  C   UNL A   1      42.810  33.796  31.481  1.00  0.00     0.031 A 
BRANCH  45  59
ATOM     59  C   UNL A   1      46.345  28.821  30.491  1.00  0.00    -0.014 A 
ATOM     60  C   UNL A   1      46.741  28.211  31.698  1.00  0.00     0.010 A 
ATOM     61  C   UNL A   1      47.295  28.968  29.463  1.00  0.00     0.010 A 
ATOM     62  C   UNL A   1      48.064  27.805  31.892  1.00  0.00     0.020 A 
ATOM     63  C   UNL A   1      48.611  28.528  29.640  1.00  0.00     0.020 A 
ATOM     64  C   UNL A   1      48.994  27.976  30.865  1.00  0.00     0.054 A 
BRANCH  64  65
ATOM     65  S   UNL A   1      50.718  27.492  31.157  1.00  0.00     0.124 S 
ATOM     66  O   UNL A   1      51.410  28.776  31.127  1.00  0.00    -0.237 OA
ATOM     67  O   UNL A   1      50.648  26.841  32.463  1.00  0.00    -0.237 OA
ATOM     68  O   UNL A   1      51.016  26.596  30.040  1.00  0.00    -0.744 OA
ENDBRANCH  64  65
ENDBRANCH  45  59
BRANCH  46  69
ATOM     69  C   UNL A   1      37.153  32.675  29.562  1.00  0.00    -0.014 A 
ATOM     70  C   UNL A   1      36.737  33.186  28.316  1.00  0.00     0.010 A 
ATOM     71  C   UNL A   1      36.294  32.801  30.667  1.00  0.00     0.010 A 
ATOM     72  C   UNL A   1      35.533  33.882  28.197  1.00  0.00     0.020 A 
ATOM     73  C   UNL A   1      35.066  33.459  30.542  1.00  0.00     0.020 A 
ATOM     74  C   UNL A   1      34.712  34.029  29.318  1.00  0.00     0.054 A 
BRANCH  74  75
ATOM     75  S   UNL A   1      33.195  35.011  29.156  1.00  0.00     0.124 S 
ATOM     76  O   UNL A   1      32.683  34.996  30.524  1.00  0.00    -0.237 OA
ATOM     77  O   UNL A   1      33.701  36.298  28.687  1.00  0.00    -0.237 OA
ATOM     78  O   UNL A   1      32.403  34.262  28.184  1.00  0.00    -0.744 OA
ENDBRANCH  74  75
ENDBRANCH  46  69
BRANCH  58  79
ATOM     79  C   UNL A   1      43.236  35.103  32.106  1.00  0.00    -0.014 A 
ATOM     80  C   UNL A   1      42.938  35.358  33.459  1.00  0.00     0.010 A 
ATOM     81  C   UNL A   1      43.793  36.133  31.326  1.00  0.00     0.010 A 
ATOM     82  C   UNL A   1      43.136  36.629  34.005  1.00  0.00     0.020 A 
ATOM     83  C   UNL A   1      44.031  37.395  31.880  1.00  0.00     0.020 A 
ATOM     84  C   UNL A   1      43.671  37.643  33.207  1.00  0.00     0.054 A 
BRANCH  84  85
ATOM     85  S   UNL A   1      43.862  39.301  33.917  1.00  0.00     0.124 S 
ATOM     86  O   UNL A   1      42.606  39.943  33.545  1.00  0.00    -0.237 OA
ATOM     87  O   UNL A   1      44.030  39.019  35.342  1.00  0.00    -0.237 OA
ATOM     88  O   UNL A   1      45.052  39.826  33.251  1.00  0.00    -0.744 OA
ENDBRANCH  84  85
ENDBRANCH  58  79
ENDBRANCH  32  33
ENDBRANCH  24  27
ENDBRANCH  22  23
ENDBRANCH   1  22
TORSDOF 16
ENDMDL
