MODEL 1
REMARK VINA RESULT:     -11.8      0.000      0.000
REMARK SMILES O=C(CCC1CC[NH+]([C@H]2CCO[C@@]3(CCSC3)C2)CC1)NCCCNC(=O)c1ccc(-c2c3nc(c(-c4ccc(S(=O)(=O)[O-])cc4)c4ccc([nH]4)c(-c4ccc(S(=O)(=O)[O-])cc4)c4nc(c(-c5ccc(S(=O)(=O)[O-])cc5)c5ccc2[nH]5)C=C4)C=C3)cc1
REMARK SMILES IDX 23 1 22 2 21 3 1 4 2 5 3 7 4 8 5 9 6 10 20 11 7 12 19 13
REMARK SMILES IDX 8 14 9 16 10 17 18 18 11 19 13 20 12 21 14 22 17 23 15 24
REMARK SMILES IDX 16 25 24 26 25 27 26 28 27 30 28 31 29 32 87 33 30 34 86 35
REMARK SMILES IDX 31 36 32 37 33 38 80 39 34 40 85 41 79 42 81 43 35 44 84 45
REMARK SMILES IDX 78 46 77 47 36 49 66 50 47 51 65 52 48 53 51 54 64 55 82 56
REMARK SMILES IDX 49 57 50 58 63 60 83 61 52 62 37 63 38 64 46 65 39 66 45 67
REMARK SMILES IDX 40 68 41 69 42 70 43 71 44 72 67 73 68 74 76 75 69 76 75 77
REMARK SMILES IDX 70 78 71 79 72 80 73 81 74 82 53 83 54 84 62 85 55 86 61 87
REMARK SMILES IDX 56 88 57 89 58 90 59 91 60 92
REMARK H PARENT 21 6 8 15 25 29 81 48 51 59
REMARK Flexibility Score: inf
ROOT
ATOM      1  C   UNL A   1      40.231  22.301  27.256  1.00  0.00     0.042 C 
ENDROOT
BRANCH   1   2
ATOM      2  C   UNL A   1      39.848  21.304  26.166  1.00  0.00     0.117 C 
BRANCH   2   3
ATOM      3  N   UNL A   1      38.626  21.639  25.454  1.00  0.00    -0.356 N 
ATOM      4  O   UNL A   1      38.122  19.458  24.964  1.00  0.00    -0.275 OA
ATOM      5  C   UNL A   1      37.795  20.641  24.987  1.00  0.00     0.220 C 
ATOM      6  H   UNL A   1      38.391  22.583  25.305  1.00  0.00     0.163 HD
BRANCH   5   7
ATOM      7  C   UNL A   1      36.399  21.095  24.587  1.00  0.00     0.100 C 
BRANCH   7   8
ATOM      8  C   UNL A   1      36.465  22.409  23.784  1.00  0.00     0.014 C 
BRANCH   8   9
ATOM      9  C   UNL A   1      35.109  23.128  23.575  1.00  0.00     0.000 C 
ATOM     10  C   UNL A   1      35.086  24.572  24.077  1.00  0.00     0.065 C 
ATOM     11  C   UNL A   1      33.937  22.333  24.197  1.00  0.00     0.065 C 
ATOM     12  C   UNL A   1      34.964  24.641  25.593  1.00  0.00     0.262 C 
ATOM     13  C   UNL A   1      33.684  22.610  25.692  1.00  0.00     0.262 C 
ATOM     14  N   UNL A   1      33.741  24.014  26.098  1.00  0.00    -0.332 N 
ATOM     15  H   UNL A   1      33.765  23.955  27.115  1.00  0.00     0.348 HD
BRANCH  14  16
ATOM     16  C   UNL A   1      32.542  24.859  25.939  1.00  0.00     0.189 C 
ATOM     17  C   UNL A   1      31.188  24.270  26.351  1.00  0.00     0.093 C 
ATOM     18  C   UNL A   1      32.708  26.212  26.671  1.00  0.00     0.101 C 
ATOM     19  C   UNL A   1      30.099  25.241  25.937  1.00  0.00     0.167 C 
ATOM     20  C   UNL A   1      31.488  27.147  26.436  1.00  0.00     0.084 C 
ATOM     21  O   UNL A   1      30.250  26.449  26.664  1.00  0.00    -0.374 OA
ATOM     22  C   UNL A   1      31.448  28.295  27.456  1.00  0.00     0.047 C 
ATOM     23  C   UNL A   1      31.508  27.821  25.046  1.00  0.00     0.105 C 
ATOM     24  C   UNL A   1      32.433  29.361  27.039  1.00  0.00     0.072 C 
ATOM     25  S   UNL A   1      32.214  29.490  25.255  1.00  0.00    -0.159 SA
ENDBRANCH  14  16
ENDBRANCH   8   9
ENDBRANCH   7   8
ENDBRANCH   5   7
ENDBRANCH   2   3
ENDBRANCH   1   2
BRANCH   1  26
ATOM     26  C   UNL A   1      41.519  23.089  27.026  1.00  0.00     0.118 C 
BRANCH  26  27
ATOM     27  N   UNL A   1      41.444  24.073  25.956  1.00  0.00    -0.352 N 
ATOM     28  C   UNL A   1      41.467  25.448  26.011  1.00  0.00     0.251 C 
ATOM     29  H   UNL A   1      41.362  23.695  25.051  1.00  0.00     0.163 HD
ATOM     30  O   UNL A   1      41.473  26.097  24.967  1.00  0.00    -0.269 OA
BRANCH  28  31
ATOM     31  C   UNL A   1      41.408  26.156  27.310  1.00  0.00     0.039 A 
ATOM     32  C   UNL A   1      42.447  27.040  27.623  1.00  0.00     0.014 A 
ATOM     33  C   UNL A   1      40.342  25.992  28.198  1.00  0.00     0.014 A 
ATOM     34  C   UNL A   1      42.364  27.835  28.769  1.00  0.00     0.010 A 
ATOM     35  C   UNL A   1      40.232  26.830  29.309  1.00  0.00     0.010 A 
ATOM     36  C   UNL A   1      41.229  27.778  29.593  1.00  0.00    -0.014 A 
BRANCH  36  37
ATOM     37  C   UNL A   1      41.050  28.739  30.714  1.00  0.00     0.031 A 
ATOM     38  C   UNL A   1      41.902  28.646  31.950  1.00  0.00     0.074 A 
ATOM     39  C   UNL A   1      40.070  29.664  30.643  1.00  0.00     0.049 A 
ATOM     40  N   UNL A   1      41.848  29.364  33.043  1.00  0.00    -0.248 NA
ATOM     41  C   UNL A   1      42.935  27.599  31.969  1.00  0.00     0.031 C 
ATOM     42  C   UNL A   1      39.151  29.839  29.516  1.00  0.00     0.029 A 
ATOM     43  N   UNL A   1      39.680  30.629  31.540  1.00  0.00    -0.354 N 
ATOM     44  C   UNL A   1      42.828  28.851  33.884  1.00  0.00     0.074 A 
ATOM     45  C   UNL A   1      43.432  27.732  33.190  1.00  0.00     0.031 C 
ATOM     46  C   UNL A   1      38.321  30.862  29.779  1.00  0.00     0.029 A 
ATOM     47  C   UNL A   1      38.619  31.390  31.106  1.00  0.00     0.049 A 
ATOM     48  H   UNL A   1      40.117  30.762  32.412  1.00  0.00     0.167 HD
ATOM     49  C   UNL A   1      43.202  29.279  35.114  1.00  0.00     0.031 A 
ATOM     50  C   UNL A   1      37.953  32.396  31.706  1.00  0.00     0.031 A 
ATOM     51  C   UNL A   1      42.604  30.394  35.802  1.00  0.00     0.049 A 
ATOM     52  C   UNL A   1      38.378  32.845  33.078  1.00  0.00     0.074 A 
ATOM     53  C   UNL A   1      42.949  30.931  37.030  1.00  0.00     0.029 A 
ATOM     54  N   UNL A   1      41.538  31.142  35.324  1.00  0.00    -0.354 N 
ATOM     55  N   UNL A   1      39.346  32.380  33.832  1.00  0.00    -0.248 NA
ATOM     56  C   UNL A   1      37.627  33.958  33.675  1.00  0.00     0.031 C 
ATOM     57  C   UNL A   1      42.059  31.972  37.318  1.00  0.00     0.029 A 
ATOM     58  C   UNL A   1      41.197  32.120  36.244  1.00  0.00     0.049 A 
ATOM     59  H   UNL A   1      41.090  30.998  34.461  1.00  0.00     0.167 HD
ATOM     60  C   UNL A   1      39.337  33.164  34.981  1.00  0.00     0.074 A 
ATOM     61  C   UNL A   1      38.277  34.137  34.817  1.00  0.00     0.031 C 
ATOM     62  C   UNL A   1      40.138  33.083  36.072  1.00  0.00     0.031 A 
BRANCH  49  63
ATOM     63  C   UNL A   1      44.308  28.526  35.804  1.00  0.00    -0.014 A 
ATOM     64  C   UNL A   1      44.036  27.385  36.582  1.00  0.00     0.010 A 
ATOM     65  C   UNL A   1      45.643  28.941  35.643  1.00  0.00     0.010 A 
ATOM     66  C   UNL A   1      45.073  26.703  37.223  1.00  0.00     0.020 A 
ATOM     67  C   UNL A   1      46.685  28.244  36.260  1.00  0.00     0.020 A 
ATOM     68  C   UNL A   1      46.391  27.139  37.062  1.00  0.00     0.054 A 
BRANCH  68  69
ATOM     69  S   UNL A   1      47.719  26.228  37.896  1.00  0.00     0.124 S 
ATOM     70  O   UNL A   1      47.658  24.931  37.227  1.00  0.00    -0.237 OA
ATOM     71  O   UNL A   1      48.900  27.034  37.597  1.00  0.00    -0.237 OA
ATOM     72  O   UNL A   1      47.309  26.224  39.299  1.00  0.00    -0.744 OA
ENDBRANCH  68  69
ENDBRANCH  49  63
BRANCH  50  73
ATOM     73  C   UNL A   1      36.817  33.057  31.008  1.00  0.00    -0.014 A 
ATOM     74  C   UNL A   1      35.495  32.845  31.435  1.00  0.00     0.010 A 
ATOM     75  C   UNL A   1      37.054  33.915  29.918  1.00  0.00     0.010 A 
ATOM     76  C   UNL A   1      34.428  33.465  30.776  1.00  0.00     0.020 A 
ATOM     77  C   UNL A   1      35.993  34.556  29.273  1.00  0.00     0.020 A 
ATOM     78  C   UNL A   1      34.685  34.318  29.700  1.00  0.00     0.054 A 
BRANCH  78  79
ATOM     79  S   UNL A   1      33.291  35.155  28.893  1.00  0.00     0.124 S 
ATOM     80  O   UNL A   1      32.766  34.104  28.027  1.00  0.00    -0.237 OA
ATOM     81  O   UNL A   1      32.446  35.525  30.026  1.00  0.00    -0.237 OA
ATOM     82  O   UNL A   1      33.922  36.279  28.204  1.00  0.00    -0.744 OA
ENDBRANCH  78  79
ENDBRANCH  50  73
BRANCH  62  83
ATOM     83  C   UNL A   1      39.922  34.094  37.166  1.00  0.00    -0.014 A 
ATOM     84  C   UNL A   1      40.404  35.409  37.052  1.00  0.00     0.010 A 
ATOM     85  C   UNL A   1      39.176  33.734  38.304  1.00  0.00     0.010 A 
ATOM     86  C   UNL A   1      40.170  36.339  38.069  1.00  0.00     0.020 A 
ATOM     87  C   UNL A   1      38.917  34.668  39.311  1.00  0.00     0.020 A 
ATOM     88  C   UNL A   1      39.427  35.962  39.192  1.00  0.00     0.054 A 
BRANCH  88  89
ATOM     89  S   UNL A   1      39.097  37.200  40.477  1.00  0.00     0.124 S 
ATOM     90  O   UNL A   1      38.423  36.404  41.498  1.00  0.00    -0.237 OA
ATOM     91  O   UNL A   1      40.436  37.666  40.825  1.00  0.00    -0.237 OA
ATOM     92  O   UNL A   1      38.257  38.186  39.799  1.00  0.00    -0.744 OA
ENDBRANCH  88  89
ENDBRANCH  62  83
ENDBRANCH  36  37
ENDBRANCH  28  31
ENDBRANCH  26  27
ENDBRANCH   1  26
TORSDOF 16
ENDMDL
MODEL 2
REMARK VINA RESULT:     -11.5      6.094     12.199
REMARK SMILES O=C(CCC1CC[NH+]([C@H]2CCO[C@@]3(CCSC3)C2)CC1)NCCCNC(=O)c1ccc(-c2c3nc(c(-c4ccc(S(=O)(=O)[O-])cc4)c4ccc([nH]4)c(-c4ccc(S(=O)(=O)[O-])cc4)c4nc(c(-c5ccc(S(=O)(=O)[O-])cc5)c5ccc2[nH]5)C=C4)C=C3)cc1
REMARK SMILES IDX 23 1 22 2 21 3 1 4 2 5 3 7 4 8 5 9 6 10 20 11 7 12 19 13
REMARK SMILES IDX 8 14 9 16 10 17 18 18 11 19 13 20 12 21 14 22 17 23 15 24
REMARK SMILES IDX 16 25 24 26 25 27 26 28 27 30 28 31 29 32 87 33 30 34 86 35
REMARK SMILES IDX 31 36 32 37 33 38 80 39 34 40 85 41 79 42 81 43 35 44 84 45
REMARK SMILES IDX 78 46 77 47 36 49 66 50 47 51 65 52 48 53 51 54 64 55 82 56
REMARK SMILES IDX 49 57 50 58 63 60 83 61 52 62 37 63 38 64 46 65 39 66 45 67
REMARK SMILES IDX 40 68 41 69 42 70 43 71 44 72 67 73 68 74 76 75 69 76 75 77
REMARK SMILES IDX 70 78 71 79 72 80 73 81 74 82 53 83 54 84 62 85 55 86 61 87
REMARK SMILES IDX 56 88 57 89 58 90 59 91 60 92
REMARK H PARENT 21 6 8 15 25 29 81 48 51 59
REMARK Flexibility Score: inf
ROOT
ATOM      1  C   UNL A   1      35.903  33.739  28.842  1.00  0.00     0.042 C 
ENDROOT
BRANCH   1   2
ATOM      2  C   UNL A   1      34.411  33.529  29.087  1.00  0.00     0.117 C 
BRANCH   2   3
ATOM      3  N   UNL A   1      33.703  32.923  27.973  1.00  0.00    -0.356 N 
ATOM      4  O   UNL A   1      34.623  30.851  28.304  1.00  0.00    -0.275 OA
ATOM      5  C   UNL A   1      33.803  31.567  27.736  1.00  0.00     0.220 C 
ATOM      6  H   UNL A   1      33.148  33.484  27.384  1.00  0.00     0.163 HD
BRANCH   5   7
ATOM      7  C   UNL A   1      32.759  30.995  26.788  1.00  0.00     0.100 C 
BRANCH   7   8
ATOM      8  C   UNL A   1      32.206  29.663  27.331  1.00  0.00     0.014 C 
BRANCH   8   9
ATOM      9  C   UNL A   1      31.661  28.686  26.260  1.00  0.00     0.000 C 
ATOM     10  C   UNL A   1      32.172  27.252  26.409  1.00  0.00     0.065 C 
ATOM     11  C   UNL A   1      31.931  29.197  24.826  1.00  0.00     0.065 C 
ATOM     12  C   UNL A   1      33.602  27.108  25.908  1.00  0.00     0.262 C 
ATOM     13  C   UNL A   1      33.311  28.823  24.251  1.00  0.00     0.262 C 
ATOM     14  N   UNL A   1      33.750  27.450  24.492  1.00  0.00    -0.332 N 
ATOM     15  H   UNL A   1      34.736  27.477  24.233  1.00  0.00     0.348 HD
BRANCH  14  16
ATOM     16  C   UNL A   1      33.298  26.379  23.582  1.00  0.00     0.189 C 
ATOM     17  C   UNL A   1      33.423  26.618  22.073  1.00  0.00     0.093 C 
ATOM     18  C   UNL A   1      33.998  25.037  23.904  1.00  0.00     0.101 C 
ATOM     19  C   UNL A   1      32.743  25.472  21.350  1.00  0.00     0.167 C 
ATOM     20  C   UNL A   1      33.464  23.881  23.012  1.00  0.00     0.084 C 
ATOM     21  O   UNL A   1      33.439  24.267  21.625  1.00  0.00    -0.374 OA
ATOM     22  C   UNL A   1      34.406  22.667  23.031  1.00  0.00     0.047 C 
ATOM     23  C   UNL A   1      32.088  23.352  23.475  1.00  0.00     0.105 C 
ATOM     24  C   UNL A   1      34.177  21.885  24.302  1.00  0.00     0.072 C 
ATOM     25  S   UNL A   1      32.384  21.867  24.491  1.00  0.00    -0.159 SA
ENDBRANCH  14  16
ENDBRANCH   8   9
ENDBRANCH   7   8
ENDBRANCH   5   7
ENDBRANCH   2   3
ENDBRANCH   1   2
BRANCH   1  26
ATOM     26  C   UNL A   1      36.852  32.982  29.770  1.00  0.00     0.118 C 
BRANCH  26  27
ATOM     27  N   UNL A   1      36.194  32.072  30.696  1.00  0.00    -0.352 N 
ATOM     28  C   UNL A   1      36.620  30.869  31.212  1.00  0.00     0.251 C 
ATOM     29  H   UNL A   1      35.304  32.362  31.000  1.00  0.00     0.163 HD
ATOM     30  O   UNL A   1      35.934  30.293  32.054  1.00  0.00    -0.269 OA
BRANCH  28  31
ATOM     31  C   UNL A   1      37.854  30.224  30.709  1.00  0.00     0.039 A 
ATOM     32  C   UNL A   1      38.046  30.169  29.324  1.00  0.00     0.014 A 
ATOM     33  C   UNL A   1      38.828  29.711  31.568  1.00  0.00     0.014 A 
ATOM     34  C   UNL A   1      39.257  29.700  28.806  1.00  0.00     0.010 A 
ATOM     35  C   UNL A   1      40.059  29.300  31.052  1.00  0.00     0.010 A 
ATOM     36  C   UNL A   1      40.295  29.313  29.667  1.00  0.00    -0.014 A 
BRANCH  36  37
ATOM     37  C   UNL A   1      41.644  28.979  29.136  1.00  0.00     0.031 A 
ATOM     38  C   UNL A   1      42.710  30.034  29.027  1.00  0.00     0.074 A 
ATOM     39  C   UNL A   1      41.890  27.729  28.691  1.00  0.00     0.049 A 
ATOM     40  N   UNL A   1      43.921  29.934  28.539  1.00  0.00    -0.248 NA
ATOM     41  C   UNL A   1      42.366  31.380  29.508  1.00  0.00     0.031 C 
ATOM     42  C   UNL A   1      40.932  26.621  28.708  1.00  0.00     0.029 A 
ATOM     43  N   UNL A   1      43.019  27.180  28.133  1.00  0.00    -0.354 N 
ATOM     44  C   UNL A   1      44.479  31.202  28.643  1.00  0.00     0.074 A 
ATOM     45  C   UNL A   1      43.459  32.065  29.201  1.00  0.00     0.031 C 
ATOM     46  C   UNL A   1      41.520  25.522  28.207  1.00  0.00     0.029 A 
ATOM     47  C   UNL A   1      42.880  25.853  27.795  1.00  0.00     0.049 A 
ATOM     48  H   UNL A   1      43.849  27.689  27.987  1.00  0.00     0.167 HD
ATOM     49  C   UNL A   1      45.730  31.610  28.318  1.00  0.00     0.031 A 
ATOM     50  C   UNL A   1      43.743  24.998  27.215  1.00  0.00     0.031 A 
ATOM     51  C   UNL A   1      46.747  30.750  27.769  1.00  0.00     0.049 A 
ATOM     52  C   UNL A   1      45.123  25.477  26.852  1.00  0.00     0.074 A 
ATOM     53  C   UNL A   1      48.058  31.063  27.453  1.00  0.00     0.029 A 
ATOM     54  N   UNL A   1      46.567  29.412  27.449  1.00  0.00    -0.354 N 
ATOM     55  N   UNL A   1      45.648  26.668  27.012  1.00  0.00    -0.248 NA
ATOM     56  C   UNL A   1      46.027  24.494  26.238  1.00  0.00     0.031 C 
ATOM     57  C   UNL A   1      48.657  29.927  26.898  1.00  0.00     0.029 A 
ATOM     58  C   UNL A   1      47.736  28.892  26.919  1.00  0.00     0.049 A 
ATOM     59  H   UNL A   1      45.733  28.908  27.580  1.00  0.00     0.167 HD
ATOM     60  C   UNL A   1      46.954  26.570  26.543  1.00  0.00     0.074 A 
ATOM     61  C   UNL A   1      47.141  25.202  26.106  1.00  0.00     0.031 C 
ATOM     62  C   UNL A   1      47.911  27.529  26.485  1.00  0.00     0.031 A 
BRANCH  49  63
ATOM     63  C   UNL A   1      46.067  33.060  28.541  1.00  0.00    -0.014 A 
ATOM     64  C   UNL A   1      46.677  33.489  29.734  1.00  0.00     0.010 A 
ATOM     65  C   UNL A   1      45.806  34.003  27.530  1.00  0.00     0.010 A 
ATOM     66  C   UNL A   1      46.976  34.841  29.930  1.00  0.00     0.020 A 
ATOM     67  C   UNL A   1      46.129  35.350  27.711  1.00  0.00     0.020 A 
ATOM     68  C   UNL A   1      46.695  35.763  28.918  1.00  0.00     0.054 A 
BRANCH  68  69
ATOM     69  S   UNL A   1      47.104  37.509  29.194  1.00  0.00     0.124 S 
ATOM     70  O   UNL A   1      46.675  37.701  30.578  1.00  0.00    -0.237 OA
ATOM     71  O   UNL A   1      48.547  37.540  28.974  1.00  0.00    -0.237 OA
ATOM     72  O   UNL A   1      46.307  38.214  28.192  1.00  0.00    -0.744 OA
ENDBRANCH  68  69
ENDBRANCH  49  63
BRANCH  50  73
ATOM     73  C   UNL A   1      43.332  23.592  26.949  1.00  0.00    -0.014 A 
ATOM     74  C   UNL A   1      42.978  23.185  25.651  1.00  0.00     0.010 A 
ATOM     75  C   UNL A   1      43.306  22.649  27.993  1.00  0.00     0.010 A 
ATOM     76  C   UNL A   1      42.589  21.864  25.404  1.00  0.00     0.020 A 
ATOM     77  C   UNL A   1      42.943  21.323  27.745  1.00  0.00     0.020 A 
ATOM     78  C   UNL A   1      42.576  20.941  26.453  1.00  0.00     0.054 A 
BRANCH  78  79
ATOM     79  S   UNL A   1      42.120  19.220  26.100  1.00  0.00     0.124 S 
ATOM     80  O   UNL A   1      40.693  19.335  25.821  1.00  0.00    -0.237 OA
ATOM     81  O   UNL A   1      42.968  18.898  24.954  1.00  0.00    -0.237 OA
ATOM     82  O   UNL A   1      42.464  18.517  27.335  1.00  0.00    -0.744 OA
ENDBRANCH  78  79
ENDBRANCH  50  73
BRANCH  62  83
ATOM     83  C   UNL A   1      49.262  27.127  25.954  1.00  0.00    -0.014 A 
ATOM     84  C   UNL A   1      50.170  26.401  26.744  1.00  0.00     0.010 A 
ATOM     85  C   UNL A   1      49.604  27.436  24.625  1.00  0.00     0.010 A 
ATOM     86  C   UNL A   1      51.409  26.016  26.223  1.00  0.00     0.020 A 
ATOM     87  C   UNL A   1      50.830  27.031  24.092  1.00  0.00     0.020 A 
ATOM     88  C   UNL A   1      51.731  26.334  24.900  1.00  0.00     0.054 A 
BRANCH  88  89
ATOM     89  S   UNL A   1      53.325  25.783  24.232  1.00  0.00     0.124 S 
ATOM     90  O   UNL A   1      54.252  26.736  24.835  1.00  0.00    -0.237 OA
ATOM     91  O   UNL A   1      53.423  24.411  24.726  1.00  0.00    -0.237 OA
ATOM     92  O   UNL A   1      53.156  25.906  22.786  1.00  0.00    -0.744 OA
ENDBRANCH  88  89
ENDBRANCH  62  83
ENDBRANCH  36  37
ENDBRANCH  28  31
ENDBRANCH  26  27
ENDBRANCH   1  26
TORSDOF 16
ENDMDL
MODEL 3
REMARK VINA RESULT:     -11.4      6.195     12.004
REMARK SMILES O=C(CCC1CC[NH+]([C@H]2CCO[C@@]3(CCSC3)C2)CC1)NCCCNC(=O)c1ccc(-c2c3nc(c(-c4ccc(S(=O)(=O)[O-])cc4)c4ccc([nH]4)c(-c4ccc(S(=O)(=O)[O-])cc4)c4nc(c(-c5ccc(S(=O)(=O)[O-])cc5)c5ccc2[nH]5)C=C4)C=C3)cc1
REMARK SMILES IDX 23 1 22 2 21 3 1 4 2 5 3 7 4 8 5 9 6 10 20 11 7 12 19 13
REMARK SMILES IDX 8 14 9 16 10 17 18 18 11 19 13 20 12 21 14 22 17 23 15 24
REMARK SMILES IDX 16 25 24 26 25 27 26 28 27 30 28 31 29 32 87 33 30 34 86 35
REMARK SMILES IDX 31 36 32 37 33 38 80 39 34 40 85 41 79 42 81 43 35 44 84 45
REMARK SMILES IDX 78 46 77 47 36 49 66 50 47 51 65 52 48 53 51 54 64 55 82 56
REMARK SMILES IDX 49 57 50 58 63 60 83 61 52 62 37 63 38 64 46 65 39 66 45 67
REMARK SMILES IDX 40 68 41 69 42 70 43 71 44 72 67 73 68 74 76 75 69 76 75 77
REMARK SMILES IDX 70 78 71 79 72 80 73 81 74 82 53 83 54 84 62 85 55 86 61 87
REMARK SMILES IDX 56 88 57 89 58 90 59 91 60 92
REMARK H PARENT 21 6 8 15 25 29 81 48 51 59
REMARK Flexibility Score: inf
ROOT
ATOM      1  C   UNL A   1      34.986  33.478  29.707  1.00  0.00     0.042 C 
ENDROOT
BRANCH   1   2
ATOM      2  C   UNL A   1      34.824  33.304  28.199  1.00  0.00     0.117 C 
BRANCH   2   3
ATOM      3  N   UNL A   1      33.863  32.284  27.817  1.00  0.00    -0.356 N 
ATOM      4  O   UNL A   1      32.135  33.770  27.582  1.00  0.00    -0.275 OA
ATOM      5  C   UNL A   1      32.586  32.637  27.434  1.00  0.00     0.220 C 
ATOM      6  H   UNL A   1      34.126  31.335  27.830  1.00  0.00     0.163 HD
BRANCH   5   7
ATOM      7  C   UNL A   1      31.796  31.547  26.724  1.00  0.00     0.100 C 
BRANCH   7   8
ATOM      8  C   UNL A   1      32.274  30.152  27.173  1.00  0.00     0.014 C 
BRANCH   8   9
ATOM      9  C   UNL A   1      31.767  28.968  26.312  1.00  0.00     0.000 C 
ATOM     10  C   UNL A   1      32.446  27.635  26.625  1.00  0.00     0.065 C 
ATOM     11  C   UNL A   1      31.872  29.273  24.800  1.00  0.00     0.065 C 
ATOM     12  C   UNL A   1      33.843  27.559  26.025  1.00  0.00     0.262 C 
ATOM     13  C   UNL A   1      33.240  28.953  24.165  1.00  0.00     0.262 C 
ATOM     14  N   UNL A   1      33.848  27.686  24.567  1.00  0.00    -0.332 N 
ATOM     15  H   UNL A   1      34.802  27.772  24.220  1.00  0.00     0.348 HD
BRANCH  14  16
ATOM     16  C   UNL A   1      33.455  26.446  23.870  1.00  0.00     0.189 C 
ATOM     17  C   UNL A   1      33.328  26.488  22.343  1.00  0.00     0.093 C 
ATOM     18  C   UNL A   1      34.402  25.276  24.230  1.00  0.00     0.101 C 
ATOM     19  C   UNL A   1      32.750  25.167  21.875  1.00  0.00     0.167 C 
ATOM     20  C   UNL A   1      33.946  23.943  23.573  1.00  0.00     0.084 C 
ATOM     21  O   UNL A   1      33.665  24.126  22.173  1.00  0.00    -0.374 OA
ATOM     22  C   UNL A   1      35.067  22.892  23.582  1.00  0.00     0.047 C 
ATOM     23  C   UNL A   1      32.753  23.291  24.307  1.00  0.00     0.105 C 
ATOM     24  C   UNL A   1      35.148  22.269  24.955  1.00  0.00     0.072 C 
ATOM     25  S   UNL A   1      33.427  22.019  25.428  1.00  0.00    -0.159 SA
ENDBRANCH  14  16
ENDBRANCH   8   9
ENDBRANCH   7   8
ENDBRANCH   5   7
ENDBRANCH   2   3
ENDBRANCH   1   2
BRANCH   1  26
ATOM     26  C   UNL A   1      36.207  32.809  30.336  1.00  0.00     0.118 C 
BRANCH  26  27
ATOM     27  N   UNL A   1      35.931  31.538  30.989  1.00  0.00    -0.352 N 
ATOM     28  C   UNL A   1      36.748  30.449  31.194  1.00  0.00     0.251 C 
ATOM     29  H   UNL A   1      35.016  31.442  31.338  1.00  0.00     0.163 HD
ATOM     30  O   UNL A   1      36.334  29.495  31.849  1.00  0.00    -0.269 OA
BRANCH  28  31
ATOM     31  C   UNL A   1      38.089  30.380  30.570  1.00  0.00     0.039 A 
ATOM     32  C   UNL A   1      39.202  30.325  31.416  1.00  0.00     0.014 A 
ATOM     33  C   UNL A   1      38.263  30.332  29.186  1.00  0.00     0.014 A 
ATOM     34  C   UNL A   1      40.476  30.115  30.879  1.00  0.00     0.010 A 
ATOM     35  C   UNL A   1      39.527  30.062  28.656  1.00  0.00     0.010 A 
ATOM     36  C   UNL A   1      40.642  29.927  29.499  1.00  0.00    -0.014 A 
BRANCH  36  37
ATOM     37  C   UNL A   1      41.961  29.531  28.936  1.00  0.00     0.031 A 
ATOM     38  C   UNL A   1      42.199  28.128  28.447  1.00  0.00     0.074 A 
ATOM     39  C   UNL A   1      42.971  30.426  28.921  1.00  0.00     0.049 A 
ATOM     40  N   UNL A   1      43.298  27.596  27.977  1.00  0.00    -0.248 NA
ATOM     41  C   UNL A   1      41.061  27.199  28.515  1.00  0.00     0.031 C 
ATOM     42  C   UNL A   1      42.883  31.809  29.397  1.00  0.00     0.029 A 
ATOM     43  N   UNL A   1      44.271  30.306  28.495  1.00  0.00    -0.354 N 
ATOM     44  C   UNL A   1      42.990  26.269  27.703  1.00  0.00     0.074 A 
ATOM     45  C   UNL A   1      41.613  26.067  28.101  1.00  0.00     0.031 C 
ATOM     46  C   UNL A   1      44.068  32.414  29.215  1.00  0.00     0.029 A 
ATOM     47  C   UNL A   1      45.012  31.455  28.649  1.00  0.00     0.049 A 
ATOM     48  H   UNL A   1      44.639  29.475  28.115  1.00  0.00     0.167 HD
ATOM     49  C   UNL A   1      43.777  25.309  27.158  1.00  0.00     0.031 A 
ATOM     50  C   UNL A   1      46.306  31.712  28.374  1.00  0.00     0.031 A 
ATOM     51  C   UNL A   1      45.145  25.511  26.758  1.00  0.00     0.049 A 
ATOM     52  C   UNL A   1      47.162  30.627  27.781  1.00  0.00     0.074 A 
ATOM     53  C   UNL A   1      46.005  24.611  26.152  1.00  0.00     0.029 A 
ATOM     54  N   UNL A   1      45.855  26.691  26.925  1.00  0.00    -0.354 N 
ATOM     55  N   UNL A   1      46.833  29.393  27.477  1.00  0.00    -0.248 NA
ATOM     56  C   UNL A   1      48.560  30.970  27.485  1.00  0.00     0.031 C 
ATOM     57  C   UNL A   1      47.250  25.232  25.997  1.00  0.00     0.029 A 
ATOM     58  C   UNL A   1      47.148  26.536  26.455  1.00  0.00     0.049 A 
ATOM     59  H   UNL A   1      45.492  27.516  27.319  1.00  0.00     0.167 HD
ATOM     60  C   UNL A   1      47.978  28.822  26.930  1.00  0.00     0.074 A 
ATOM     61  C   UNL A   1      49.000  29.848  26.933  1.00  0.00     0.031 C 
ATOM     62  C   UNL A   1      48.160  27.562  26.464  1.00  0.00     0.031 A 
BRANCH  49  63
ATOM     63  C   UNL A   1      43.174  23.942  26.971  1.00  0.00    -0.014 A 
ATOM     64  C   UNL A   1      42.591  23.566  25.748  1.00  0.00     0.010 A 
ATOM     65  C   UNL A   1      43.225  23.005  28.021  1.00  0.00     0.010 A 
ATOM     66  C   UNL A   1      42.027  22.296  25.593  1.00  0.00     0.020 A 
ATOM     67  C   UNL A   1      42.688  21.725  27.860  1.00  0.00     0.020 A 
ATOM     68  C   UNL A   1      42.076  21.385  26.652  1.00  0.00     0.054 A 
BRANCH  68  69
ATOM     69  S   UNL A   1      41.347  19.740  26.420  1.00  0.00     0.124 S 
ATOM     70  O   UNL A   1      42.215  19.171  25.392  1.00  0.00    -0.237 OA
ATOM     71  O   UNL A   1      41.472  19.143  27.747  1.00  0.00    -0.237 OA
ATOM     72  O   UNL A   1      39.979  20.024  25.994  1.00  0.00    -0.744 OA
ENDBRANCH  68  69
ENDBRANCH  49  63
BRANCH  50  73
ATOM     73  C   UNL A   1      46.870  33.062  28.648  1.00  0.00    -0.014 A 
ATOM     74  C   UNL A   1      47.469  33.348  29.887  1.00  0.00     0.010 A 
ATOM     75  C   UNL A   1      46.824  34.066  27.663  1.00  0.00     0.010 A 
ATOM     76  C   UNL A   1      47.996  34.618  30.144  1.00  0.00     0.020 A 
ATOM     77  C   UNL A   1      47.373  35.327  27.906  1.00  0.00     0.020 A 
ATOM     78  C   UNL A   1      47.946  35.599  29.150  1.00  0.00     0.054 A 
BRANCH  78  79
ATOM     79  S   UNL A   1      48.685  37.223  29.484  1.00  0.00     0.124 S 
ATOM     80  O   UNL A   1      50.050  36.864  29.857  1.00  0.00    -0.237 OA
ATOM     81  O   UNL A   1      48.535  37.908  28.203  1.00  0.00    -0.237 OA
ATOM     82  O   UNL A   1      47.859  37.756  30.567  1.00  0.00    -0.744 OA
ENDBRANCH  78  79
ENDBRANCH  50  73
BRANCH  62  83
ATOM     83  C   UNL A   1      49.510  27.225  25.890  1.00  0.00    -0.014 A 
ATOM     84  C   UNL A   1      50.525  26.668  26.687  1.00  0.00     0.010 A 
ATOM     85  C   UNL A   1      49.746  27.420  24.516  1.00  0.00     0.010 A 
ATOM     86  C   UNL A   1      51.763  26.339  26.127  1.00  0.00     0.020 A 
ATOM     87  C   UNL A   1      50.973  27.068  23.947  1.00  0.00     0.020 A 
ATOM     88  C   UNL A   1      51.978  26.541  24.760  1.00  0.00     0.054 A 
BRANCH  88  89
ATOM     89  S   UNL A   1      53.577  26.063  24.048  1.00  0.00     0.124 S 
ATOM     90  O   UNL A   1      53.282  26.056  22.618  1.00  0.00    -0.237 OA
ATOM     91  O   UNL A   1      54.463  27.131  24.502  1.00  0.00    -0.237 OA
ATOM     92  O   UNL A   1      53.840  24.751  24.636  1.00  0.00    -0.744 OA
ENDBRANCH  88  89
ENDBRANCH  62  83
ENDBRANCH  36  37
ENDBRANCH  28  31
ENDBRANCH  26  27
ENDBRANCH   1  26
TORSDOF 16
ENDMDL
