MODEL 1
REMARK VINA RESULT:     -10.0      0.000      0.000
REMARK SMILES CC(C)c1cc(=O)[nH]c(SCC(=O)NCCCNC(=O)c2ccc(-c3c4nc(c(-c5ccc(S(=O)(=O)[O-])cc5)c5ccc([nH]5)c(-c5ccc(S(=O)(=O)[O-])cc5)c5nc(c(-c6ccc(S(=O)(=O)[O-])cc6)c6ccc3[nH]6)C=C5)C=C4)cc2)n1
REMARK SMILES IDX 16 1 15 2 14 3 12 4 13 5 11 7 10 8 9 9 4 10 5 11 81 12 6 13
REMARK SMILES IDX 7 14 8 15 2 17 1 18 3 19 17 20 18 21 19 22 20 24 21 25 22 26
REMARK SMILES IDX 80 27 23 28 79 29 24 30 25 31 26 32 73 33 27 34 78 35 72 36
REMARK SMILES IDX 74 37 28 38 77 39 71 40 70 41 29 43 59 44 40 45 58 46 41 47
REMARK SMILES IDX 44 48 57 49 75 50 42 51 43 52 56 54 76 55 45 56 30 57 31 58
REMARK SMILES IDX 39 59 32 60 38 61 33 62 34 63 35 64 36 65 37 66 60 67 61 68
REMARK SMILES IDX 69 69 62 70 68 71 63 72 64 73 65 74 66 75 67 76 46 77 47 78
REMARK SMILES IDX 55 79 48 80 54 81 49 82 50 83 51 84 52 85 53 86
REMARK H PARENT 14 6 8 16 18 23 74 42 44 53
REMARK Flexibility Score: inf
ROOT
ATOM      1  C   UNL A   1      34.757  34.236  29.129  1.00  0.00     0.042 C 
ENDROOT
BRANCH   1   2
ATOM      2  C   UNL A   1      33.326  34.727  28.928  1.00  0.00     0.117 C 
BRANCH   2   3
ATOM      3  N   UNL A   1      33.143  36.085  29.411  1.00  0.00    -0.355 N 
ATOM      4  C   UNL A   1      33.028  36.562  30.684  1.00  0.00     0.230 C 
ATOM      5  O   UNL A   1      32.959  37.787  30.820  1.00  0.00    -0.274 OA
ATOM      6  H   UNL A   1      33.095  36.771  28.707  1.00  0.00     0.163 HD
BRANCH   4   7
ATOM      7  C   UNL A   1      33.124  35.638  31.884  1.00  0.00     0.178 C 
BRANCH   7   8
ATOM      8  S   UNL A   1      34.345  36.123  33.126  1.00  0.00    -0.078 SA
BRANCH   8   9
ATOM      9  C   UNL A   1      35.491  34.828  33.042  1.00  0.00     0.168 A 
ATOM     10  C   UNL A   1      37.535  33.838  33.210  1.00  0.00     0.051 A 
ATOM     11  C   UNL A   1      37.057  32.641  32.833  1.00  0.00     0.095 A 
ATOM     12  N   UNL A   1      36.744  34.965  33.303  1.00  0.00    -0.229 NA
ATOM     13  C   UNL A   1      35.629  32.525  32.507  1.00  0.00     0.251 A 
ATOM     14  O   UNL A   1      35.146  31.467  32.121  1.00  0.00    -0.269 OA
ATOM     15  N   UNL A   1      34.909  33.665  32.656  1.00  0.00    -0.301 N 
ATOM     16  H   UNL A   1      33.940  33.648  32.480  1.00  0.00     0.172 HD
BRANCH  10  17
ATOM     17  C   UNL A   1      39.002  34.054  33.560  1.00  0.00     0.032 C 
ATOM     18  C   UNL A   1      39.610  32.789  34.170  1.00  0.00     0.014 C 
ATOM     19  C   UNL A   1      39.843  34.538  32.372  1.00  0.00     0.014 C 
ENDBRANCH  10  17
ENDBRANCH   8   9
ENDBRANCH   7   8
ENDBRANCH   4   7
ENDBRANCH   2   3
ENDBRANCH   1   2
BRANCH   1  20
ATOM     20  C   UNL A   1      35.217  33.197  28.107  1.00  0.00     0.118 C 
BRANCH  20  21
ATOM     21  N   UNL A   1      34.271  32.101  27.948  1.00  0.00    -0.352 N 
ATOM     22  C   UNL A   1      34.479  30.743  27.919  1.00  0.00     0.251 C 
ATOM     23  H   UNL A   1      33.332  32.378  27.843  1.00  0.00     0.163 HD
ATOM     24  O   UNL A   1      33.550  30.003  27.600  1.00  0.00    -0.269 OA
BRANCH  22  25
ATOM     25  C   UNL A   1      35.804  30.166  28.240  1.00  0.00     0.039 A 
ATOM     26  C   UNL A   1      36.781  30.137  27.241  1.00  0.00     0.014 A 
ATOM     27  C   UNL A   1      36.086  29.638  29.504  1.00  0.00     0.014 A 
ATOM     28  C   UNL A   1      38.061  29.660  27.532  1.00  0.00     0.010 A 
ATOM     29  C   UNL A   1      37.383  29.230  29.813  1.00  0.00     0.010 A 
ATOM     30  C   UNL A   1      38.389  29.250  28.836  1.00  0.00    -0.014 A 
BRANCH  30  31
ATOM     31  C   UNL A   1      39.789  28.900  29.200  1.00  0.00     0.031 A 
ATOM     32  C   UNL A   1      40.690  29.906  29.861  1.00  0.00     0.074 A 
ATOM     33  C   UNL A   1      40.269  27.684  28.868  1.00  0.00     0.049 A 
ATOM     34  N   UNL A   1      41.949  29.785  30.202  1.00  0.00    -0.248 NA
ATOM     35  C   UNL A   1      40.111  31.224  30.167  1.00  0.00     0.031 C 
ATOM     36  C   UNL A   1      39.508  26.630  28.190  1.00  0.00     0.029 A 
ATOM     37  N   UNL A   1      41.511  27.127  29.049  1.00  0.00    -0.354 N 
ATOM     38  C   UNL A   1      42.316  31.008  30.750  1.00  0.00     0.074 A 
ATOM     39  C   UNL A   1      41.159  31.873  30.656  1.00  0.00     0.031 C 
ATOM     40  C   UNL A   1      40.290  25.550  28.036  1.00  0.00     0.029 A 
ATOM     41  C   UNL A   1      41.620  25.847  28.557  1.00  0.00     0.049 A 
ATOM     42  H   UNL A   1      42.253  27.600  29.490  1.00  0.00     0.167 HD
ATOM     43  C   UNL A   1      43.503  31.374  31.294  1.00  0.00     0.031 A 
ATOM     44  C   UNL A   1      42.673  25.007  28.514  1.00  0.00     0.031 A 
ATOM     45  C   UNL A   1      44.653  30.511  31.380  1.00  0.00     0.049 A 
ATOM     46  C   UNL A   1      43.989  25.450  29.092  1.00  0.00     0.074 A 
ATOM     47  C   UNL A   1      45.883  30.774  31.960  1.00  0.00     0.029 A 
ATOM     48  N   UNL A   1      44.726  29.226  30.863  1.00  0.00    -0.354 N 
ATOM     49  N   UNL A   1      44.292  26.586  29.673  1.00  0.00    -0.248 NA
ATOM     50  C   UNL A   1      45.101  24.492  29.018  1.00  0.00     0.031 C 
ATOM     51  C   UNL A   1      46.718  29.675  31.736  1.00  0.00     0.029 A 
ATOM     52  C   UNL A   1      45.988  28.698  31.079  1.00  0.00     0.049 A 
ATOM     53  H   UNL A   1      43.988  28.758  30.409  1.00  0.00     0.167 HD
ATOM     54  C   UNL A   1      45.624  26.472  30.053  1.00  0.00     0.074 A 
ATOM     55  C   UNL A   1      46.060  25.148  29.658  1.00  0.00     0.031 C 
ATOM     56  C   UNL A   1      46.415  27.382  30.673  1.00  0.00     0.031 A 
BRANCH  43  57
ATOM     57  C   UNL A   1      43.625  32.777  31.831  1.00  0.00    -0.014 A 
ATOM     58  C   UNL A   1      44.071  33.834  31.016  1.00  0.00     0.010 A 
ATOM     59  C   UNL A   1      43.230  33.057  33.154  1.00  0.00     0.010 A 
ATOM     60  C   UNL A   1      44.157  35.133  31.524  1.00  0.00     0.020 A 
ATOM     61  C   UNL A   1      43.285  34.360  33.655  1.00  0.00     0.020 A 
ATOM     62  C   UNL A   1      43.764  35.388  32.841  1.00  0.00     0.054 A 
BRANCH  62  63
ATOM     63  S   UNL A   1      43.861  37.090  33.462  1.00  0.00     0.124 S 
ATOM     64  O   UNL A   1      42.684  37.163  34.324  1.00  0.00    -0.237 OA
ATOM     65  O   UNL A   1      45.147  37.105  34.153  1.00  0.00    -0.237 OA
ATOM     66  O   UNL A   1      43.796  37.906  32.252  1.00  0.00    -0.744 OA
ENDBRANCH  62  63
ENDBRANCH  43  57
BRANCH  44  67
ATOM     67  C   UNL A   1      42.525  23.660  27.896  1.00  0.00    -0.014 A 
ATOM     68  C   UNL A   1      42.848  23.452  26.544  1.00  0.00     0.010 A 
ATOM     69  C   UNL A   1      42.066  22.572  28.663  1.00  0.00     0.010 A 
ATOM     70  C   UNL A   1      42.699  22.188  25.966  1.00  0.00     0.020 A 
ATOM     71  C   UNL A   1      41.946  21.301  28.097  1.00  0.00     0.020 A 
ATOM     72  C   UNL A   1      42.253  21.119  26.747  1.00  0.00     0.054 A 
BRANCH  72  73
ATOM     73  S   UNL A   1      42.116  19.476  25.988  1.00  0.00     0.124 S 
ATOM     74  O   UNL A   1      42.647  18.612  27.036  1.00  0.00    -0.237 OA
ATOM     75  O   UNL A   1      40.680  19.364  25.741  1.00  0.00    -0.237 OA
ATOM     76  O   UNL A   1      42.940  19.585  24.786  1.00  0.00    -0.744 OA
ENDBRANCH  72  73
ENDBRANCH  44  67
BRANCH  56  77
ATOM     77  C   UNL A   1      47.831  26.970  30.988  1.00  0.00    -0.014 A 
ATOM     78  C   UNL A   1      48.918  27.458  30.240  1.00  0.00     0.010 A 
ATOM     79  C   UNL A   1      48.081  26.118  32.080  1.00  0.00     0.010 A 
ATOM     80  C   UNL A   1      50.223  27.075  30.556  1.00  0.00     0.020 A 
ATOM     81  C   UNL A   1      49.388  25.759  32.419  1.00  0.00     0.020 A 
ATOM     82  C   UNL A   1      50.450  26.227  31.646  1.00  0.00     0.054 A 
BRANCH  82  83
ATOM     83  S   UNL A   1      52.158  25.779  32.059  1.00  0.00     0.124 S 
ATOM     84  O   UNL A   1      52.803  25.791  30.749  1.00  0.00    -0.237 OA
ATOM     85  O   UNL A   1      52.560  26.851  32.967  1.00  0.00    -0.237 OA
ATOM     86  O   UNL A   1      52.031  24.461  32.678  1.00  0.00    -0.744 OA
ENDBRANCH  82  83
ENDBRANCH  56  77
ENDBRANCH  30  31
ENDBRANCH  22  25
ENDBRANCH  20  21
ENDBRANCH   1  20
TORSDOF 16
ENDMDL
MODEL 2
REMARK VINA RESULT:      -9.6      3.677      6.477
REMARK SMILES CC(C)c1cc(=O)[nH]c(SCC(=O)NCCCNC(=O)c2ccc(-c3c4nc(c(-c5ccc(S(=O)(=O)[O-])cc5)c5ccc([nH]5)c(-c5ccc(S(=O)(=O)[O-])cc5)c5nc(c(-c6ccc(S(=O)(=O)[O-])cc6)c6ccc3[nH]6)C=C5)C=C4)cc2)n1
REMARK SMILES IDX 16 1 15 2 14 3 12 4 13 5 11 7 10 8 9 9 4 10 5 11 81 12 6 13
REMARK SMILES IDX 7 14 8 15 2 17 1 18 3 19 17 20 18 21 19 22 20 24 21 25 22 26
REMARK SMILES IDX 80 27 23 28 79 29 24 30 25 31 26 32 73 33 27 34 78 35 72 36
REMARK SMILES IDX 74 37 28 38 77 39 71 40 70 41 29 43 59 44 40 45 58 46 41 47
REMARK SMILES IDX 44 48 57 49 75 50 42 51 43 52 56 54 76 55 45 56 30 57 31 58
REMARK SMILES IDX 39 59 32 60 38 61 33 62 34 63 35 64 36 65 37 66 60 67 61 68
REMARK SMILES IDX 69 69 62 70 68 71 63 72 64 73 65 74 66 75 67 76 46 77 47 78
REMARK SMILES IDX 55 79 48 80 54 81 49 82 50 83 51 84 52 85 53 86
REMARK H PARENT 14 6 8 16 18 23 74 42 44 53
REMARK Flexibility Score: inf
ROOT
ATOM      1  C   UNL A   1      33.163  28.217  25.779  1.00  0.00     0.042 C 
ENDROOT
BRANCH   1   2
ATOM      2  C   UNL A   1      31.759  27.800  25.348  1.00  0.00     0.117 C 
BRANCH   2   3
ATOM      3  N   UNL A   1      31.227  26.737  26.182  1.00  0.00    -0.355 N 
ATOM      4  C   UNL A   1      31.190  25.389  25.980  1.00  0.00     0.230 C 
ATOM      5  O   UNL A   1      30.745  24.696  26.899  1.00  0.00    -0.274 OA
ATOM      6  H   UNL A   1      30.829  27.039  27.031  1.00  0.00     0.163 HD
BRANCH   4   7
ATOM      7  C   UNL A   1      31.801  24.760  24.740  1.00  0.00     0.178 C 
BRANCH   7   8
ATOM      8  S   UNL A   1      31.083  23.172  24.257  1.00  0.00    -0.078 SA
BRANCH   8   9
ATOM      9  C   UNL A   1      32.393  22.076  24.535  1.00  0.00     0.168 A 
ATOM     10  C   UNL A   1      34.569  21.416  24.665  1.00  0.00     0.051 A 
ATOM     11  C   UNL A   1      34.236  20.170  25.039  1.00  0.00     0.095 A 
ATOM     12  N   UNL A   1      33.633  22.392  24.389  1.00  0.00    -0.229 NA
ATOM     13  C   UNL A   1      32.812  19.830  25.163  1.00  0.00     0.251 A 
ATOM     14  O   UNL A   1      32.448  18.700  25.464  1.00  0.00    -0.269 OA
ATOM     15  N   UNL A   1      31.952  20.849  24.911  1.00  0.00    -0.301 N 
ATOM     16  H   UNL A   1      30.983  20.694  25.003  1.00  0.00     0.172 HD
BRANCH  10  17
ATOM     17  C   UNL A   1      36.018  21.857  24.504  1.00  0.00     0.032 C 
ATOM     18  C   UNL A   1      36.288  23.142  25.290  1.00  0.00     0.014 C 
ATOM     19  C   UNL A   1      37.028  20.768  24.889  1.00  0.00     0.014 C 
ENDBRANCH  10  17
ENDBRANCH   8   9
ENDBRANCH   7   8
ENDBRANCH   4   7
ENDBRANCH   2   3
ENDBRANCH   1   2
BRANCH   1  20
ATOM     20  C   UNL A   1      33.286  28.584  27.258  1.00  0.00     0.118 C 
BRANCH  20  21
ATOM     21  N   UNL A   1      33.345  30.021  27.484  1.00  0.00    -0.352 N 
ATOM     22  C   UNL A   1      34.342  30.798  28.023  1.00  0.00     0.251 C 
ATOM     23  H   UNL A   1      32.540  30.516  27.206  1.00  0.00     0.163 HD
ATOM     24  O   UNL A   1      34.108  31.978  28.278  1.00  0.00    -0.269 OA
BRANCH  22  25
ATOM     25  C   UNL A   1      35.676  30.229  28.322  1.00  0.00     0.039 A 
ATOM     26  C   UNL A   1      36.636  30.207  27.306  1.00  0.00     0.014 A 
ATOM     27  C   UNL A   1      35.981  29.702  29.580  1.00  0.00     0.014 A 
ATOM     28  C   UNL A   1      37.925  29.738  27.577  1.00  0.00     0.010 A 
ATOM     29  C   UNL A   1      37.286  29.301  29.867  1.00  0.00     0.010 A 
ATOM     30  C   UNL A   1      38.276  29.328  28.874  1.00  0.00    -0.014 A 
BRANCH  30  31
ATOM     31  C   UNL A   1      39.683  28.986  29.215  1.00  0.00     0.031 A 
ATOM     32  C   UNL A   1      40.593  30.001  29.851  1.00  0.00     0.074 A 
ATOM     33  C   UNL A   1      40.162  27.769  28.885  1.00  0.00     0.049 A 
ATOM     34  N   UNL A   1      41.858  29.887  30.170  1.00  0.00    -0.248 NA
ATOM     35  C   UNL A   1      40.015  31.319  30.156  1.00  0.00     0.031 C 
ATOM     36  C   UNL A   1      39.392  26.707  28.230  1.00  0.00     0.029 A 
ATOM     37  N   UNL A   1      41.409  27.218  29.047  1.00  0.00    -0.354 N 
ATOM     38  C   UNL A   1      42.231  31.116  30.700  1.00  0.00     0.074 A 
ATOM     39  C   UNL A   1      41.070  31.977  30.620  1.00  0.00     0.031 C 
ATOM     40  C   UNL A   1      40.175  25.628  28.071  1.00  0.00     0.029 A 
ATOM     41  C   UNL A   1      41.513  25.934  28.565  1.00  0.00     0.049 A 
ATOM     42  H   UNL A   1      42.157  27.697  29.471  1.00  0.00     0.167 HD
ATOM     43  C   UNL A   1      43.427  31.490  31.219  1.00  0.00     0.031 A 
ATOM     44  C   UNL A   1      42.568  25.097  28.509  1.00  0.00     0.031 A 
ATOM     45  C   UNL A   1      44.581  30.632  31.290  1.00  0.00     0.049 A 
ATOM     46  C   UNL A   1      43.893  25.550  29.059  1.00  0.00     0.074 A 
ATOM     47  C   UNL A   1      45.820  30.905  31.846  1.00  0.00     0.029 A 
ATOM     48  N   UNL A   1      44.649  29.343  30.783  1.00  0.00    -0.354 N 
ATOM     49  N   UNL A   1      44.203  26.692  29.624  1.00  0.00    -0.248 NA
ATOM     50  C   UNL A   1      45.007  24.595  28.972  1.00  0.00     0.031 C 
ATOM     51  C   UNL A   1      46.656  29.807  31.616  1.00  0.00     0.029 A 
ATOM     52  C   UNL A   1      45.917  28.821  30.980  1.00  0.00     0.049 A 
ATOM     53  H   UNL A   1      43.904  28.869  30.347  1.00  0.00     0.167 HD
ATOM     54  C   UNL A   1      45.542  26.585  29.980  1.00  0.00     0.074 A 
ATOM     55  C   UNL A   1      45.976  25.260  29.588  1.00  0.00     0.031 C 
ATOM     56  C   UNL A   1      46.341  27.503  30.578  1.00  0.00     0.031 A 
BRANCH  43  57
ATOM     57  C   UNL A   1      43.553  32.899  31.741  1.00  0.00    -0.014 A 
ATOM     58  C   UNL A   1      43.899  33.965  30.890  1.00  0.00     0.010 A 
ATOM     59  C   UNL A   1      43.264  33.172  33.092  1.00  0.00     0.010 A 
ATOM     60  C   UNL A   1      43.990  35.267  31.386  1.00  0.00     0.020 A 
ATOM     61  C   UNL A   1      43.324  34.479  33.585  1.00  0.00     0.020 A 
ATOM     62  C   UNL A   1      43.703  35.517  32.731  1.00  0.00     0.054 A 
BRANCH  62  63
ATOM     63  S   UNL A   1      43.803  37.224  33.339  1.00  0.00     0.124 S 
ATOM     64  O   UNL A   1      45.075  37.213  34.058  1.00  0.00    -0.237 OA
ATOM     65  O   UNL A   1      43.786  38.004  32.104  1.00  0.00    -0.237 OA
ATOM     66  O   UNL A   1      42.616  37.364  34.179  1.00  0.00    -0.744 OA
ENDBRANCH  62  63
ENDBRANCH  43  57
BRANCH  44  67
ATOM     67  C   UNL A   1      42.413  23.745  27.906  1.00  0.00    -0.014 A 
ATOM     68  C   UNL A   1      42.566  23.555  26.521  1.00  0.00     0.010 A 
ATOM     69  C   UNL A   1      42.120  22.632  28.718  1.00  0.00     0.010 A 
ATOM     70  C   UNL A   1      42.411  22.285  25.958  1.00  0.00     0.020 A 
ATOM     71  C   UNL A   1      41.996  21.357  28.162  1.00  0.00     0.020 A 
ATOM     72  C   UNL A   1      42.131  21.193  26.782  1.00  0.00     0.054 A 
BRANCH  72  73
ATOM     73  S   UNL A   1      41.985  19.546  26.035  1.00  0.00     0.124 S 
ATOM     74  O   UNL A   1      40.567  19.490  25.697  1.00  0.00    -0.237 OA
ATOM     75  O   UNL A   1      42.904  19.633  24.902  1.00  0.00    -0.237 OA
ATOM     76  O   UNL A   1      42.412  18.646  27.105  1.00  0.00    -0.744 OA
ENDBRANCH  72  73
ENDBRANCH  44  67
BRANCH  56  77
ATOM     77  C   UNL A   1      47.764  27.099  30.869  1.00  0.00    -0.014 A 
ATOM     78  C   UNL A   1      48.122  26.517  32.099  1.00  0.00     0.010 A 
ATOM     79  C   UNL A   1      48.750  27.262  29.878  1.00  0.00     0.010 A 
ATOM     80  C   UNL A   1      49.444  26.138  32.344  1.00  0.00     0.020 A 
ATOM     81  C   UNL A   1      50.066  26.854  30.107  1.00  0.00     0.020 A 
ATOM     82  C   UNL A   1      50.409  26.308  31.344  1.00  0.00     0.054 A 
BRANCH  82  83
ATOM     83  S   UNL A   1      52.109  25.768  31.673  1.00  0.00     0.124 S 
ATOM     84  O   UNL A   1      51.923  24.357  32.003  1.00  0.00    -0.237 OA
ATOM     85  O   UNL A   1      52.781  26.034  30.404  1.00  0.00    -0.237 OA
ATOM     86  O   UNL A   1      52.532  26.616  32.786  1.00  0.00    -0.744 OA
ENDBRANCH  82  83
ENDBRANCH  56  77
ENDBRANCH  30  31
ENDBRANCH  22  25
ENDBRANCH  20  21
ENDBRANCH   1  20
TORSDOF 16
ENDMDL
MODEL 3
REMARK VINA RESULT:      -9.6      4.115     12.932
REMARK SMILES CC(C)c1cc(=O)[nH]c(SCC(=O)NCCCNC(=O)c2ccc(-c3c4nc(c(-c5ccc(S(=O)(=O)[O-])cc5)c5ccc([nH]5)c(-c5ccc(S(=O)(=O)[O-])cc5)c5nc(c(-c6ccc(S(=O)(=O)[O-])cc6)c6ccc3[nH]6)C=C5)C=C4)cc2)n1
REMARK SMILES IDX 16 1 15 2 14 3 12 4 13 5 11 7 10 8 9 9 4 10 5 11 81 12 6 13
REMARK SMILES IDX 7 14 8 15 2 17 1 18 3 19 17 20 18 21 19 22 20 24 21 25 22 26
REMARK SMILES IDX 80 27 23 28 79 29 24 30 25 31 26 32 73 33 27 34 78 35 72 36
REMARK SMILES IDX 74 37 28 38 77 39 71 40 70 41 29 43 59 44 40 45 58 46 41 47
REMARK SMILES IDX 44 48 57 49 75 50 42 51 43 52 56 54 76 55 45 56 30 57 31 58
REMARK SMILES IDX 39 59 32 60 38 61 33 62 34 63 35 64 36 65 37 66 60 67 61 68
REMARK SMILES IDX 69 69 62 70 68 71 63 72 64 73 65 74 66 75 67 76 46 77 47 78
REMARK SMILES IDX 55 79 48 80 54 81 49 82 50 83 51 84 52 85 53 86
REMARK H PARENT 14 6 8 16 18 23 74 42 44 53
REMARK Flexibility Score: inf
ROOT
ATOM      1  C   UNL A   1      45.022  24.733  27.762  1.00  0.00     0.042 C 
ENDROOT
BRANCH   1   2
ATOM      2  C   UNL A   1      46.310  24.071  27.279  1.00  0.00     0.117 C 
BRANCH   2   3
ATOM      3  N   UNL A   1      46.802  24.669  26.050  1.00  0.00    -0.355 N 
ATOM      4  C   UNL A   1      46.911  24.146  24.795  1.00  0.00     0.230 C 
ATOM      5  O   UNL A   1      47.294  24.907  23.902  1.00  0.00    -0.274 OA
ATOM      6  H   UNL A   1      47.105  25.601  26.137  1.00  0.00     0.163 HD
BRANCH   4   7
ATOM      7  C   UNL A   1      46.446  22.734  24.486  1.00  0.00     0.178 C 
BRANCH   7   8
ATOM      8  S   UNL A   1      44.724  22.597  23.950  1.00  0.00    -0.078 SA
BRANCH   8   9
ATOM      9  C   UNL A   1      44.202  21.155  24.753  1.00  0.00     0.168 A 
ATOM     10  C   UNL A   1      42.821  19.851  26.010  1.00  0.00     0.051 A 
ATOM     11  C   UNL A   1      43.626  18.782  25.901  1.00  0.00     0.095 A 
ATOM     12  N   UNL A   1      43.116  21.073  25.440  1.00  0.00    -0.229 NA
ATOM     13  C   UNL A   1      44.876  18.917  25.141  1.00  0.00     0.251 A 
ATOM     14  O   UNL A   1      45.667  17.987  25.040  1.00  0.00    -0.269 OA
ATOM     15  N   UNL A   1      45.081  20.136  24.580  1.00  0.00    -0.301 N 
ATOM     16  H   UNL A   1      45.887  20.285  24.034  1.00  0.00     0.172 HD
BRANCH  10  17
ATOM     17  C   UNL A   1      41.509  19.806  26.783  1.00  0.00     0.032 C 
ATOM     18  C   UNL A   1      41.302  21.095  27.582  1.00  0.00     0.014 C 
ATOM     19  C   UNL A   1      40.292  19.522  25.894  1.00  0.00     0.014 C 
ENDBRANCH  10  17
ENDBRANCH   8   9
ENDBRANCH   7   8
ENDBRANCH   4   7
ENDBRANCH   2   3
ENDBRANCH   1   2
BRANCH   1  20
ATOM     20  C   UNL A   1      43.758  23.910  27.512  1.00  0.00     0.118 C 
BRANCH  20  21
ATOM     21  N   UNL A   1      43.064  24.293  26.290  1.00  0.00    -0.352 N 
ATOM     22  C   UNL A   1      42.128  25.274  26.067  1.00  0.00     0.251 C 
ATOM     23  H   UNL A   1      43.305  23.763  25.495  1.00  0.00     0.163 HD
ATOM     24  O   UNL A   1      41.545  25.308  24.985  1.00  0.00    -0.269 OA
BRANCH  22  25
ATOM     25  C   UNL A   1      41.797  26.265  27.115  1.00  0.00     0.039 A 
ATOM     26  C   UNL A   1      40.816  25.941  28.057  1.00  0.00     0.014 A 
ATOM     27  C   UNL A   1      42.426  27.512  27.168  1.00  0.00     0.014 A 
ATOM     28  C   UNL A   1      40.529  26.828  29.097  1.00  0.00     0.010 A 
ATOM     29  C   UNL A   1      42.190  28.365  28.247  1.00  0.00     0.010 A 
ATOM     30  C   UNL A   1      41.250  28.027  29.231  1.00  0.00    -0.014 A 
BRANCH  30  31
ATOM     31  C   UNL A   1      41.073  28.898  30.424  1.00  0.00     0.031 A 
ATOM     32  C   UNL A   1      41.923  28.711  31.651  1.00  0.00     0.074 A 
ATOM     33  C   UNL A   1      40.090  29.822  30.422  1.00  0.00     0.049 A 
ATOM     34  N   UNL A   1      41.870  29.350  32.793  1.00  0.00    -0.248 NA
ATOM     35  C   UNL A   1      42.955  27.665  31.597  1.00  0.00     0.031 C 
ATOM     36  C   UNL A   1      39.172  30.077  29.308  1.00  0.00     0.029 A 
ATOM     37  N   UNL A   1      39.693  30.715  31.386  1.00  0.00    -0.354 N 
ATOM     38  C   UNL A   1      42.850  28.777  33.596  1.00  0.00     0.074 A 
ATOM     39  C   UNL A   1      43.453  27.710  32.826  1.00  0.00     0.031 C 
ATOM     40  C   UNL A   1      38.339  31.075  29.643  1.00  0.00     0.029 A 
ATOM     41  C   UNL A   1      38.627  31.498  31.009  1.00  0.00     0.049 A 
ATOM     42  H   UNL A   1      40.131  30.788  32.265  1.00  0.00     0.167 HD
ATOM     43  C   UNL A   1      43.222  29.117  34.855  1.00  0.00     0.031 A 
ATOM     44  C   UNL A   1      37.943  32.442  31.687  1.00  0.00     0.031 A 
ATOM     45  C   UNL A   1      42.615  30.176  35.620  1.00  0.00     0.049 A 
ATOM     46  C   UNL A   1      38.355  32.775  33.094  1.00  0.00     0.074 A 
ATOM     47  C   UNL A   1      42.959  30.629  36.883  1.00  0.00     0.029 A 
ATOM     48  N   UNL A   1      41.533  30.939  35.206  1.00  0.00    -0.354 N 
ATOM     49  N   UNL A   1      39.333  32.272  33.808  1.00  0.00    -0.248 NA
ATOM     50  C   UNL A   1      37.574  33.812  33.784  1.00  0.00     0.031 C 
ATOM     51  C   UNL A   1      42.045  31.619  37.258  1.00  0.00     0.029 A 
ATOM     52  C   UNL A   1      41.175  31.834  36.201  1.00  0.00     0.049 A 
ATOM     53  H   UNL A   1      41.086  30.856  34.333  1.00  0.00     0.167 HD
ATOM     54  C   UNL A   1      39.301  32.946  35.023  1.00  0.00     0.074 A 
ATOM     55  C   UNL A   1      38.221  33.909  34.938  1.00  0.00     0.031 C 
ATOM     56  C   UNL A   1      40.093  32.782  36.111  1.00  0.00     0.031 A 
BRANCH  43  57
ATOM     57  C   UNL A   1      44.336  28.326  35.494  1.00  0.00    -0.014 A 
ATOM     58  C   UNL A   1      45.679  28.727  35.370  1.00  0.00     0.010 A 
ATOM     59  C   UNL A   1      44.031  27.199  36.280  1.00  0.00     0.010 A 
ATOM     60  C   UNL A   1      46.696  27.995  35.988  1.00  0.00     0.020 A 
ATOM     61  C   UNL A   1      45.043  26.482  36.924  1.00  0.00     0.020 A 
ATOM     62  C   UNL A   1      46.372  26.876  36.760  1.00  0.00     0.054 A 
BRANCH  62  63
ATOM     63  S   UNL A   1      47.714  25.963  37.572  1.00  0.00     0.124 S 
ATOM     64  O   UNL A   1      47.441  26.220  38.984  1.00  0.00    -0.237 OA
ATOM     65  O   UNL A   1      47.481  24.591  37.127  1.00  0.00    -0.237 OA
ATOM     66  O   UNL A   1      48.926  26.587  37.049  1.00  0.00    -0.744 OA
ENDBRANCH  62  63
ENDBRANCH  43  57
BRANCH  44  67
ATOM     67  C   UNL A   1      36.796  33.137  31.041  1.00  0.00    -0.014 A 
ATOM     68  C   UNL A   1      37.001  33.991  29.944  1.00  0.00     0.010 A 
ATOM     69  C   UNL A   1      35.485  32.939  31.515  1.00  0.00     0.010 A 
ATOM     70  C   UNL A   1      35.922  34.649  29.345  1.00  0.00     0.020 A 
ATOM     71  C   UNL A   1      34.401  33.569  30.900  1.00  0.00     0.020 A 
ATOM     72  C   UNL A   1      34.628  34.430  29.824  1.00  0.00     0.054 A 
BRANCH  72  73
ATOM     73  S   UNL A   1      33.238  35.254  28.999  1.00  0.00     0.124 S 
ATOM     74  O   UNL A   1      32.456  35.739  30.131  1.00  0.00    -0.237 OA
ATOM     75  O   UNL A   1      33.909  36.282  28.206  1.00  0.00    -0.237 OA
ATOM     76  O   UNL A   1      32.619  34.183  28.221  1.00  0.00    -0.744 OA
ENDBRANCH  72  73
ENDBRANCH  44  67
BRANCH  56  77
ATOM     77  C   UNL A   1      39.840  33.681  37.295  1.00  0.00    -0.014 A 
ATOM     78  C   UNL A   1      40.464  34.937  37.406  1.00  0.00     0.010 A 
ATOM     79  C   UNL A   1      38.926  33.281  38.288  1.00  0.00     0.010 A 
ATOM     80  C   UNL A   1      40.205  35.760  38.505  1.00  0.00     0.020 A 
ATOM     81  C   UNL A   1      38.640  34.116  39.371  1.00  0.00     0.020 A 
ATOM     82  C   UNL A   1      39.293  35.344  39.481  1.00  0.00     0.054 A 
BRANCH  82  83
ATOM     83  S   UNL A   1      38.945  36.451  40.875  1.00  0.00     0.124 S 
ATOM     84  O   UNL A   1      40.242  36.517  41.543  1.00  0.00    -0.237 OA
ATOM     85  O   UNL A   1      38.517  37.679  40.210  1.00  0.00    -0.237 OA
ATOM     86  O   UNL A   1      37.898  35.753  41.618  1.00  0.00    -0.744 OA
ENDBRANCH  82  83
ENDBRANCH  56  77
ENDBRANCH  30  31
ENDBRANCH  22  25
ENDBRANCH  20  21
ENDBRANCH   1  20
TORSDOF 16
ENDMDL
