MODEL 1
REMARK VINA RESULT:      -9.8      0.000      0.000
REMARK SMILES CC[C@@H](Oc1ccccc1)C(=O)NCCCNC(=O)c1ccc(-c2c3nc(c(-c4ccc(S(=O)(=O)[O-])cc4)c4ccc([nH]4)c(-c4ccc(S(=O)(=O)[O-])cc4)c4nc(c(-c5ccc(S(=O)(=O)[O-])cc5)c5ccc2[nH]5)C=C4)C=C3)cc1
REMARK SMILES IDX 15 1 14 2 13 3 11 4 12 5 3 7 2 8 1 9 4 10 5 11 6 12 10 13
REMARK SMILES IDX 7 14 9 15 8 16 16 17 17 18 18 19 19 21 20 22 21 23 79 24
REMARK SMILES IDX 22 25 78 26 23 27 24 28 25 29 72 30 26 31 77 32 71 33 73 34
REMARK SMILES IDX 27 35 76 36 70 37 69 38 28 40 58 41 39 42 57 43 40 44 43 45
REMARK SMILES IDX 56 46 74 47 41 48 42 49 55 51 75 52 44 53 29 54 30 55 38 56
REMARK SMILES IDX 31 57 37 58 32 59 33 60 34 61 35 62 36 63 59 64 60 65 68 66
REMARK SMILES IDX 61 67 67 68 62 69 63 70 64 71 65 72 66 73 45 74 46 75 54 76
REMARK SMILES IDX 47 77 53 78 48 79 49 80 50 81 51 82 52 83
REMARK H PARENT 13 6 17 20 73 39 43 50
REMARK Flexibility Score: inf
ROOT
ATOM      1  C   UNL A   1      35.739  23.979  26.004  1.00  0.00     0.042 C 
ENDROOT
BRANCH   1   2
ATOM      2  C   UNL A   1      34.355  24.072  25.377  1.00  0.00     0.118 C 
BRANCH   2   3
ATOM      3  N   UNL A   1      33.285  23.750  26.312  1.00  0.00    -0.353 N 
ATOM      4  C   UNL A   1      32.094  24.394  26.529  1.00  0.00     0.261 C 
ATOM      5  O   UNL A   1      31.300  23.890  27.329  1.00  0.00    -0.271 OA
ATOM      6  H   UNL A   1      33.440  22.954  26.870  1.00  0.00     0.163 HD
BRANCH   4   7
ATOM      7  C   UNL A   1      31.795  25.745  25.853  1.00  0.00     0.261 C 
BRANCH   7   8
ATOM      8  C   UNL A   1      30.564  25.551  24.948  1.00  0.00     0.052 C 
ATOM      9  C   UNL A   1      30.139  26.832  24.240  1.00  0.00     0.008 C 
ENDBRANCH   7   8
BRANCH   7  10
ATOM     10  O   UNL A   1      31.638  26.675  26.933  1.00  0.00    -0.481 OA
BRANCH  10  11
ATOM     11  C   UNL A   1      32.365  27.820  26.855  1.00  0.00     0.120 A 
ATOM     12  C   UNL A   1      33.737  27.728  26.646  1.00  0.00     0.046 A 
ATOM     13  C   UNL A   1      31.781  29.041  27.186  1.00  0.00     0.046 A 
ATOM     14  C   UNL A   1      34.522  28.880  26.713  1.00  0.00     0.004 A 
ATOM     15  C   UNL A   1      32.561  30.194  27.229  1.00  0.00     0.004 A 
ATOM     16  C   UNL A   1      33.932  30.114  26.992  1.00  0.00     0.000 A 
ENDBRANCH  10  11
ENDBRANCH   7  10
ENDBRANCH   4   7
ENDBRANCH   2   3
ENDBRANCH   1   2
BRANCH   1  17
ATOM     17  C   UNL A   1      36.867  23.827  24.993  1.00  0.00     0.118 C 
BRANCH  17  18
ATOM     18  N   UNL A   1      37.845  22.824  25.393  1.00  0.00    -0.352 N 
ATOM     19  C   UNL A   1      39.020  22.947  26.090  1.00  0.00     0.251 C 
ATOM     20  H   UNL A   1      37.626  21.905  25.117  1.00  0.00     0.163 HD
ATOM     21  O   UNL A   1      39.784  21.987  26.145  1.00  0.00    -0.269 OA
BRANCH  19  22
ATOM     22  C   UNL A   1      39.384  24.217  26.758  1.00  0.00     0.039 A 
ATOM     23  C   UNL A   1      38.951  24.433  28.070  1.00  0.00     0.014 A 
ATOM     24  C   UNL A   1      40.106  25.212  26.095  1.00  0.00     0.014 A 
ATOM     25  C   UNL A   1      39.294  25.615  28.732  1.00  0.00     0.010 A 
ATOM     26  C   UNL A   1      40.517  26.353  26.781  1.00  0.00     0.010 A 
ATOM     27  C   UNL A   1      40.108  26.571  28.104  1.00  0.00    -0.014 A 
BRANCH  27  28
ATOM     28  C   UNL A   1      40.537  27.802  28.818  1.00  0.00     0.031 A 
ATOM     29  C   UNL A   1      41.894  27.874  29.465  1.00  0.00     0.074 A 
ATOM     30  C   UNL A   1      39.682  28.839  28.926  1.00  0.00     0.049 A 
ATOM     31  N   UNL A   1      42.423  28.846  30.164  1.00  0.00    -0.248 NA
ATOM     32  C   UNL A   1      42.762  26.693  29.330  1.00  0.00     0.031 C 
ATOM     33  C   UNL A   1      38.321  28.876  28.385  1.00  0.00     0.029 A 
ATOM     34  N   UNL A   1      39.829  30.060  29.535  1.00  0.00    -0.354 N 
ATOM     35  C   UNL A   1      43.676  28.392  30.559  1.00  0.00     0.074 A 
ATOM     36  C   UNL A   1      43.807  27.037  30.069  1.00  0.00     0.031 C 
ATOM     37  C   UNL A   1      37.769  30.068  28.665  1.00  0.00     0.029 A 
ATOM     38  C   UNL A   1      38.719  30.864  29.434  1.00  0.00     0.049 A 
ATOM     39  H   UNL A   1      40.653  30.334  30.000  1.00  0.00     0.167 HD
ATOM     40  C   UNL A   1      44.642  29.049  31.245  1.00  0.00     0.031 A 
ATOM     41  C   UNL A   1      38.486  32.102  29.910  1.00  0.00     0.031 A 
ATOM     42  C   UNL A   1      44.514  30.399  31.727  1.00  0.00     0.049 A 
ATOM     43  C   UNL A   1      39.573  32.812  30.670  1.00  0.00     0.074 A 
ATOM     44  C   UNL A   1      45.450  31.166  32.399  1.00  0.00     0.029 A 
ATOM     45  N   UNL A   1      43.381  31.185  31.587  1.00  0.00    -0.354 N 
ATOM     46  N   UNL A   1      40.773  32.385  30.984  1.00  0.00    -0.248 NA
ATOM     47  C   UNL A   1      39.279  34.178  31.126  1.00  0.00     0.031 C 
ATOM     48  C   UNL A   1      44.868  32.401  32.702  1.00  0.00     0.029 A 
ATOM     49  C   UNL A   1      43.588  32.423  32.171  1.00  0.00     0.049 A 
ATOM     50  H   UNL A   1      42.551  30.905  31.138  1.00  0.00     0.167 HD
ATOM     51  C   UNL A   1      41.386  33.437  31.655  1.00  0.00     0.074 A 
ATOM     52  C   UNL A   1      40.431  34.527  31.682  1.00  0.00     0.031 C 
ATOM     53  C   UNL A   1      42.627  33.497  32.197  1.00  0.00     0.031 A 
BRANCH  40  54
ATOM     54  C   UNL A   1      45.927  28.309  31.514  1.00  0.00    -0.014 A 
ATOM     55  C   UNL A   1      46.072  27.505  32.659  1.00  0.00     0.010 A 
ATOM     56  C   UNL A   1      46.990  28.389  30.595  1.00  0.00     0.010 A 
ATOM     57  C   UNL A   1      47.271  26.829  32.903  1.00  0.00     0.020 A 
ATOM     58  C   UNL A   1      48.180  27.692  30.822  1.00  0.00     0.020 A 
ATOM     59  C   UNL A   1      48.320  26.932  31.984  1.00  0.00     0.054 A 
BRANCH  59  60
ATOM     60  S   UNL A   1      49.857  26.029  32.319  1.00  0.00     0.124 S 
ATOM     61  O   UNL A   1      50.406  26.778  33.446  1.00  0.00    -0.237 OA
ATOM     62  O   UNL A   1      49.380  24.685  32.633  1.00  0.00    -0.237 OA
ATOM     63  O   UNL A   1      50.607  26.145  31.070  1.00  0.00    -0.744 OA
ENDBRANCH  59  60
ENDBRANCH  40  54
BRANCH  41  64
ATOM     64  C   UNL A   1      37.171  32.755  29.670  1.00  0.00    -0.014 A 
ATOM     65  C   UNL A   1      36.166  32.724  30.654  1.00  0.00     0.010 A 
ATOM     66  C   UNL A   1      36.922  33.423  28.458  1.00  0.00     0.010 A 
ATOM     67  C   UNL A   1      34.929  33.331  30.420  1.00  0.00     0.020 A 
ATOM     68  C   UNL A   1      35.696  34.056  28.232  1.00  0.00     0.020 A 
ATOM     69  C   UNL A   1      34.702  33.994  29.211  1.00  0.00     0.054 A 
BRANCH  69  70
ATOM     70  S   UNL A   1      33.108  34.819  28.948  1.00  0.00     0.124 S 
ATOM     71  O   UNL A   1      32.476  33.952  27.960  1.00  0.00    -0.237 OA
ATOM     72  O   UNL A   1      32.515  34.796  30.283  1.00  0.00    -0.237 OA
ATOM     73  O   UNL A   1      33.486  36.147  28.467  1.00  0.00    -0.744 OA
ENDBRANCH  69  70
ENDBRANCH  41  64
BRANCH  53  74
ATOM     74  C   UNL A   1      43.037  34.794  32.841  1.00  0.00    -0.014 A 
ATOM     75  C   UNL A   1      42.814  35.030  34.209  1.00  0.00     0.010 A 
ATOM     76  C   UNL A   1      43.688  35.776  32.073  1.00  0.00     0.010 A 
ATOM     77  C   UNL A   1      43.203  36.241  34.789  1.00  0.00     0.020 A 
ATOM     78  C   UNL A   1      44.103  36.975  32.655  1.00  0.00     0.020 A 
ATOM     79  C   UNL A   1      43.841  37.209  34.006  1.00  0.00     0.054 A 
BRANCH  79  80
ATOM     80  S   UNL A   1      44.362  38.760  34.787  1.00  0.00     0.124 S 
ATOM     81  O   UNL A   1      43.507  39.737  34.121  1.00  0.00    -0.237 OA
ATOM     82  O   UNL A   1      44.067  38.525  36.198  1.00  0.00    -0.237 OA
ATOM     83  O   UNL A   1      45.784  38.850  34.462  1.00  0.00    -0.744 OA
ENDBRANCH  79  80
ENDBRANCH  53  74
ENDBRANCH  27  28
ENDBRANCH  19  22
ENDBRANCH  17  18
ENDBRANCH   1  17
TORSDOF 16
ENDMDL
MODEL 2
REMARK VINA RESULT:      -9.5      2.043      3.697
REMARK SMILES CC[C@@H](Oc1ccccc1)C(=O)NCCCNC(=O)c1ccc(-c2c3nc(c(-c4ccc(S(=O)(=O)[O-])cc4)c4ccc([nH]4)c(-c4ccc(S(=O)(=O)[O-])cc4)c4nc(c(-c5ccc(S(=O)(=O)[O-])cc5)c5ccc2[nH]5)C=C4)C=C3)cc1
REMARK SMILES IDX 15 1 14 2 13 3 11 4 12 5 3 7 2 8 1 9 4 10 5 11 6 12 10 13
REMARK SMILES IDX 7 14 9 15 8 16 16 17 17 18 18 19 19 21 20 22 21 23 79 24
REMARK SMILES IDX 22 25 78 26 23 27 24 28 25 29 72 30 26 31 77 32 71 33 73 34
REMARK SMILES IDX 27 35 76 36 70 37 69 38 28 40 58 41 39 42 57 43 40 44 43 45
REMARK SMILES IDX 56 46 74 47 41 48 42 49 55 51 75 52 44 53 29 54 30 55 38 56
REMARK SMILES IDX 31 57 37 58 32 59 33 60 34 61 35 62 36 63 59 64 60 65 68 66
REMARK SMILES IDX 61 67 67 68 62 69 63 70 64 71 65 72 66 73 45 74 46 75 54 76
REMARK SMILES IDX 47 77 53 78 48 79 49 80 50 81 51 82 52 83
REMARK H PARENT 13 6 17 20 73 39 43 50
REMARK Flexibility Score: inf
ROOT
ATOM      1  C   UNL A   1      35.685  23.792  24.811  1.00  0.00     0.042 C 
ENDROOT
BRANCH   1   2
ATOM      2  C   UNL A   1      35.427  22.520  24.015  1.00  0.00     0.118 C 
BRANCH   2   3
ATOM      3  N   UNL A   1      34.155  22.542  23.305  1.00  0.00    -0.353 N 
ATOM      4  C   UNL A   1      32.914  22.143  23.729  1.00  0.00     0.261 C 
ATOM      5  O   UNL A   1      31.956  22.328  22.972  1.00  0.00    -0.271 OA
ATOM      6  H   UNL A   1      34.193  22.895  22.387  1.00  0.00     0.163 HD
BRANCH   4   7
ATOM      7  C   UNL A   1      32.738  21.416  25.074  1.00  0.00     0.261 C 
BRANCH   7   8
ATOM      8  C   UNL A   1      32.069  22.400  26.053  1.00  0.00     0.052 C 
ATOM      9  C   UNL A   1      32.922  22.690  27.282  1.00  0.00     0.008 C 
ENDBRANCH   7   8
BRANCH   7  10
ATOM     10  O   UNL A   1      31.986  20.235  24.764  1.00  0.00    -0.481 OA
BRANCH  10  11
ATOM     11  C   UNL A   1      32.703  19.147  24.381  1.00  0.00     0.120 A 
ATOM     12  C   UNL A   1      33.951  18.930  24.957  1.00  0.00     0.046 A 
ATOM     13  C   UNL A   1      32.289  18.388  23.288  1.00  0.00     0.046 A 
ATOM     14  C   UNL A   1      34.766  17.907  24.471  1.00  0.00     0.004 A 
ATOM     15  C   UNL A   1      33.092  17.352  22.818  1.00  0.00     0.004 A 
ATOM     16  C   UNL A   1      34.331  17.111  23.410  1.00  0.00     0.000 A 
ENDBRANCH  10  11
ENDBRANCH   7  10
ENDBRANCH   4   7
ENDBRANCH   2   3
ENDBRANCH   1   2
BRANCH   1  17
ATOM     17  C   UNL A   1      36.372  23.556  26.148  1.00  0.00     0.118 C 
BRANCH  17  18
ATOM     18  N   UNL A   1      37.569  22.733  26.024  1.00  0.00    -0.352 N 
ATOM     19  C   UNL A   1      38.888  23.030  26.259  1.00  0.00     0.251 C 
ATOM     20  H   UNL A   1      37.403  21.812  25.721  1.00  0.00     0.163 HD
ATOM     21  O   UNL A   1      39.751  22.233  25.900  1.00  0.00    -0.269 OA
BRANCH  19  22
ATOM     22  C   UNL A   1      39.281  24.295  26.920  1.00  0.00     0.039 A 
ATOM     23  C   UNL A   1      38.899  24.505  28.249  1.00  0.00     0.014 A 
ATOM     24  C   UNL A   1      39.981  25.291  26.236  1.00  0.00     0.014 A 
ATOM     25  C   UNL A   1      39.270  25.681  28.904  1.00  0.00     0.010 A 
ATOM     26  C   UNL A   1      40.422  26.426  26.913  1.00  0.00     0.010 A 
ATOM     27  C   UNL A   1      40.064  26.638  28.252  1.00  0.00    -0.014 A 
BRANCH  27  28
ATOM     28  C   UNL A   1      40.524  27.863  28.956  1.00  0.00     0.031 A 
ATOM     29  C   UNL A   1      41.891  27.914  29.584  1.00  0.00     0.074 A 
ATOM     30  C   UNL A   1      39.689  28.914  29.074  1.00  0.00     0.049 A 
ATOM     31  N   UNL A   1      42.447  28.878  30.272  1.00  0.00    -0.248 NA
ATOM     32  C   UNL A   1      42.737  26.717  29.440  1.00  0.00     0.031 C 
ATOM     33  C   UNL A   1      38.321  28.973  28.552  1.00  0.00     0.029 A 
ATOM     34  N   UNL A   1      39.865  30.135  29.677  1.00  0.00    -0.354 N 
ATOM     35  C   UNL A   1      43.697  28.404  30.650  1.00  0.00     0.074 A 
ATOM     36  C   UNL A   1      43.798  27.045  30.162  1.00  0.00     0.031 C 
ATOM     37  C   UNL A   1      37.793  30.176  28.836  1.00  0.00     0.029 A 
ATOM     38  C   UNL A   1      38.767  30.957  29.590  1.00  0.00     0.049 A 
ATOM     39  H   UNL A   1      40.700  30.396  30.130  1.00  0.00     0.167 HD
ATOM     40  C   UNL A   1      44.684  29.045  31.321  1.00  0.00     0.031 A 
ATOM     41  C   UNL A   1      38.563  32.200  30.066  1.00  0.00     0.031 A 
ATOM     42  C   UNL A   1      44.586  30.398  31.801  1.00  0.00     0.049 A 
ATOM     43  C   UNL A   1      39.672  32.893  30.809  1.00  0.00     0.074 A 
ATOM     44  C   UNL A   1      45.545  31.151  32.458  1.00  0.00     0.029 A 
ATOM     45  N   UNL A   1      43.464  31.204  31.676  1.00  0.00    -0.354 N 
ATOM     46  N   UNL A   1      40.869  32.446  31.107  1.00  0.00    -0.248 NA
ATOM     47  C   UNL A   1      39.408  34.265  31.266  1.00  0.00     0.031 C 
ATOM     48  C   UNL A   1      44.988  32.397  32.766  1.00  0.00     0.029 A 
ATOM     49  C   UNL A   1      43.701  32.439  32.253  1.00  0.00     0.049 A 
ATOM     50  H   UNL A   1      42.624  30.936  31.239  1.00  0.00     0.167 HD
ATOM     51  C   UNL A   1      41.510  33.490  31.765  1.00  0.00     0.074 A 
ATOM     52  C   UNL A   1      40.574  34.596  31.804  1.00  0.00     0.031 C 
ATOM     53  C   UNL A   1      42.759  33.529  32.290  1.00  0.00     0.031 A 
BRANCH  40  54
ATOM     54  C   UNL A   1      45.960  28.285  31.573  1.00  0.00    -0.014 A 
ATOM     55  C   UNL A   1      46.984  28.254  30.609  1.00  0.00     0.010 A 
ATOM     56  C   UNL A   1      46.155  27.622  32.800  1.00  0.00     0.010 A 
ATOM     57  C   UNL A   1      48.161  27.539  30.848  1.00  0.00     0.020 A 
ATOM     58  C   UNL A   1      47.342  26.929  33.053  1.00  0.00     0.020 A 
ATOM     59  C   UNL A   1      48.330  26.877  32.068  1.00  0.00     0.054 A 
BRANCH  59  60
ATOM     60  S   UNL A   1      49.876  25.973  32.357  1.00  0.00     0.124 S 
ATOM     61  O   UNL A   1      50.560  26.130  31.077  1.00  0.00    -0.237 OA
ATOM     62  O   UNL A   1      50.469  26.698  33.478  1.00  0.00    -0.237 OA
ATOM     63  O   UNL A   1      49.432  24.615  32.663  1.00  0.00    -0.744 OA
ENDBRANCH  59  60
ENDBRANCH  40  54
BRANCH  41  64
ATOM     64  C   UNL A   1      37.255  32.875  29.843  1.00  0.00    -0.014 A 
ATOM     65  C   UNL A   1      37.026  33.624  28.675  1.00  0.00     0.010 A 
ATOM     66  C   UNL A   1      36.226  32.757  30.794  1.00  0.00     0.010 A 
ATOM     67  C   UNL A   1      35.799  34.262  28.475  1.00  0.00     0.020 A 
ATOM     68  C   UNL A   1      34.988  33.370  30.583  1.00  0.00     0.020 A 
ATOM     69  C   UNL A   1      34.786  34.130  29.429  1.00  0.00     0.054 A 
BRANCH  69  70
ATOM     70  S   UNL A   1      33.184  34.924  29.124  1.00  0.00     0.124 S 
ATOM     71  O   UNL A   1      33.584  36.230  28.611  1.00  0.00    -0.237 OA
ATOM     72  O   UNL A   1      32.564  34.025  28.155  1.00  0.00    -0.237 OA
ATOM     73  O   UNL A   1      32.553  34.935  30.443  1.00  0.00    -0.744 OA
ENDBRANCH  69  70
ENDBRANCH  41  64
BRANCH  53  74
ATOM     74  C   UNL A   1      43.200  34.821  32.925  1.00  0.00    -0.014 A 
ATOM     75  C   UNL A   1      43.800  35.839  32.164  1.00  0.00     0.010 A 
ATOM     76  C   UNL A   1      42.974  35.032  34.297  1.00  0.00     0.010 A 
ATOM     77  C   UNL A   1      44.202  37.032  32.773  1.00  0.00     0.020 A 
ATOM     78  C   UNL A   1      43.349  36.233  34.903  1.00  0.00     0.020 A 
ATOM     79  C   UNL A   1      43.977  37.219  34.140  1.00  0.00     0.054 A 
BRANCH  79  80
ATOM     80  S   UNL A   1      44.480  38.786  34.902  1.00  0.00     0.124 S 
ATOM     81  O   UNL A   1      44.155  38.559  36.307  1.00  0.00    -0.237 OA
ATOM     82  O   UNL A   1      45.905  38.853  34.589  1.00  0.00    -0.237 OA
ATOM     83  O   UNL A   1      43.653  39.782  34.223  1.00  0.00    -0.744 OA
ENDBRANCH  79  80
ENDBRANCH  53  74
ENDBRANCH  27  28
ENDBRANCH  19  22
ENDBRANCH  17  18
ENDBRANCH   1  17
TORSDOF 16
ENDMDL
MODEL 3
REMARK VINA RESULT:      -9.3      3.334      9.304
REMARK SMILES CC[C@@H](Oc1ccccc1)C(=O)NCCCNC(=O)c1ccc(-c2c3nc(c(-c4ccc(S(=O)(=O)[O-])cc4)c4ccc([nH]4)c(-c4ccc(S(=O)(=O)[O-])cc4)c4nc(c(-c5ccc(S(=O)(=O)[O-])cc5)c5ccc2[nH]5)C=C4)C=C3)cc1
REMARK SMILES IDX 15 1 14 2 13 3 11 4 12 5 3 7 2 8 1 9 4 10 5 11 6 12 10 13
REMARK SMILES IDX 7 14 9 15 8 16 16 17 17 18 18 19 19 21 20 22 21 23 79 24
REMARK SMILES IDX 22 25 78 26 23 27 24 28 25 29 72 30 26 31 77 32 71 33 73 34
REMARK SMILES IDX 27 35 76 36 70 37 69 38 28 40 58 41 39 42 57 43 40 44 43 45
REMARK SMILES IDX 56 46 74 47 41 48 42 49 55 51 75 52 44 53 29 54 30 55 38 56
REMARK SMILES IDX 31 57 37 58 32 59 33 60 34 61 35 62 36 63 59 64 60 65 68 66
REMARK SMILES IDX 61 67 67 68 62 69 63 70 64 71 65 72 66 73 45 74 46 75 54 76
REMARK SMILES IDX 47 77 53 78 48 79 49 80 50 81 51 82 52 83
REMARK H PARENT 13 6 17 20 73 39 43 50
REMARK Flexibility Score: inf
ROOT
ATOM      1  C   UNL A   1      33.161  27.669  26.602  1.00  0.00     0.042 C 
ENDROOT
BRANCH   1   2
ATOM      2  C   UNL A   1      31.665  27.807  26.351  1.00  0.00     0.118 C 
BRANCH   2   3
ATOM      3  N   UNL A   1      30.921  26.596  26.670  1.00  0.00    -0.353 N 
ATOM      4  C   UNL A   1      30.357  25.673  25.828  1.00  0.00     0.261 C 
ATOM      5  O   UNL A   1      29.834  24.674  26.330  1.00  0.00    -0.271 OA
ATOM      6  H   UNL A   1      30.807  26.414  27.631  1.00  0.00     0.163 HD
BRANCH   4   7
ATOM      7  C   UNL A   1      30.311  25.919  24.308  1.00  0.00     0.261 C 
BRANCH   7   8
ATOM      8  C   UNL A   1      30.469  24.554  23.610  1.00  0.00     0.052 C 
ATOM      9  C   UNL A   1      31.920  24.206  23.306  1.00  0.00     0.008 C 
ENDBRANCH   7   8
BRANCH   7  10
ATOM     10  O   UNL A   1      29.070  26.599  24.079  1.00  0.00    -0.481 OA
BRANCH  10  11
ATOM     11  C   UNL A   1      29.144  27.787  23.424  1.00  0.00     0.120 A 
ATOM     12  C   UNL A   1      27.963  28.426  23.060  1.00  0.00     0.046 A 
ATOM     13  C   UNL A   1      30.370  28.244  22.946  1.00  0.00     0.046 A 
ATOM     14  C   UNL A   1      28.016  29.566  22.257  1.00  0.00     0.004 A 
ATOM     15  C   UNL A   1      30.425  29.396  22.165  1.00  0.00     0.004 A 
ATOM     16  C   UNL A   1      29.248  30.057  21.820  1.00  0.00     0.000 A 
ENDBRANCH  10  11
ENDBRANCH   7  10
ENDBRANCH   4   7
ENDBRANCH   2   3
ENDBRANCH   1   2
BRANCH   1  17
ATOM     17  C   UNL A   1      34.006  28.721  25.899  1.00  0.00     0.118 C 
BRANCH  17  18
ATOM     18  N   UNL A   1      33.721  30.071  26.367  1.00  0.00    -0.352 N 
ATOM     19  C   UNL A   1      34.299  30.813  27.367  1.00  0.00     0.251 C 
ATOM     20  H   UNL A   1      32.994  30.527  25.885  1.00  0.00     0.163 HD
ATOM     21  O   UNL A   1      33.764  31.863  27.714  1.00  0.00    -0.269 OA
BRANCH  19  22
ATOM     22  C   UNL A   1      35.537  30.359  28.038  1.00  0.00     0.039 A 
ATOM     23  C   UNL A   1      36.764  30.578  27.403  1.00  0.00     0.014 A 
ATOM     24  C   UNL A   1      35.502  29.684  29.260  1.00  0.00     0.014 A 
ATOM     25  C   UNL A   1      37.950  30.176  28.020  1.00  0.00     0.010 A 
ATOM     26  C   UNL A   1      36.689  29.358  29.913  1.00  0.00     0.010 A 
ATOM     27  C   UNL A   1      37.926  29.592  29.296  1.00  0.00    -0.014 A 
BRANCH  27  28
ATOM     28  C   UNL A   1      39.184  29.221  29.995  1.00  0.00     0.031 A 
ATOM     29  C   UNL A   1      39.619  29.966  31.229  1.00  0.00     0.074 A 
ATOM     30  C   UNL A   1      39.961  28.243  29.488  1.00  0.00     0.049 A 
ATOM     31  N   UNL A   1      40.703  29.810  31.946  1.00  0.00    -0.248 NA
ATOM     32  C   UNL A   1      38.734  31.040  31.707  1.00  0.00     0.031 C 
ATOM     33  C   UNL A   1      39.676  27.478  28.272  1.00  0.00     0.029 A 
ATOM     34  N   UNL A   1      41.155  27.730  29.929  1.00  0.00    -0.354 N 
ATOM     35  C   UNL A   1      40.635  30.769  32.949  1.00  0.00     0.074 A 
ATOM     36  C   UNL A   1      39.431  31.538  32.717  1.00  0.00     0.031 C 
ATOM     37  C   UNL A   1      40.654  26.577  28.080  1.00  0.00     0.029 A 
ATOM     38  C   UNL A   1      41.652  26.725  29.133  1.00  0.00     0.049 A 
ATOM     39  H   UNL A   1      41.613  28.052  30.740  1.00  0.00     0.167 HD
ATOM     40  C   UNL A   1      41.483  30.978  33.985  1.00  0.00     0.031 A 
ATOM     41  C   UNL A   1      42.785  26.004  29.235  1.00  0.00     0.031 A 
ATOM     42  C   UNL A   1      42.677  30.209  34.220  1.00  0.00     0.049 A 
ATOM     43  C   UNL A   1      43.711  26.254  30.394  1.00  0.00     0.074 A 
ATOM     44  C   UNL A   1      43.580  30.317  35.263  1.00  0.00     0.029 A 
ATOM     45  N   UNL A   1      43.134  29.188  33.401  1.00  0.00    -0.354 N 
ATOM     46  N   UNL A   1      43.600  27.129  31.365  1.00  0.00    -0.248 NA
ATOM     47  C   UNL A   1      44.909  25.407  30.478  1.00  0.00     0.031 C 
ATOM     48  C   UNL A   1      44.606  29.390  35.052  1.00  0.00     0.029 A 
ATOM     49  C   UNL A   1      44.312  28.666  33.907  1.00  0.00     0.049 A 
ATOM     50  H   UNL A   1      42.685  28.878  32.581  1.00  0.00     0.167 HD
ATOM     51  C   UNL A   1      44.700  26.923  32.188  1.00  0.00     0.074 A 
ATOM     52  C   UNL A   1      45.454  25.827  31.612  1.00  0.00     0.031 C 
ATOM     53  C   UNL A   1      45.054  27.579  33.320  1.00  0.00     0.031 A 
BRANCH  40  54
ATOM     54  C   UNL A   1      41.143  32.087  34.948  1.00  0.00    -0.014 A 
ATOM     55  C   UNL A   1      40.408  31.826  36.119  1.00  0.00     0.010 A 
ATOM     56  C   UNL A   1      41.591  33.398  34.699  1.00  0.00     0.010 A 
ATOM     57  C   UNL A   1      40.090  32.862  37.002  1.00  0.00     0.020 A 
ATOM     58  C   UNL A   1      41.298  34.431  35.594  1.00  0.00     0.020 A 
ATOM     59  C   UNL A   1      40.534  34.159  36.730  1.00  0.00     0.054 A 
BRANCH  59  60
ATOM     60  S   UNL A   1      40.122  35.480  37.903  1.00  0.00     0.124 S 
ATOM     61  O   UNL A   1      41.300  35.494  38.766  1.00  0.00    -0.237 OA
ATOM     62  O   UNL A   1      39.968  36.645  37.036  1.00  0.00    -0.237 OA
ATOM     63  O   UNL A   1      38.892  35.011  38.536  1.00  0.00    -0.744 OA
ENDBRANCH  59  60
ENDBRANCH  40  54
BRANCH  41  64
ATOM     64  C   UNL A   1      43.099  24.968  28.215  1.00  0.00    -0.014 A 
ATOM     65  C   UNL A   1      43.603  25.334  26.954  1.00  0.00     0.010 A 
ATOM     66  C   UNL A   1      42.908  23.605  28.506  1.00  0.00     0.010 A 
ATOM     67  C   UNL A   1      43.889  24.358  25.996  1.00  0.00     0.020 A 
ATOM     68  C   UNL A   1      43.219  22.625  27.560  1.00  0.00     0.020 A 
ATOM     69  C   UNL A   1      43.696  23.008  26.305  1.00  0.00     0.054 A 
BRANCH  69  70
ATOM     70  S   UNL A   1      44.122  21.754  25.065  1.00  0.00     0.124 S 
ATOM     71  O   UNL A   1      43.044  20.785  25.231  1.00  0.00    -0.237 OA
ATOM     72  O   UNL A   1      44.102  22.518  23.821  1.00  0.00    -0.237 OA
ATOM     73  O   UNL A   1      45.446  21.297  25.484  1.00  0.00    -0.744 OA
ENDBRANCH  69  70
ENDBRANCH  41  64
BRANCH  53  74
ATOM     74  C   UNL A   1      46.297  27.112  34.028  1.00  0.00    -0.014 A 
ATOM     75  C   UNL A   1      47.545  27.714  33.787  1.00  0.00     0.010 A 
ATOM     76  C   UNL A   1      46.208  26.078  34.979  1.00  0.00     0.010 A 
ATOM     77  C   UNL A   1      48.687  27.266  34.455  1.00  0.00     0.020 A 
ATOM     78  C   UNL A   1      47.342  25.646  35.669  1.00  0.00     0.020 A 
ATOM     79  C   UNL A   1      48.579  26.230  35.390  1.00  0.00     0.054 A 
BRANCH  79  80
ATOM     80  S   UNL A   1      50.070  25.685  36.266  1.00  0.00     0.124 S 
ATOM     81  O   UNL A   1      49.568  24.558  37.047  1.00  0.00    -0.237 OA
ATOM     82  O   UNL A   1      50.977  25.339  35.174  1.00  0.00    -0.237 OA
ATOM     83  O   UNL A   1      50.462  26.858  37.044  1.00  0.00    -0.744 OA
ENDBRANCH  79  80
ENDBRANCH  53  74
ENDBRANCH  27  28
ENDBRANCH  19  22
ENDBRANCH  17  18
ENDBRANCH   1  17
TORSDOF 16
ENDMDL
