MODEL 1
REMARK VINA RESULT:     -12.3      0.000      0.000
REMARK SMILES O=C(Cn1c(=O)c2c3c(sc2n(Cc2ccc(Cl)cc2Cl)c1=O)CCCC3)NCCCNC(=O)c1ccc(-c2c3nc(c(-c4ccc(S(=O)(=O)[O-])cc4)c4ccc([nH]4)c(-c4ccc(S(=O)(=O)[O-])cc4)c4nc(c(-c5ccc(S(=O)(=O)[O-])cc5)c5ccc2[nH]5)C=C4)C=C3)cc1
REMARK SMILES IDX 30 1 29 2 28 3 1 4 2 5 3 7 4 8 5 9 22 10 6 11 7 12 12 13
REMARK SMILES IDX 23 14 8 15 11 16 9 17 27 18 10 19 24 20 26 21 25 22 13 23
REMARK SMILES IDX 14 24 15 25 20 26 16 27 19 28 21 29 17 30 18 31 31 32 32 33
REMARK SMILES IDX 33 34 34 36 35 37 36 38 94 39 37 40 93 41 38 42 39 43 40 44
REMARK SMILES IDX 87 45 41 46 92 47 86 48 88 49 42 50 91 51 85 52 84 53 43 55
REMARK SMILES IDX 73 56 54 57 72 58 55 59 58 60 71 61 89 62 56 63 57 64 70 66
REMARK SMILES IDX 90 67 59 68 44 69 45 70 53 71 46 72 52 73 47 74 48 75 49 76
REMARK SMILES IDX 50 77 51 78 74 79 75 80 83 81 76 82 82 83 77 84 78 85 79 86
REMARK SMILES IDX 80 87 81 88 60 89 61 90 69 91 62 92 68 93 63 94 64 95 65 96
REMARK SMILES IDX 66 97 67 98
REMARK H PARENT 28 6 32 35 88 54 58 65
REMARK Flexibility Score: inf
ROOT
ATOM      1  C   UNL A   1      35.650  32.494  27.749  1.00  0.00     0.042 C 
ENDROOT
BRANCH   1   2
ATOM      2  C   UNL A   1      35.872  30.978  27.877  1.00  0.00     0.117 C 
BRANCH   2   3
ATOM      3  N   UNL A   1      34.649  30.217  28.082  1.00  0.00    -0.354 N 
ATOM      4  O   UNL A   1      34.818  28.951  26.166  1.00  0.00    -0.273 OA
ATOM      5  C   UNL A   1      34.224  29.232  27.205  1.00  0.00     0.240 C 
ATOM      6  H   UNL A   1      34.101  30.409  28.876  1.00  0.00     0.163 HD
BRANCH   5   7
ATOM      7  C   UNL A   1      32.964  28.474  27.647  1.00  0.00     0.230 C 
BRANCH   7   8
ATOM      8  N   UNL A   1      32.095  28.251  26.493  1.00  0.00    -0.250 N 
ATOM      9  C   UNL A   1      31.458  29.371  25.951  1.00  0.00     0.265 A 
ATOM     10  C   UNL A   1      31.962  26.928  26.039  1.00  0.00     0.332 A 
ATOM     11  O   UNL A   1      31.479  30.495  26.464  1.00  0.00    -0.268 OA
ATOM     12  C   UNL A   1      30.738  29.115  24.728  1.00  0.00     0.079 A 
ATOM     13  N   UNL A   1      31.195  26.700  24.892  1.00  0.00    -0.280 N 
ATOM     14  O   UNL A   1      32.538  26.008  26.629  1.00  0.00    -0.247 OA
ATOM     15  C   UNL A   1      29.973  30.005  23.885  1.00  0.00    -0.019 A 
ATOM     16  C   UNL A   1      30.691  27.826  24.255  1.00  0.00     0.113 A 
ATOM     17  C   UNL A   1      29.423  29.317  22.820  1.00  0.00     0.011 A 
ATOM     18  C   UNL A   1      29.686  31.466  24.088  1.00  0.00     0.037 C 
ATOM     19  S   UNL A   1      29.989  27.734  22.728  1.00  0.00    -0.122 S 
ATOM     20  C   UNL A   1      28.478  29.856  21.797  1.00  0.00     0.047 C 
ATOM     21  C   UNL A   1      29.059  32.097  22.825  1.00  0.00     0.005 C 
ATOM     22  C   UNL A   1      27.941  31.220  22.242  1.00  0.00     0.006 C 
BRANCH  13  23
ATOM     23  C   UNL A   1      30.985  25.300  24.424  1.00  0.00     0.165 C 
BRANCH  23  24
ATOM     24  C   UNL A   1      32.275  24.584  24.032  1.00  0.00    -0.009 A 
ATOM     25  C   UNL A   1      33.156  25.222  23.138  1.00  0.00     0.008 A 
ATOM     26  C   UNL A   1      32.656  23.317  24.516  1.00  0.00     0.047 A 
ATOM     27  C   UNL A   1      34.402  24.663  22.827  1.00  0.00     0.021 A 
ATOM     28  C   UNL A   1      33.944  22.815  24.297  1.00  0.00     0.041 A 
ATOM     29  Cl  UNL A   1      31.546  22.218  25.262  1.00  0.00    -0.084 Cl
ATOM     30  C   UNL A   1      34.813  23.493  23.455  1.00  0.00     0.042 A 
ATOM     31  Cl  UNL A   1      36.381  22.852  23.155  1.00  0.00    -0.084 Cl
ENDBRANCH  23  24
ENDBRANCH  13  23
ENDBRANCH   7   8
ENDBRANCH   5   7
ENDBRANCH   2   3
ENDBRANCH   1   2
BRANCH   1  32
ATOM     32  C   UNL A   1      34.220  33.000  28.041  1.00  0.00     0.118 C 
BRANCH  32  33
ATOM     33  N   UNL A   1      34.206  33.945  29.150  1.00  0.00    -0.352 N 
ATOM     34  C   UNL A   1      34.729  33.957  30.418  1.00  0.00     0.251 C 
ATOM     35  H   UNL A   1      33.704  34.765  28.941  1.00  0.00     0.163 HD
ATOM     36  O   UNL A   1      34.307  34.845  31.165  1.00  0.00    -0.269 OA
BRANCH  34  37
ATOM     37  C   UNL A   1      35.748  33.016  30.963  1.00  0.00     0.039 A 
ATOM     38  C   UNL A   1      37.099  33.317  30.694  1.00  0.00     0.014 A 
ATOM     39  C   UNL A   1      35.454  31.788  31.551  1.00  0.00     0.014 A 
ATOM     40  C   UNL A   1      38.142  32.441  31.040  1.00  0.00     0.010 A 
ATOM     41  C   UNL A   1      36.504  30.904  31.890  1.00  0.00     0.010 A 
ATOM     42  C   UNL A   1      37.864  31.228  31.668  1.00  0.00    -0.014 A 
BRANCH  42  43
ATOM     43  C   UNL A   1      39.000  30.464  32.279  1.00  0.00     0.031 A 
ATOM     44  C   UNL A   1      39.150  29.099  31.709  1.00  0.00     0.074 A 
ATOM     45  C   UNL A   1      40.139  30.964  32.827  1.00  0.00     0.049 A 
ATOM     46  N   UNL A   1      39.745  28.964  30.565  1.00  0.00    -0.248 NA
ATOM     47  C   UNL A   1      38.469  27.890  32.157  1.00  0.00     0.031 C 
ATOM     48  C   UNL A   1      40.678  32.297  32.537  1.00  0.00     0.029 A 
ATOM     49  N   UNL A   1      41.154  30.347  33.549  1.00  0.00    -0.354 N 
ATOM     50  C   UNL A   1      39.490  27.695  30.094  1.00  0.00     0.074 A 
ATOM     51  C   UNL A   1      38.709  27.052  31.128  1.00  0.00     0.031 C 
ATOM     52  C   UNL A   1      41.969  32.343  32.937  1.00  0.00     0.029 A 
ATOM     53  C   UNL A   1      42.316  31.114  33.656  1.00  0.00     0.049 A 
ATOM     54  H   UNL A   1      41.062  29.452  33.947  1.00  0.00     0.167 HD
ATOM     55  C   UNL A   1      39.977  27.302  28.885  1.00  0.00     0.031 A 
ATOM     56  C   UNL A   1      43.595  30.656  33.788  1.00  0.00     0.031 A 
ATOM     57  C   UNL A   1      40.824  28.251  28.180  1.00  0.00     0.049 A 
ATOM     58  C   UNL A   1      43.898  30.086  32.432  1.00  0.00     0.074 A 
ATOM     59  C   UNL A   1      41.111  28.647  26.889  1.00  0.00     0.029 A 
ATOM     60  N   UNL A   1      41.628  29.029  28.966  1.00  0.00    -0.354 N 
ATOM     61  N   UNL A   1      44.254  30.759  31.372  1.00  0.00    -0.248 NA
ATOM     62  C   UNL A   1      43.577  28.670  32.182  1.00  0.00     0.031 C 
ATOM     63  C   UNL A   1      42.209  29.576  26.955  1.00  0.00     0.029 A 
ATOM     64  C   UNL A   1      42.607  29.677  28.278  1.00  0.00     0.049 A 
ATOM     65  H   UNL A   1      41.510  29.112  29.940  1.00  0.00     0.167 HD
ATOM     66  C   UNL A   1      43.919  29.936  30.306  1.00  0.00     0.074 A 
ATOM     67  C   UNL A   1      43.666  28.619  30.859  1.00  0.00     0.031 C 
ATOM     68  C   UNL A   1      43.573  30.397  29.071  1.00  0.00     0.031 A 
BRANCH  55  69
ATOM     69  C   UNL A   1      39.918  25.900  28.405  1.00  0.00    -0.014 A 
ATOM     70  C   UNL A   1      41.088  25.130  28.555  1.00  0.00     0.010 A 
ATOM     71  C   UNL A   1      38.843  25.375  27.677  1.00  0.00     0.010 A 
ATOM     72  C   UNL A   1      41.200  23.871  27.966  1.00  0.00     0.020 A 
ATOM     73  C   UNL A   1      38.949  24.107  27.084  1.00  0.00     0.020 A 
ATOM     74  C   UNL A   1      40.132  23.371  27.223  1.00  0.00     0.054 A 
BRANCH  74  75
ATOM     75  S   UNL A   1      40.346  21.766  26.400  1.00  0.00     0.124 S 
ATOM     76  O   UNL A   1      39.097  21.624  25.660  1.00  0.00    -0.237 OA
ATOM     77  O   UNL A   1      41.539  21.993  25.588  1.00  0.00    -0.237 OA
ATOM     78  O   UNL A   1      40.520  20.831  27.510  1.00  0.00    -0.744 OA
ENDBRANCH  74  75
ENDBRANCH  55  69
BRANCH  56  79
ATOM     79  C   UNL A   1      44.043  29.959  35.042  1.00  0.00    -0.014 A 
ATOM     80  C   UNL A   1      43.988  28.551  35.102  1.00  0.00     0.010 A 
ATOM     81  C   UNL A   1      44.443  30.629  36.215  1.00  0.00     0.010 A 
ATOM     82  C   UNL A   1      44.453  27.846  36.224  1.00  0.00     0.020 A 
ATOM     83  C   UNL A   1      44.946  29.936  37.327  1.00  0.00     0.020 A 
ATOM     84  C   UNL A   1      44.977  28.546  37.311  1.00  0.00     0.054 A 
BRANCH  84  85
ATOM     85  S   UNL A   1      45.769  27.619  38.656  1.00  0.00     0.124 S 
ATOM     86  O   UNL A   1      46.842  28.518  39.067  1.00  0.00    -0.237 OA
ATOM     87  O   UNL A   1      44.673  27.466  39.610  1.00  0.00    -0.237 OA
ATOM     88  O   UNL A   1      46.202  26.380  38.014  1.00  0.00    -0.744 OA
ENDBRANCH  84  85
ENDBRANCH  56  79
BRANCH  68  89
ATOM     89  C   UNL A   1      44.098  31.725  28.662  1.00  0.00    -0.014 A 
ATOM     90  C   UNL A   1      45.219  31.776  27.814  1.00  0.00     0.010 A 
ATOM     91  C   UNL A   1      43.454  32.917  29.024  1.00  0.00     0.010 A 
ATOM     92  C   UNL A   1      45.671  32.991  27.308  1.00  0.00     0.020 A 
ATOM     93  C   UNL A   1      43.903  34.141  28.517  1.00  0.00     0.020 A 
ATOM     94  C   UNL A   1      44.998  34.166  27.648  1.00  0.00     0.054 A 
BRANCH  94  95
ATOM     95  S   UNL A   1      45.541  35.712  26.876  1.00  0.00     0.124 S 
ATOM     96  O   UNL A   1      44.291  36.457  26.749  1.00  0.00    -0.237 OA
ATOM     97  O   UNL A   1      46.487  36.236  27.860  1.00  0.00    -0.237 OA
ATOM     98  O   UNL A   1      46.140  35.281  25.614  1.00  0.00    -0.744 OA
ENDBRANCH  94  95
ENDBRANCH  68  89
ENDBRANCH  42  43
ENDBRANCH  34  37
ENDBRANCH  32  33
ENDBRANCH   1  32
TORSDOF 16
ENDMDL
MODEL 2
REMARK VINA RESULT:     -12.3      4.538     11.907
REMARK SMILES O=C(Cn1c(=O)c2c3c(sc2n(Cc2ccc(Cl)cc2Cl)c1=O)CCCC3)NCCCNC(=O)c1ccc(-c2c3nc(c(-c4ccc(S(=O)(=O)[O-])cc4)c4ccc([nH]4)c(-c4ccc(S(=O)(=O)[O-])cc4)c4nc(c(-c5ccc(S(=O)(=O)[O-])cc5)c5ccc2[nH]5)C=C4)C=C3)cc1
REMARK SMILES IDX 30 1 29 2 28 3 1 4 2 5 3 7 4 8 5 9 22 10 6 11 7 12 12 13
REMARK SMILES IDX 23 14 8 15 11 16 9 17 27 18 10 19 24 20 26 21 25 22 13 23
REMARK SMILES IDX 14 24 15 25 20 26 16 27 19 28 21 29 17 30 18 31 31 32 32 33
REMARK SMILES IDX 33 34 34 36 35 37 36 38 94 39 37 40 93 41 38 42 39 43 40 44
REMARK SMILES IDX 87 45 41 46 92 47 86 48 88 49 42 50 91 51 85 52 84 53 43 55
REMARK SMILES IDX 73 56 54 57 72 58 55 59 58 60 71 61 89 62 56 63 57 64 70 66
REMARK SMILES IDX 90 67 59 68 44 69 45 70 53 71 46 72 52 73 47 74 48 75 49 76
REMARK SMILES IDX 50 77 51 78 74 79 75 80 83 81 76 82 82 83 77 84 78 85 79 86
REMARK SMILES IDX 80 87 81 88 60 89 61 90 69 91 62 92 68 93 63 94 64 95 65 96
REMARK SMILES IDX 66 97 67 98
REMARK H PARENT 28 6 32 35 88 54 58 65
REMARK Flexibility Score: inf
ROOT
ATOM      1  C   UNL A   1      41.426  19.547  27.046  1.00  0.00     0.042 C 
ENDROOT
BRANCH   1   2
ATOM      2  C   UNL A   1      42.447  19.545  25.896  1.00  0.00     0.117 C 
BRANCH   2   3
ATOM      3  N   UNL A   1      42.879  20.873  25.487  1.00  0.00    -0.354 N 
ATOM      4  O   UNL A   1      45.138  20.434  25.554  1.00  0.00    -0.273 OA
ATOM      5  C   UNL A   1      44.213  21.210  25.325  1.00  0.00     0.240 C 
ATOM      6  H   UNL A   1      42.195  21.560  25.318  1.00  0.00     0.163 HD
BRANCH   5   7
ATOM      7  C   UNL A   1      44.459  22.628  24.791  1.00  0.00     0.230 C 
BRANCH   7   8
ATOM      8  N   UNL A   1      45.185  23.411  25.791  1.00  0.00    -0.250 N 
ATOM      9  C   UNL A   1      44.618  23.495  27.065  1.00  0.00     0.265 A 
ATOM     10  C   UNL A   1      46.380  24.023  25.379  1.00  0.00     0.332 A 
ATOM     11  O   UNL A   1      43.494  23.069  27.353  1.00  0.00    -0.268 OA
ATOM     12  C   UNL A   1      45.449  24.148  28.047  1.00  0.00     0.079 A 
ATOM     13  N   UNL A   1      47.129  24.714  26.337  1.00  0.00    -0.280 N 
ATOM     14  O   UNL A   1      46.761  23.919  24.208  1.00  0.00    -0.247 OA
ATOM     15  C   UNL A   1      45.214  24.415  29.447  1.00  0.00    -0.019 A 
ATOM     16  C   UNL A   1      46.654  24.667  27.641  1.00  0.00     0.113 A 
ATOM     17  C   UNL A   1      46.280  25.100  29.999  1.00  0.00     0.011 A 
ATOM     18  C   UNL A   1      43.991  24.108  30.264  1.00  0.00     0.037 C 
ATOM     19  S   UNL A   1      47.581  25.212  28.936  1.00  0.00    -0.122 S 
ATOM     20  C   UNL A   1      46.368  25.656  31.382  1.00  0.00     0.047 C 
ATOM     21  C   UNL A   1      44.254  24.317  31.772  1.00  0.00     0.005 C 
ATOM     22  C   UNL A   1      44.988  25.637  32.048  1.00  0.00     0.006 C 
BRANCH  13  23
ATOM     23  C   UNL A   1      48.369  25.427  25.915  1.00  0.00     0.165 C 
BRANCH  23  24
ATOM     24  C   UNL A   1      48.143  26.444  24.801  1.00  0.00    -0.009 A 
ATOM     25  C   UNL A   1      48.965  26.388  23.659  1.00  0.00     0.008 A 
ATOM     26  C   UNL A   1      47.150  27.443  24.829  1.00  0.00     0.047 A 
ATOM     27  C   UNL A   1      48.735  27.224  22.559  1.00  0.00     0.021 A 
ATOM     28  C   UNL A   1      46.848  28.198  23.690  1.00  0.00     0.041 A 
ATOM     29  Cl  UNL A   1      46.348  27.936  26.281  1.00  0.00    -0.084 Cl
ATOM     30  C   UNL A   1      47.641  28.082  22.558  1.00  0.00     0.042 A 
ATOM     31  Cl  UNL A   1      47.293  29.041  21.172  1.00  0.00    -0.084 Cl
ENDBRANCH  23  24
ENDBRANCH  13  23
ENDBRANCH   7   8
ENDBRANCH   5   7
ENDBRANCH   2   3
ENDBRANCH   1   2
BRANCH   1  32
ATOM     32  C   UNL A   1      40.885  20.929  27.474  1.00  0.00     0.118 C 
BRANCH  32  33
ATOM     33  N   UNL A   1      39.727  21.317  26.680  1.00  0.00    -0.352 N 
ATOM     34  C   UNL A   1      39.067  22.496  26.446  1.00  0.00     0.251 C 
ATOM     35  H   UNL A   1      39.326  20.557  26.202  1.00  0.00     0.163 HD
ATOM     36  O   UNL A   1      37.968  22.395  25.891  1.00  0.00    -0.269 OA
BRANCH  34  37
ATOM     37  C   UNL A   1      39.549  23.864  26.788  1.00  0.00     0.039 A 
ATOM     38  C   UNL A   1      40.629  24.364  26.030  1.00  0.00     0.014 A 
ATOM     39  C   UNL A   1      39.135  24.593  27.900  1.00  0.00     0.014 A 
ATOM     40  C   UNL A   1      41.256  25.582  26.341  1.00  0.00     0.010 A 
ATOM     41  C   UNL A   1      39.774  25.814  28.215  1.00  0.00     0.010 A 
ATOM     42  C   UNL A   1      40.824  26.342  27.426  1.00  0.00    -0.014 A 
BRANCH  42  43
ATOM     43  C   UNL A   1      41.313  27.754  27.550  1.00  0.00     0.031 A 
ATOM     44  C   UNL A   1      40.206  28.745  27.613  1.00  0.00     0.074 A 
ATOM     45  C   UNL A   1      42.476  28.185  28.105  1.00  0.00     0.049 A 
ATOM     46  N   UNL A   1      39.589  28.917  28.740  1.00  0.00    -0.248 NA
ATOM     47  C   UNL A   1      39.537  29.375  26.481  1.00  0.00     0.031 C 
ATOM     48  C   UNL A   1      43.264  27.416  29.073  1.00  0.00     0.029 A 
ATOM     49  N   UNL A   1      43.073  29.440  28.117  1.00  0.00    -0.354 N 
ATOM     50  C   UNL A   1      38.430  29.618  28.493  1.00  0.00     0.074 A 
ATOM     51  C   UNL A   1      38.448  29.902  27.075  1.00  0.00     0.031 C 
ATOM     52  C   UNL A   1      44.132  28.248  29.690  1.00  0.00     0.029 A 
ATOM     53  C   UNL A   1      44.089  29.573  29.065  1.00  0.00     0.049 A 
ATOM     54  H   UNL A   1      42.804  30.170  27.512  1.00  0.00     0.167 HD
ATOM     55  C   UNL A   1      37.574  29.907  29.512  1.00  0.00     0.031 A 
ATOM     56  C   UNL A   1      44.479  30.716  29.700  1.00  0.00     0.031 A 
ATOM     57  C   UNL A   1      37.988  29.511  30.848  1.00  0.00     0.049 A 
ATOM     58  C   UNL A   1      43.340  30.994  30.638  1.00  0.00     0.074 A 
ATOM     59  C   UNL A   1      37.435  29.057  32.029  1.00  0.00     0.029 A 
ATOM     60  N   UNL A   1      39.328  29.590  31.103  1.00  0.00    -0.354 N 
ATOM     61  N   UNL A   1      43.135  30.428  31.796  1.00  0.00    -0.248 NA
ATOM     62  C   UNL A   1      42.223  31.823  30.153  1.00  0.00     0.031 C 
ATOM     63  C   UNL A   1      38.486  29.017  33.011  1.00  0.00     0.029 A 
ATOM     64  C   UNL A   1      39.642  29.505  32.425  1.00  0.00     0.049 A 
ATOM     65  H   UNL A   1      40.005  29.698  30.397  1.00  0.00     0.167 HD
ATOM     66  C   UNL A   1      41.778  30.593  32.031  1.00  0.00     0.074 A 
ATOM     67  C   UNL A   1      41.308  31.587  31.085  1.00  0.00     0.031 C 
ATOM     68  C   UNL A   1      41.026  29.727  32.767  1.00  0.00     0.031 A 
BRANCH  55  69
ATOM     69  C   UNL A   1      36.418  30.824  29.362  1.00  0.00    -0.014 A 
ATOM     70  C   UNL A   1      35.969  31.068  28.049  1.00  0.00     0.010 A 
ATOM     71  C   UNL A   1      35.877  31.568  30.419  1.00  0.00     0.010 A 
ATOM     72  C   UNL A   1      35.021  32.057  27.786  1.00  0.00     0.020 A 
ATOM     73  C   UNL A   1      34.921  32.563  30.159  1.00  0.00     0.020 A 
ATOM     74  C   UNL A   1      34.511  32.808  28.843  1.00  0.00     0.054 A 
BRANCH  74  75
ATOM     75  S   UNL A   1      33.343  34.142  28.452  1.00  0.00     0.124 S 
ATOM     76  O   UNL A   1      32.851  34.525  29.771  1.00  0.00    -0.237 OA
ATOM     77  O   UNL A   1      34.203  35.120  27.790  1.00  0.00    -0.237 OA
ATOM     78  O   UNL A   1      32.359  33.495  27.586  1.00  0.00    -0.744 OA
ENDBRANCH  74  75
ENDBRANCH  55  69
BRANCH  56  79
ATOM     79  C   UNL A   1      45.156  31.827  28.948  1.00  0.00    -0.014 A 
ATOM     80  C   UNL A   1      45.397  31.675  27.566  1.00  0.00     0.010 A 
ATOM     81  C   UNL A   1      45.653  32.999  29.552  1.00  0.00     0.010 A 
ATOM     82  C   UNL A   1      45.967  32.706  26.803  1.00  0.00     0.020 A 
ATOM     83  C   UNL A   1      46.189  34.051  28.795  1.00  0.00     0.020 A 
ATOM     84  C   UNL A   1      46.315  33.909  27.417  1.00  0.00     0.054 A 
BRANCH  84  85
ATOM     85  S   UNL A   1      46.848  35.303  26.384  1.00  0.00     0.124 S 
ATOM     86  O   UNL A   1      47.096  34.663  25.096  1.00  0.00    -0.237 OA
ATOM     87  O   UNL A   1      45.685  36.186  26.436  1.00  0.00    -0.237 OA
ATOM     88  O   UNL A   1      48.035  35.807  27.071  1.00  0.00    -0.744 OA
ENDBRANCH  84  85
ENDBRANCH  56  79
BRANCH  68  89
ATOM     89  C   UNL A   1      41.721  28.923  33.805  1.00  0.00    -0.014 A 
ATOM     90  C   UNL A   1      41.953  29.501  35.065  1.00  0.00     0.010 A 
ATOM     91  C   UNL A   1      42.068  27.581  33.589  1.00  0.00     0.010 A 
ATOM     92  C   UNL A   1      42.490  28.747  36.104  1.00  0.00     0.020 A 
ATOM     93  C   UNL A   1      42.607  26.818  34.630  1.00  0.00     0.020 A 
ATOM     94  C   UNL A   1      42.797  27.404  35.885  1.00  0.00     0.054 A 
BRANCH  94  95
ATOM     95  S   UNL A   1      43.382  26.424  37.291  1.00  0.00     0.124 S 
ATOM     96  O   UNL A   1      42.136  26.047  37.954  1.00  0.00    -0.237 OA
ATOM     97  O   UNL A   1      44.098  25.332  36.633  1.00  0.00    -0.237 OA
ATOM     98  O   UNL A   1      44.227  27.354  38.038  1.00  0.00    -0.744 OA
ENDBRANCH  94  95
ENDBRANCH  68  89
ENDBRANCH  42  43
ENDBRANCH  34  37
ENDBRANCH  32  33
ENDBRANCH   1  32
TORSDOF 16
ENDMDL
MODEL 3
REMARK VINA RESULT:     -12.3      3.265      9.437
REMARK SMILES O=C(Cn1c(=O)c2c3c(sc2n(Cc2ccc(Cl)cc2Cl)c1=O)CCCC3)NCCCNC(=O)c1ccc(-c2c3nc(c(-c4ccc(S(=O)(=O)[O-])cc4)c4ccc([nH]4)c(-c4ccc(S(=O)(=O)[O-])cc4)c4nc(c(-c5ccc(S(=O)(=O)[O-])cc5)c5ccc2[nH]5)C=C4)C=C3)cc1
REMARK SMILES IDX 30 1 29 2 28 3 1 4 2 5 3 7 4 8 5 9 22 10 6 11 7 12 12 13
REMARK SMILES IDX 23 14 8 15 11 16 9 17 27 18 10 19 24 20 26 21 25 22 13 23
REMARK SMILES IDX 14 24 15 25 20 26 16 27 19 28 21 29 17 30 18 31 31 32 32 33
REMARK SMILES IDX 33 34 34 36 35 37 36 38 94 39 37 40 93 41 38 42 39 43 40 44
REMARK SMILES IDX 87 45 41 46 92 47 86 48 88 49 42 50 91 51 85 52 84 53 43 55
REMARK SMILES IDX 73 56 54 57 72 58 55 59 58 60 71 61 89 62 56 63 57 64 70 66
REMARK SMILES IDX 90 67 59 68 44 69 45 70 53 71 46 72 52 73 47 74 48 75 49 76
REMARK SMILES IDX 50 77 51 78 74 79 75 80 83 81 76 82 82 83 77 84 78 85 79 86
REMARK SMILES IDX 80 87 81 88 60 89 61 90 69 91 62 92 68 93 63 94 64 95 65 96
REMARK SMILES IDX 66 97 67 98
REMARK H PARENT 28 6 32 35 88 54 58 65
REMARK Flexibility Score: inf
ROOT
ATOM      1  C   UNL A   1      40.400  22.086  27.627  1.00  0.00     0.042 C 
ENDROOT
BRANCH   1   2
ATOM      2  C   UNL A   1      39.597  23.338  27.233  1.00  0.00     0.117 C 
BRANCH   2   3
ATOM      3  N   UNL A   1      38.949  23.239  25.935  1.00  0.00    -0.354 N 
ATOM      4  O   UNL A   1      36.874  23.946  26.637  1.00  0.00    -0.273 OA
ATOM      5  C   UNL A   1      37.620  23.577  25.733  1.00  0.00     0.240 C 
ATOM      6  H   UNL A   1      39.475  22.918  25.168  1.00  0.00     0.163 HD
BRANCH   5   7
ATOM      7  C   UNL A   1      37.149  23.502  24.274  1.00  0.00     0.230 C 
BRANCH   7   8
ATOM      8  N   UNL A   1      35.914  22.722  24.197  1.00  0.00    -0.250 N 
ATOM      9  C   UNL A   1      36.019  21.344  24.399  1.00  0.00     0.265 A 
ATOM     10  C   UNL A   1      34.732  23.426  23.910  1.00  0.00     0.332 A 
ATOM     11  O   UNL A   1      37.091  20.738  24.501  1.00  0.00    -0.268 OA
ATOM     12  C   UNL A   1      34.755  20.652  24.463  1.00  0.00     0.079 A 
ATOM     13  N   UNL A   1      33.528  22.714  23.905  1.00  0.00    -0.280 N 
ATOM     14  O   UNL A   1      34.767  24.643  23.703  1.00  0.00    -0.247 OA
ATOM     15  C   UNL A   1      34.461  19.251  24.660  1.00  0.00    -0.019 A 
ATOM     16  C   UNL A   1      33.604  21.374  24.263  1.00  0.00     0.113 A 
ATOM     17  C   UNL A   1      33.098  19.028  24.619  1.00  0.00     0.011 A 
ATOM     18  C   UNL A   1      35.423  18.108  24.819  1.00  0.00     0.037 C 
ATOM     19  S   UNL A   1      32.221  20.464  24.566  1.00  0.00    -0.122 S 
ATOM     20  C   UNL A   1      32.405  17.706  24.665  1.00  0.00     0.047 C 
ATOM     21  C   UNL A   1      34.700  16.821  25.272  1.00  0.00     0.005 C 
ATOM     22  C   UNL A   1      33.416  16.572  24.466  1.00  0.00     0.006 C 
BRANCH  13  23
ATOM     23  C   UNL A   1      32.267  23.421  23.543  1.00  0.00     0.165 C 
BRANCH  23  24
ATOM     24  C   UNL A   1      31.928  24.585  24.470  1.00  0.00    -0.009 A 
ATOM     25  C   UNL A   1      31.812  24.335  25.851  1.00  0.00     0.008 A 
ATOM     26  C   UNL A   1      31.729  25.910  24.037  1.00  0.00     0.047 A 
ATOM     27  C   UNL A   1      31.610  25.382  26.761  1.00  0.00     0.021 A 
ATOM     28  C   UNL A   1      31.643  26.966  24.951  1.00  0.00     0.041 A 
ATOM     29  Cl  UNL A   1      31.413  26.328  22.387  1.00  0.00    -0.084 Cl
ATOM     30  C   UNL A   1      31.586  26.697  26.310  1.00  0.00     0.042 A 
ATOM     31  Cl  UNL A   1      31.439  27.994  27.430  1.00  0.00    -0.084 Cl
ENDBRANCH  23  24
ENDBRANCH  13  23
ENDBRANCH   7   8
ENDBRANCH   5   7
ENDBRANCH   2   3
ENDBRANCH   1   2
BRANCH   1  32
ATOM     32  C   UNL A   1      40.513  20.983  26.551  1.00  0.00     0.118 C 
BRANCH  32  33
ATOM     33  N   UNL A   1      41.903  20.622  26.303  1.00  0.00    -0.352 N 
ATOM     34  C   UNL A   1      43.043  21.319  25.995  1.00  0.00     0.251 C 
ATOM     35  H   UNL A   1      42.059  19.653  26.372  1.00  0.00     0.163 HD
ATOM     36  O   UNL A   1      44.004  20.639  25.623  1.00  0.00    -0.269 OA
BRANCH  34  37
ATOM     37  C   UNL A   1      43.225  22.796  26.074  1.00  0.00     0.039 A 
ATOM     38  C   UNL A   1      43.561  23.328  27.336  1.00  0.00     0.014 A 
ATOM     39  C   UNL A   1      42.915  23.687  25.049  1.00  0.00     0.014 A 
ATOM     40  C   UNL A   1      43.631  24.712  27.568  1.00  0.00     0.010 A 
ATOM     41  C   UNL A   1      42.977  25.079  25.287  1.00  0.00     0.010 A 
ATOM     42  C   UNL A   1      43.363  25.614  26.539  1.00  0.00    -0.014 A 
BRANCH  42  43
ATOM     43  C   UNL A   1      43.729  27.054  26.739  1.00  0.00     0.031 A 
ATOM     44  C   UNL A   1      42.545  27.954  26.742  1.00  0.00     0.074 A 
ATOM     45  C   UNL A   1      44.808  27.554  27.396  1.00  0.00     0.049 A 
ATOM     46  N   UNL A   1      41.832  28.041  27.821  1.00  0.00    -0.248 NA
ATOM     47  C   UNL A   1      41.918  28.569  25.578  1.00  0.00     0.031 C 
ATOM     48  C   UNL A   1      45.577  26.815  28.402  1.00  0.00     0.029 A 
ATOM     49  N   UNL A   1      45.302  28.850  27.490  1.00  0.00    -0.354 N 
ATOM     50  C   UNL A   1      40.644  28.659  27.502  1.00  0.00     0.074 A 
ATOM     51  C   UNL A   1      40.748  28.991  26.098  1.00  0.00     0.031 C 
ATOM     52  C   UNL A   1      46.327  27.690  29.109  1.00  0.00     0.029 A 
ATOM     53  C   UNL A   1      46.228  29.028  28.519  1.00  0.00     0.049 A 
ATOM     54  H   UNL A   1      45.023  29.576  26.886  1.00  0.00     0.167 HD
ATOM     55  C   UNL A   1      39.692  28.848  28.457  1.00  0.00     0.031 A 
ATOM     56  C   UNL A   1      46.477  30.176  29.213  1.00  0.00     0.031 A 
ATOM     57  C   UNL A   1      40.032  28.439  29.811  1.00  0.00     0.049 A 
ATOM     58  C   UNL A   1      45.251  30.335  30.066  1.00  0.00     0.074 A 
ATOM     59  C   UNL A   1      39.428  27.905  30.931  1.00  0.00     0.029 A 
ATOM     60  N   UNL A   1      41.339  28.612  30.173  1.00  0.00    -0.354 N 
ATOM     61  N   UNL A   1      45.003  29.716  31.188  1.00  0.00    -0.248 NA
ATOM     62  C   UNL A   1      44.113  31.091  29.517  1.00  0.00     0.031 C 
ATOM     63  C   UNL A   1      40.400  27.913  31.993  1.00  0.00     0.029 A 
ATOM     64  C   UNL A   1      41.555  28.508  31.513  1.00  0.00     0.049 A 
ATOM     65  H   UNL A   1      42.057  28.796  29.526  1.00  0.00     0.167 HD
ATOM     66  C   UNL A   1      43.623  29.769  31.320  1.00  0.00     0.074 A 
ATOM     67  C   UNL A   1      43.150  30.754  30.367  1.00  0.00     0.031 C 
ATOM     68  C   UNL A   1      42.887  28.823  31.970  1.00  0.00     0.031 A 
BRANCH  55  69
ATOM     69  C   UNL A   1      38.482  29.678  28.242  1.00  0.00    -0.014 A 
ATOM     70  C   UNL A   1      38.493  30.970  28.802  1.00  0.00     0.010 A 
ATOM     71  C   UNL A   1      37.299  29.190  27.673  1.00  0.00     0.010 A 
ATOM     72  C   UNL A   1      37.341  31.754  28.824  1.00  0.00     0.020 A 
ATOM     73  C   UNL A   1      36.136  29.976  27.691  1.00  0.00     0.020 A 
ATOM     74  C   UNL A   1      36.163  31.247  28.278  1.00  0.00     0.054 A 
BRANCH  74  75
ATOM     75  S   UNL A   1      34.662  32.262  28.401  1.00  0.00     0.124 S 
ATOM     76  O   UNL A   1      33.665  31.428  27.737  1.00  0.00    -0.237 OA
ATOM     77  O   UNL A   1      34.505  32.405  29.846  1.00  0.00    -0.237 OA
ATOM     78  O   UNL A   1      35.017  33.489  27.691  1.00  0.00    -0.744 OA
ENDBRANCH  74  75
ENDBRANCH  55  69
BRANCH  56  79
ATOM     79  C   UNL A   1      47.120  31.360  28.548  1.00  0.00    -0.014 A 
ATOM     80  C   UNL A   1      48.186  32.018  29.196  1.00  0.00     0.010 A 
ATOM     81  C   UNL A   1      46.670  31.924  27.337  1.00  0.00     0.010 A 
ATOM     82  C   UNL A   1      48.864  33.088  28.592  1.00  0.00     0.020 A 
ATOM     83  C   UNL A   1      47.362  32.967  26.705  1.00  0.00     0.020 A 
ATOM     84  C   UNL A   1      48.477  33.524  27.325  1.00  0.00     0.054 A 
BRANCH  84  85
ATOM     85  S   UNL A   1      49.494  34.759  26.469  1.00  0.00     0.124 S 
ATOM     86  O   UNL A   1      49.057  34.623  25.084  1.00  0.00    -0.237 OA
ATOM     87  O   UNL A   1      49.099  35.998  27.136  1.00  0.00    -0.237 OA
ATOM     88  O   UNL A   1      50.863  34.326  26.738  1.00  0.00    -0.744 OA
ENDBRANCH  84  85
ENDBRANCH  56  79
BRANCH  68  89
ATOM     89  C   UNL A   1      43.562  28.040  33.036  1.00  0.00    -0.014 A 
ATOM     90  C   UNL A   1      43.995  26.735  32.745  1.00  0.00     0.010 A 
ATOM     91  C   UNL A   1      43.856  28.599  34.289  1.00  0.00     0.010 A 
ATOM     92  C   UNL A   1      44.737  26.010  33.672  1.00  0.00     0.020 A 
ATOM     93  C   UNL A   1      44.603  27.875  35.224  1.00  0.00     0.020 A 
ATOM     94  C   UNL A   1      45.053  26.592  34.900  1.00  0.00     0.054 A 
BRANCH  94  95
ATOM     95  S   UNL A   1      46.121  25.666  36.032  1.00  0.00     0.124 S 
ATOM     96  O   UNL A   1      46.223  24.364  35.377  1.00  0.00    -0.237 OA
ATOM     97  O   UNL A   1      47.343  26.467  36.033  1.00  0.00    -0.237 OA
ATOM     98  O   UNL A   1      45.381  25.670  37.293  1.00  0.00    -0.744 OA
ENDBRANCH  94  95
ENDBRANCH  68  89
ENDBRANCH  42  43
ENDBRANCH  34  37
ENDBRANCH  32  33
ENDBRANCH   1  32
TORSDOF 16
ENDMDL
