MODEL 1
REMARK VINA RESULT:     -11.5      0.000      0.000
REMARK SMILES CC[NH2+][C@]1(C(=O)NCCCNC(=O)c2ccc(-c3c4nc(c(-c5ccc(S(=O)(=O)[O-])cc5)c5ccc([nH]5)c(-c5ccc(S(=O)(=O)[O-])cc5)c5nc(c(-c6ccc(S(=O)(=O)[O-])cc6)c6ccc3[nH]6)C=C5)C=C4)cc2)CC[C@@H](Sc2ccccc2C)C1
REMARK SMILES IDX 9 1 8 2 7 3 5 4 6 5 4 7 74 8 85 9 75 10 76 11 3 12 2 15 1 16
REMARK SMILES IDX 77 17 78 18 79 19 83 20 80 21 82 22 84 23 81 24 10 25 11 26
REMARK SMILES IDX 12 27 13 29 14 30 15 31 73 32 16 33 72 34 17 35 18 36 19 37
REMARK SMILES IDX 66 38 20 39 71 40 65 41 67 42 21 43 70 44 64 45 63 46 22 48
REMARK SMILES IDX 52 49 33 50 51 51 34 52 37 53 50 54 68 55 35 56 36 57 49 59
REMARK SMILES IDX 69 60 38 61 23 62 24 63 32 64 25 65 31 66 26 67 27 68 28 69
REMARK SMILES IDX 29 70 30 71 53 72 54 73 62 74 55 75 61 76 56 77 57 78 58 79
REMARK SMILES IDX 59 80 60 81 39 82 40 83 48 84 41 85 47 86 42 87 43 88 44 89
REMARK SMILES IDX 45 90 46 91
REMARK H PARENT 7 6 3 13 3 14 11 28 67 47 37 58
REMARK Flexibility Score: inf
ROOT
ATOM      1  C   UNL A   1      34.049  30.328  27.227  1.00  0.00     0.042 C 
ENDROOT
BRANCH   1   2
ATOM      2  C   UNL A   1      33.232  29.278  26.494  1.00  0.00     0.118 C 
BRANCH   2   3
ATOM      3  N   UNL A   1      33.599  29.129  25.097  1.00  0.00    -0.351 N 
ATOM      4  C   UNL A   1      32.952  28.570  24.035  1.00  0.00     0.281 C 
ATOM      5  O   UNL A   1      33.466  28.784  22.929  1.00  0.00    -0.268 OA
ATOM      6  H   UNL A   1      34.483  29.501  24.875  1.00  0.00     0.163 HD
BRANCH   4   7
ATOM      7  C   UNL A   1      31.637  27.734  24.176  1.00  0.00     0.176 C 
ATOM      8  C   UNL A   1      31.697  26.638  23.071  1.00  0.00     0.080 C 
ATOM      9  C   UNL A   1      31.575  26.860  25.438  1.00  0.00     0.094 C 
ATOM     10  C   UNL A   1      30.838  25.475  23.549  1.00  0.00     0.022 C 
ATOM     11  C   UNL A   1      30.877  25.552  25.070  1.00  0.00     0.058 C 
BRANCH   7  12
ATOM     12  N   UNL A   1      30.430  28.573  23.933  1.00  0.00    -0.334 N 
ATOM     13  H   UNL A   1      29.677  28.219  24.524  1.00  0.00     0.347 HD
ATOM     14  H   UNL A   1      30.708  29.531  24.149  1.00  0.00     0.347 HD
BRANCH  12  15
ATOM     15  C   UNL A   1      29.947  28.599  22.556  1.00  0.00     0.257 C 
ATOM     16  C   UNL A   1      29.909  30.013  21.995  1.00  0.00     0.071 C 
ENDBRANCH  12  15
ENDBRANCH   7  12
BRANCH  11  17
ATOM     17  S   UNL A   1      31.529  24.112  26.012  1.00  0.00    -0.122 SA
BRANCH  17  18
ATOM     18  C   UNL A   1      33.110  23.719  25.257  1.00  0.00     0.010 A 
ATOM     19  C   UNL A   1      34.209  24.471  25.708  1.00  0.00     0.015 A 
ATOM     20  C   UNL A   1      33.290  22.866  24.152  1.00  0.00    -0.038 A 
ATOM     21  C   UNL A   1      35.471  24.339  25.124  1.00  0.00     0.001 A 
ATOM     22  C   UNL A   1      34.581  22.705  23.607  1.00  0.00     0.004 A 
ATOM     23  C   UNL A   1      32.192  22.101  23.470  1.00  0.00     0.045 C 
ATOM     24  C   UNL A   1      35.661  23.440  24.083  1.00  0.00     0.000 A 
ENDBRANCH  17  18
ENDBRANCH  11  17
ENDBRANCH   4   7
ENDBRANCH   2   3
ENDBRANCH   1   2
BRANCH   1  25
ATOM     25  C   UNL A   1      35.312  29.781  27.876  1.00  0.00     0.118 C 
BRANCH  25  26
ATOM     26  N   UNL A   1      35.410  30.149  29.281  1.00  0.00    -0.352 N 
ATOM     27  C   UNL A   1      36.417  29.927  30.189  1.00  0.00     0.251 C 
ATOM     28  H   UNL A   1      34.630  30.633  29.637  1.00  0.00     0.163 HD
ATOM     29  O   UNL A   1      36.191  30.097  31.384  1.00  0.00    -0.269 OA
BRANCH  27  30
ATOM     30  C   UNL A   1      37.753  29.475  29.743  1.00  0.00     0.039 A 
ATOM     31  C   UNL A   1      38.133  29.695  28.416  1.00  0.00     0.014 A 
ATOM     32  C   UNL A   1      38.621  28.806  30.612  1.00  0.00     0.014 A 
ATOM     33  C   UNL A   1      39.403  29.306  27.984  1.00  0.00     0.010 A 
ATOM     34  C   UNL A   1      39.919  28.507  30.207  1.00  0.00     0.010 A 
ATOM     35  C   UNL A   1      40.323  28.744  28.887  1.00  0.00    -0.014 A 
BRANCH  35  36
ATOM     36  C   UNL A   1      41.709  28.416  28.464  1.00  0.00     0.031 A 
ATOM     37  C   UNL A   1      42.766  29.487  28.396  1.00  0.00     0.074 A 
ATOM     38  C   UNL A   1      42.000  27.158  28.080  1.00  0.00     0.049 A 
ATOM     39  N   UNL A   1      44.022  29.382  28.043  1.00  0.00    -0.248 NA
ATOM     40  C   UNL A   1      42.353  30.858  28.738  1.00  0.00     0.031 C 
ATOM     41  C   UNL A   1      41.047  26.046  28.028  1.00  0.00     0.029 A 
ATOM     42  N   UNL A   1      43.180  26.601  27.653  1.00  0.00    -0.354 N 
ATOM     43  C   UNL A   1      44.542  30.671  28.099  1.00  0.00     0.074 A 
ATOM     44  C   UNL A   1      43.452  31.547  28.470  1.00  0.00     0.031 C 
ATOM     45  C   UNL A   1      41.687  24.935  27.629  1.00  0.00     0.029 A 
ATOM     46  C   UNL A   1      43.083  25.261  27.362  1.00  0.00     0.049 A 
ATOM     47  H   UNL A   1      44.016  27.113  27.565  1.00  0.00     0.167 HD
ATOM     48  C   UNL A   1      45.813  31.086  27.878  1.00  0.00     0.031 A 
ATOM     49  C   UNL A   1      44.012  24.388  26.926  1.00  0.00     0.031 A 
ATOM     50  C   UNL A   1      46.895  30.208  27.522  1.00  0.00     0.049 A 
ATOM     51  C   UNL A   1      45.424  24.862  26.724  1.00  0.00     0.074 A 
ATOM     52  C   UNL A   1      48.236  30.515  27.360  1.00  0.00     0.029 A 
ATOM     53  N   UNL A   1      46.763  28.852  27.261  1.00  0.00    -0.354 N 
ATOM     54  N   UNL A   1      45.916  26.068  26.878  1.00  0.00    -0.248 NA
ATOM     55  C   UNL A   1      46.406  23.854  26.306  1.00  0.00     0.031 C 
ATOM     56  C   UNL A   1      48.903  29.357  26.946  1.00  0.00     0.029 A 
ATOM     57  C   UNL A   1      47.991  28.314  26.909  1.00  0.00     0.049 A 
ATOM     58  H   UNL A   1      45.921  28.346  27.319  1.00  0.00     0.167 HD
ATOM     59  C   UNL A   1      47.271  25.962  26.587  1.00  0.00     0.074 A 
ATOM     60  C   UNL A   1      47.523  24.568  26.277  1.00  0.00     0.031 C 
ATOM     61  C   UNL A   1      48.221  26.931  26.576  1.00  0.00     0.031 A 
BRANCH  48  62
ATOM     62  C   UNL A   1      46.093  32.562  28.007  1.00  0.00    -0.014 A 
ATOM     63  C   UNL A   1      46.469  33.131  29.238  1.00  0.00     0.010 A 
ATOM     64  C   UNL A   1      46.003  33.390  26.873  1.00  0.00     0.010 A 
ATOM     65  C   UNL A   1      46.695  34.507  29.344  1.00  0.00     0.020 A 
ATOM     66  C   UNL A   1      46.258  34.761  26.968  1.00  0.00     0.020 A 
ATOM     67  C   UNL A   1      46.580  35.314  28.209  1.00  0.00     0.054 A 
BRANCH  67  68
ATOM     68  S   UNL A   1      46.884  37.095  28.375  1.00  0.00     0.124 S 
ATOM     69  O   UNL A   1      46.234  37.623  27.177  1.00  0.00    -0.237 OA
ATOM     70  O   UNL A   1      46.227  37.416  29.638  1.00  0.00    -0.237 OA
ATOM     71  O   UNL A   1      48.341  37.198  28.389  1.00  0.00    -0.744 OA
ENDBRANCH  67  68
ENDBRANCH  48  62
BRANCH  49  72
ATOM     72  C   UNL A   1      43.629  22.972  26.680  1.00  0.00    -0.014 A 
ATOM     73  C   UNL A   1      44.022  22.318  25.499  1.00  0.00     0.010 A 
ATOM     74  C   UNL A   1      42.908  22.253  27.651  1.00  0.00     0.010 A 
ATOM     75  C   UNL A   1      43.697  20.974  25.291  1.00  0.00     0.020 A 
ATOM     76  C   UNL A   1      42.605  20.903  27.461  1.00  0.00     0.020 A 
ATOM     77  C   UNL A   1      42.996  20.273  26.278  1.00  0.00     0.054 A 
BRANCH  77  78
ATOM     78  S   UNL A   1      42.660  18.508  26.024  1.00  0.00     0.124 S 
ATOM     79  O   UNL A   1      43.015  17.941  27.321  1.00  0.00    -0.237 OA
ATOM     80  O   UNL A   1      41.236  18.501  25.697  1.00  0.00    -0.237 OA
ATOM     81  O   UNL A   1      43.545  18.148  24.918  1.00  0.00    -0.744 OA
ENDBRANCH  77  78
ENDBRANCH  49  72
BRANCH  61  82
ATOM     82  C   UNL A   1      49.623  26.510  26.220  1.00  0.00    -0.014 A 
ATOM     83  C   UNL A   1      50.153  26.757  24.941  1.00  0.00     0.010 A 
ATOM     84  C   UNL A   1      50.427  25.878  27.185  1.00  0.00     0.010 A 
ATOM     85  C   UNL A   1      51.446  26.336  24.618  1.00  0.00     0.020 A 
ATOM     86  C   UNL A   1      51.731  25.482  26.876  1.00  0.00     0.020 A 
ATOM     87  C   UNL A   1      52.224  25.695  25.587  1.00  0.00     0.054 A 
BRANCH  87  88
ATOM     88  S   UNL A   1      53.902  25.166  25.149  1.00  0.00     0.124 S 
ATOM     89  O   UNL A   1      53.731  23.725  24.980  1.00  0.00    -0.237 OA
ATOM     90  O   UNL A   1      54.166  25.915  23.923  1.00  0.00    -0.237 OA
ATOM     91  O   UNL A   1      54.704  25.567  26.302  1.00  0.00    -0.744 OA
ENDBRANCH  87  88
ENDBRANCH  61  82
ENDBRANCH  35  36
ENDBRANCH  27  30
ENDBRANCH  25  26
ENDBRANCH   1  25
TORSDOF 17
ENDMDL
MODEL 2
REMARK VINA RESULT:     -11.3      2.673      8.984
REMARK SMILES CC[NH2+][C@]1(C(=O)NCCCNC(=O)c2ccc(-c3c4nc(c(-c5ccc(S(=O)(=O)[O-])cc5)c5ccc([nH]5)c(-c5ccc(S(=O)(=O)[O-])cc5)c5nc(c(-c6ccc(S(=O)(=O)[O-])cc6)c6ccc3[nH]6)C=C5)C=C4)cc2)CC[C@@H](Sc2ccccc2C)C1
REMARK SMILES IDX 9 1 8 2 7 3 5 4 6 5 4 7 74 8 85 9 75 10 76 11 3 12 2 15 1 16
REMARK SMILES IDX 77 17 78 18 79 19 83 20 80 21 82 22 84 23 81 24 10 25 11 26
REMARK SMILES IDX 12 27 13 29 14 30 15 31 73 32 16 33 72 34 17 35 18 36 19 37
REMARK SMILES IDX 66 38 20 39 71 40 65 41 67 42 21 43 70 44 64 45 63 46 22 48
REMARK SMILES IDX 52 49 33 50 51 51 34 52 37 53 50 54 68 55 35 56 36 57 49 59
REMARK SMILES IDX 69 60 38 61 23 62 24 63 32 64 25 65 31 66 26 67 27 68 28 69
REMARK SMILES IDX 29 70 30 71 53 72 54 73 62 74 55 75 61 76 56 77 57 78 58 79
REMARK SMILES IDX 59 80 60 81 39 82 40 83 48 84 41 85 47 86 42 87 43 88 44 89
REMARK SMILES IDX 45 90 46 91
REMARK H PARENT 7 6 3 13 3 14 11 28 67 47 37 58
REMARK Flexibility Score: inf
ROOT
ATOM      1  C   UNL A   1      38.252  21.095  24.951  1.00  0.00     0.042 C 
ENDROOT
BRANCH   1   2
ATOM      2  C   UNL A   1      36.806  20.640  25.054  1.00  0.00     0.118 C 
BRANCH   2   3
ATOM      3  N   UNL A   1      36.056  21.323  26.092  1.00  0.00    -0.351 N 
ATOM      4  C   UNL A   1      34.744  21.683  26.187  1.00  0.00     0.281 C 
ATOM      5  O   UNL A   1      34.385  22.085  27.301  1.00  0.00    -0.268 OA
ATOM      6  H   UNL A   1      36.597  21.574  26.875  1.00  0.00     0.163 HD
BRANCH   4   7
ATOM      7  C   UNL A   1      33.740  21.582  24.992  1.00  0.00     0.176 C 
ATOM      8  C   UNL A   1      32.392  22.172  25.504  1.00  0.00     0.080 C 
ATOM      9  C   UNL A   1      34.042  22.537  23.827  1.00  0.00     0.094 C 
ATOM     10  C   UNL A   1      31.633  22.677  24.284  1.00  0.00     0.022 C 
ATOM     11  C   UNL A   1      32.710  23.030  23.266  1.00  0.00     0.058 C 
BRANCH   7  12
ATOM     12  N   UNL A   1      33.505  20.164  24.598  1.00  0.00    -0.334 N 
ATOM     13  H   UNL A   1      32.940  20.164  23.748  1.00  0.00     0.347 HD
ATOM     14  H   UNL A   1      34.431  19.751  24.478  1.00  0.00     0.347 HD
BRANCH  12  15
ATOM     15  C   UNL A   1      32.825  19.337  25.590  1.00  0.00     0.257 C 
ATOM     16  C   UNL A   1      32.938  17.855  25.266  1.00  0.00     0.071 C 
ENDBRANCH  12  15
ENDBRANCH   7  12
BRANCH  11  17
ATOM     17  S   UNL A   1      32.802  24.758  22.640  1.00  0.00    -0.122 SA
BRANCH  17  18
ATOM     18  C   UNL A   1      32.499  25.803  24.067  1.00  0.00     0.010 A 
ATOM     19  C   UNL A   1      33.605  26.037  24.903  1.00  0.00     0.015 A 
ATOM     20  C   UNL A   1      31.232  26.244  24.495  1.00  0.00    -0.038 A 
ATOM     21  C   UNL A   1      33.477  26.741  26.103  1.00  0.00     0.001 A 
ATOM     22  C   UNL A   1      31.127  26.998  25.682  1.00  0.00     0.004 A 
ATOM     23  C   UNL A   1      29.939  25.957  23.786  1.00  0.00     0.045 C 
ATOM     24  C   UNL A   1      32.238  27.239  26.484  1.00  0.00     0.000 A 
ENDBRANCH  17  18
ENDBRANCH  11  17
ENDBRANCH   4   7
ENDBRANCH   2   3
ENDBRANCH   1   2
BRANCH   1  25
ATOM     25  C   UNL A   1      39.033  20.960  26.249  1.00  0.00     0.118 C 
BRANCH  25  26
ATOM     26  N   UNL A   1      40.050  19.921  26.172  1.00  0.00    -0.352 N 
ATOM     27  C   UNL A   1      41.420  20.021  26.118  1.00  0.00     0.251 C 
ATOM     28  H   UNL A   1      39.702  19.001  26.156  1.00  0.00     0.163 HD
ATOM     29  O   UNL A   1      42.079  19.035  25.803  1.00  0.00    -0.269 OA
BRANCH  27  30
ATOM     30  C   UNL A   1      42.098  21.301  26.419  1.00  0.00     0.039 A 
ATOM     31  C   UNL A   1      42.371  22.185  25.372  1.00  0.00     0.014 A 
ATOM     32  C   UNL A   1      42.496  21.623  27.720  1.00  0.00     0.014 A 
ATOM     33  C   UNL A   1      42.979  23.414  25.640  1.00  0.00     0.010 A 
ATOM     34  C   UNL A   1      43.014  22.885  27.999  1.00  0.00     0.010 A 
ATOM     35  C   UNL A   1      43.271  23.792  26.962  1.00  0.00    -0.014 A 
BRANCH  35  36
ATOM     36  C   UNL A   1      43.828  25.134  27.270  1.00  0.00     0.031 A 
ATOM     37  C   UNL A   1      45.288  25.430  27.050  1.00  0.00     0.074 A 
ATOM     38  C   UNL A   1      43.025  26.073  27.809  1.00  0.00     0.049 A 
ATOM     39  N   UNL A   1      45.945  26.541  27.269  1.00  0.00    -0.248 NA
ATOM     40  C   UNL A   1      46.126  24.329  26.548  1.00  0.00     0.031 C 
ATOM     41  C   UNL A   1      41.610  25.887  28.141  1.00  0.00     0.029 A 
ATOM     42  N   UNL A   1      43.284  27.368  28.180  1.00  0.00    -0.354 N 
ATOM     43  C   UNL A   1      47.272  26.267  26.955  1.00  0.00     0.074 A 
ATOM     44  C   UNL A   1      47.335  24.872  26.579  1.00  0.00     0.031 C 
ATOM     45  C   UNL A   1      41.118  27.036  28.632  1.00  0.00     0.029 A 
ATOM     46  C   UNL A   1      42.187  28.026  28.685  1.00  0.00     0.049 A 
ATOM     47  H   UNL A   1      44.170  27.787  28.091  1.00  0.00     0.167 HD
ATOM     48  C   UNL A   1      48.338  27.104  26.962  1.00  0.00     0.031 A 
ATOM     49  C   UNL A   1      42.053  29.287  29.141  1.00  0.00     0.031 A 
ATOM     50  C   UNL A   1      48.267  28.494  27.324  1.00  0.00     0.049 A 
ATOM     51  C   UNL A   1      43.239  30.208  29.105  1.00  0.00     0.074 A 
ATOM     52  C   UNL A   1      49.271  29.447  27.282  1.00  0.00     0.029 A 
ATOM     53  N   UNL A   1      47.133  29.131  27.806  1.00  0.00    -0.354 N 
ATOM     54  N   UNL A   1      44.465  29.956  28.711  1.00  0.00    -0.248 NA
ATOM     55  C   UNL A   1      43.020  31.587  29.560  1.00  0.00     0.031 C 
ATOM     56  C   UNL A   1      48.757  30.645  27.792  1.00  0.00     0.029 A 
ATOM     57  C   UNL A   1      47.418  30.456  28.095  1.00  0.00     0.049 A 
ATOM     58  H   UNL A   1      46.253  28.704  27.924  1.00  0.00     0.167 HD
ATOM     59  C   UNL A   1      45.162  31.149  28.858  1.00  0.00     0.074 A 
ATOM     60  C   UNL A   1      44.212  32.128  29.350  1.00  0.00     0.031 C 
ATOM     61  C   UNL A   1      46.470  31.411  28.610  1.00  0.00     0.031 A 
BRANCH  48  62
ATOM     62  C   UNL A   1      49.676  26.526  26.575  1.00  0.00    -0.014 A 
ATOM     63  C   UNL A   1      50.530  25.951  27.534  1.00  0.00     0.010 A 
ATOM     64  C   UNL A   1      50.077  26.539  25.227  1.00  0.00     0.010 A 
ATOM     65  C   UNL A   1      51.780  25.449  27.162  1.00  0.00     0.020 A 
ATOM     66  C   UNL A   1      51.313  26.010  24.844  1.00  0.00     0.020 A 
ATOM     67  C   UNL A   1      52.167  25.489  25.819  1.00  0.00     0.054 A 
BRANCH  67  68
ATOM     68  S   UNL A   1      53.793  24.826  25.362  1.00  0.00     0.124 S 
ATOM     69  O   UNL A   1      53.469  23.441  25.027  1.00  0.00    -0.237 OA
ATOM     70  O   UNL A   1      54.179  25.671  24.235  1.00  0.00    -0.237 OA
ATOM     71  O   UNL A   1      54.591  25.003  26.573  1.00  0.00    -0.744 OA
ENDBRANCH  67  68
ENDBRANCH  48  62
BRANCH  49  72
ATOM     72  C   UNL A   1      40.732  29.746  29.647  1.00  0.00    -0.014 A 
ATOM     73  C   UNL A   1      39.698  30.075  28.752  1.00  0.00     0.010 A 
ATOM     74  C   UNL A   1      40.485  29.811  31.030  1.00  0.00     0.010 A 
ATOM     75  C   UNL A   1      38.443  30.465  29.233  1.00  0.00     0.020 A 
ATOM     76  C   UNL A   1      39.225  30.173  31.515  1.00  0.00     0.020 A 
ATOM     77  C   UNL A   1      38.213  30.504  30.612  1.00  0.00     0.054 A 
BRANCH  77  78
ATOM     78  S   UNL A   1      36.553  30.929  31.209  1.00  0.00     0.124 S 
ATOM     79  O   UNL A   1      35.811  31.082  29.961  1.00  0.00    -0.237 OA
ATOM     80  O   UNL A   1      36.201  29.766  32.018  1.00  0.00    -0.237 OA
ATOM     81  O   UNL A   1      36.769  32.161  31.966  1.00  0.00    -0.744 OA
ENDBRANCH  77  78
ENDBRANCH  49  72
BRANCH  61  82
ATOM     82  C   UNL A   1      46.946  32.817  28.864  1.00  0.00    -0.014 A 
ATOM     83  C   UNL A   1      46.868  33.803  27.865  1.00  0.00     0.010 A 
ATOM     84  C   UNL A   1      47.458  33.162  30.128  1.00  0.00     0.010 A 
ATOM     85  C   UNL A   1      47.339  35.096  28.108  1.00  0.00     0.020 A 
ATOM     86  C   UNL A   1      47.902  34.461  30.385  1.00  0.00     0.020 A 
ATOM     87  C   UNL A   1      47.859  35.415  29.366  1.00  0.00     0.054 A 
BRANCH  87  88
ATOM     88  S   UNL A   1      48.455  37.101  29.663  1.00  0.00     0.124 S 
ATOM     89  O   UNL A   1      48.755  37.069  31.093  1.00  0.00    -0.237 OA
ATOM     90  O   UNL A   1      49.616  37.192  28.780  1.00  0.00    -0.237 OA
ATOM     91  O   UNL A   1      47.323  37.941  29.283  1.00  0.00    -0.744 OA
ENDBRANCH  87  88
ENDBRANCH  61  82
ENDBRANCH  35  36
ENDBRANCH  27  30
ENDBRANCH  25  26
ENDBRANCH   1  25
TORSDOF 17
ENDMDL
MODEL 3
REMARK VINA RESULT:     -11.1      1.022      8.337
REMARK SMILES CC[NH2+][C@]1(C(=O)NCCCNC(=O)c2ccc(-c3c4nc(c(-c5ccc(S(=O)(=O)[O-])cc5)c5ccc([nH]5)c(-c5ccc(S(=O)(=O)[O-])cc5)c5nc(c(-c6ccc(S(=O)(=O)[O-])cc6)c6ccc3[nH]6)C=C5)C=C4)cc2)CC[C@@H](Sc2ccccc2C)C1
REMARK SMILES IDX 9 1 8 2 7 3 5 4 6 5 4 7 74 8 85 9 75 10 76 11 3 12 2 15 1 16
REMARK SMILES IDX 77 17 78 18 79 19 83 20 80 21 82 22 84 23 81 24 10 25 11 26
REMARK SMILES IDX 12 27 13 29 14 30 15 31 73 32 16 33 72 34 17 35 18 36 19 37
REMARK SMILES IDX 66 38 20 39 71 40 65 41 67 42 21 43 70 44 64 45 63 46 22 48
REMARK SMILES IDX 52 49 33 50 51 51 34 52 37 53 50 54 68 55 35 56 36 57 49 59
REMARK SMILES IDX 69 60 38 61 23 62 24 63 32 64 25 65 31 66 26 67 27 68 28 69
REMARK SMILES IDX 29 70 30 71 53 72 54 73 62 74 55 75 61 76 56 77 57 78 58 79
REMARK SMILES IDX 59 80 60 81 39 82 40 83 48 84 41 85 47 86 42 87 43 88 44 89
REMARK SMILES IDX 45 90 46 91
REMARK H PARENT 7 6 3 13 3 14 11 28 67 47 37 58
REMARK Flexibility Score: inf
ROOT
ATOM      1  C   UNL A   1      34.156  30.497  27.399  1.00  0.00     0.042 C 
ENDROOT
BRANCH   1   2
ATOM      2  C   UNL A   1      33.416  29.497  26.525  1.00  0.00     0.118 C 
BRANCH   2   3
ATOM      3  N   UNL A   1      33.765  29.588  25.119  1.00  0.00    -0.351 N 
ATOM      4  C   UNL A   1      33.421  28.830  24.039  1.00  0.00     0.281 C 
ATOM      5  O   UNL A   1      33.739  29.300  22.939  1.00  0.00    -0.268 OA
ATOM      6  H   UNL A   1      34.364  30.340  24.904  1.00  0.00     0.163 HD
BRANCH   4   7
ATOM      7  C   UNL A   1      32.657  27.469  24.157  1.00  0.00     0.176 C 
ATOM      8  C   UNL A   1      32.664  26.841  22.732  1.00  0.00     0.080 C 
ATOM      9  C   UNL A   1      33.409  26.387  24.947  1.00  0.00     0.094 C 
ATOM     10  C   UNL A   1      32.535  25.334  22.908  1.00  0.00     0.022 C 
ATOM     11  C   UNL A   1      33.136  25.042  24.277  1.00  0.00     0.058 C 
BRANCH   7  12
ATOM     12  N   UNL A   1      31.240  27.676  24.566  1.00  0.00    -0.334 N 
ATOM     13  H   UNL A   1      30.706  26.856  24.275  1.00  0.00     0.347 HD
ATOM     14  H   UNL A   1      31.258  27.818  25.577  1.00  0.00     0.347 HD
BRANCH  12  15
ATOM     15  C   UNL A   1      30.587  28.858  24.009  1.00  0.00     0.257 C 
ATOM     16  C   UNL A   1      29.625  28.498  22.888  1.00  0.00     0.071 C 
ENDBRANCH  12  15
ENDBRANCH   7  12
BRANCH  11  17
ATOM     17  S   UNL A   1      34.570  23.893  24.387  1.00  0.00    -0.122 SA
BRANCH  17  18
ATOM     18  C   UNL A   1      33.859  22.251  24.539  1.00  0.00     0.010 A 
ATOM     19  C   UNL A   1      33.107  21.804  23.439  1.00  0.00     0.015 A 
ATOM     20  C   UNL A   1      33.851  21.477  25.715  1.00  0.00    -0.038 A 
ATOM     21  C   UNL A   1      32.412  20.592  23.475  1.00  0.00     0.001 A 
ATOM     22  C   UNL A   1      33.188  20.233  25.718  1.00  0.00     0.004 A 
ATOM     23  C   UNL A   1      34.491  21.881  27.012  1.00  0.00     0.045 C 
ATOM     24  C   UNL A   1      32.468  19.796  24.611  1.00  0.00     0.000 A 
ENDBRANCH  17  18
ENDBRANCH  11  17
ENDBRANCH   4   7
ENDBRANCH   2   3
ENDBRANCH   1   2
BRANCH   1  25
ATOM     25  C   UNL A   1      35.462  29.966  27.969  1.00  0.00     0.118 C 
BRANCH  25  26
ATOM     26  N   UNL A   1      35.535  30.126  29.414  1.00  0.00    -0.352 N 
ATOM     27  C   UNL A   1      36.522  29.764  30.299  1.00  0.00     0.251 C 
ATOM     28  H   UNL A   1      34.754  30.563  29.822  1.00  0.00     0.163 HD
ATOM     29  O   UNL A   1      36.275  29.762  31.502  1.00  0.00    -0.269 OA
BRANCH  27  30
ATOM     30  C   UNL A   1      37.863  29.365  29.816  1.00  0.00     0.039 A 
ATOM     31  C   UNL A   1      38.199  29.602  28.481  1.00  0.00     0.014 A 
ATOM     32  C   UNL A   1      38.779  28.731  30.660  1.00  0.00     0.014 A 
ATOM     33  C   UNL A   1      39.472  29.264  28.014  1.00  0.00     0.010 A 
ATOM     34  C   UNL A   1      40.077  28.483  30.221  1.00  0.00     0.010 A 
ATOM     35  C   UNL A   1      40.436  28.737  28.891  1.00  0.00    -0.014 A 
BRANCH  35  36
ATOM     36  C   UNL A   1      41.822  28.465  28.431  1.00  0.00     0.031 A 
ATOM     37  C   UNL A   1      42.224  27.088  27.971  1.00  0.00     0.074 A 
ATOM     38  C   UNL A   1      42.740  29.450  28.486  1.00  0.00     0.049 A 
ATOM     39  N   UNL A   1      43.389  26.670  27.544  1.00  0.00    -0.248 NA
ATOM     40  C   UNL A   1      41.196  26.037  28.028  1.00  0.00     0.031 C 
ATOM     41  C   UNL A   1      42.497  30.808  28.982  1.00  0.00     0.029 A 
ATOM     42  N   UNL A   1      44.065  29.463  28.128  1.00  0.00    -0.354 N 
ATOM     43  C   UNL A   1      43.240  25.309  27.303  1.00  0.00     0.074 A 
ATOM     44  C   UNL A   1      41.887  24.961  27.680  1.00  0.00     0.031 C 
ATOM     45  C   UNL A   1      43.623  31.529  28.864  1.00  0.00     0.029 A 
ATOM     46  C   UNL A   1      44.676  30.679  28.320  1.00  0.00     0.049 A 
ATOM     47  H   UNL A   1      44.533  28.676  27.767  1.00  0.00     0.167 HD
ATOM     48  C   UNL A   1      44.140  24.431  26.798  1.00  0.00     0.031 A 
ATOM     49  C   UNL A   1      45.944  31.071  28.086  1.00  0.00     0.031 A 
ATOM     50  C   UNL A   1      45.480  24.784  26.412  1.00  0.00     0.049 A 
ATOM     51  C   UNL A   1      46.915  30.092  27.491  1.00  0.00     0.074 A 
ATOM     52  C   UNL A   1      46.442  23.990  25.811  1.00  0.00     0.029 A 
ATOM     53  N   UNL A   1      46.055  26.034  26.598  1.00  0.00    -0.354 N 
ATOM     54  N   UNL A   1      46.724  28.832  27.179  1.00  0.00    -0.248 NA
ATOM     55  C   UNL A   1      48.265  30.591  27.203  1.00  0.00     0.031 C 
ATOM     56  C   UNL A   1      47.615  24.743  25.687  1.00  0.00     0.029 A 
ATOM     57  C   UNL A   1      47.367  26.024  26.153  1.00  0.00     0.049 A 
ATOM     58  H   UNL A   1      45.597  26.814  26.988  1.00  0.00     0.167 HD
ATOM     59  C   UNL A   1      47.929  28.389  26.645  1.00  0.00     0.074 A 
ATOM     60  C   UNL A   1      48.830  29.526  26.651  1.00  0.00     0.031 C 
ATOM     61  C   UNL A   1      48.260  27.154  26.191  1.00  0.00     0.031 A 
BRANCH  48  62
ATOM     62  C   UNL A   1      43.701  22.996  26.646  1.00  0.00    -0.014 A 
ATOM     63  C   UNL A   1      43.020  22.326  27.680  1.00  0.00     0.010 A 
ATOM     64  C   UNL A   1      43.952  22.313  25.442  1.00  0.00     0.010 A 
ATOM     65  C   UNL A   1      42.649  20.986  27.533  1.00  0.00     0.020 A 
ATOM     66  C   UNL A   1      43.555  20.983  25.279  1.00  0.00     0.020 A 
ATOM     67  C   UNL A   1      42.926  20.321  26.335  1.00  0.00     0.054 A 
BRANCH  67  68
ATOM     68  S   UNL A   1      42.428  18.585  26.170  1.00  0.00     0.124 S 
ATOM     69  O   UNL A   1      42.650  18.079  27.522  1.00  0.00    -0.237 OA
ATOM     70  O   UNL A   1      41.031  18.689  25.760  1.00  0.00    -0.237 OA
ATOM     71  O   UNL A   1      43.336  18.060  25.152  1.00  0.00    -0.744 OA
ENDBRANCH  67  68
ENDBRANCH  48  62
BRANCH  49  72
ATOM     72  C   UNL A   1      46.347  32.469  28.398  1.00  0.00    -0.014 A 
ATOM     73  C   UNL A   1      46.207  33.486  27.437  1.00  0.00     0.010 A 
ATOM     74  C   UNL A   1      46.831  32.800  29.677  1.00  0.00     0.010 A 
ATOM     75  C   UNL A   1      46.547  34.807  27.748  1.00  0.00     0.020 A 
ATOM     76  C   UNL A   1      47.145  34.122  30.001  1.00  0.00     0.020 A 
ATOM     77  C   UNL A   1      47.007  35.117  29.032  1.00  0.00     0.054 A 
BRANCH  77  78
ATOM     78  S   UNL A   1      47.361  36.850  29.439  1.00  0.00     0.124 S 
ATOM     79  O   UNL A   1      48.818  36.886  29.369  1.00  0.00    -0.237 OA
ATOM     80  O   UNL A   1      46.656  37.572  28.383  1.00  0.00    -0.237 OA
ATOM     81  O   UNL A   1      46.793  37.008  30.776  1.00  0.00    -0.744 OA
ENDBRANCH  77  78
ENDBRANCH  49  72
BRANCH  61  82
ATOM     82  C   UNL A   1      49.658  26.973  25.659  1.00  0.00    -0.014 A 
ATOM     83  C   UNL A   1      50.684  26.460  26.473  1.00  0.00     0.010 A 
ATOM     84  C   UNL A   1      49.943  27.302  24.322  1.00  0.00     0.010 A 
ATOM     85  C   UNL A   1      51.981  26.324  25.973  1.00  0.00     0.020 A 
ATOM     86  C   UNL A   1      51.233  27.139  23.810  1.00  0.00     0.020 A 
ATOM     87  C   UNL A   1      52.248  26.670  24.645  1.00  0.00     0.054 A 
BRANCH  87  88
ATOM     88  S   UNL A   1      53.937  26.476  24.015  1.00  0.00     0.124 S 
ATOM     89  O   UNL A   1      54.404  25.307  24.755  1.00  0.00    -0.237 OA
ATOM     90  O   UNL A   1      53.724  26.271  22.584  1.00  0.00    -0.237 OA
ATOM     91  O   UNL A   1      54.586  27.736  24.367  1.00  0.00    -0.744 OA
ENDBRANCH  87  88
ENDBRANCH  61  82
ENDBRANCH  35  36
ENDBRANCH  27  30
ENDBRANCH  25  26
ENDBRANCH   1  25
TORSDOF 17
ENDMDL
