MODEL 1
REMARK VINA RESULT:      -9.7      0.000      0.000
REMARK SMILES COc1ccc(/C=C/c2cc(OC)cc(OC)c2/C=C/C(=O)NCCCNC(=O)c2ccc(-c3c4nc(c(-c5ccc(S(=O)(=O)[O-])cc5)c5ccc([nH]5)c(-c5ccc(S(=O)(=O)[O-])cc5)c5nc(c(-c6ccc(S(=O)(=O)[O-])cc6)c6ccc3[nH]6)C=C5)C=C4)cc2)cc1
REMARK SMILES IDX 24 1 23 2 21 3 22 4 20 6 19 7 18 8 9 9 10 10 11 11 15 12
REMARK SMILES IDX 14 13 8 14 7 15 6 16 3 17 4 18 91 19 5 20 90 21 2 22 1 23
REMARK SMILES IDX 12 24 13 25 16 26 17 27 25 28 26 29 27 30 28 31 29 33 30 34
REMARK SMILES IDX 31 35 89 36 32 37 88 38 33 39 34 40 35 41 82 42 36 43 87 44
REMARK SMILES IDX 81 45 83 46 37 47 86 48 80 49 79 50 38 52 68 53 49 54 67 55
REMARK SMILES IDX 50 56 53 57 66 58 84 59 51 60 52 61 65 63 85 64 54 65 39 66
REMARK SMILES IDX 40 67 48 68 41 69 47 70 42 71 43 72 44 73 45 74 46 75 69 76
REMARK SMILES IDX 70 77 78 78 71 79 77 80 72 81 73 82 74 83 75 84 76 85 55 86
REMARK SMILES IDX 56 87 64 88 57 89 63 90 58 91 59 92 60 93 61 94 62 95
REMARK H PARENT 23 5 27 32 83 51 53 62
REMARK Flexibility Score: inf
ROOT
ATOM      1  C   UNL A   1      33.350  31.830  28.022  1.00  0.00     0.118 C 
ENDROOT
BRANCH   1   2
ATOM      2  N   UNL A   1      34.688  31.300  27.872  1.00  0.00    -0.352 N 
ATOM      3  C   UNL A   1      35.037  30.073  27.406  1.00  0.00     0.244 C 
ATOM      4  O   UNL A   1      36.210  29.745  27.274  1.00  0.00    -0.270 OA
ATOM      5  H   UNL A   1      35.427  31.894  28.138  1.00  0.00     0.163 HD
BRANCH   3   6
ATOM      6  C   UNL A   1      33.957  29.155  27.000  1.00  0.00     0.072 C 
ATOM      7  C   UNL A   1      34.116  28.358  25.933  1.00  0.00     0.018 C 
BRANCH   7   8
ATOM      8  C   UNL A   1      33.018  27.552  25.384  1.00  0.00     0.024 A 
ATOM      9  C   UNL A   1      33.224  26.150  25.208  1.00  0.00    -0.011 A 
ATOM     10  C   UNL A   1      32.216  25.359  24.628  1.00  0.00     0.055 A 
ATOM     11  C   UNL A   1      31.022  25.926  24.195  1.00  0.00     0.123 A 
ATOM     12  C   UNL A   1      31.790  28.114  24.965  1.00  0.00     0.130 A 
ATOM     13  C   UNL A   1      30.810  27.284  24.392  1.00  0.00     0.093 A 
BRANCH   9  14
ATOM     14  C   UNL A   1      34.489  25.438  25.510  1.00  0.00     0.009 C 
ATOM     15  C   UNL A   1      34.871  24.277  24.947  1.00  0.00     0.009 C 
BRANCH  15  16
ATOM     16  C   UNL A   1      36.119  23.545  25.266  1.00  0.00    -0.025 A 
ATOM     17  C   UNL A   1      38.596  22.288  25.853  1.00  0.00     0.118 A 
ATOM     18  C   UNL A   1      37.693  21.706  24.965  1.00  0.00     0.047 A 
ATOM     19  C   UNL A   1      38.266  23.501  26.452  1.00  0.00     0.047 A 
ATOM     20  C   UNL A   1      36.463  22.319  24.682  1.00  0.00     0.012 A 
ATOM     21  C   UNL A   1      37.030  24.111  26.175  1.00  0.00     0.012 A 
BRANCH  17  22
ATOM     22  O   UNL A   1      39.767  21.607  26.025  1.00  0.00    -0.497 OA
ATOM     23  C   UNL A   1      40.915  22.397  26.320  1.00  0.00     0.278 C 
ENDBRANCH  17  22
ENDBRANCH  15  16
ENDBRANCH   9  14
BRANCH  11  24
ATOM     24  O   UNL A   1      30.139  25.073  23.590  1.00  0.00    -0.497 OA
ATOM     25  C   UNL A   1      30.647  23.781  23.270  1.00  0.00     0.278 C 
ENDBRANCH  11  24
BRANCH  12  26
ATOM     26  O   UNL A   1      31.329  29.404  24.980  1.00  0.00    -0.496 OA
ATOM     27  C   UNL A   1      30.330  29.891  24.106  1.00  0.00     0.278 C 
ENDBRANCH  12  26
ENDBRANCH   7   8
ENDBRANCH   3   6
ENDBRANCH   1   2
BRANCH   1  28
ATOM     28  C   UNL A   1      33.250  33.242  27.474  1.00  0.00     0.042 C 
BRANCH  28  29
ATOM     29  C   UNL A   1      34.089  34.228  28.266  1.00  0.00     0.118 C 
BRANCH  29  30
ATOM     30  N   UNL A   1      33.322  34.866  29.333  1.00  0.00    -0.352 N 
ATOM     31  C   UNL A   1      33.460  34.755  30.692  1.00  0.00     0.251 C 
ATOM     32  H   UNL A   1      32.600  35.464  29.031  1.00  0.00     0.163 HD
ATOM     33  O   UNL A   1      32.565  35.148  31.431  1.00  0.00    -0.269 OA
BRANCH  31  34
ATOM     34  C   UNL A   1      34.702  34.179  31.244  1.00  0.00     0.039 A 
ATOM     35  C   UNL A   1      34.711  32.852  31.675  1.00  0.00     0.014 A 
ATOM     36  C   UNL A   1      35.851  34.967  31.359  1.00  0.00     0.014 A 
ATOM     37  C   UNL A   1      35.885  32.311  32.197  1.00  0.00     0.010 A 
ATOM     38  C   UNL A   1      37.044  34.395  31.764  1.00  0.00     0.010 A 
ATOM     39  C   UNL A   1      37.062  33.075  32.232  1.00  0.00    -0.014 A 
BRANCH  39  40
ATOM     40  C   UNL A   1      38.311  32.551  32.829  1.00  0.00     0.031 A 
ATOM     41  C   UNL A   1      39.229  31.703  31.987  1.00  0.00     0.074 A 
ATOM     42  C   UNL A   1      38.587  32.791  34.125  1.00  0.00     0.049 A 
ATOM     43  N   UNL A   1      40.335  31.094  32.328  1.00  0.00    -0.248 NA
ATOM     44  C   UNL A   1      38.834  31.480  30.585  1.00  0.00     0.031 C 
ATOM     45  C   UNL A   1      37.748  33.564  35.043  1.00  0.00     0.029 A 
ATOM     46  N   UNL A   1      39.654  32.405  34.892  1.00  0.00    -0.354 N 
ATOM     47  C   UNL A   1      40.746  30.400  31.195  1.00  0.00     0.074 A 
ATOM     48  C   UNL A   1      39.739  30.604  30.180  1.00  0.00     0.031 C 
ATOM     49  C   UNL A   1      38.353  33.627  36.240  1.00  0.00     0.029 A 
ATOM     50  C   UNL A   1      39.596  32.864  36.186  1.00  0.00     0.049 A 
ATOM     51  H   UNL A   1      40.392  31.850  34.550  1.00  0.00     0.167 HD
ATOM     52  C   UNL A   1      41.878  29.682  31.006  1.00  0.00     0.031 A 
ATOM     53  C   UNL A   1      40.453  32.691  37.210  1.00  0.00     0.031 A 
ATOM     54  C   UNL A   1      42.883  29.505  32.018  1.00  0.00     0.049 A 
ATOM     55  C   UNL A   1      41.709  31.896  36.974  1.00  0.00     0.074 A 
ATOM     56  C   UNL A   1      44.092  28.839  31.925  1.00  0.00     0.029 A 
ATOM     57  N   UNL A   1      42.798  30.005  33.309  1.00  0.00    -0.354 N 
ATOM     58  N   UNL A   1      42.109  31.288  35.881  1.00  0.00    -0.248 NA
ATOM     59  C   UNL A   1      42.640  31.785  38.103  1.00  0.00     0.031 C 
ATOM     60  C   UNL A   1      44.714  28.894  33.176  1.00  0.00     0.029 A 
ATOM     61  C   UNL A   1      43.926  29.653  34.027  1.00  0.00     0.049 A 
ATOM     62  H   UNL A   1      42.045  30.532  33.662  1.00  0.00     0.167 HD
ATOM     63  C   UNL A   1      43.358  30.757  36.180  1.00  0.00     0.074 A 
ATOM     64  C   UNL A   1      43.650  31.126  37.551  1.00  0.00     0.031 C 
ATOM     65  C   UNL A   1      44.195  30.036  35.391  1.00  0.00     0.031 A 
BRANCH  52  66
ATOM     66  C   UNL A   1      42.076  29.038  29.657  1.00  0.00    -0.014 A 
ATOM     67  C   UNL A   1      42.819  29.675  28.645  1.00  0.00     0.010 A 
ATOM     68  C   UNL A   1      41.528  27.769  29.401  1.00  0.00     0.010 A 
ATOM     69  C   UNL A   1      42.966  29.081  27.390  1.00  0.00     0.020 A 
ATOM     70  C   UNL A   1      41.702  27.153  28.158  1.00  0.00     0.020 A 
ATOM     71  C   UNL A   1      42.404  27.823  27.154  1.00  0.00     0.054 A 
BRANCH  71  72
ATOM     72  S   UNL A   1      42.629  27.065  25.521  1.00  0.00     0.124 S 
ATOM     73  O   UNL A   1      43.994  26.551  25.613  1.00  0.00    -0.237 OA
ATOM     74  O   UNL A   1      41.578  26.051  25.492  1.00  0.00    -0.237 OA
ATOM     75  O   UNL A   1      42.445  28.177  24.593  1.00  0.00    -0.744 OA
ENDBRANCH  71  72
ENDBRANCH  52  66
BRANCH  53  76
ATOM     76  C   UNL A   1      40.168  33.312  38.532  1.00  0.00    -0.014 A 
ATOM     77  C   UNL A   1      40.674  34.587  38.847  1.00  0.00     0.010 A 
ATOM     78  C   UNL A   1      39.376  32.640  39.481  1.00  0.00     0.010 A 
ATOM     79  C   UNL A   1      40.414  35.165  40.093  1.00  0.00     0.020 A 
ATOM     80  C   UNL A   1      39.089  33.228  40.716  1.00  0.00     0.020 A 
ATOM     81  C   UNL A   1      39.622  34.482  41.019  1.00  0.00     0.054 A 
BRANCH  81  82
ATOM     82  S   UNL A   1      39.264  35.273  42.613  1.00  0.00     0.124 S 
ATOM     83  O   UNL A   1      37.823  35.489  42.528  1.00  0.00    -0.237 OA
ATOM     84  O   UNL A   1      39.697  34.259  43.572  1.00  0.00    -0.237 OA
ATOM     85  O   UNL A   1      40.082  36.484  42.585  1.00  0.00    -0.744 OA
ENDBRANCH  81  82
ENDBRANCH  53  76
BRANCH  65  86
ATOM     86  C   UNL A   1      45.531  29.656  35.971  1.00  0.00    -0.014 A 
ATOM     87  C   UNL A   1      46.657  30.487  35.841  1.00  0.00     0.010 A 
ATOM     88  C   UNL A   1      45.646  28.452  36.691  1.00  0.00     0.010 A 
ATOM     89  C   UNL A   1      47.887  30.094  36.375  1.00  0.00     0.020 A 
ATOM     90  C   UNL A   1      46.865  28.073  37.257  1.00  0.00     0.020 A 
ATOM     91  C   UNL A   1      47.983  28.887  37.076  1.00  0.00     0.054 A 
BRANCH  91  92
ATOM     92  S   UNL A   1      49.587  28.406  37.771  1.00  0.00     0.124 S 
ATOM     93  O   UNL A   1      49.264  27.145  38.433  1.00  0.00    -0.237 OA
ATOM     94  O   UNL A   1      50.430  28.295  36.584  1.00  0.00    -0.237 OA
ATOM     95  O   UNL A   1      49.922  29.510  38.666  1.00  0.00    -0.744 OA
ENDBRANCH  91  92
ENDBRANCH  65  86
ENDBRANCH  39  40
ENDBRANCH  31  34
ENDBRANCH  29  30
ENDBRANCH  28  29
ENDBRANCH   1  28
TORSDOF 19
ENDMDL
MODEL 2
REMARK VINA RESULT:      -9.3      6.140     13.236
REMARK SMILES COc1ccc(/C=C/c2cc(OC)cc(OC)c2/C=C/C(=O)NCCCNC(=O)c2ccc(-c3c4nc(c(-c5ccc(S(=O)(=O)[O-])cc5)c5ccc([nH]5)c(-c5ccc(S(=O)(=O)[O-])cc5)c5nc(c(-c6ccc(S(=O)(=O)[O-])cc6)c6ccc3[nH]6)C=C5)C=C4)cc2)cc1
REMARK SMILES IDX 24 1 23 2 21 3 22 4 20 6 19 7 18 8 9 9 10 10 11 11 15 12
REMARK SMILES IDX 14 13 8 14 7 15 6 16 3 17 4 18 91 19 5 20 90 21 2 22 1 23
REMARK SMILES IDX 12 24 13 25 16 26 17 27 25 28 26 29 27 30 28 31 29 33 30 34
REMARK SMILES IDX 31 35 89 36 32 37 88 38 33 39 34 40 35 41 82 42 36 43 87 44
REMARK SMILES IDX 81 45 83 46 37 47 86 48 80 49 79 50 38 52 68 53 49 54 67 55
REMARK SMILES IDX 50 56 53 57 66 58 84 59 51 60 52 61 65 63 85 64 54 65 39 66
REMARK SMILES IDX 40 67 48 68 41 69 47 70 42 71 43 72 44 73 45 74 46 75 69 76
REMARK SMILES IDX 70 77 78 78 71 79 77 80 72 81 73 82 74 83 75 84 76 85 55 86
REMARK SMILES IDX 56 87 64 88 57 89 63 90 58 91 59 92 60 93 61 94 62 95
REMARK H PARENT 23 5 27 32 83 51 53 62
REMARK Flexibility Score: inf
ROOT
ATOM      1  C   UNL A   1      43.472  37.410  29.762  1.00  0.00     0.118 C 
ENDROOT
BRANCH   1   2
ATOM      2  N   UNL A   1      42.853  36.691  28.670  1.00  0.00    -0.352 N 
ATOM      3  C   UNL A   1      42.062  35.591  28.756  1.00  0.00     0.244 C 
ATOM      4  O   UNL A   1      41.547  35.091  27.763  1.00  0.00    -0.270 OA
ATOM      5  H   UNL A   1      43.025  37.037  27.764  1.00  0.00     0.163 HD
BRANCH   3   6
ATOM      6  C   UNL A   1      41.783  35.043  30.095  1.00  0.00     0.072 C 
ATOM      7  C   UNL A   1      41.407  33.763  30.234  1.00  0.00     0.018 C 
BRANCH   7   8
ATOM      8  C   UNL A   1      40.954  33.212  31.520  1.00  0.00     0.024 A 
ATOM      9  C   UNL A   1      41.736  32.188  32.135  1.00  0.00    -0.011 A 
ATOM     10  C   UNL A   1      41.299  31.595  33.333  1.00  0.00     0.055 A 
ATOM     11  C   UNL A   1      40.098  31.974  33.922  1.00  0.00     0.123 A 
ATOM     12  C   UNL A   1      39.748  33.609  32.140  1.00  0.00     0.130 A 
ATOM     13  C   UNL A   1      39.352  32.990  33.339  1.00  0.00     0.093 A 
BRANCH   9  14
ATOM     14  C   UNL A   1      42.970  31.604  31.555  1.00  0.00     0.009 C 
ATOM     15  C   UNL A   1      43.390  30.342  31.757  1.00  0.00     0.009 C 
BRANCH  15  16
ATOM     16  C   UNL A   1      44.638  29.762  31.205  1.00  0.00    -0.025 A 
ATOM     17  C   UNL A   1      46.992  28.508  30.235  1.00  0.00     0.118 A 
ATOM     18  C   UNL A   1      47.035  29.799  30.760  1.00  0.00     0.047 A 
ATOM     19  C   UNL A   1      45.773  27.838  30.193  1.00  0.00     0.047 A 
ATOM     20  C   UNL A   1      45.871  30.425  31.229  1.00  0.00     0.012 A 
ATOM     21  C   UNL A   1      44.605  28.468  30.655  1.00  0.00     0.012 A 
BRANCH  17  22
ATOM     22  O   UNL A   1      48.196  28.000  29.835  1.00  0.00    -0.497 OA
ATOM     23  C   UNL A   1      49.245  28.039  30.797  1.00  0.00     0.278 C 
ENDBRANCH  17  22
ENDBRANCH  15  16
ENDBRANCH   9  14
BRANCH  11  24
ATOM     24  O   UNL A   1      39.742  31.288  35.052  1.00  0.00    -0.497 OA
ATOM     25  C   UNL A   1      38.375  31.404  35.440  1.00  0.00     0.278 C 
ENDBRANCH  11  24
BRANCH  12  26
ATOM     26  O   UNL A   1      38.797  34.525  31.776  1.00  0.00    -0.496 OA
ATOM     27  C   UNL A   1      37.473  34.524  32.274  1.00  0.00     0.278 C 
ENDBRANCH  12  26
ENDBRANCH   7   8
ENDBRANCH   3   6
ENDBRANCH   1   2
BRANCH   1  28
ATOM     28  C   UNL A   1      44.432  38.470  29.253  1.00  0.00     0.042 C 
BRANCH  28  29
ATOM     29  C   UNL A   1      45.306  37.962  28.121  1.00  0.00     0.118 C 
BRANCH  29  30
ATOM     30  N   UNL A   1      46.726  38.162  28.394  1.00  0.00    -0.352 N 
ATOM     31  C   UNL A   1      47.697  37.238  28.684  1.00  0.00     0.251 C 
ATOM     32  H   UNL A   1      47.031  39.098  28.367  1.00  0.00     0.163 HD
ATOM     33  O   UNL A   1      48.771  37.606  29.147  1.00  0.00    -0.269 OA
BRANCH  31  34
ATOM     34  C   UNL A   1      47.437  35.812  28.411  1.00  0.00     0.039 A 
ATOM     35  C   UNL A   1      47.355  34.913  29.475  1.00  0.00     0.014 A 
ATOM     36  C   UNL A   1      47.301  35.362  27.095  1.00  0.00     0.014 A 
ATOM     37  C   UNL A   1      47.111  33.566  29.215  1.00  0.00     0.010 A 
ATOM     38  C   UNL A   1      46.940  34.050  26.846  1.00  0.00     0.010 A 
ATOM     39  C   UNL A   1      46.888  33.129  27.899  1.00  0.00    -0.014 A 
BRANCH  39  40
ATOM     40  C   UNL A   1      46.679  31.698  27.581  1.00  0.00     0.031 A 
ATOM     41  C   UNL A   1      45.288  31.123  27.657  1.00  0.00     0.074 A 
ATOM     42  C   UNL A   1      47.734  30.917  27.282  1.00  0.00     0.049 A 
ATOM     43  N   UNL A   1      44.895  29.888  27.483  1.00  0.00    -0.248 NA
ATOM     44  C   UNL A   1      44.200  32.051  28.013  1.00  0.00     0.031 C 
ATOM     45  C   UNL A   1      49.128  31.360  27.220  1.00  0.00     0.029 A 
ATOM     46  N   UNL A   1      47.793  29.584  26.972  1.00  0.00    -0.354 N 
ATOM     47  C   UNL A   1      43.526  29.892  27.733  1.00  0.00     0.074 A 
ATOM     48  C   UNL A   1      43.169  31.231  28.138  1.00  0.00     0.031 C 
ATOM     49  C   UNL A   1      49.901  30.324  26.855  1.00  0.00     0.029 A 
ATOM     50  C   UNL A   1      49.064  29.138  26.701  1.00  0.00     0.049 A 
ATOM     51  H   UNL A   1      47.000  29.000  26.948  1.00  0.00     0.167 HD
ATOM     52  C   UNL A   1      42.639  28.877  27.605  1.00  0.00     0.031 A 
ATOM     53  C   UNL A   1      49.502  27.910  26.363  1.00  0.00     0.031 A 
ATOM     54  C   UNL A   1      43.004  27.554  27.178  1.00  0.00     0.049 A 
ATOM     55  C   UNL A   1      48.496  26.800  26.218  1.00  0.00     0.074 A 
ATOM     56  C   UNL A   1      42.185  26.460  26.966  1.00  0.00     0.029 A 
ATOM     57  N   UNL A   1      44.300  27.148  26.891  1.00  0.00    -0.354 N 
ATOM     58  N   UNL A   1      47.198  26.831  26.408  1.00  0.00    -0.248 NA
ATOM     59  C   UNL A   1      49.014  25.494  25.789  1.00  0.00     0.031 C 
ATOM     60  C   UNL A   1      42.992  25.378  26.600  1.00  0.00     0.029 A 
ATOM     61  C   UNL A   1      44.304  25.817  26.515  1.00  0.00     0.049 A 
ATOM     62  H   UNL A   1      45.096  27.722  26.947  1.00  0.00     0.167 HD
ATOM     63  C   UNL A   1      46.738  25.560  26.081  1.00  0.00     0.074 A 
ATOM     64  C   UNL A   1      47.896  24.791  25.673  1.00  0.00     0.031 C 
ATOM     65  C   UNL A   1      45.471  25.073  26.109  1.00  0.00     0.031 A 
BRANCH  52  66
ATOM     66  C   UNL A   1      41.197  29.168  27.934  1.00  0.00    -0.014 A 
ATOM     67  C   UNL A   1      40.214  29.222  26.928  1.00  0.00     0.010 A 
ATOM     68  C   UNL A   1      40.813  29.373  29.272  1.00  0.00     0.010 A 
ATOM     69  C   UNL A   1      38.888  29.524  27.246  1.00  0.00     0.020 A 
ATOM     70  C   UNL A   1      39.481  29.641  29.599  1.00  0.00     0.020 A 
ATOM     71  C   UNL A   1      38.530  29.735  28.580  1.00  0.00     0.054 A 
BRANCH  71  72
ATOM     72  S   UNL A   1      36.797  30.105  28.966  1.00  0.00     0.124 S 
ATOM     73  O   UNL A   1      36.719  29.745  30.380  1.00  0.00    -0.237 OA
ATOM     74  O   UNL A   1      36.703  31.533  28.676  1.00  0.00    -0.237 OA
ATOM     75  O   UNL A   1      36.047  29.238  28.062  1.00  0.00    -0.744 OA
ENDBRANCH  71  72
ENDBRANCH  52  66
BRANCH  53  76
ATOM     76  C   UNL A   1      50.949  27.681  26.102  1.00  0.00    -0.014 A 
ATOM     77  C   UNL A   1      51.477  27.843  24.808  1.00  0.00     0.010 A 
ATOM     78  C   UNL A   1      51.814  27.315  27.150  1.00  0.00     0.010 A 
ATOM     79  C   UNL A   1      52.835  27.617  24.562  1.00  0.00     0.020 A 
ATOM     80  C   UNL A   1      53.178  27.120  26.914  1.00  0.00     0.020 A 
ATOM     81  C   UNL A   1      53.677  27.259  25.618  1.00  0.00     0.054 A 
BRANCH  81  82
ATOM     82  S   UNL A   1      55.444  27.015  25.282  1.00  0.00     0.124 S 
ATOM     83  O   UNL A   1      55.455  25.693  24.664  1.00  0.00    -0.237 OA
ATOM     84  O   UNL A   1      55.752  28.133  24.394  1.00  0.00    -0.237 OA
ATOM     85  O   UNL A   1      56.057  27.093  26.606  1.00  0.00    -0.744 OA
ENDBRANCH  81  82
ENDBRANCH  53  76
BRANCH  65  86
ATOM     86  C   UNL A   1      45.265  23.663  25.623  1.00  0.00    -0.014 A 
ATOM     87  C   UNL A   1      45.134  22.586  26.515  1.00  0.00     0.010 A 
ATOM     88  C   UNL A   1      45.167  23.425  24.239  1.00  0.00     0.010 A 
ATOM     89  C   UNL A   1      44.963  21.287  26.030  1.00  0.00     0.020 A 
ATOM     90  C   UNL A   1      44.961  22.133  23.752  1.00  0.00     0.020 A 
ATOM     91  C   UNL A   1      44.882  21.069  24.650  1.00  0.00     0.054 A 
BRANCH  91  92
ATOM     92  S   UNL A   1      44.647  19.376  24.046  1.00  0.00     0.124 S 
ATOM     93  O   UNL A   1      45.918  18.749  24.400  1.00  0.00    -0.237 OA
ATOM     94  O   UNL A   1      43.488  18.921  24.808  1.00  0.00    -0.237 OA
ATOM     95  O   UNL A   1      44.416  19.548  22.614  1.00  0.00    -0.744 OA
ENDBRANCH  91  92
ENDBRANCH  65  86
ENDBRANCH  39  40
ENDBRANCH  31  34
ENDBRANCH  29  30
ENDBRANCH  28  29
ENDBRANCH   1  28
TORSDOF 19
ENDMDL
MODEL 3
REMARK VINA RESULT:      -9.2      5.119      9.487
REMARK SMILES COc1ccc(/C=C/c2cc(OC)cc(OC)c2/C=C/C(=O)NCCCNC(=O)c2ccc(-c3c4nc(c(-c5ccc(S(=O)(=O)[O-])cc5)c5ccc([nH]5)c(-c5ccc(S(=O)(=O)[O-])cc5)c5nc(c(-c6ccc(S(=O)(=O)[O-])cc6)c6ccc3[nH]6)C=C5)C=C4)cc2)cc1
REMARK SMILES IDX 24 1 23 2 21 3 22 4 20 6 19 7 18 8 9 9 10 10 11 11 15 12
REMARK SMILES IDX 14 13 8 14 7 15 6 16 3 17 4 18 91 19 5 20 90 21 2 22 1 23
REMARK SMILES IDX 12 24 13 25 16 26 17 27 25 28 26 29 27 30 28 31 29 33 30 34
REMARK SMILES IDX 31 35 89 36 32 37 88 38 33 39 34 40 35 41 82 42 36 43 87 44
REMARK SMILES IDX 81 45 83 46 37 47 86 48 80 49 79 50 38 52 68 53 49 54 67 55
REMARK SMILES IDX 50 56 53 57 66 58 84 59 51 60 52 61 65 63 85 64 54 65 39 66
REMARK SMILES IDX 40 67 48 68 41 69 47 70 42 71 43 72 44 73 45 74 46 75 69 76
REMARK SMILES IDX 70 77 78 78 71 79 77 80 72 81 73 82 74 83 75 84 76 85 55 86
REMARK SMILES IDX 56 87 64 88 57 89 63 90 58 91 59 92 60 93 61 94 62 95
REMARK H PARENT 23 5 27 32 83 51 53 62
REMARK Flexibility Score: inf
ROOT
ATOM      1  C   UNL A   1      44.103  23.285  32.235  1.00  0.00     0.118 C 
ENDROOT
BRANCH   1   2
ATOM      2  N   UNL A   1      44.831  24.262  31.455  1.00  0.00    -0.352 N 
ATOM      3  C   UNL A   1      44.537  24.693  30.201  1.00  0.00     0.244 C 
ATOM      4  O   UNL A   1      45.199  25.567  29.651  1.00  0.00    -0.270 OA
ATOM      5  H   UNL A   1      45.627  24.656  31.879  1.00  0.00     0.163 HD
BRANCH   3   6
ATOM      6  C   UNL A   1      43.353  24.124  29.533  1.00  0.00     0.072 C 
ATOM      7  C   UNL A   1      42.980  24.575  28.325  1.00  0.00     0.018 C 
BRANCH   7   8
ATOM      8  C   UNL A   1      41.719  24.167  27.691  1.00  0.00     0.024 A 
ATOM      9  C   UNL A   1      40.648  25.109  27.638  1.00  0.00    -0.011 A 
ATOM     10  C   UNL A   1      39.407  24.732  27.094  1.00  0.00     0.055 A 
ATOM     11  C   UNL A   1      39.194  23.440  26.625  1.00  0.00     0.123 A 
ATOM     12  C   UNL A   1      41.502  22.864  27.186  1.00  0.00     0.130 A 
ATOM     13  C   UNL A   1      40.245  22.532  26.650  1.00  0.00     0.093 A 
BRANCH   9  14
ATOM     14  C   UNL A   1      40.696  26.476  28.210  1.00  0.00     0.009 C 
ATOM     15  C   UNL A   1      40.676  26.760  29.525  1.00  0.00     0.009 C 
BRANCH  15  16
ATOM     16  C   UNL A   1      40.693  28.124  30.103  1.00  0.00    -0.025 A 
ATOM     17  C   UNL A   1      40.877  30.762  31.135  1.00  0.00     0.118 A 
ATOM     18  C   UNL A   1      40.533  29.694  31.963  1.00  0.00     0.047 A 
ATOM     19  C   UNL A   1      41.131  30.517  29.788  1.00  0.00     0.047 A 
ATOM     20  C   UNL A   1      40.430  28.392  31.453  1.00  0.00     0.012 A 
ATOM     21  C   UNL A   1      41.019  29.213  29.276  1.00  0.00     0.012 A 
BRANCH  17  22
ATOM     22  O   UNL A   1      40.969  31.976  31.756  1.00  0.00    -0.497 OA
ATOM     23  C   UNL A   1      41.044  33.113  30.901  1.00  0.00     0.278 C 
ENDBRANCH  17  22
ENDBRANCH  15  16
ENDBRANCH   9  14
BRANCH  11  24
ATOM     24  O   UNL A   1      37.932  23.167  26.173  1.00  0.00    -0.497 OA
ATOM     25  C   UNL A   1      37.821  22.063  25.278  1.00  0.00     0.278 C 
ENDBRANCH  11  24
BRANCH  12  26
ATOM     26  O   UNL A   1      42.316  21.764  27.130  1.00  0.00    -0.496 OA
ATOM     27  C   UNL A   1      42.861  21.250  25.930  1.00  0.00     0.278 C 
ENDBRANCH  12  26
ENDBRANCH   7   8
ENDBRANCH   3   6
ENDBRANCH   1   2
BRANCH   1  28
ATOM     28  C   UNL A   1      44.315  23.495  33.723  1.00  0.00     0.042 C 
BRANCH  28  29
ATOM     29  C   UNL A   1      43.011  23.493  34.498  1.00  0.00     0.118 C 
BRANCH  29  30
ATOM     30  N   UNL A   1      43.220  23.723  35.924  1.00  0.00    -0.352 N 
ATOM     31  C   UNL A   1      43.664  24.848  36.570  1.00  0.00     0.251 C 
ATOM     32  H   UNL A   1      43.014  22.958  36.508  1.00  0.00     0.163 HD
ATOM     33  O   UNL A   1      44.034  24.777  37.736  1.00  0.00    -0.269 OA
BRANCH  31  34
ATOM     34  C   UNL A   1      43.667  26.137  35.850  1.00  0.00     0.039 A 
ATOM     35  C   UNL A   1      42.469  26.643  35.345  1.00  0.00     0.014 A 
ATOM     36  C   UNL A   1      44.865  26.828  35.655  1.00  0.00     0.014 A 
ATOM     37  C   UNL A   1      42.475  27.860  34.664  1.00  0.00     0.010 A 
ATOM     38  C   UNL A   1      44.850  28.090  35.086  1.00  0.00     0.010 A 
ATOM     39  C   UNL A   1      43.663  28.597  34.543  1.00  0.00    -0.014 A 
BRANCH  39  40
ATOM     40  C   UNL A   1      43.716  29.866  33.781  1.00  0.00     0.031 A 
ATOM     41  C   UNL A   1      44.132  29.837  32.334  1.00  0.00     0.074 A 
ATOM     42  C   UNL A   1      43.445  31.031  34.400  1.00  0.00     0.049 A 
ATOM     43  N   UNL A   1      44.306  30.834  31.505  1.00  0.00    -0.248 NA
ATOM     44  C   UNL A   1      44.427  28.517  31.749  1.00  0.00     0.031 C 
ATOM     45  C   UNL A   1      43.072  31.178  35.808  1.00  0.00     0.029 A 
ATOM     46  N   UNL A   1      43.443  32.313  33.918  1.00  0.00    -0.354 N 
ATOM     47  C   UNL A   1      44.754  30.261  30.319  1.00  0.00     0.074 A 
ATOM     48  C   UNL A   1      44.892  28.844  30.554  1.00  0.00     0.031 C 
ATOM     49  C   UNL A   1      42.840  32.476  36.066  1.00  0.00     0.029 A 
ATOM     50  C   UNL A   1      43.090  33.253  34.856  1.00  0.00     0.049 A 
ATOM     51  H   UNL A   1      43.673  32.540  32.988  1.00  0.00     0.167 HD
ATOM     52  C   UNL A   1      44.997  30.859  29.129  1.00  0.00     0.031 A 
ATOM     53  C   UNL A   1      42.979  34.590  34.749  1.00  0.00     0.031 A 
ATOM     54  C   UNL A   1      44.834  32.269  28.902  1.00  0.00     0.049 A 
ATOM     55  C   UNL A   1      43.246  35.232  33.414  1.00  0.00     0.074 A 
ATOM     56  C   UNL A   1      45.004  32.978  27.727  1.00  0.00     0.029 A 
ATOM     57  N   UNL A   1      44.453  33.185  29.873  1.00  0.00    -0.354 N 
ATOM     58  N   UNL A   1      43.620  34.671  32.288  1.00  0.00    -0.248 NA
ATOM     59  C   UNL A   1      43.054  36.685  33.331  1.00  0.00     0.031 C 
ATOM     60  C   UNL A   1      44.776  34.331  28.000  1.00  0.00     0.029 A 
ATOM     61  C   UNL A   1      44.395  34.454  29.327  1.00  0.00     0.049 A 
ATOM     62  H   UNL A   1      44.254  32.963  30.811  1.00  0.00     0.167 HD
ATOM     63  C   UNL A   1      43.666  35.698  31.351  1.00  0.00     0.074 A 
ATOM     64  C   UNL A   1      43.272  36.909  32.043  1.00  0.00     0.031 C 
ATOM     65  C   UNL A   1      43.996  35.645  30.036  1.00  0.00     0.031 A 
BRANCH  52  66
ATOM     66  C   UNL A   1      45.468  29.985  27.995  1.00  0.00    -0.014 A 
ATOM     67  C   UNL A   1      46.836  29.856  27.690  1.00  0.00     0.010 A 
ATOM     68  C   UNL A   1      44.530  29.267  27.231  1.00  0.00     0.010 A 
ATOM     69  C   UNL A   1      47.253  29.068  26.615  1.00  0.00     0.020 A 
ATOM     70  C   UNL A   1      44.945  28.448  26.176  1.00  0.00     0.020 A 
ATOM     71  C   UNL A   1      46.304  28.370  25.863  1.00  0.00     0.054 A 
BRANCH  71  72
ATOM     72  S   UNL A   1      46.876  27.338  24.486  1.00  0.00     0.124 S 
ATOM     73  O   UNL A   1      48.256  27.055  24.874  1.00  0.00    -0.237 OA
ATOM     74  O   UNL A   1      45.963  26.199  24.539  1.00  0.00    -0.237 OA
ATOM     75  O   UNL A   1      46.724  28.201  23.318  1.00  0.00    -0.744 OA
ENDBRANCH  71  72
ENDBRANCH  52  66
BRANCH  53  76
ATOM     76  C   UNL A   1      42.560  35.400  35.926  1.00  0.00    -0.014 A 
ATOM     77  C   UNL A   1      41.196  35.622  36.192  1.00  0.00     0.010 A 
ATOM     78  C   UNL A   1      43.522  35.942  36.798  1.00  0.00     0.010 A 
ATOM     79  C   UNL A   1      40.805  36.391  37.292  1.00  0.00     0.020 A 
ATOM     80  C   UNL A   1      43.133  36.685  37.916  1.00  0.00     0.020 A 
ATOM     81  C   UNL A   1      41.776  36.916  38.148  1.00  0.00     0.054 A 
BRANCH  81  82
ATOM     82  S   UNL A   1      41.240  37.874  39.594  1.00  0.00     0.124 S 
ATOM     83  O   UNL A   1      42.107  39.046  39.519  1.00  0.00    -0.237 OA
ATOM     84  O   UNL A   1      39.827  38.111  39.308  1.00  0.00    -0.237 OA
ATOM     85  O   UNL A   1      41.499  36.973  40.715  1.00  0.00    -0.744 OA
ENDBRANCH  81  82
ENDBRANCH  53  76
BRANCH  65  86
ATOM     86  C   UNL A   1      43.883  36.922  29.246  1.00  0.00    -0.014 A 
ATOM     87  C   UNL A   1      42.690  37.287  28.599  1.00  0.00     0.010 A 
ATOM     88  C   UNL A   1      44.991  37.787  29.183  1.00  0.00     0.010 A 
ATOM     89  C   UNL A   1      42.625  38.469  27.857  1.00  0.00     0.020 A 
ATOM     90  C   UNL A   1      44.918  38.987  28.473  1.00  0.00     0.020 A 
ATOM     91  C   UNL A   1      43.742  39.309  27.796  1.00  0.00     0.054 A 
BRANCH  91  92
ATOM     92  S   UNL A   1      43.629  40.845  26.839  1.00  0.00     0.124 S 
ATOM     93  O   UNL A   1      42.199  40.917  26.551  1.00  0.00    -0.237 OA
ATOM     94  O   UNL A   1      44.133  41.845  27.776  1.00  0.00    -0.237 OA
ATOM     95  O   UNL A   1      44.484  40.596  25.681  1.00  0.00    -0.744 OA
ENDBRANCH  91  92
ENDBRANCH  65  86
ENDBRANCH  39  40
ENDBRANCH  31  34
ENDBRANCH  29  30
ENDBRANCH  28  29
ENDBRANCH   1  28
TORSDOF 19
ENDMDL
