MODEL 1
REMARK VINA RESULT:     -10.7      0.000      0.000
REMARK SMILES COc1cc2c(cc1OC)-c1c(c(C(=O)Nc3ccc(C(=O)NCCCNC(=O)c4ccc(-c5c6nc(c(-c7ccc(S(=O)(=O)[O-])cc7)c7ccc([nH]7)c(-c7ccc(S(=O)(=O)[O-])cc7)c7nc(c(-c8ccc(S(=O)(=O)[O-])cc8)c8ccc5[nH]8)C=C7)C=C6)cc4)cc3)nn1-c1ccc(F)cc1)C2
REMARK SMILES IDX 25 1 24 2 23 3 21 4 22 5 20 7 17 8 18 9 91 10 19 11 90 12
REMARK SMILES IDX 16 13 14 14 15 15 13 17 3 18 4 19 8 20 5 21 7 22 6 23 101 24
REMARK SMILES IDX 11 25 12 26 93 27 92 28 2 29 1 30 9 31 10 32 94 33 95 34
REMARK SMILES IDX 100 35 96 36 99 37 97 38 98 39 26 40 27 41 28 42 29 44 30 45
REMARK SMILES IDX 31 46 89 47 32 48 88 49 33 50 34 51 35 52 82 53 36 54 87 55
REMARK SMILES IDX 81 56 83 57 37 58 86 59 80 60 79 61 38 63 68 64 49 65 67 66
REMARK SMILES IDX 50 67 53 68 66 69 84 70 51 71 52 72 65 74 85 75 54 76 39 77
REMARK SMILES IDX 40 78 48 79 41 80 47 81 42 82 43 83 44 84 45 85 46 86 69 87
REMARK SMILES IDX 70 88 78 89 71 90 77 91 72 92 73 93 74 94 75 95 76 96 55 97
REMARK SMILES IDX 56 98 64 99 57 100 63 101 58 102 59 103 60 104 61 105 62 106
REMARK H PARENT 23 6 16 16 27 43 83 62 53 73
REMARK Flexibility Score: inf
ROOT
ATOM      1  C   UNL A   1      43.674  21.794  25.265  1.00  0.00     0.042 C 
ENDROOT
BRANCH   1   2
ATOM      2  C   UNL A   1      43.705  23.268  24.868  1.00  0.00     0.118 C 
BRANCH   2   3
ATOM      3  N   UNL A   1      44.994  23.775  24.431  1.00  0.00    -0.352 N 
ATOM      4  C   UNL A   1      46.118  24.210  25.100  1.00  0.00     0.251 C 
ATOM      5  O   UNL A   1      47.136  24.338  24.412  1.00  0.00    -0.269 OA
ATOM      6  H   UNL A   1      45.084  23.816  23.451  1.00  0.00     0.163 HD
BRANCH   4   7
ATOM      7  C   UNL A   1      46.155  24.705  26.519  1.00  0.00     0.039 A 
ATOM      8  C   UNL A   1      45.200  26.090  28.746  1.00  0.00     0.041 A 
ATOM      9  C   UNL A   1      45.947  26.773  27.800  1.00  0.00     0.027 A 
ATOM     10  C   UNL A   1      45.244  24.699  28.758  1.00  0.00     0.027 A 
ATOM     11  C   UNL A   1      46.437  26.073  26.688  1.00  0.00     0.016 A 
ATOM     12  C   UNL A   1      45.734  24.008  27.644  1.00  0.00     0.016 A 
BRANCH   8  13
ATOM     13  N   UNL A   1      44.413  26.724  29.699  1.00  0.00    -0.321 N 
ATOM     14  C   UNL A   1      44.198  26.495  31.043  1.00  0.00     0.276 C 
ATOM     15  O   UNL A   1      43.177  27.029  31.498  1.00  0.00    -0.267 OA
ATOM     16  H   UNL A   1      43.907  27.491  29.344  1.00  0.00     0.170 HD
BRANCH  14  17
ATOM     17  C   UNL A   1      45.167  25.811  31.958  1.00  0.00     0.155 A 
ATOM     18  C   UNL A   1      46.037  21.418  35.987  1.00  0.00     0.161 A 
ATOM     19  C   UNL A   1      45.044  21.766  35.050  1.00  0.00     0.055 A 
ATOM     20  C   UNL A   1      47.291  22.068  35.994  1.00  0.00     0.161 A 
ATOM     21  C   UNL A   1      45.312  22.782  34.140  1.00  0.00    -0.030 A 
ATOM     22  C   UNL A   1      47.526  23.111  35.090  1.00  0.00     0.061 A 
ATOM     23  C   UNL A   1      46.554  23.435  34.168  1.00  0.00     0.008 A 
ATOM     24  C   UNL A   1      44.326  23.436  33.153  1.00  0.00     0.076 C 
ATOM     25  C   UNL A   1      46.437  24.493  33.220  1.00  0.00     0.079 A 
ATOM     26  C   UNL A   1      45.171  24.591  32.702  1.00  0.00     0.016 A 
ATOM     27  N   UNL A   1      47.178  25.523  32.757  1.00  0.00    -0.232 N 
ATOM     28  N   UNL A   1      46.384  26.418  32.125  1.00  0.00    -0.162 NA
BRANCH  18  29
ATOM     29  O   UNL A   1      45.736  20.402  36.856  1.00  0.00    -0.493 OA
ATOM     30  C   UNL A   1      45.714  19.135  36.194  1.00  0.00     0.278 C 
ENDBRANCH  18  29
BRANCH  20  31
ATOM     31  O   UNL A   1      48.365  21.860  36.813  1.00  0.00    -0.493 OA
ATOM     32  C   UNL A   1      49.609  22.455  36.493  1.00  0.00     0.278 C 
ENDBRANCH  20  31
BRANCH  27  33
ATOM     33  C   UNL A   1      48.567  25.706  32.928  1.00  0.00     0.065 A 
ATOM     34  C   UNL A   1      49.056  26.253  34.118  1.00  0.00     0.031 A 
ATOM     35  C   UNL A   1      49.451  25.245  31.938  1.00  0.00     0.031 A 
ATOM     36  C   UNL A   1      50.431  26.223  34.359  1.00  0.00     0.041 A 
ATOM     37  C   UNL A   1      50.823  25.241  32.177  1.00  0.00     0.041 A 
ATOM     38  C   UNL A   1      51.298  25.705  33.397  1.00  0.00     0.123 A 
ATOM     39  F   UNL A   1      52.611  25.642  33.655  1.00  0.00    -0.207 F 
ENDBRANCH  27  33
ENDBRANCH  14  17
ENDBRANCH   8  13
ENDBRANCH   4   7
ENDBRANCH   2   3
ENDBRANCH   1   2
BRANCH   1  40
ATOM     40  C   UNL A   1      42.945  21.429  26.554  1.00  0.00     0.118 C 
BRANCH  40  41
ATOM     41  N   UNL A   1      41.502  21.519  26.503  1.00  0.00    -0.352 N 
ATOM     42  C   UNL A   1      40.581  22.524  26.586  1.00  0.00     0.251 C 
ATOM     43  H   UNL A   1      41.080  20.638  26.380  1.00  0.00     0.163 HD
ATOM     44  O   UNL A   1      39.429  22.204  26.277  1.00  0.00    -0.269 OA
BRANCH  42  45
ATOM     45  C   UNL A   1      40.830  23.913  27.065  1.00  0.00     0.039 A 
ATOM     46  C   UNL A   1      41.684  24.288  28.101  1.00  0.00     0.014 A 
ATOM     47  C   UNL A   1      40.045  24.912  26.455  1.00  0.00     0.014 A 
ATOM     48  C   UNL A   1      41.655  25.595  28.601  1.00  0.00     0.010 A 
ATOM     49  C   UNL A   1      40.035  26.220  26.930  1.00  0.00     0.010 A 
ATOM     50  C   UNL A   1      40.793  26.549  28.048  1.00  0.00    -0.014 A 
BRANCH  50  51
ATOM     51  C   UNL A   1      40.740  27.889  28.638  1.00  0.00     0.031 A 
ATOM     52  C   UNL A   1      41.878  28.800  28.316  1.00  0.00     0.074 A 
ATOM     53  C   UNL A   1      39.686  28.357  29.342  1.00  0.00     0.049 A 
ATOM     54  N   UNL A   1      42.716  29.357  29.129  1.00  0.00    -0.248 NA
ATOM     55  C   UNL A   1      42.154  29.070  26.898  1.00  0.00     0.031 C 
ATOM     56  C   UNL A   1      38.368  27.742  29.528  1.00  0.00     0.029 A 
ATOM     57  N   UNL A   1      39.550  29.559  29.968  1.00  0.00    -0.354 N 
ATOM     58  C   UNL A   1      43.547  30.164  28.350  1.00  0.00     0.074 A 
ATOM     59  C   UNL A   1      43.217  29.871  26.977  1.00  0.00     0.031 C 
ATOM     60  C   UNL A   1      37.505  28.666  30.010  1.00  0.00     0.029 A 
ATOM     61  C   UNL A   1      38.244  29.875  30.324  1.00  0.00     0.049 A 
ATOM     62  H   UNL A   1      40.311  30.155  30.154  1.00  0.00     0.167 HD
ATOM     63  C   UNL A   1      44.361  31.120  28.881  1.00  0.00     0.031 A 
ATOM     64  C   UNL A   1      37.795  31.063  30.800  1.00  0.00     0.031 A 
ATOM     65  C   UNL A   1      44.540  30.954  30.295  1.00  0.00     0.049 A 
ATOM     66  C   UNL A   1      38.960  31.772  31.376  1.00  0.00     0.074 A 
ATOM     67  C   UNL A   1      45.126  29.993  31.091  1.00  0.00     0.029 A 
ATOM     68  N   UNL A   1      43.764  31.718  31.132  1.00  0.00    -0.354 N 
ATOM     69  N   UNL A   1      39.617  31.355  32.423  1.00  0.00    -0.248 NA
ATOM     70  C   UNL A   1      39.652  32.743  30.547  1.00  0.00     0.031 C 
ATOM     71  C   UNL A   1      44.304  29.928  32.252  1.00  0.00     0.029 A 
ATOM     72  C   UNL A   1      43.296  30.889  32.118  1.00  0.00     0.049 A 
ATOM     73  H   UNL A   1      43.577  32.681  31.039  1.00  0.00     0.167 HD
ATOM     74  C   UNL A   1      40.939  31.685  32.165  1.00  0.00     0.074 A 
ATOM     75  C   UNL A   1      40.883  32.623  31.048  1.00  0.00     0.031 C 
ATOM     76  C   UNL A   1      41.970  30.968  32.702  1.00  0.00     0.031 A 
BRANCH  63  77
ATOM     77  C   UNL A   1      44.806  32.368  28.161  1.00  0.00    -0.014 A 
ATOM     78  C   UNL A   1      43.941  33.454  27.916  1.00  0.00     0.010 A 
ATOM     79  C   UNL A   1      46.181  32.582  27.924  1.00  0.00     0.010 A 
ATOM     80  C   UNL A   1      44.410  34.681  27.443  1.00  0.00     0.020 A 
ATOM     81  C   UNL A   1      46.667  33.825  27.490  1.00  0.00     0.020 A 
ATOM     82  C   UNL A   1      45.774  34.866  27.247  1.00  0.00     0.054 A 
BRANCH  82  83
ATOM     83  S   UNL A   1      46.351  36.511  26.756  1.00  0.00     0.124 S 
ATOM     84  O   UNL A   1      45.111  37.282  26.771  1.00  0.00    -0.237 OA
ATOM     85  O   UNL A   1      47.308  36.833  27.809  1.00  0.00    -0.237 OA
ATOM     86  O   UNL A   1      46.934  36.290  25.433  1.00  0.00    -0.744 OA
ENDBRANCH  82  83
ENDBRANCH  63  77
BRANCH  64  87
ATOM     87  C   UNL A   1      36.570  31.785  30.363  1.00  0.00    -0.014 A 
ATOM     88  C   UNL A   1      36.436  32.176  29.014  1.00  0.00     0.010 A 
ATOM     89  C   UNL A   1      35.703  32.369  31.306  1.00  0.00     0.010 A 
ATOM     90  C   UNL A   1      35.531  33.171  28.632  1.00  0.00     0.020 A 
ATOM     91  C   UNL A   1      34.791  33.370  30.929  1.00  0.00     0.020 A 
ATOM     92  C   UNL A   1      34.740  33.791  29.598  1.00  0.00     0.054 A 
BRANCH  92  93
ATOM     93  S   UNL A   1      33.722  35.208  29.092  1.00  0.00     0.124 S 
ATOM     94  O   UNL A   1      33.465  35.867  30.369  1.00  0.00    -0.237 OA
ATOM     95  O   UNL A   1      34.610  35.926  28.183  1.00  0.00    -0.237 OA
ATOM     96  O   UNL A   1      32.557  34.591  28.461  1.00  0.00    -0.744 OA
ENDBRANCH  92  93
ENDBRANCH  64  87
BRANCH  76  97
ATOM     97  C   UNL A   1      41.681  29.955  33.791  1.00  0.00    -0.014 A 
ATOM     98  C   UNL A   1      42.229  30.195  35.065  1.00  0.00     0.010 A 
ATOM     99  C   UNL A   1      41.124  28.685  33.530  1.00  0.00     0.010 A 
ATOM    100  C   UNL A   1      42.290  29.182  36.026  1.00  0.00     0.020 A 
ATOM    101  C   UNL A   1      41.159  27.672  34.501  1.00  0.00     0.020 A 
ATOM    102  C   UNL A   1      41.779  27.918  35.728  1.00  0.00     0.054 A 
BRANCH 102 103
ATOM    103  S   UNL A   1      42.002  26.593  36.949  1.00  0.00     0.124 S 
ATOM    104  O   UNL A   1      40.714  26.591  37.643  1.00  0.00    -0.237 OA
ATOM    105  O   UNL A   1      42.262  25.422  36.115  1.00  0.00    -0.237 OA
ATOM    106  O   UNL A   1      43.134  27.040  37.758  1.00  0.00    -0.744 OA
ENDBRANCH 102 103
ENDBRANCH  76  97
ENDBRANCH  50  51
ENDBRANCH  42  45
ENDBRANCH  40  41
ENDBRANCH   1  40
TORSDOF 18
ENDMDL
MODEL 2
REMARK VINA RESULT:     -10.4      1.409      2.801
REMARK SMILES COc1cc2c(cc1OC)-c1c(c(C(=O)Nc3ccc(C(=O)NCCCNC(=O)c4ccc(-c5c6nc(c(-c7ccc(S(=O)(=O)[O-])cc7)c7ccc([nH]7)c(-c7ccc(S(=O)(=O)[O-])cc7)c7nc(c(-c8ccc(S(=O)(=O)[O-])cc8)c8ccc5[nH]8)C=C7)C=C6)cc4)cc3)nn1-c1ccc(F)cc1)C2
REMARK SMILES IDX 25 1 24 2 23 3 21 4 22 5 20 7 17 8 18 9 91 10 19 11 90 12
REMARK SMILES IDX 16 13 14 14 15 15 13 17 3 18 4 19 8 20 5 21 7 22 6 23 101 24
REMARK SMILES IDX 11 25 12 26 93 27 92 28 2 29 1 30 9 31 10 32 94 33 95 34
REMARK SMILES IDX 100 35 96 36 99 37 97 38 98 39 26 40 27 41 28 42 29 44 30 45
REMARK SMILES IDX 31 46 89 47 32 48 88 49 33 50 34 51 35 52 82 53 36 54 87 55
REMARK SMILES IDX 81 56 83 57 37 58 86 59 80 60 79 61 38 63 68 64 49 65 67 66
REMARK SMILES IDX 50 67 53 68 66 69 84 70 51 71 52 72 65 74 85 75 54 76 39 77
REMARK SMILES IDX 40 78 48 79 41 80 47 81 42 82 43 83 44 84 45 85 46 86 69 87
REMARK SMILES IDX 70 88 78 89 71 90 77 91 72 92 73 93 74 94 75 95 76 96 55 97
REMARK SMILES IDX 56 98 64 99 57 100 63 101 58 102 59 103 60 104 61 105 62 106
REMARK H PARENT 23 6 16 16 27 43 83 62 53 73
REMARK Flexibility Score: inf
ROOT
ATOM      1  C   UNL A   1      43.494  21.872  25.393  1.00  0.00     0.042 C 
ENDROOT
BRANCH   1   2
ATOM      2  C   UNL A   1      43.524  23.340  24.974  1.00  0.00     0.118 C 
BRANCH   2   3
ATOM      3  N   UNL A   1      44.796  23.822  24.464  1.00  0.00    -0.352 N 
ATOM      4  C   UNL A   1      45.955  24.260  25.068  1.00  0.00     0.251 C 
ATOM      5  O   UNL A   1      46.940  24.361  24.330  1.00  0.00    -0.269 OA
ATOM      6  H   UNL A   1      44.840  23.840  23.480  1.00  0.00     0.163 HD
BRANCH   4   7
ATOM      7  C   UNL A   1      46.064  24.788  26.472  1.00  0.00     0.039 A 
ATOM      8  C   UNL A   1      45.165  26.107  28.761  1.00  0.00     0.041 A 
ATOM      9  C   UNL A   1      45.742  26.848  27.743  1.00  0.00     0.027 A 
ATOM     10  C   UNL A   1      45.366  24.730  28.786  1.00  0.00     0.027 A 
ATOM     11  C   UNL A   1      46.205  26.182  26.599  1.00  0.00     0.016 A 
ATOM     12  C   UNL A   1      45.829  24.073  27.640  1.00  0.00     0.016 A 
BRANCH   8  13
ATOM     13  N   UNL A   1      44.401  26.670  29.776  1.00  0.00    -0.321 N 
ATOM     14  C   UNL A   1      44.250  26.371  31.115  1.00  0.00     0.276 C 
ATOM     15  O   UNL A   1      43.234  26.851  31.637  1.00  0.00    -0.267 OA
ATOM     16  H   UNL A   1      43.859  27.437  29.480  1.00  0.00     0.170 HD
BRANCH  14  17
ATOM     17  C   UNL A   1      45.276  25.674  31.955  1.00  0.00     0.155 A 
ATOM     18  C   UNL A   1      51.109  25.140  33.361  1.00  0.00     0.161 A 
ATOM     19  C   UNL A   1      50.306  26.054  32.651  1.00  0.00     0.055 A 
ATOM     20  C   UNL A   1      50.529  24.120  34.146  1.00  0.00     0.161 A 
ATOM     21  C   UNL A   1      48.924  25.923  32.718  1.00  0.00    -0.030 A 
ATOM     22  C   UNL A   1      49.135  23.985  34.172  1.00  0.00     0.061 A 
ATOM     23  C   UNL A   1      48.358  24.893  33.486  1.00  0.00     0.008 A 
ATOM     24  C   UNL A   1      47.871  26.692  31.898  1.00  0.00     0.076 C 
ATOM     25  C   UNL A   1      46.959  24.959  33.219  1.00  0.00     0.079 A 
ATOM     26  C   UNL A   1      46.656  25.888  32.257  1.00  0.00     0.016 A 
ATOM     27  N   UNL A   1      45.834  24.289  33.547  1.00  0.00    -0.232 N 
ATOM     28  N   UNL A   1      44.842  24.594  32.680  1.00  0.00    -0.162 NA
BRANCH  18  29
ATOM     29  O   UNL A   1      52.466  25.316  33.277  1.00  0.00    -0.493 OA
ATOM     30  C   UNL A   1      52.915  26.350  34.155  1.00  0.00     0.278 C 
ENDBRANCH  18  29
BRANCH  20  31
ATOM     31  O   UNL A   1      51.142  23.158  34.900  1.00  0.00    -0.493 OA
ATOM     32  C   UNL A   1      51.975  22.204  34.269  1.00  0.00     0.278 C 
ENDBRANCH  20  31
BRANCH  27  33
ATOM     33  C   UNL A   1      45.683  23.359  34.599  1.00  0.00     0.065 A 
ATOM     34  C   UNL A   1      45.607  21.993  34.314  1.00  0.00     0.031 A 
ATOM     35  C   UNL A   1      45.710  23.810  35.929  1.00  0.00     0.031 A 
ATOM     36  C   UNL A   1      45.681  21.079  35.367  1.00  0.00     0.041 A 
ATOM     37  C   UNL A   1      45.758  22.892  36.975  1.00  0.00     0.041 A 
ATOM     38  C   UNL A   1      45.770  21.535  36.682  1.00  0.00     0.123 A 
ATOM     39  F   UNL A   1      45.883  20.650  37.682  1.00  0.00    -0.207 F 
ENDBRANCH  27  33
ENDBRANCH  14  17
ENDBRANCH   8  13
ENDBRANCH   4   7
ENDBRANCH   2   3
ENDBRANCH   1   2
BRANCH   1  40
ATOM     40  C   UNL A   1      42.688  21.512  26.636  1.00  0.00     0.118 C 
BRANCH  40  41
ATOM     41  N   UNL A   1      41.254  21.659  26.516  1.00  0.00    -0.352 N 
ATOM     42  C   UNL A   1      40.368  22.696  26.583  1.00  0.00     0.251 C 
ATOM     43  H   UNL A   1      40.807  20.799  26.345  1.00  0.00     0.163 HD
ATOM     44  O   UNL A   1      39.222  22.429  26.208  1.00  0.00    -0.269 OA
BRANCH  42  45
ATOM     45  C   UNL A   1      40.643  24.061  27.117  1.00  0.00     0.039 A 
ATOM     46  C   UNL A   1      41.511  24.379  28.160  1.00  0.00     0.014 A 
ATOM     47  C   UNL A   1      39.869  25.096  26.555  1.00  0.00     0.014 A 
ATOM     48  C   UNL A   1      41.508  25.664  28.713  1.00  0.00     0.010 A 
ATOM     49  C   UNL A   1      39.884  26.383  27.083  1.00  0.00     0.010 A 
ATOM     50  C   UNL A   1      40.656  26.654  28.207  1.00  0.00    -0.014 A 
BRANCH  50  51
ATOM     51  C   UNL A   1      40.630  27.969  28.852  1.00  0.00     0.031 A 
ATOM     52  C   UNL A   1      41.764  28.886  28.533  1.00  0.00     0.074 A 
ATOM     53  C   UNL A   1      39.601  28.414  29.605  1.00  0.00     0.049 A 
ATOM     54  N   UNL A   1      42.630  29.406  29.342  1.00  0.00    -0.248 NA
ATOM     55  C   UNL A   1      41.999  29.212  27.119  1.00  0.00     0.031 C 
ATOM     56  C   UNL A   1      38.284  27.799  29.806  1.00  0.00     0.029 A 
ATOM     57  N   UNL A   1      39.491  29.591  30.283  1.00  0.00    -0.354 N 
ATOM     58  C   UNL A   1      43.442  30.239  28.571  1.00  0.00     0.074 A 
ATOM     59  C   UNL A   1      43.069  30.004  27.198  1.00  0.00     0.031 C 
ATOM     60  C   UNL A   1      37.442  28.707  30.351  1.00  0.00     0.029 A 
ATOM     61  C   UNL A   1      38.199  29.898  30.691  1.00  0.00     0.049 A 
ATOM     62  H   UNL A   1      40.262  30.175  30.470  1.00  0.00     0.167 HD
ATOM     63  C   UNL A   1      44.278  31.168  29.115  1.00  0.00     0.031 A 
ATOM     64  C   UNL A   1      37.771  31.069  31.227  1.00  0.00     0.031 A 
ATOM     65  C   UNL A   1      44.497  30.944  30.516  1.00  0.00     0.049 A 
ATOM     66  C   UNL A   1      38.958  31.748  31.796  1.00  0.00     0.074 A 
ATOM     67  C   UNL A   1      45.101  29.949  31.254  1.00  0.00     0.029 A 
ATOM     68  N   UNL A   1      43.752  31.679  31.405  1.00  0.00    -0.354 N 
ATOM     69  N   UNL A   1      39.644  31.286  32.806  1.00  0.00    -0.248 NA
ATOM     70  C   UNL A   1      39.631  32.748  30.986  1.00  0.00     0.031 C 
ATOM     71  C   UNL A   1      44.314  29.842  32.436  1.00  0.00     0.029 A 
ATOM     72  C   UNL A   1      43.309  30.813  32.371  1.00  0.00     0.049 A 
ATOM     73  H   UNL A   1      43.569  32.645  31.357  1.00  0.00     0.167 HD
ATOM     74  C   UNL A   1      40.959  31.618  32.521  1.00  0.00     0.074 A 
ATOM     75  C   UNL A   1      40.876  32.602  31.445  1.00  0.00     0.031 C 
ATOM     76  C   UNL A   1      42.001  30.875  32.997  1.00  0.00     0.031 A 
BRANCH  63  77
ATOM     77  C   UNL A   1      44.709  32.442  28.433  1.00  0.00    -0.014 A 
ATOM     78  C   UNL A   1      43.891  33.589  28.376  1.00  0.00     0.010 A 
ATOM     79  C   UNL A   1      46.055  32.599  28.038  1.00  0.00     0.010 A 
ATOM     80  C   UNL A   1      44.375  34.822  27.933  1.00  0.00     0.020 A 
ATOM     81  C   UNL A   1      46.562  33.843  27.633  1.00  0.00     0.020 A 
ATOM     82  C   UNL A   1      45.714  34.947  27.579  1.00  0.00     0.054 A 
BRANCH  82  83
ATOM     83  S   UNL A   1      46.329  36.591  27.134  1.00  0.00     0.124 S 
ATOM     84  O   UNL A   1      46.790  37.099  28.422  1.00  0.00    -0.237 OA
ATOM     85  O   UNL A   1      47.375  36.282  26.165  1.00  0.00    -0.237 OA
ATOM     86  O   UNL A   1      45.151  37.261  26.583  1.00  0.00    -0.744 OA
ENDBRANCH  82  83
ENDBRANCH  63  77
BRANCH  64  87
ATOM     87  C   UNL A   1      36.539  31.815  30.857  1.00  0.00    -0.014 A 
ATOM     88  C   UNL A   1      36.018  31.694  29.552  1.00  0.00     0.010 A 
ATOM     89  C   UNL A   1      36.071  32.875  31.657  1.00  0.00     0.010 A 
ATOM     90  C   UNL A   1      35.129  32.641  29.034  1.00  0.00     0.020 A 
ATOM     91  C   UNL A   1      35.177  33.830  31.142  1.00  0.00     0.020 A 
ATOM     92  C   UNL A   1      34.742  33.725  29.819  1.00  0.00     0.054 A 
BRANCH  92  93
ATOM     93  S   UNL A   1      33.744  35.031  29.045  1.00  0.00     0.124 S 
ATOM     94  O   UNL A   1      34.723  35.693  28.189  1.00  0.00    -0.237 OA
ATOM     95  O   UNL A   1      32.713  34.269  28.347  1.00  0.00    -0.237 OA
ATOM     96  O   UNL A   1      33.269  35.822  30.180  1.00  0.00    -0.744 OA
ENDBRANCH  92  93
ENDBRANCH  64  87
BRANCH  76  97
ATOM     97  C   UNL A   1      41.738  29.820  34.053  1.00  0.00    -0.014 A 
ATOM     98  C   UNL A   1      42.286  30.030  35.332  1.00  0.00     0.010 A 
ATOM     99  C   UNL A   1      41.208  28.548  33.752  1.00  0.00     0.010 A 
ATOM    100  C   UNL A   1      42.373  28.987  36.259  1.00  0.00     0.020 A 
ATOM    101  C   UNL A   1      41.269  27.504  34.689  1.00  0.00     0.020 A 
ATOM    102  C   UNL A   1      41.888  27.722  35.921  1.00  0.00     0.054 A 
BRANCH 102 103
ATOM    103  S   UNL A   1      42.144  26.364  37.097  1.00  0.00     0.124 S 
ATOM    104  O   UNL A   1      42.621  25.288  36.228  1.00  0.00    -0.237 OA
ATOM    105  O   UNL A   1      43.140  26.911  38.015  1.00  0.00    -0.237 OA
ATOM    106  O   UNL A   1      40.822  26.142  37.680  1.00  0.00    -0.744 OA
ENDBRANCH 102 103
ENDBRANCH  76  97
ENDBRANCH  50  51
ENDBRANCH  42  45
ENDBRANCH  40  41
ENDBRANCH   1  40
TORSDOF 18
ENDMDL
MODEL 3
REMARK VINA RESULT:     -10.4      2.449      4.183
REMARK SMILES COc1cc2c(cc1OC)-c1c(c(C(=O)Nc3ccc(C(=O)NCCCNC(=O)c4ccc(-c5c6nc(c(-c7ccc(S(=O)(=O)[O-])cc7)c7ccc([nH]7)c(-c7ccc(S(=O)(=O)[O-])cc7)c7nc(c(-c8ccc(S(=O)(=O)[O-])cc8)c8ccc5[nH]8)C=C7)C=C6)cc4)cc3)nn1-c1ccc(F)cc1)C2
REMARK SMILES IDX 25 1 24 2 23 3 21 4 22 5 20 7 17 8 18 9 91 10 19 11 90 12
REMARK SMILES IDX 16 13 14 14 15 15 13 17 3 18 4 19 8 20 5 21 7 22 6 23 101 24
REMARK SMILES IDX 11 25 12 26 93 27 92 28 2 29 1 30 9 31 10 32 94 33 95 34
REMARK SMILES IDX 100 35 96 36 99 37 97 38 98 39 26 40 27 41 28 42 29 44 30 45
REMARK SMILES IDX 31 46 89 47 32 48 88 49 33 50 34 51 35 52 82 53 36 54 87 55
REMARK SMILES IDX 81 56 83 57 37 58 86 59 80 60 79 61 38 63 68 64 49 65 67 66
REMARK SMILES IDX 50 67 53 68 66 69 84 70 51 71 52 72 65 74 85 75 54 76 39 77
REMARK SMILES IDX 40 78 48 79 41 80 47 81 42 82 43 83 44 84 45 85 46 86 69 87
REMARK SMILES IDX 70 88 78 89 71 90 77 91 72 92 73 93 74 94 75 95 76 96 55 97
REMARK SMILES IDX 56 98 64 99 57 100 63 101 58 102 59 103 60 104 61 105 62 106
REMARK H PARENT 23 6 16 16 27 43 83 62 53 73
REMARK Flexibility Score: inf
ROOT
ATOM      1  C   UNL A   1      44.610  21.503  24.662  1.00  0.00     0.042 C 
ENDROOT
BRANCH   1   2
ATOM      2  C   UNL A   1      46.035  21.961  24.966  1.00  0.00     0.118 C 
BRANCH   2   3
ATOM      3  N   UNL A   1      46.406  23.259  24.430  1.00  0.00    -0.352 N 
ATOM      4  C   UNL A   1      46.474  24.524  24.973  1.00  0.00     0.251 C 
ATOM      5  O   UNL A   1      47.073  25.367  24.297  1.00  0.00    -0.269 OA
ATOM      6  H   UNL A   1      46.662  23.230  23.479  1.00  0.00     0.163 HD
BRANCH   4   7
ATOM      7  C   UNL A   1      45.738  24.992  26.198  1.00  0.00     0.039 A 
ATOM      8  C   UNL A   1      45.517  26.023  28.782  1.00  0.00     0.041 A 
ATOM      9  C   UNL A   1      45.701  24.661  28.617  1.00  0.00     0.027 A 
ATOM     10  C   UNL A   1      45.095  26.780  27.692  1.00  0.00     0.027 A 
ATOM     11  C   UNL A   1      45.799  24.142  27.318  1.00  0.00     0.016 A 
ATOM     12  C   UNL A   1      45.196  26.255  26.399  1.00  0.00     0.016 A 
BRANCH   8  13
ATOM     13  N   UNL A   1      45.719  26.680  29.990  1.00  0.00    -0.321 N 
ATOM     14  C   UNL A   1      46.806  26.780  30.834  1.00  0.00     0.276 C 
ATOM     15  O   UNL A   1      46.530  27.150  31.984  1.00  0.00    -0.267 OA
ATOM     16  H   UNL A   1      44.927  27.172  30.307  1.00  0.00     0.170 HD
BRANCH  14  17
ATOM     17  C   UNL A   1      48.234  26.630  30.409  1.00  0.00     0.155 A 
ATOM     18  C   UNL A   1      52.085  26.103  25.806  1.00  0.00     0.161 A 
ATOM     19  C   UNL A   1      50.731  26.458  25.974  1.00  0.00     0.055 A 
ATOM     20  C   UNL A   1      52.944  25.969  26.918  1.00  0.00     0.161 A 
ATOM     21  C   UNL A   1      50.247  26.654  27.262  1.00  0.00    -0.030 A 
ATOM     22  C   UNL A   1      52.426  26.138  28.208  1.00  0.00     0.061 A 
ATOM     23  C   UNL A   1      51.105  26.499  28.361  1.00  0.00     0.008 A 
ATOM     24  C   UNL A   1      48.782  26.875  27.686  1.00  0.00     0.076 C 
ATOM     25  C   UNL A   1      50.266  26.625  29.507  1.00  0.00     0.079 A 
ATOM     26  C   UNL A   1      48.941  26.736  29.172  1.00  0.00     0.016 A 
ATOM     27  N   UNL A   1      50.371  26.549  30.851  1.00  0.00    -0.232 N 
ATOM     28  N   UNL A   1      49.146  26.386  31.403  1.00  0.00    -0.162 NA
BRANCH  18  29
ATOM     29  O   UNL A   1      52.522  25.934  24.518  1.00  0.00    -0.493 OA
ATOM     30  C   UNL A   1      51.923  26.882  23.632  1.00  0.00     0.278 C 
ENDBRANCH  18  29
BRANCH  20  31
ATOM     31  O   UNL A   1      54.272  25.643  26.947  1.00  0.00    -0.493 OA
ATOM     32  C   UNL A   1      55.070  26.073  28.035  1.00  0.00     0.278 C 
ENDBRANCH  20  31
BRANCH  27  33
ATOM     33  C   UNL A   1      51.563  26.577  31.607  1.00  0.00     0.065 A 
ATOM     34  C   UNL A   1      52.184  25.379  31.971  1.00  0.00     0.031 A 
ATOM     35  C   UNL A   1      52.164  27.812  31.901  1.00  0.00     0.031 A 
ATOM     36  C   UNL A   1      53.466  25.426  32.522  1.00  0.00     0.041 A 
ATOM     37  C   UNL A   1      53.434  27.849  32.473  1.00  0.00     0.041 A 
ATOM     38  C   UNL A   1      54.083  26.655  32.753  1.00  0.00     0.123 A 
ATOM     39  F   UNL A   1      55.330  26.687  33.243  1.00  0.00    -0.207 F 
ENDBRANCH  27  33
ENDBRANCH  14  17
ENDBRANCH   8  13
ENDBRANCH   4   7
ENDBRANCH   2   3
ENDBRANCH   1   2
BRANCH   1  40
ATOM     40  C   UNL A   1      43.517  22.566  24.660  1.00  0.00     0.118 C 
BRANCH  40  41
ATOM     41  N   UNL A   1      42.287  22.200  25.328  1.00  0.00    -0.352 N 
ATOM     42  C   UNL A   1      41.355  22.849  26.087  1.00  0.00     0.251 C 
ATOM     43  H   UNL A   1      42.068  21.248  25.205  1.00  0.00     0.163 HD
ATOM     44  O   UNL A   1      40.318  22.213  26.297  1.00  0.00    -0.269 OA
BRANCH  42  45
ATOM     45  C   UNL A   1      41.509  24.190  26.718  1.00  0.00     0.039 A 
ATOM     46  C   UNL A   1      41.958  24.447  28.013  1.00  0.00     0.014 A 
ATOM     47  C   UNL A   1      41.064  25.279  25.941  1.00  0.00     0.014 A 
ATOM     48  C   UNL A   1      41.841  25.729  28.559  1.00  0.00     0.010 A 
ATOM     49  C   UNL A   1      40.973  26.562  26.471  1.00  0.00     0.010 A 
ATOM     50  C   UNL A   1      41.300  26.777  27.804  1.00  0.00    -0.014 A 
BRANCH  50  51
ATOM     51  C   UNL A   1      41.130  28.091  28.429  1.00  0.00     0.031 A 
ATOM     52  C   UNL A   1      42.215  29.087  28.184  1.00  0.00     0.074 A 
ATOM     53  C   UNL A   1      40.018  28.464  29.098  1.00  0.00     0.049 A 
ATOM     54  N   UNL A   1      42.978  29.674  29.049  1.00  0.00    -0.248 NA
ATOM     55  C   UNL A   1      42.531  29.419  26.787  1.00  0.00     0.031 C 
ATOM     56  C   UNL A   1      38.738  27.756  29.208  1.00  0.00     0.029 A 
ATOM     57  N   UNL A   1      39.772  29.635  29.752  1.00  0.00    -0.354 N 
ATOM     58  C   UNL A   1      43.782  30.559  28.330  1.00  0.00     0.074 A 
ATOM     59  C   UNL A   1      43.532  30.288  26.936  1.00  0.00     0.031 C 
ATOM     60  C   UNL A   1      37.793  28.604  29.678  1.00  0.00     0.029 A 
ATOM     61  C   UNL A   1      38.434  29.850  30.058  1.00  0.00     0.049 A 
ATOM     62  H   UNL A   1      40.482  30.275  29.987  1.00  0.00     0.167 HD
ATOM     63  C   UNL A   1      44.506  31.551  28.923  1.00  0.00     0.031 A 
ATOM     64  C   UNL A   1      37.883  30.989  30.547  1.00  0.00     0.031 A 
ATOM     65  C   UNL A   1      44.635  31.354  30.339  1.00  0.00     0.049 A 
ATOM     66  C   UNL A   1      38.972  31.758  31.194  1.00  0.00     0.074 A 
ATOM     67  C   UNL A   1      45.252  30.411  31.133  1.00  0.00     0.029 A 
ATOM     68  N   UNL A   1      43.773  32.038  31.161  1.00  0.00    -0.354 N 
ATOM     69  N   UNL A   1      39.611  31.354  32.257  1.00  0.00    -0.248 NA
ATOM     70  C   UNL A   1      39.629  32.799  30.423  1.00  0.00     0.031 C 
ATOM     71  C   UNL A   1      44.388  30.254  32.253  1.00  0.00     0.029 A 
ATOM     72  C   UNL A   1      43.323  31.148  32.102  1.00  0.00     0.049 A 
ATOM     73  H   UNL A   1      43.525  32.988  31.087  1.00  0.00     0.167 HD
ATOM     74  C   UNL A   1      40.917  31.780  32.067  1.00  0.00     0.074 A 
ATOM     75  C   UNL A   1      40.843  32.747  30.975  1.00  0.00     0.031 C 
ATOM     76  C   UNL A   1      41.971  31.119  32.629  1.00  0.00     0.031 A 
BRANCH  63  77
ATOM     77  C   UNL A   1      44.893  32.849  28.259  1.00  0.00    -0.014 A 
ATOM     78  C   UNL A   1      43.944  33.812  27.862  1.00  0.00     0.010 A 
ATOM     79  C   UNL A   1      46.248  33.241  28.236  1.00  0.00     0.010 A 
ATOM     80  C   UNL A   1      44.319  35.092  27.445  1.00  0.00     0.020 A 
ATOM     81  C   UNL A   1      46.633  34.538  27.861  1.00  0.00     0.020 A 
ATOM     82  C   UNL A   1      45.662  35.453  27.462  1.00  0.00     0.054 A 
BRANCH  82  83
ATOM     83  S   UNL A   1      46.091  37.161  27.038  1.00  0.00     0.124 S 
ATOM     84  O   UNL A   1      46.872  37.574  28.200  1.00  0.00    -0.237 OA
ATOM     85  O   UNL A   1      46.842  36.996  25.798  1.00  0.00    -0.237 OA
ATOM     86  O   UNL A   1      44.791  37.816  26.894  1.00  0.00    -0.744 OA
ENDBRANCH  82  83
ENDBRANCH  63  77
BRANCH  64  87
ATOM     87  C   UNL A   1      36.631  31.640  30.076  1.00  0.00    -0.014 A 
ATOM     88  C   UNL A   1      36.554  32.127  28.755  1.00  0.00     0.010 A 
ATOM     89  C   UNL A   1      35.654  32.070  30.994  1.00  0.00     0.010 A 
ATOM     90  C   UNL A   1      35.591  33.071  28.383  1.00  0.00     0.020 A 
ATOM     91  C   UNL A   1      34.684  33.019  30.627  1.00  0.00     0.020 A 
ATOM     92  C   UNL A   1      34.685  33.541  29.332  1.00  0.00     0.054 A 
BRANCH  92  93
ATOM     93  S   UNL A   1      33.582  34.905  28.861  1.00  0.00     0.124 S 
ATOM     94  O   UNL A   1      32.588  34.221  28.039  1.00  0.00    -0.237 OA
ATOM     95  O   UNL A   1      33.103  35.385  30.154  1.00  0.00    -0.237 OA
ATOM     96  O   UNL A   1      34.458  35.829  28.143  1.00  0.00    -0.744 OA
ENDBRANCH  92  93
ENDBRANCH  64  87
BRANCH  76  97
ATOM     97  C   UNL A   1      41.707  30.055  33.675  1.00  0.00    -0.014 A 
ATOM     98  C   UNL A   1      42.099  30.333  34.997  1.00  0.00     0.010 A 
ATOM     99  C   UNL A   1      41.337  28.734  33.349  1.00  0.00     0.010 A 
ATOM    100  C   UNL A   1      42.193  29.314  35.950  1.00  0.00     0.020 A 
ATOM    101  C   UNL A   1      41.404  27.711  34.309  1.00  0.00     0.020 A 
ATOM    102  C   UNL A   1      41.871  28.004  35.593  1.00  0.00     0.054 A 
BRANCH 102 103
ATOM    103  S   UNL A   1      42.138  26.690  36.816  1.00  0.00     0.124 S 
ATOM    104  O   UNL A   1      40.839  26.619  37.483  1.00  0.00    -0.237 OA
ATOM    105  O   UNL A   1      42.477  25.536  35.986  1.00  0.00    -0.237 OA
ATOM    106  O   UNL A   1      43.228  27.194  37.648  1.00  0.00    -0.744 OA
ENDBRANCH 102 103
ENDBRANCH  76  97
ENDBRANCH  50  51
ENDBRANCH  42  45
ENDBRANCH  40  41
ENDBRANCH   1  40
TORSDOF 18
ENDMDL
