MODEL 1
REMARK VINA RESULT:      -9.2      0.000      0.000
REMARK SMILES C=CCS(=O)(=O)N[C@H](CC(N)=O)C(=O)NCCCNC(=O)c1ccc(-c2c3nc(c(-c4ccc(S(=O)(=O)[O-])cc4)c4ccc([nH]4)c(-c4ccc(S(=O)(=O)[O-])cc4)c4nc(c(-c5ccc(S(=O)(=O)[O-])cc5)c5ccc2[nH]5)C=C4)C=C3)cc1
REMARK SMILES IDX 16 1 15 2 13 3 14 4 8 6 7 7 4 9 5 10 6 11 3 12 2 13 1 14
REMARK SMILES IDX 9 15 10 16 11 17 12 18 17 21 18 22 19 23 20 24 21 26 22 27
REMARK SMILES IDX 23 28 81 29 24 30 80 31 25 32 26 33 27 34 74 35 28 36 79 37
REMARK SMILES IDX 73 38 75 39 29 40 78 41 72 42 71 43 30 45 60 46 41 47 59 48
REMARK SMILES IDX 42 49 45 50 58 51 76 52 43 53 44 54 57 56 77 57 46 58 31 59
REMARK SMILES IDX 32 60 40 61 33 62 39 63 34 64 35 65 36 66 37 67 38 68 61 69
REMARK SMILES IDX 62 70 70 71 63 72 69 73 64 74 65 75 66 76 67 77 68 78 47 79
REMARK SMILES IDX 48 80 56 81 49 82 55 83 50 84 51 85 52 86 53 87 54 88
REMARK H PARENT 15 5 7 8 11 19 11 20 19 25 75 44 45 55
REMARK Flexibility Score: inf
ROOT
ATOM      1  C   UNL A   1      42.485  20.612  26.744  1.00  0.00     0.117 C 
ENDROOT
BRANCH   1   2
ATOM      2  N   UNL A   1      42.731  21.364  25.527  1.00  0.00    -0.355 N 
ATOM      3  C   UNL A   1      43.884  21.772  24.949  1.00  0.00     0.238 C 
ATOM      4  O   UNL A   1      43.790  22.463  23.929  1.00  0.00    -0.273 OA
ATOM      5  H   UNL A   1      41.918  21.621  25.037  1.00  0.00     0.163 HD
BRANCH   3   6
ATOM      6  C   UNL A   1      45.253  21.430  25.514  1.00  0.00     0.168 C 
BRANCH   6   7
ATOM      7  N   UNL A   1      46.041  22.450  26.245  1.00  0.00    -0.202 NA
ATOM      8  H   UNL A   1      45.572  22.570  27.143  1.00  0.00     0.141 HD
BRANCH   7   9
ATOM      9  S   UNL A   1      46.333  23.999  25.675  1.00  0.00     0.215 S 
ATOM     10  O   UNL A   1      46.460  23.966  24.237  1.00  0.00    -0.212 OA
ATOM     11  O   UNL A   1      47.459  24.444  26.471  1.00  0.00    -0.212 OA
BRANCH   9  12
ATOM     12  C   UNL A   1      44.919  25.032  26.108  1.00  0.00     0.180 C 
BRANCH  12  13
ATOM     13  C   UNL A   1      44.991  26.377  25.450  1.00  0.00    -0.017 C 
ATOM     14  C   UNL A   1      43.982  27.257  25.424  1.00  0.00     0.005 C 
ENDBRANCH  12  13
ENDBRANCH   9  12
ENDBRANCH   7   9
ENDBRANCH   6   7
BRANCH   6  15
ATOM     15  C   UNL A   1      46.122  20.648  24.518  1.00  0.00     0.129 C 
BRANCH  15  16
ATOM     16  C   UNL A   1      45.533  19.360  24.006  1.00  0.00     0.219 C 
ATOM     17  N   UNL A   1      44.786  19.447  22.869  1.00  0.00    -0.370 N 
ATOM     18  O   UNL A   1      45.701  18.284  24.563  1.00  0.00    -0.275 OA
ATOM     19  H   UNL A   1      44.658  20.319  22.431  1.00  0.00     0.159 HD
ATOM     20  H   UNL A   1      44.375  18.639  22.488  1.00  0.00     0.159 HD
ENDBRANCH  15  16
ENDBRANCH   6  15
ENDBRANCH   3   6
ENDBRANCH   1   2
BRANCH   1  21
ATOM     21  C   UNL A   1      41.007  20.597  27.084  1.00  0.00     0.042 C 
BRANCH  21  22
ATOM     22  C   UNL A   1      40.449  22.003  27.225  1.00  0.00     0.118 C 
BRANCH  22  23
ATOM     23  N   UNL A   1      39.433  22.294  26.220  1.00  0.00    -0.352 N 
ATOM     24  C   UNL A   1      38.699  23.441  26.048  1.00  0.00     0.251 C 
ATOM     25  H   UNL A   1      39.249  21.570  25.578  1.00  0.00     0.163 HD
ATOM     26  O   UNL A   1      37.719  23.451  25.311  1.00  0.00    -0.269 OA
BRANCH  24  27
ATOM     27  C   UNL A   1      39.095  24.656  26.787  1.00  0.00     0.039 A 
ATOM     28  C   UNL A   1      38.638  24.845  28.092  1.00  0.00     0.014 A 
ATOM     29  C   UNL A   1      39.965  25.579  26.200  1.00  0.00     0.014 A 
ATOM     30  C   UNL A   1      39.109  25.933  28.828  1.00  0.00     0.010 A 
ATOM     31  C   UNL A   1      40.527  26.582  26.975  1.00  0.00     0.010 A 
ATOM     32  C   UNL A   1      40.087  26.787  28.290  1.00  0.00    -0.014 A 
BRANCH  32  33
ATOM     33  C   UNL A   1      40.637  27.923  29.067  1.00  0.00     0.031 A 
ATOM     34  C   UNL A   1      39.786  29.143  29.310  1.00  0.00     0.074 A 
ATOM     35  C   UNL A   1      41.913  27.884  29.504  1.00  0.00     0.049 A 
ATOM     36  N   UNL A   1      40.097  30.255  29.923  1.00  0.00    -0.248 NA
ATOM     37  C   UNL A   1      38.416  29.123  28.767  1.00  0.00     0.031 C 
ATOM     38  C   UNL A   1      42.851  26.780  29.286  1.00  0.00     0.029 A 
ATOM     39  N   UNL A   1      42.640  28.798  30.223  1.00  0.00    -0.354 N 
ATOM     40  C   UNL A   1      38.973  31.068  29.819  1.00  0.00     0.074 A 
ATOM     41  C   UNL A   1      38.000  30.351  29.028  1.00  0.00     0.031 C 
ATOM     42  C   UNL A   1      44.013  27.063  29.895  1.00  0.00     0.029 A 
ATOM     43  C   UNL A   1      43.922  28.386  30.503  1.00  0.00     0.049 A 
ATOM     44  H   UNL A   1      42.278  29.666  30.511  1.00  0.00     0.167 HD
ATOM     45  C   UNL A   1      38.757  32.291  30.358  1.00  0.00     0.031 A 
ATOM     46  C   UNL A   1      44.914  29.008  31.172  1.00  0.00     0.031 A 
ATOM     47  C   UNL A   1      39.725  32.991  31.159  1.00  0.00     0.049 A 
ATOM     48  C   UNL A   1      44.655  30.371  31.753  1.00  0.00     0.074 A 
ATOM     49  C   UNL A   1      39.588  34.208  31.802  1.00  0.00     0.029 A 
ATOM     50  N   UNL A   1      41.009  32.538  31.423  1.00  0.00    -0.354 N 
ATOM     51  N   UNL A   1      43.560  31.093  31.706  1.00  0.00    -0.248 NA
ATOM     52  C   UNL A   1      45.762  31.000  32.485  1.00  0.00     0.031 C 
ATOM     53  C   UNL A   1      40.811  34.520  32.403  1.00  0.00     0.029 A 
ATOM     54  C   UNL A   1      41.686  33.464  32.196  1.00  0.00     0.049 A 
ATOM     55  H   UNL A   1      41.382  31.684  31.108  1.00  0.00     0.167 HD
ATOM     56  C   UNL A   1      43.837  32.248  32.430  1.00  0.00     0.074 A 
ATOM     57  C   UNL A   1      45.195  32.119  32.917  1.00  0.00     0.031 C 
ATOM     58  C   UNL A   1      43.039  33.318  32.671  1.00  0.00     0.031 A 
BRANCH  45  59
ATOM     59  C   UNL A   1      37.425  32.945  30.097  1.00  0.00    -0.014 A 
ATOM     60  C   UNL A   1      37.222  33.757  28.965  1.00  0.00     0.010 A 
ATOM     61  C   UNL A   1      36.351  32.718  30.976  1.00  0.00     0.010 A 
ATOM     62  C   UNL A   1      35.983  34.364  28.741  1.00  0.00     0.020 A 
ATOM     63  C   UNL A   1      35.101  33.295  30.737  1.00  0.00     0.020 A 
ATOM     64  C   UNL A   1      34.929  34.128  29.629  1.00  0.00     0.054 A 
BRANCH  64  65
ATOM     65  S   UNL A   1      33.325  34.905  29.295  1.00  0.00     0.124 S 
ATOM     66  O   UNL A   1      32.733  33.974  28.336  1.00  0.00    -0.237 OA
ATOM     67  O   UNL A   1      32.700  34.927  30.615  1.00  0.00    -0.237 OA
ATOM     68  O   UNL A   1      33.678  36.215  28.754  1.00  0.00    -0.744 OA
ENDBRANCH  64  65
ENDBRANCH  45  59
BRANCH  46  69
ATOM     69  C   UNL A   1      46.234  28.338  31.338  1.00  0.00    -0.014 A 
ATOM     70  C   UNL A   1      47.238  28.482  30.362  1.00  0.00     0.010 A 
ATOM     71  C   UNL A   1      46.501  27.562  32.480  1.00  0.00     0.010 A 
ATOM     72  C   UNL A   1      48.473  27.845  30.517  1.00  0.00     0.020 A 
ATOM     73  C   UNL A   1      47.745  26.948  32.653  1.00  0.00     0.020 A 
ATOM     74  C   UNL A   1      48.720  27.085  31.663  1.00  0.00     0.054 A 
BRANCH  74  75
ATOM     75  S   UNL A   1      50.347  26.307  31.863  1.00  0.00     0.124 S 
ATOM     76  O   UNL A   1      51.247  27.450  31.754  1.00  0.00    -0.237 OA
ATOM     77  O   UNL A   1      50.246  25.705  33.191  1.00  0.00    -0.237 OA
ATOM     78  O   UNL A   1      50.409  25.352  30.759  1.00  0.00    -0.744 OA
ENDBRANCH  74  75
ENDBRANCH  46  69
BRANCH  58  79
ATOM     79  C   UNL A   1      43.599  34.421  33.530  1.00  0.00    -0.014 A 
ATOM     80  C   UNL A   1      44.260  35.526  32.965  1.00  0.00     0.010 A 
ATOM     81  C   UNL A   1      43.405  34.377  34.923  1.00  0.00     0.010 A 
ATOM     82  C   UNL A   1      44.746  36.550  33.782  1.00  0.00     0.020 A 
ATOM     83  C   UNL A   1      43.860  35.414  35.740  1.00  0.00     0.020 A 
ATOM     84  C   UNL A   1      44.541  36.487  35.164  1.00  0.00     0.054 A 
BRANCH  84  85
ATOM     85  S   UNL A   1      45.144  37.852  36.195  1.00  0.00     0.124 S 
ATOM     86  O   UNL A   1      45.150  38.966  35.252  1.00  0.00    -0.237 OA
ATOM     87  O   UNL A   1      44.135  37.925  37.249  1.00  0.00    -0.237 OA
ATOM     88  O   UNL A   1      46.463  37.399  36.634  1.00  0.00    -0.744 OA
ENDBRANCH  84  85
ENDBRANCH  58  79
ENDBRANCH  32  33
ENDBRANCH  24  27
ENDBRANCH  22  23
ENDBRANCH  21  22
ENDBRANCH   1  21
TORSDOF 19
ENDMDL
MODEL 2
REMARK VINA RESULT:      -9.2      3.244      9.036
REMARK SMILES C=CCS(=O)(=O)N[C@H](CC(N)=O)C(=O)NCCCNC(=O)c1ccc(-c2c3nc(c(-c4ccc(S(=O)(=O)[O-])cc4)c4ccc([nH]4)c(-c4ccc(S(=O)(=O)[O-])cc4)c4nc(c(-c5ccc(S(=O)(=O)[O-])cc5)c5ccc2[nH]5)C=C4)C=C3)cc1
REMARK SMILES IDX 16 1 15 2 13 3 14 4 8 6 7 7 4 9 5 10 6 11 3 12 2 13 1 14
REMARK SMILES IDX 9 15 10 16 11 17 12 18 17 21 18 22 19 23 20 24 21 26 22 27
REMARK SMILES IDX 23 28 81 29 24 30 80 31 25 32 26 33 27 34 74 35 28 36 79 37
REMARK SMILES IDX 73 38 75 39 29 40 78 41 72 42 71 43 30 45 60 46 41 47 59 48
REMARK SMILES IDX 42 49 45 50 58 51 76 52 43 53 44 54 57 56 77 57 46 58 31 59
REMARK SMILES IDX 32 60 40 61 33 62 39 63 34 64 35 65 36 66 37 67 38 68 61 69
REMARK SMILES IDX 62 70 70 71 63 72 69 73 64 74 65 75 66 76 67 77 68 78 47 79
REMARK SMILES IDX 48 80 56 81 49 82 55 83 50 84 51 85 52 86 53 87 54 88
REMARK H PARENT 15 5 7 8 11 19 11 20 19 25 75 44 45 55
REMARK Flexibility Score: inf
ROOT
ATOM      1  C   UNL A   1      42.169  21.180  26.480  1.00  0.00     0.117 C 
ENDROOT
BRANCH   1   2
ATOM      2  N   UNL A   1      42.685  21.745  25.247  1.00  0.00    -0.355 N 
ATOM      3  C   UNL A   1      43.940  21.790  24.743  1.00  0.00     0.238 C 
ATOM      4  O   UNL A   1      44.100  22.400  23.681  1.00  0.00    -0.273 OA
ATOM      5  H   UNL A   1      42.003  22.168  24.677  1.00  0.00     0.163 HD
BRANCH   3   6
ATOM      6  C   UNL A   1      45.128  21.145  25.438  1.00  0.00     0.168 C 
BRANCH   6   7
ATOM      7  N   UNL A   1      46.035  21.955  26.285  1.00  0.00    -0.202 NA
ATOM      8  H   UNL A   1      45.883  21.632  27.241  1.00  0.00     0.141 HD
BRANCH   7   9
ATOM      9  S   UNL A   1      46.003  23.629  26.362  1.00  0.00     0.215 S 
ATOM     10  O   UNL A   1      46.935  24.082  27.368  1.00  0.00    -0.212 OA
ATOM     11  O   UNL A   1      44.595  23.933  26.520  1.00  0.00    -0.212 OA
BRANCH   9  12
ATOM     12  C   UNL A   1      46.522  24.275  24.759  1.00  0.00     0.180 C 
BRANCH  12  13
ATOM     13  C   UNL A   1      47.209  25.601  24.891  1.00  0.00    -0.017 C 
ATOM     14  C   UNL A   1      48.537  25.754  24.974  1.00  0.00     0.005 C 
ENDBRANCH  12  13
ENDBRANCH   9  12
ENDBRANCH   7   9
ENDBRANCH   6   7
BRANCH   6  15
ATOM     15  C   UNL A   1      45.910  20.200  24.512  1.00  0.00     0.129 C 
BRANCH  15  16
ATOM     16  C   UNL A   1      45.134  19.032  23.965  1.00  0.00     0.219 C 
ATOM     17  N   UNL A   1      45.232  18.817  22.623  1.00  0.00    -0.370 N 
ATOM     18  O   UNL A   1      44.447  18.302  24.667  1.00  0.00    -0.275 OA
ATOM     19  H   UNL A   1      45.788  19.411  22.069  1.00  0.00     0.159 HD
ATOM     20  H   UNL A   1      44.747  18.068  22.208  1.00  0.00     0.159 HD
ENDBRANCH  15  16
ENDBRANCH   6  15
ENDBRANCH   3   6
ENDBRANCH   1   2
BRANCH   1  21
ATOM     21  C   UNL A   1      40.909  21.899  26.921  1.00  0.00     0.042 C 
BRANCH  21  22
ATOM     22  C   UNL A   1      41.190  23.341  27.305  1.00  0.00     0.118 C 
BRANCH  22  23
ATOM     23  N   UNL A   1      41.476  24.174  26.141  1.00  0.00    -0.352 N 
ATOM     24  C   UNL A   1      41.463  25.543  26.040  1.00  0.00     0.251 C 
ATOM     25  H   UNL A   1      41.710  23.687  25.317  1.00  0.00     0.163 HD
ATOM     26  O   UNL A   1      41.492  26.088  24.942  1.00  0.00    -0.269 OA
BRANCH  24  27
ATOM     27  C   UNL A   1      41.387  26.346  27.276  1.00  0.00     0.039 A 
ATOM     28  C   UNL A   1      42.329  27.350  27.500  1.00  0.00     0.014 A 
ATOM     29  C   UNL A   1      40.348  26.134  28.185  1.00  0.00     0.014 A 
ATOM     30  C   UNL A   1      42.186  28.184  28.610  1.00  0.00     0.010 A 
ATOM     31  C   UNL A   1      40.137  27.042  29.212  1.00  0.00     0.010 A 
ATOM     32  C   UNL A   1      41.067  28.062  29.451  1.00  0.00    -0.014 A 
BRANCH  32  33
ATOM     33  C   UNL A   1      40.867  28.965  30.611  1.00  0.00     0.031 A 
ATOM     34  C   UNL A   1      41.731  28.809  31.836  1.00  0.00     0.074 A 
ATOM     35  C   UNL A   1      39.878  29.881  30.587  1.00  0.00     0.049 A 
ATOM     36  N   UNL A   1      41.684  29.464  32.966  1.00  0.00    -0.248 NA
ATOM     37  C   UNL A   1      42.765  27.758  31.797  1.00  0.00     0.031 C 
ATOM     38  C   UNL A   1      38.942  30.092  29.479  1.00  0.00     0.029 A 
ATOM     39  N   UNL A   1      39.494  30.808  31.523  1.00  0.00    -0.354 N 
ATOM     40  C   UNL A   1      42.662  28.892  33.773  1.00  0.00     0.074 A 
ATOM     41  C   UNL A   1      43.239  27.795  33.031  1.00  0.00     0.031 C 
ATOM     42  C   UNL A   1      38.123  31.111  29.782  1.00  0.00     0.029 A 
ATOM     43  C   UNL A   1      38.440  31.594  31.122  1.00  0.00     0.049 A 
ATOM     44  H   UNL A   1      39.933  30.901  32.399  1.00  0.00     0.167 HD
ATOM     45  C   UNL A   1      43.065  29.265  35.010  1.00  0.00     0.031 A 
ATOM     46  C   UNL A   1      37.797  32.589  31.765  1.00  0.00     0.031 A 
ATOM     47  C   UNL A   1      42.497  30.368  35.736  1.00  0.00     0.049 A 
ATOM     48  C   UNL A   1      38.255  32.979  33.144  1.00  0.00     0.074 A 
ATOM     49  C   UNL A   1      42.870  30.868  36.970  1.00  0.00     0.029 A 
ATOM     50  N   UNL A   1      41.435  31.142  35.293  1.00  0.00    -0.354 N 
ATOM     51  N   UNL A   1      39.231  32.473  33.861  1.00  0.00    -0.248 NA
ATOM     52  C   UNL A   1      37.533  34.079  33.796  1.00  0.00     0.031 C 
ATOM     53  C   UNL A   1      41.993  31.904  37.302  1.00  0.00     0.029 A 
ATOM     54  C   UNL A   1      41.120  32.098  36.242  1.00  0.00     0.049 A 
ATOM     55  H   UNL A   1      40.974  31.028  34.431  1.00  0.00     0.167 HD
ATOM     56  C   UNL A   1      39.259  33.215  35.038  1.00  0.00     0.074 A 
ATOM     57  C   UNL A   1      38.216  34.213  34.926  1.00  0.00     0.031 C 
ATOM     58  C   UNL A   1      40.076  33.083  36.112  1.00  0.00     0.031 A 
BRANCH  45  59
ATOM     59  C   UNL A   1      44.171  28.468  35.654  1.00  0.00    -0.014 A 
ATOM     60  C   UNL A   1      45.522  28.818  35.473  1.00  0.00     0.010 A 
ATOM     61  C   UNL A   1      43.855  27.374  36.479  1.00  0.00     0.010 A 
ATOM     62  C   UNL A   1      46.536  28.064  36.068  1.00  0.00     0.020 A 
ATOM     63  C   UNL A   1      44.865  26.638  37.105  1.00  0.00     0.020 A 
ATOM     64  C   UNL A   1      46.200  26.978  36.883  1.00  0.00     0.054 A 
BRANCH  64  65
ATOM     65  S   UNL A   1      47.537  26.037  37.668  1.00  0.00     0.124 S 
ATOM     66  O   UNL A   1      47.090  24.659  37.475  1.00  0.00    -0.237 OA
ATOM     67  O   UNL A   1      48.707  26.433  36.887  1.00  0.00    -0.237 OA
ATOM     68  O   UNL A   1      47.526  26.506  39.052  1.00  0.00    -0.744 OA
ENDBRANCH  64  65
ENDBRANCH  45  59
BRANCH  46  69
ATOM     69  C   UNL A   1      36.663  33.294  31.103  1.00  0.00    -0.014 A 
ATOM     70  C   UNL A   1      36.895  34.169  30.026  1.00  0.00     0.010 A 
ATOM     71  C   UNL A   1      35.342  33.084  31.539  1.00  0.00     0.010 A 
ATOM     72  C   UNL A   1      35.829  34.836  29.413  1.00  0.00     0.020 A 
ATOM     73  C   UNL A   1      34.272  33.725  30.909  1.00  0.00     0.020 A 
ATOM     74  C   UNL A   1      34.524  34.607  29.856  1.00  0.00     0.054 A 
BRANCH  74  75
ATOM     75  S   UNL A   1      33.154  35.447  29.013  1.00  0.00     0.124 S 
ATOM     76  O   UNL A   1      32.316  35.863  30.134  1.00  0.00    -0.237 OA
ATOM     77  O   UNL A   1      33.837  36.523  28.299  1.00  0.00    -0.237 OA
ATOM     78  O   UNL A   1      32.587  34.406  28.159  1.00  0.00    -0.744 OA
ENDBRANCH  74  75
ENDBRANCH  46  69
BRANCH  58  79
ATOM     79  C   UNL A   1      39.900  34.064  37.241  1.00  0.00    -0.014 A 
ATOM     80  C   UNL A   1      40.561  35.305  37.244  1.00  0.00     0.010 A 
ATOM     81  C   UNL A   1      39.009  33.760  38.288  1.00  0.00     0.010 A 
ATOM     82  C   UNL A   1      40.359  36.210  38.290  1.00  0.00     0.020 A 
ATOM     83  C   UNL A   1      38.780  34.675  39.318  1.00  0.00     0.020 A 
ATOM     84  C   UNL A   1      39.468  35.888  39.319  1.00  0.00     0.054 A 
BRANCH  84  85
ATOM     85  S   UNL A   1      39.192  37.100  40.640  1.00  0.00     0.124 S 
ATOM     86  O   UNL A   1      38.246  38.020  40.016  1.00  0.00    -0.237 OA
ATOM     87  O   UNL A   1      38.651  36.277  41.719  1.00  0.00    -0.237 OA
ATOM     88  O   UNL A   1      40.523  37.650  40.890  1.00  0.00    -0.744 OA
ENDBRANCH  84  85
ENDBRANCH  58  79
ENDBRANCH  32  33
ENDBRANCH  24  27
ENDBRANCH  22  23
ENDBRANCH  21  22
ENDBRANCH   1  21
TORSDOF 19
ENDMDL
MODEL 3
REMARK VINA RESULT:      -9.0      1.469      8.388
REMARK SMILES C=CCS(=O)(=O)N[C@H](CC(N)=O)C(=O)NCCCNC(=O)c1ccc(-c2c3nc(c(-c4ccc(S(=O)(=O)[O-])cc4)c4ccc([nH]4)c(-c4ccc(S(=O)(=O)[O-])cc4)c4nc(c(-c5ccc(S(=O)(=O)[O-])cc5)c5ccc2[nH]5)C=C4)C=C3)cc1
REMARK SMILES IDX 16 1 15 2 13 3 14 4 8 6 7 7 4 9 5 10 6 11 3 12 2 13 1 14
REMARK SMILES IDX 9 15 10 16 11 17 12 18 17 21 18 22 19 23 20 24 21 26 22 27
REMARK SMILES IDX 23 28 81 29 24 30 80 31 25 32 26 33 27 34 74 35 28 36 79 37
REMARK SMILES IDX 73 38 75 39 29 40 78 41 72 42 71 43 30 45 60 46 41 47 59 48
REMARK SMILES IDX 42 49 45 50 58 51 76 52 43 53 44 54 57 56 77 57 46 58 31 59
REMARK SMILES IDX 32 60 40 61 33 62 39 63 34 64 35 65 36 66 37 67 38 68 61 69
REMARK SMILES IDX 62 70 70 71 63 72 69 73 64 74 65 75 66 76 67 77 68 78 47 79
REMARK SMILES IDX 48 80 56 81 49 82 55 83 50 84 51 85 52 86 53 87 54 88
REMARK H PARENT 15 5 7 8 11 19 11 20 19 25 75 44 45 55
REMARK Flexibility Score: inf
ROOT
ATOM      1  C   UNL A   1      42.576  20.710  26.765  1.00  0.00     0.117 C 
ENDROOT
BRANCH   1   2
ATOM      2  N   UNL A   1      42.836  21.450  25.543  1.00  0.00    -0.355 N 
ATOM      3  C   UNL A   1      43.989  21.911  25.008  1.00  0.00     0.238 C 
ATOM      4  O   UNL A   1      43.904  22.575  23.969  1.00  0.00    -0.273 OA
ATOM      5  H   UNL A   1      42.033  21.650  25.011  1.00  0.00     0.163 HD
BRANCH   3   6
ATOM      6  C   UNL A   1      45.348  21.659  25.641  1.00  0.00     0.168 C 
BRANCH   6   7
ATOM      7  N   UNL A   1      46.085  22.761  26.303  1.00  0.00    -0.202 NA
ATOM      8  H   UNL A   1      45.480  23.083  27.059  1.00  0.00     0.141 HD
BRANCH   7   9
ATOM      9  S   UNL A   1      46.608  24.147  25.520  1.00  0.00     0.215 S 
ATOM     10  O   UNL A   1      46.803  23.862  24.118  1.00  0.00    -0.212 OA
ATOM     11  O   UNL A   1      47.741  24.576  26.314  1.00  0.00    -0.212 OA
BRANCH   9  12
ATOM     12  C   UNL A   1      45.324  25.403  25.683  1.00  0.00     0.180 C 
BRANCH  12  13
ATOM     13  C   UNL A   1      45.661  26.645  24.914  1.00  0.00    -0.017 C 
ATOM     14  C   UNL A   1      46.001  27.810  25.479  1.00  0.00     0.005 C 
ENDBRANCH  12  13
ENDBRANCH   9  12
ENDBRANCH   7   9
ENDBRANCH   6   7
BRANCH   6  15
ATOM     15  C   UNL A   1      46.270  20.820  24.743  1.00  0.00     0.129 C 
BRANCH  15  16
ATOM     16  C   UNL A   1      46.015  19.336  24.752  1.00  0.00     0.219 C 
ATOM     17  N   UNL A   1      46.194  18.699  25.943  1.00  0.00    -0.370 N 
ATOM     18  O   UNL A   1      45.667  18.714  23.756  1.00  0.00    -0.275 OA
ATOM     19  H   UNL A   1      46.474  19.210  26.736  1.00  0.00     0.159 HD
ATOM     20  H   UNL A   1      46.043  17.729  26.009  1.00  0.00     0.159 HD
ENDBRANCH  15  16
ENDBRANCH   6  15
ENDBRANCH   3   6
ENDBRANCH   1   2
BRANCH   1  21
ATOM     21  C   UNL A   1      41.090  20.482  26.956  1.00  0.00     0.042 C 
BRANCH  21  22
ATOM     22  C   UNL A   1      40.362  21.772  27.292  1.00  0.00     0.118 C 
BRANCH  22  23
ATOM     23  N   UNL A   1      39.321  22.085  26.319  1.00  0.00    -0.352 N 
ATOM     24  C   UNL A   1      38.641  23.263  26.138  1.00  0.00     0.251 C 
ATOM     25  H   UNL A   1      39.073  21.351  25.710  1.00  0.00     0.163 HD
ATOM     26  O   UNL A   1      37.633  23.302  25.441  1.00  0.00    -0.269 OA
BRANCH  24  27
ATOM     27  C   UNL A   1      39.131  24.478  26.819  1.00  0.00     0.039 A 
ATOM     28  C   UNL A   1      38.826  24.680  28.165  1.00  0.00     0.014 A 
ATOM     29  C   UNL A   1      39.937  25.388  26.130  1.00  0.00     0.014 A 
ATOM     30  C   UNL A   1      39.388  25.767  28.835  1.00  0.00     0.010 A 
ATOM     31  C   UNL A   1      40.593  26.390  26.830  1.00  0.00     0.010 A 
ATOM     32  C   UNL A   1      40.307  26.607  28.184  1.00  0.00    -0.014 A 
BRANCH  32  33
ATOM     33  C   UNL A   1      40.953  27.742  28.886  1.00  0.00     0.031 A 
ATOM     34  C   UNL A   1      42.454  27.783  29.015  1.00  0.00     0.074 A 
ATOM     35  C   UNL A   1      40.195  28.702  29.453  1.00  0.00     0.049 A 
ATOM     36  N   UNL A   1      43.205  28.661  29.628  1.00  0.00    -0.248 NA
ATOM     37  C   UNL A   1      43.209  26.676  28.401  1.00  0.00     0.031 C 
ATOM     38  C   UNL A   1      38.730  28.745  29.440  1.00  0.00     0.029 A 
ATOM     39  N   UNL A   1      40.550  29.828  30.150  1.00  0.00    -0.354 N 
ATOM     40  C   UNL A   1      44.510  28.200  29.490  1.00  0.00     0.074 A 
ATOM     41  C   UNL A   1      44.445  26.934  28.797  1.00  0.00     0.031 C 
ATOM     42  C   UNL A   1      38.316  29.861  30.060  1.00  0.00     0.029 A 
ATOM     43  C   UNL A   1      39.479  30.587  30.558  1.00  0.00     0.049 A 
ATOM     44  H   UNL A   1      41.485  30.070  30.341  1.00  0.00     0.167 HD
ATOM     45  C   UNL A   1      45.664  28.792  29.879  1.00  0.00     0.031 A 
ATOM     46  C   UNL A   1      39.439  31.738  31.259  1.00  0.00     0.031 A 
ATOM     47  C   UNL A   1      45.721  30.060  30.554  1.00  0.00     0.049 A 
ATOM     48  C   UNL A   1      40.733  32.371  31.691  1.00  0.00     0.074 A 
ATOM     49  C   UNL A   1      46.839  30.777  30.941  1.00  0.00     0.029 A 
ATOM     50  N   UNL A   1      44.615  30.799  30.944  1.00  0.00    -0.354 N 
ATOM     51  N   UNL A   1      41.961  31.957  31.487  1.00  0.00    -0.248 NA
ATOM     52  C   UNL A   1      40.637  33.632  32.439  1.00  0.00     0.031 C 
ATOM     53  C   UNL A   1      46.408  31.919  31.621  1.00  0.00     0.029 A 
ATOM     54  C   UNL A   1      45.022  31.951  31.593  1.00  0.00     0.049 A 
ATOM     55  H   UNL A   1      43.678  30.541  30.783  1.00  0.00     0.167 HD
ATOM     56  C   UNL A   1      42.785  32.923  32.055  1.00  0.00     0.074 A 
ATOM     57  C   UNL A   1      41.915  33.949  32.594  1.00  0.00     0.031 C 
ATOM     58  C   UNL A   1      44.139  32.960  32.123  1.00  0.00     0.031 A 
BRANCH  45  59
ATOM     59  C   UNL A   1      46.953  28.069  29.585  1.00  0.00    -0.014 A 
ATOM     60  C   UNL A   1      47.729  28.393  28.456  1.00  0.00     0.010 A 
ATOM     61  C   UNL A   1      47.414  27.075  30.467  1.00  0.00     0.010 A 
ATOM     62  C   UNL A   1      48.917  27.707  28.192  1.00  0.00     0.020 A 
ATOM     63  C   UNL A   1      48.620  26.411  30.225  1.00  0.00     0.020 A 
ATOM     64  C   UNL A   1      49.356  26.720  29.080  1.00  0.00     0.054 A 
BRANCH  64  65
ATOM     65  S   UNL A   1      50.918  25.870  28.727  1.00  0.00     0.124 S 
ATOM     66  O   UNL A   1      50.453  24.561  28.271  1.00  0.00    -0.237 OA
ATOM     67  O   UNL A   1      51.517  26.716  27.698  1.00  0.00    -0.237 OA
ATOM     68  O   UNL A   1      51.612  25.869  30.012  1.00  0.00    -0.744 OA
ENDBRANCH  64  65
ENDBRANCH  45  59
BRANCH  46  69
ATOM     69  C   UNL A   1      38.128  32.369  31.581  1.00  0.00    -0.014 A 
ATOM     70  C   UNL A   1      37.404  31.975  32.721  1.00  0.00     0.010 A 
ATOM     71  C   UNL A   1      37.601  33.378  30.754  1.00  0.00     0.010 A 
ATOM     72  C   UNL A   1      36.169  32.562  33.015  1.00  0.00     0.020 A 
ATOM     73  C   UNL A   1      36.382  33.989  31.062  1.00  0.00     0.020 A 
ATOM     74  C   UNL A   1      35.668  33.569  32.186  1.00  0.00     0.054 A 
BRANCH  74  75
ATOM     75  S   UNL A   1      34.087  34.350  32.615  1.00  0.00     0.124 S 
ATOM     76  O   UNL A   1      33.525  34.643  31.300  1.00  0.00    -0.237 OA
ATOM     77  O   UNL A   1      33.412  33.298  33.373  1.00  0.00    -0.237 OA
ATOM     78  O   UNL A   1      34.483  35.515  33.401  1.00  0.00    -0.744 OA
ENDBRANCH  74  75
ENDBRANCH  46  69
BRANCH  58  79
ATOM     79  C   UNL A   1      44.769  34.164  32.772  1.00  0.00    -0.014 A 
ATOM     80  C   UNL A   1      45.065  35.323  32.034  1.00  0.00     0.010 A 
ATOM     81  C   UNL A   1      45.012  34.153  34.159  1.00  0.00     0.010 A 
ATOM     82  C   UNL A   1      45.624  36.438  32.666  1.00  0.00     0.020 A 
ATOM     83  C   UNL A   1      45.539  35.276  34.799  1.00  0.00     0.020 A 
ATOM     84  C   UNL A   1      45.855  36.407  34.045  1.00  0.00     0.054 A 
BRANCH  84  85
ATOM     85  S   UNL A   1      46.540  37.883  34.846  1.00  0.00     0.124 S 
ATOM     86  O   UNL A   1      47.513  38.341  33.858  1.00  0.00    -0.237 OA
ATOM     87  O   UNL A   1      45.362  38.732  35.009  1.00  0.00    -0.237 OA
ATOM     88  O   UNL A   1      47.109  37.370  36.091  1.00  0.00    -0.744 OA
ENDBRANCH  84  85
ENDBRANCH  58  79
ENDBRANCH  32  33
ENDBRANCH  24  27
ENDBRANCH  22  23
ENDBRANCH  21  22
ENDBRANCH   1  21
TORSDOF 19
ENDMDL
