MODEL 1
REMARK VINA RESULT:     -11.3      0.000      0.000
REMARK SMILES O=C(NCCCNC(=O)C1(Cc2ccncc2)Cc2ccccc2C1)c1ccc(-c2c3nc(c(-c4ccc(S(=O)(=O)[O-])cc4)c4ccc([nH]4)c(-c4ccc(S(=O)(=O)[O-])cc4)c4nc(c(-c5ccc(S(=O)(=O)[O-])cc5)c5ccc2[nH]5)C=C4)C=C3)cc1
REMARK SMILES IDX 4 1 3 2 1 3 2 4 26 6 27 7 85 8 28 9 84 10 29 11 30 12 31 13
REMARK SMILES IDX 78 14 32 15 83 16 77 17 79 18 33 19 82 20 76 21 75 22 34 24
REMARK SMILES IDX 64 25 45 26 63 27 46 28 49 29 62 30 80 31 47 32 48 33 61 35
REMARK SMILES IDX 81 36 50 37 35 38 36 39 44 40 37 41 43 42 38 43 39 44 40 45
REMARK SMILES IDX 41 46 42 47 65 48 66 49 74 50 67 51 73 52 68 53 69 54 70 55
REMARK SMILES IDX 71 56 72 57 51 58 52 59 60 60 53 61 59 62 54 63 55 64 56 65
REMARK SMILES IDX 57 66 58 67 5 68 6 69 7 70 8 71 9 73 10 74 18 75 25 76 19 77
REMARK SMILES IDX 24 78 20 79 23 80 21 81 22 82 11 83 12 84 13 85 17 86 14 87
REMARK SMILES IDX 16 88 15 89
REMARK H PARENT 3 5 79 23 49 34 7 72
REMARK Flexibility Score: inf
ROOT
ATOM      1  C   UNL A   1      32.999  28.502  27.271  1.00  0.00     0.118 C 
ENDROOT
BRANCH   1   2
ATOM      2  N   UNL A   1      33.196  29.929  27.452  1.00  0.00    -0.352 N 
ATOM      3  O   UNL A   1      34.084  31.791  28.307  1.00  0.00    -0.269 OA
ATOM      4  C   UNL A   1      34.258  30.616  27.988  1.00  0.00     0.251 C 
ATOM      5  H   UNL A   1      32.451  30.493  27.140  1.00  0.00     0.163 HD
BRANCH   4   6
ATOM      6  C   UNL A   1      35.601  30.003  28.175  1.00  0.00     0.039 A 
ATOM      7  C   UNL A   1      36.575  30.015  27.171  1.00  0.00     0.014 A 
ATOM      8  C   UNL A   1      35.948  29.549  29.455  1.00  0.00     0.014 A 
ATOM      9  C   UNL A   1      37.874  29.558  27.442  1.00  0.00     0.010 A 
ATOM     10  C   UNL A   1      37.254  29.127  29.734  1.00  0.00     0.010 A 
ATOM     11  C   UNL A   1      38.236  29.136  28.733  1.00  0.00    -0.014 A 
BRANCH  11  12
ATOM     12  C   UNL A   1      39.655  28.827  29.066  1.00  0.00     0.031 A 
ATOM     13  C   UNL A   1      40.554  29.847  29.712  1.00  0.00     0.074 A 
ATOM     14  C   UNL A   1      40.160  27.620  28.735  1.00  0.00     0.049 A 
ATOM     15  N   UNL A   1      41.818  29.739  30.040  1.00  0.00    -0.248 NA
ATOM     16  C   UNL A   1      39.963  31.158  30.017  1.00  0.00     0.031 C 
ATOM     17  C   UNL A   1      39.416  26.548  28.072  1.00  0.00     0.029 A 
ATOM     18  N   UNL A   1      41.418  27.094  28.905  1.00  0.00    -0.354 N 
ATOM     19  C   UNL A   1      42.180  30.967  30.584  1.00  0.00     0.074 A 
ATOM     20  C   UNL A   1      41.006  31.813  30.514  1.00  0.00     0.031 C 
ATOM     21  C   UNL A   1      40.223  25.487  27.910  1.00  0.00     0.029 A 
ATOM     22  C   UNL A   1      41.550  25.812  28.425  1.00  0.00     0.049 A 
ATOM     23  H   UNL A   1      42.156  27.588  29.331  1.00  0.00     0.167 HD
ATOM     24  C   UNL A   1      43.373  31.352  31.099  1.00  0.00     0.031 A 
ATOM     25  C   UNL A   1      42.616  24.988  28.390  1.00  0.00     0.031 A 
ATOM     26  C   UNL A   1      44.546  30.517  31.172  1.00  0.00     0.049 A 
ATOM     27  C   UNL A   1      43.931  25.442  28.957  1.00  0.00     0.074 A 
ATOM     28  C   UNL A   1      45.782  30.817  31.723  1.00  0.00     0.029 A 
ATOM     29  N   UNL A   1      44.636  29.228  30.675  1.00  0.00    -0.354 N 
ATOM     30  N   UNL A   1      44.233  26.589  29.517  1.00  0.00    -0.248 NA
ATOM     31  C   UNL A   1      45.047  24.487  28.894  1.00  0.00     0.031 C 
ATOM     32  C   UNL A   1      46.630  29.721  31.524  1.00  0.00     0.029 A 
ATOM     33  C   UNL A   1      45.910  28.724  30.887  1.00  0.00     0.049 A 
ATOM     34  H   UNL A   1      43.903  28.740  30.235  1.00  0.00     0.167 HD
ATOM     35  C   UNL A   1      45.568  26.486  29.888  1.00  0.00     0.074 A 
ATOM     36  C   UNL A   1      46.013  25.163  29.502  1.00  0.00     0.031 C 
ATOM     37  C   UNL A   1      46.352  27.409  30.497  1.00  0.00     0.031 A 
BRANCH  24  38
ATOM     38  C   UNL A   1      43.479  32.759  31.626  1.00  0.00    -0.014 A 
ATOM     39  C   UNL A   1      43.127  33.063  32.953  1.00  0.00     0.010 A 
ATOM     40  C   UNL A   1      43.986  33.780  30.801  1.00  0.00     0.010 A 
ATOM     41  C   UNL A   1      43.244  34.369  33.434  1.00  0.00     0.020 A 
ATOM     42  C   UNL A   1      44.123  35.085  31.285  1.00  0.00     0.020 A 
ATOM     43  C   UNL A   1      43.733  35.375  32.595  1.00  0.00     0.054 A 
BRANCH  43  44
ATOM     44  S   UNL A   1      43.887  37.061  33.247  1.00  0.00     0.124 S 
ATOM     45  O   UNL A   1      45.196  37.014  33.896  1.00  0.00    -0.237 OA
ATOM     46  O   UNL A   1      43.816  37.884  32.042  1.00  0.00    -0.237 OA
ATOM     47  O   UNL A   1      42.748  37.188  34.151  1.00  0.00    -0.744 OA
ENDBRANCH  43  44
ENDBRANCH  24  38
BRANCH  25  48
ATOM     48  C   UNL A   1      42.475  23.632  27.796  1.00  0.00    -0.014 A 
ATOM     49  C   UNL A   1      42.903  23.385  26.480  1.00  0.00     0.010 A 
ATOM     50  C   UNL A   1      41.936  22.577  28.553  1.00  0.00     0.010 A 
ATOM     51  C   UNL A   1      42.788  22.106  25.928  1.00  0.00     0.020 A 
ATOM     52  C   UNL A   1      41.838  21.293  28.012  1.00  0.00     0.020 A 
ATOM     53  C   UNL A   1      42.257  21.068  26.699  1.00  0.00     0.054 A 
BRANCH  53  54
ATOM     54  S   UNL A   1      42.179  19.398  25.990  1.00  0.00     0.124 S 
ATOM     55  O   UNL A   1      40.744  19.226  25.778  1.00  0.00    -0.237 OA
ATOM     56  O   UNL A   1      42.985  19.527  24.779  1.00  0.00    -0.237 OA
ATOM     57  O   UNL A   1      42.765  18.560  27.032  1.00  0.00    -0.744 OA
ENDBRANCH  53  54
ENDBRANCH  25  48
BRANCH  37  58
ATOM     58  C   UNL A   1      47.771  27.014  30.807  1.00  0.00    -0.014 A 
ATOM     59  C   UNL A   1      48.080  26.258  31.953  1.00  0.00     0.010 A 
ATOM     60  C   UNL A   1      48.803  27.371  29.922  1.00  0.00     0.010 A 
ATOM     61  C   UNL A   1      49.401  25.890  32.220  1.00  0.00     0.020 A 
ATOM     62  C   UNL A   1      50.123  26.989  30.176  1.00  0.00     0.020 A 
ATOM     63  C   UNL A   1      50.416  26.261  31.332  1.00  0.00     0.054 A 
BRANCH  63  64
ATOM     64  S   UNL A   1      52.120  25.740  31.676  1.00  0.00     0.124 S 
ATOM     65  O   UNL A   1      51.934  24.354  32.099  1.00  0.00    -0.237 OA
ATOM     66  O   UNL A   1      52.781  25.918  30.385  1.00  0.00    -0.237 OA
ATOM     67  O   UNL A   1      52.557  26.658  32.725  1.00  0.00    -0.744 OA
ENDBRANCH  63  64
ENDBRANCH  37  58
ENDBRANCH  11  12
ENDBRANCH   4   6
ENDBRANCH   1   2
BRANCH   1  68
ATOM     68  C   UNL A   1      33.279  28.080  25.822  1.00  0.00     0.042 C 
BRANCH  68  69
ATOM     69  C   UNL A   1      32.491  26.870  25.305  1.00  0.00     0.117 C 
BRANCH  69  70
ATOM     70  N   UNL A   1      32.884  26.402  23.985  1.00  0.00    -0.356 N 
ATOM     71  C   UNL A   1      33.631  25.386  23.491  1.00  0.00     0.227 C 
ATOM     72  H   UNL A   1      32.514  26.968  23.270  1.00  0.00     0.163 HD
ATOM     73  O   UNL A   1      33.692  25.365  22.255  1.00  0.00    -0.274 OA
BRANCH  71  74
ATOM     74  C   UNL A   1      34.315  24.285  24.319  1.00  0.00     0.061 C 
ATOM     75  C   UNL A   1      35.193  23.410  23.361  1.00  0.00     0.053 C 
ATOM     76  C   UNL A   1      35.384  24.922  25.277  1.00  0.00     0.053 C 
ATOM     77  C   UNL A   1      36.326  22.989  24.258  1.00  0.00    -0.044 A 
ATOM     78  C   UNL A   1      36.411  23.837  25.366  1.00  0.00    -0.044 A 
ATOM     79  C   UNL A   1      37.204  21.930  24.115  1.00  0.00     0.004 A 
ATOM     80  C   UNL A   1      37.339  23.629  26.372  1.00  0.00     0.004 A 
ATOM     81  C   UNL A   1      38.144  21.705  25.128  1.00  0.00     0.000 A 
ATOM     82  C   UNL A   1      38.204  22.542  26.254  1.00  0.00     0.000 A 
BRANCH  74  83
ATOM     83  C   UNL A   1      33.375  23.373  25.151  1.00  0.00     0.053 C 
BRANCH  83  84
ATOM     84  C   UNL A   1      33.200  21.914  24.791  1.00  0.00    -0.044 A 
ATOM     85  C   UNL A   1      33.650  20.840  25.562  1.00  0.00     0.024 A 
ATOM     86  C   UNL A   1      32.467  21.619  23.631  1.00  0.00     0.024 A 
ATOM     87  C   UNL A   1      33.337  19.548  25.162  1.00  0.00     0.111 A 
ATOM     88  C   UNL A   1      32.204  20.296  23.314  1.00  0.00     0.111 A 
ATOM     89  N   UNL A   1      32.613  19.256  24.064  1.00  0.00    -0.265 NA
ENDBRANCH  83  84
ENDBRANCH  74  83
ENDBRANCH  71  74
ENDBRANCH  69  70
ENDBRANCH  68  69
ENDBRANCH   1  68
TORSDOF 15
ENDMDL
MODEL 2
REMARK VINA RESULT:     -11.3      2.697      9.448
REMARK SMILES O=C(NCCCNC(=O)C1(Cc2ccncc2)Cc2ccccc2C1)c1ccc(-c2c3nc(c(-c4ccc(S(=O)(=O)[O-])cc4)c4ccc([nH]4)c(-c4ccc(S(=O)(=O)[O-])cc4)c4nc(c(-c5ccc(S(=O)(=O)[O-])cc5)c5ccc2[nH]5)C=C4)C=C3)cc1
REMARK SMILES IDX 4 1 3 2 1 3 2 4 26 6 27 7 85 8 28 9 84 10 29 11 30 12 31 13
REMARK SMILES IDX 78 14 32 15 83 16 77 17 79 18 33 19 82 20 76 21 75 22 34 24
REMARK SMILES IDX 64 25 45 26 63 27 46 28 49 29 62 30 80 31 47 32 48 33 61 35
REMARK SMILES IDX 81 36 50 37 35 38 36 39 44 40 37 41 43 42 38 43 39 44 40 45
REMARK SMILES IDX 41 46 42 47 65 48 66 49 74 50 67 51 73 52 68 53 69 54 70 55
REMARK SMILES IDX 71 56 72 57 51 58 52 59 60 60 53 61 59 62 54 63 55 64 56 65
REMARK SMILES IDX 57 66 58 67 5 68 6 69 7 70 8 71 9 73 10 74 18 75 25 76 19 77
REMARK SMILES IDX 24 78 20 79 23 80 21 81 22 82 11 83 12 84 13 85 17 86 14 87
REMARK SMILES IDX 16 88 15 89
REMARK H PARENT 3 5 79 23 49 34 7 72
REMARK Flexibility Score: inf
ROOT
ATOM      1  C   UNL A   1      37.011  23.312  24.876  1.00  0.00     0.118 C 
ENDROOT
BRANCH   1   2
ATOM      2  N   UNL A   1      38.060  22.489  25.450  1.00  0.00    -0.352 N 
ATOM      3  O   UNL A   1      40.075  22.013  26.289  1.00  0.00    -0.269 OA
ATOM      4  C   UNL A   1      39.182  22.848  26.157  1.00  0.00     0.251 C 
ATOM      5  H   UNL A   1      37.950  21.520  25.311  1.00  0.00     0.163 HD
BRANCH   4   6
ATOM      6  C   UNL A   1      39.344  24.190  26.780  1.00  0.00     0.039 A 
ATOM      7  C   UNL A   1      38.946  24.458  28.095  1.00  0.00     0.014 A 
ATOM      8  C   UNL A   1      40.068  25.162  26.077  1.00  0.00     0.014 A 
ATOM      9  C   UNL A   1      39.253  25.692  28.688  1.00  0.00     0.010 A 
ATOM     10  C   UNL A   1      40.405  26.381  26.681  1.00  0.00     0.010 A 
ATOM     11  C   UNL A   1      40.011  26.656  27.998  1.00  0.00    -0.014 A 
BRANCH  11  12
ATOM     12  C   UNL A   1      40.493  27.886  28.689  1.00  0.00     0.031 A 
ATOM     13  C   UNL A   1      41.875  27.968  29.278  1.00  0.00     0.074 A 
ATOM     14  C   UNL A   1      39.652  28.932  28.832  1.00  0.00     0.049 A 
ATOM     15  N   UNL A   1      42.432  28.958  29.931  1.00  0.00    -0.248 NA
ATOM     16  C   UNL A   1      42.736  26.787  29.127  1.00  0.00     0.031 C 
ATOM     17  C   UNL A   1      38.272  28.977  28.344  1.00  0.00     0.029 A 
ATOM     18  N   UNL A   1      39.832  30.154  29.432  1.00  0.00    -0.354 N 
ATOM     19  C   UNL A   1      43.707  28.521  30.276  1.00  0.00     0.074 A 
ATOM     20  C   UNL A   1      43.827  27.164  29.783  1.00  0.00     0.031 C 
ATOM     21  C   UNL A   1      37.738  30.172  28.646  1.00  0.00     0.029 A 
ATOM     22  C   UNL A   1      38.721  30.964  29.378  1.00  0.00     0.049 A 
ATOM     23  H   UNL A   1      40.676  30.425  29.862  1.00  0.00     0.167 HD
ATOM     24  C   UNL A   1      44.687  29.187  30.935  1.00  0.00     0.031 A 
ATOM     25  C   UNL A   1      38.507  32.202  29.867  1.00  0.00     0.031 A 
ATOM     26  C   UNL A   1      44.575  30.536  31.429  1.00  0.00     0.049 A 
ATOM     27  C   UNL A   1      39.606  32.915  30.603  1.00  0.00     0.074 A 
ATOM     28  C   UNL A   1      45.540  31.302  32.066  1.00  0.00     0.029 A 
ATOM     29  N   UNL A   1      43.436  31.320  31.353  1.00  0.00    -0.354 N 
ATOM     30  N   UNL A   1      40.821  32.502  30.869  1.00  0.00    -0.248 NA
ATOM     31  C   UNL A   1      39.304  34.266  31.100  1.00  0.00     0.031 C 
ATOM     32  C   UNL A   1      44.970  32.533  32.408  1.00  0.00     0.029 A 
ATOM     33  C   UNL A   1      43.664  32.551  31.948  1.00  0.00     0.049 A 
ATOM     34  H   UNL A   1      42.587  31.043  30.937  1.00  0.00     0.167 HD
ATOM     35  C   UNL A   1      41.435  33.547  31.547  1.00  0.00     0.074 A 
ATOM     36  C   UNL A   1      40.463  34.617  31.641  1.00  0.00     0.031 C 
ATOM     37  C   UNL A   1      42.694  33.612  32.045  1.00  0.00     0.031 A 
BRANCH  24  38
ATOM     38  C   UNL A   1      45.982  28.457  31.172  1.00  0.00    -0.014 A 
ATOM     39  C   UNL A   1      47.036  28.532  30.243  1.00  0.00     0.010 A 
ATOM     40  C   UNL A   1      46.170  27.730  32.362  1.00  0.00     0.010 A 
ATOM     41  C   UNL A   1      48.238  27.863  30.482  1.00  0.00     0.020 A 
ATOM     42  C   UNL A   1      47.379  27.075  32.614  1.00  0.00     0.020 A 
ATOM     43  C   UNL A   1      48.400  27.130  31.662  1.00  0.00     0.054 A 
BRANCH  43  44
ATOM     44  S   UNL A   1      49.976  26.280  31.955  1.00  0.00     0.124 S 
ATOM     45  O   UNL A   1      50.651  26.447  30.670  1.00  0.00    -0.237 OA
ATOM     46  O   UNL A   1      50.551  27.032  33.067  1.00  0.00    -0.237 OA
ATOM     47  O   UNL A   1      49.577  24.911  32.274  1.00  0.00    -0.744 OA
ENDBRANCH  43  44
ENDBRANCH  24  38
BRANCH  25  48
ATOM     48  C   UNL A   1      37.185  32.852  29.664  1.00  0.00    -0.014 A 
ATOM     49  C   UNL A   1      36.212  32.815  30.678  1.00  0.00     0.010 A 
ATOM     50  C   UNL A   1      36.903  33.532  28.466  1.00  0.00     0.010 A 
ATOM     51  C   UNL A   1      34.977  33.441  30.495  1.00  0.00     0.020 A 
ATOM     52  C   UNL A   1      35.677  34.177  28.288  1.00  0.00     0.020 A 
ATOM     53  C   UNL A   1      34.718  34.119  29.300  1.00  0.00     0.054 A 
BRANCH  53  54
ATOM     54  S   UNL A   1      33.134  34.986  29.107  1.00  0.00     0.124 S 
ATOM     55  O   UNL A   1      32.462  34.167  28.102  1.00  0.00    -0.237 OA
ATOM     56  O   UNL A   1      32.570  34.924  30.452  1.00  0.00    -0.237 OA
ATOM     57  O   UNL A   1      33.530  36.321  28.668  1.00  0.00    -0.744 OA
ENDBRANCH  53  54
ENDBRANCH  25  48
BRANCH  37  58
ATOM     58  C   UNL A   1      43.106  34.893  32.719  1.00  0.00    -0.014 A 
ATOM     59  C   UNL A   1      43.725  35.928  31.994  1.00  0.00     0.010 A 
ATOM     60  C   UNL A   1      42.835  35.080  34.086  1.00  0.00     0.010 A 
ATOM     61  C   UNL A   1      44.091  37.117  32.633  1.00  0.00     0.020 A 
ATOM     62  C   UNL A   1      43.182  36.274  34.723  1.00  0.00     0.020 A 
ATOM     63  C   UNL A   1      43.821  37.281  33.995  1.00  0.00     0.054 A 
BRANCH  63  64
ATOM     64  S   UNL A   1      44.267  38.846  34.798  1.00  0.00     0.124 S 
ATOM     65  O   UNL A   1      44.030  38.543  36.207  1.00  0.00    -0.237 OA
ATOM     66  O   UNL A   1      45.669  39.017  34.420  1.00  0.00    -0.237 OA
ATOM     67  O   UNL A   1      43.347  39.813  34.204  1.00  0.00    -0.744 OA
ENDBRANCH  63  64
ENDBRANCH  37  58
ENDBRANCH  11  12
ENDBRANCH   4   6
ENDBRANCH   1   2
BRANCH   1  68
ATOM     68  C   UNL A   1      35.706  23.187  25.675  1.00  0.00     0.042 C 
BRANCH  68  69
ATOM     69  C   UNL A   1      34.416  23.540  24.923  1.00  0.00     0.117 C 
BRANCH  69  70
ATOM     70  N   UNL A   1      33.231  23.649  25.759  1.00  0.00    -0.356 N 
ATOM     71  C   UNL A   1      32.435  24.653  26.199  1.00  0.00     0.227 C 
ATOM     72  H   UNL A   1      32.932  22.772  26.090  1.00  0.00     0.163 HD
ATOM     73  O   UNL A   1      31.497  24.272  26.912  1.00  0.00    -0.274 OA
BRANCH  71  74
ATOM     74  C   UNL A   1      32.578  26.141  25.838  1.00  0.00     0.061 C 
ATOM     75  C   UNL A   1      31.622  26.975  26.756  1.00  0.00     0.053 C 
ATOM     76  C   UNL A   1      33.998  26.660  26.261  1.00  0.00     0.053 C 
ATOM     77  C   UNL A   1      32.371  28.271  26.909  1.00  0.00    -0.044 A 
ATOM     78  C   UNL A   1      33.722  28.093  26.594  1.00  0.00    -0.044 A 
ATOM     79  C   UNL A   1      31.895  29.516  27.281  1.00  0.00     0.004 A 
ATOM     80  C   UNL A   1      34.616  29.149  26.604  1.00  0.00     0.004 A 
ATOM     81  C   UNL A   1      32.788  30.593  27.289  1.00  0.00     0.000 A 
ATOM     82  C   UNL A   1      34.137  30.414  26.943  1.00  0.00     0.000 A 
BRANCH  74  83
ATOM     83  C   UNL A   1      32.332  26.509  24.350  1.00  0.00     0.053 C 
BRANCH  83  84
ATOM     84  C   UNL A   1      30.980  27.014  23.894  1.00  0.00    -0.044 A 
ATOM     85  C   UNL A   1      29.783  26.302  24.003  1.00  0.00     0.024 A 
ATOM     86  C   UNL A   1      30.915  28.322  23.391  1.00  0.00     0.024 A 
ATOM     87  C   UNL A   1      28.597  26.923  23.634  1.00  0.00     0.111 A 
ATOM     88  C   UNL A   1      29.683  28.856  23.049  1.00  0.00     0.111 A 
ATOM     89  N   UNL A   1      28.522  28.186  23.174  1.00  0.00    -0.265 NA
ENDBRANCH  83  84
ENDBRANCH  74  83
ENDBRANCH  71  74
ENDBRANCH  69  70
ENDBRANCH  68  69
ENDBRANCH   1  68
TORSDOF 15
ENDMDL
MODEL 3
REMARK VINA RESULT:     -11.0      4.475     10.187
REMARK SMILES O=C(NCCCNC(=O)C1(Cc2ccncc2)Cc2ccccc2C1)c1ccc(-c2c3nc(c(-c4ccc(S(=O)(=O)[O-])cc4)c4ccc([nH]4)c(-c4ccc(S(=O)(=O)[O-])cc4)c4nc(c(-c5ccc(S(=O)(=O)[O-])cc5)c5ccc2[nH]5)C=C4)C=C3)cc1
REMARK SMILES IDX 4 1 3 2 1 3 2 4 26 6 27 7 85 8 28 9 84 10 29 11 30 12 31 13
REMARK SMILES IDX 78 14 32 15 83 16 77 17 79 18 33 19 82 20 76 21 75 22 34 24
REMARK SMILES IDX 64 25 45 26 63 27 46 28 49 29 62 30 80 31 47 32 48 33 61 35
REMARK SMILES IDX 81 36 50 37 35 38 36 39 44 40 37 41 43 42 38 43 39 44 40 45
REMARK SMILES IDX 41 46 42 47 65 48 66 49 74 50 67 51 73 52 68 53 69 54 70 55
REMARK SMILES IDX 71 56 72 57 51 58 52 59 60 60 53 61 59 62 54 63 55 64 56 65
REMARK SMILES IDX 57 66 58 67 5 68 6 69 7 70 8 71 9 73 10 74 18 75 25 76 19 77
REMARK SMILES IDX 24 78 20 79 23 80 21 81 22 82 11 83 12 84 13 85 17 86 14 87
REMARK SMILES IDX 16 88 15 89
REMARK H PARENT 3 5 79 23 49 34 7 72
REMARK Flexibility Score: inf
ROOT
ATOM      1  C   UNL A   1      40.125  23.076  27.003  1.00  0.00     0.118 C 
ENDROOT
BRANCH   1   2
ATOM      2  N   UNL A   1      40.838  23.890  26.036  1.00  0.00    -0.352 N 
ATOM      3  O   UNL A   1      41.554  25.764  25.052  1.00  0.00    -0.269 OA
ATOM      4  C   UNL A   1      41.224  25.207  26.098  1.00  0.00     0.251 C 
ATOM      5  H   UNL A   1      41.085  23.425  25.203  1.00  0.00     0.163 HD
BRANCH   4   6
ATOM      6  C   UNL A   1      41.277  25.969  27.376  1.00  0.00     0.039 A 
ATOM      7  C   UNL A   1      42.329  26.840  27.685  1.00  0.00     0.014 A 
ATOM      8  C   UNL A   1      40.155  25.933  28.214  1.00  0.00     0.014 A 
ATOM      9  C   UNL A   1      42.263  27.648  28.830  1.00  0.00     0.010 A 
ATOM     10  C   UNL A   1      40.074  26.765  29.339  1.00  0.00     0.010 A 
ATOM     11  C   UNL A   1      41.123  27.641  29.654  1.00  0.00    -0.014 A 
BRANCH  11  12
ATOM     12  C   UNL A   1      40.975  28.627  30.761  1.00  0.00     0.031 A 
ATOM     13  C   UNL A   1      41.849  28.574  31.985  1.00  0.00     0.074 A 
ATOM     14  C   UNL A   1      40.001  29.558  30.687  1.00  0.00     0.049 A 
ATOM     15  N   UNL A   1      41.827  29.345  33.045  1.00  0.00    -0.248 NA
ATOM     16  C   UNL A   1      42.869  27.517  32.031  1.00  0.00     0.031 C 
ATOM     17  C   UNL A   1      39.055  29.703  29.579  1.00  0.00     0.029 A 
ATOM     18  N   UNL A   1      39.640  30.554  31.562  1.00  0.00    -0.354 N 
ATOM     19  C   UNL A   1      42.822  28.865  33.889  1.00  0.00     0.074 A 
ATOM     20  C   UNL A   1      43.410  27.718  33.227  1.00  0.00     0.031 C 
ATOM     21  C   UNL A   1      38.238  30.738  29.830  1.00  0.00     0.029 A 
ATOM     22  C   UNL A   1      38.575  31.309  31.131  1.00  0.00     0.049 A 
ATOM     23  H   UNL A   1      40.100  30.712  32.419  1.00  0.00     0.167 HD
ATOM     24  C   UNL A   1      43.216  29.337  35.098  1.00  0.00     0.031 A 
ATOM     25  C   UNL A   1      37.931  32.341  31.712  1.00  0.00     0.031 A 
ATOM     26  C   UNL A   1      42.637  30.477  35.764  1.00  0.00     0.049 A 
ATOM     27  C   UNL A   1      38.379  32.839  33.056  1.00  0.00     0.074 A 
ATOM     28  C   UNL A   1      43.010  31.050  36.970  1.00  0.00     0.029 A 
ATOM     29  N   UNL A   1      41.562  31.212  35.292  1.00  0.00    -0.354 N 
ATOM     30  N   UNL A   1      39.359  32.403  33.811  1.00  0.00    -0.248 NA
ATOM     31  C   UNL A   1      37.636  33.973  33.626  1.00  0.00     0.031 C 
ATOM     32  C   UNL A   1      42.135  32.107  37.244  1.00  0.00     0.029 A 
ATOM     33  C   UNL A   1      41.245  32.220  36.190  1.00  0.00     0.049 A 
ATOM     34  H   UNL A   1      41.092  31.044  34.443  1.00  0.00     0.167 HD
ATOM     35  C   UNL A   1      39.362  33.221  34.934  1.00  0.00     0.074 A 
ATOM     36  C   UNL A   1      38.296  34.185  34.757  1.00  0.00     0.031 C 
ATOM     37  C   UNL A   1      40.180  33.174  36.014  1.00  0.00     0.031 A 
BRANCH  24  38
ATOM     38  C   UNL A   1      44.335  28.610  35.796  1.00  0.00    -0.014 A 
ATOM     39  C   UNL A   1      45.679  28.915  35.518  1.00  0.00     0.010 A 
ATOM     40  C   UNL A   1      44.040  27.647  36.778  1.00  0.00     0.010 A 
ATOM     41  C   UNL A   1      46.708  28.244  36.183  1.00  0.00     0.020 A 
ATOM     42  C   UNL A   1      45.067  26.988  37.460  1.00  0.00     0.020 A 
ATOM     43  C   UNL A   1      46.396  27.277  37.145  1.00  0.00     0.054 A 
BRANCH  43  44
ATOM     44  S   UNL A   1      47.750  26.428  38.003  1.00  0.00     0.124 S 
ATOM     45  O   UNL A   1      47.097  25.201  38.455  1.00  0.00    -0.237 OA
ATOM     46  O   UNL A   1      48.747  26.255  36.949  1.00  0.00    -0.237 OA
ATOM     47  O   UNL A   1      48.127  27.360  39.064  1.00  0.00    -0.744 OA
ENDBRANCH  43  44
ENDBRANCH  24  38
BRANCH  25  48
ATOM     48  C   UNL A   1      36.787  32.980  31.010  1.00  0.00    -0.014 A 
ATOM     49  C   UNL A   1      35.467  32.714  31.413  1.00  0.00     0.010 A 
ATOM     50  C   UNL A   1      37.014  33.877  29.951  1.00  0.00     0.010 A 
ATOM     51  C   UNL A   1      34.392  33.329  30.765  1.00  0.00     0.020 A 
ATOM     52  C   UNL A   1      35.943  34.510  29.315  1.00  0.00     0.020 A 
ATOM     53  C   UNL A   1      34.638  34.225  29.720  1.00  0.00     0.054 A 
BRANCH  53  54
ATOM     54  S   UNL A   1      33.234  35.067  28.936  1.00  0.00     0.124 S 
ATOM     55  O   UNL A   1      32.374  35.351  30.082  1.00  0.00    -0.237 OA
ATOM     56  O   UNL A   1      33.865  36.230  28.317  1.00  0.00    -0.237 OA
ATOM     57  O   UNL A   1      32.723  34.072  27.998  1.00  0.00    -0.744 OA
ENDBRANCH  53  54
ENDBRANCH  25  48
BRANCH  37  58
ATOM     58  C   UNL A   1      39.971  34.212  37.084  1.00  0.00    -0.014 A 
ATOM     59  C   UNL A   1      40.595  35.471  37.007  1.00  0.00     0.010 A 
ATOM     60  C   UNL A   1      39.108  33.939  38.160  1.00  0.00     0.010 A 
ATOM     61  C   UNL A   1      40.381  36.428  38.003  1.00  0.00     0.020 A 
ATOM     62  C   UNL A   1      38.877  34.900  39.148  1.00  0.00     0.020 A 
ATOM     63  C   UNL A   1      39.527  36.135  39.070  1.00  0.00     0.054 A 
BRANCH  63  64
ATOM     64  S   UNL A   1      39.231  37.404  40.333  1.00  0.00     0.124 S 
ATOM     65  O   UNL A   1      38.264  38.275  39.668  1.00  0.00    -0.237 OA
ATOM     66  O   UNL A   1      38.708  36.629  41.457  1.00  0.00    -0.237 OA
ATOM     67  O   UNL A   1      40.551  37.990  40.550  1.00  0.00    -0.744 OA
ENDBRANCH  63  64
ENDBRANCH  37  58
ENDBRANCH  11  12
ENDBRANCH   4   6
ENDBRANCH   1   2
BRANCH   1  68
ATOM     68  C   UNL A   1      38.921  22.374  26.359  1.00  0.00     0.042 C 
BRANCH  68  69
ATOM     69  C   UNL A   1      37.819  23.290  25.810  1.00  0.00     0.117 C 
BRANCH  69  70
ATOM     70  N   UNL A   1      36.571  23.261  26.557  1.00  0.00    -0.356 N 
ATOM     71  C   UNL A   1      35.344  22.711  26.389  1.00  0.00     0.227 C 
ATOM     72  H   UNL A   1      36.633  23.770  27.397  1.00  0.00     0.163 HD
ATOM     73  O   UNL A   1      34.559  22.948  27.316  1.00  0.00    -0.274 OA
BRANCH  71  74
ATOM     74  C   UNL A   1      34.912  21.813  25.218  1.00  0.00     0.061 C 
ATOM     75  C   UNL A   1      35.676  20.449  25.323  1.00  0.00     0.053 C 
ATOM     76  C   UNL A   1      33.413  21.382  25.398  1.00  0.00     0.053 C 
ATOM     77  C   UNL A   1      34.682  19.478  24.743  1.00  0.00    -0.044 A 
ATOM     78  C   UNL A   1      33.397  20.028  24.758  1.00  0.00    -0.044 A 
ATOM     79  C   UNL A   1      34.899  18.214  24.224  1.00  0.00     0.004 A 
ATOM     80  C   UNL A   1      32.311  19.355  24.227  1.00  0.00     0.004 A 
ATOM     81  C   UNL A   1      33.811  17.524  23.679  1.00  0.00     0.000 A 
ATOM     82  C   UNL A   1      32.527  18.095  23.671  1.00  0.00     0.000 A 
BRANCH  74  83
ATOM     83  C   UNL A   1      35.095  22.410  23.796  1.00  0.00     0.053 C 
BRANCH  83  84
ATOM     84  C   UNL A   1      34.306  23.626  23.363  1.00  0.00    -0.044 A 
ATOM     85  C   UNL A   1      34.383  24.885  23.963  1.00  0.00     0.024 A 
ATOM     86  C   UNL A   1      33.489  23.496  22.230  1.00  0.00     0.024 A 
ATOM     87  C   UNL A   1      33.676  25.940  23.404  1.00  0.00     0.111 A 
ATOM     88  C   UNL A   1      32.820  24.608  21.745  1.00  0.00     0.111 A 
ATOM     89  N   UNL A   1      32.909  25.830  22.302  1.00  0.00    -0.265 NA
ENDBRANCH  83  84
ENDBRANCH  74  83
ENDBRANCH  71  74
ENDBRANCH  69  70
ENDBRANCH  68  69
ENDBRANCH   1  68
TORSDOF 15
ENDMDL
