MODEL 1
REMARK VINA RESULT:     -10.0      0.000      0.000
REMARK SMILES Cc1cc(Br)ccc1NS(=O)(=O)c1ccc(C(=O)NCCCNC(=O)c2ccc(-c3c4nc(c(-c5ccc(S(=O)(=O)[O-])cc5)c5ccc([nH]5)c(-c5ccc(S(=O)(=O)[O-])cc5)c5nc(c(-c6ccc(S(=O)(=O)[O-])cc6)c6ccc3[nH]6)C=C5)C=C4)cc2)cc1
REMARK SMILES IDX 21 1 20 2 19 3 17 4 18 5 16 7 13 8 14 9 87 10 15 11 86 12
REMARK SMILES IDX 10 13 11 14 12 15 9 16 8 18 1 19 2 20 3 21 4 22 7 23 5 24
REMARK SMILES IDX 6 25 22 26 23 27 24 28 25 30 26 31 27 32 85 33 28 34 84 35
REMARK SMILES IDX 29 36 30 37 31 38 78 39 32 40 83 41 77 42 79 43 33 44 82 45
REMARK SMILES IDX 76 46 75 47 34 49 64 50 45 51 63 52 46 53 49 54 62 55 80 56
REMARK SMILES IDX 47 57 48 58 61 60 81 61 50 62 35 63 36 64 44 65 37 66 43 67
REMARK SMILES IDX 38 68 39 69 40 70 41 71 42 72 65 73 66 74 74 75 67 76 73 77
REMARK SMILES IDX 68 78 69 79 70 80 71 81 72 82 51 83 52 84 60 85 53 86 59 87
REMARK SMILES IDX 54 88 55 89 56 90 57 91 58 92
REMARK H PARENT 19 6 9 17 23 29 79 48 49 59
REMARK Flexibility Score: inf
ROOT
ATOM      1  C   UNL A   1      33.411  34.059  28.247  1.00  0.00     0.042 C 
ENDROOT
BRANCH   1   2
ATOM      2  C   UNL A   1      33.878  35.193  29.152  1.00  0.00     0.118 C 
BRANCH   2   3
ATOM      3  N   UNL A   1      32.979  35.354  30.279  1.00  0.00    -0.352 N 
ATOM      4  C   UNL A   1      33.117  34.933  31.572  1.00  0.00     0.251 C 
ATOM      5  O   UNL A   1      32.254  35.204  32.403  1.00  0.00    -0.269 OA
ATOM      6  H   UNL A   1      32.144  35.838  30.084  1.00  0.00     0.163 HD
BRANCH   4   7
ATOM      7  C   UNL A   1      34.328  34.212  32.008  1.00  0.00     0.039 A 
ATOM      8  C   UNL A   1      36.559  32.948  33.104  1.00  0.00     0.087 A 
ATOM      9  C   UNL A   1      36.461  34.343  33.142  1.00  0.00     0.023 A 
ATOM     10  C   UNL A   1      35.598  32.192  32.420  1.00  0.00     0.023 A 
ATOM     11  C   UNL A   1      35.321  34.968  32.642  1.00  0.00     0.015 A 
ATOM     12  C   UNL A   1      34.475  32.827  31.876  1.00  0.00     0.015 A 
BRANCH   8  13
ATOM     13  S   UNL A   1      37.936  32.151  33.894  1.00  0.00     0.261 S 
ATOM     14  O   UNL A   1      37.535  31.851  35.256  1.00  0.00    -0.201 OA
ATOM     15  O   UNL A   1      39.110  32.956  33.649  1.00  0.00    -0.201 OA
BRANCH  13  16
ATOM     16  N   UNL A   1      38.252  30.648  33.126  1.00  0.00    -0.279 N 
ATOM     17  H   UNL A   1      37.592  30.286  32.492  1.00  0.00     0.180 HD
BRANCH  16  18
ATOM     18  C   UNL A   1      39.458  29.902  33.386  1.00  0.00     0.052 A 
ATOM     19  C   UNL A   1      38.577  27.698  32.367  1.00  0.00     0.046 C 
ATOM     20  C   UNL A   1      39.649  28.575  32.955  1.00  0.00    -0.026 A 
ATOM     21  C   UNL A   1      40.889  27.946  33.213  1.00  0.00     0.021 A 
ATOM     22  C   UNL A   1      41.893  28.604  33.919  1.00  0.00     0.018 A 
ATOM     23  C   UNL A   1      40.428  30.484  34.210  1.00  0.00     0.028 A 
ATOM     24  Br  UNL A   1      43.556  27.757  34.210  1.00  0.00    -0.051 Br
ATOM     25  C   UNL A   1      41.656  29.863  34.445  1.00  0.00     0.018 A 
ENDBRANCH  16  18
ENDBRANCH  13  16
ENDBRANCH   8  13
ENDBRANCH   4   7
ENDBRANCH   2   3
ENDBRANCH   1   2
BRANCH   1  26
ATOM     26  C   UNL A   1      34.365  32.868  28.243  1.00  0.00     0.118 C 
BRANCH  26  27
ATOM     27  N   UNL A   1      33.670  31.624  27.951  1.00  0.00    -0.352 N 
ATOM     28  C   UNL A   1      34.178  30.370  27.728  1.00  0.00     0.251 C 
ATOM     29  H   UNL A   1      32.689  31.692  27.907  1.00  0.00     0.163 HD
ATOM     30  O   UNL A   1      33.461  29.513  27.218  1.00  0.00    -0.269 OA
BRANCH  28  31
ATOM     31  C   UNL A   1      35.571  30.050  28.104  1.00  0.00     0.039 A 
ATOM     32  C   UNL A   1      36.562  30.100  27.122  1.00  0.00     0.014 A 
ATOM     33  C   UNL A   1      35.892  29.649  29.405  1.00  0.00     0.014 A 
ATOM     34  C   UNL A   1      37.877  29.773  27.453  1.00  0.00     0.010 A 
ATOM     35  C   UNL A   1      37.217  29.411  29.753  1.00  0.00     0.010 A 
ATOM     36  C   UNL A   1      38.219  29.445  28.775  1.00  0.00    -0.014 A 
BRANCH  36  37
ATOM     37  C   UNL A   1      39.618  29.110  29.139  1.00  0.00     0.031 A 
ATOM     38  C   UNL A   1      40.477  30.117  29.858  1.00  0.00     0.074 A 
ATOM     39  C   UNL A   1      40.122  27.909  28.792  1.00  0.00     0.049 A 
ATOM     40  N   UNL A   1      41.717  30.005  30.260  1.00  0.00    -0.248 NA
ATOM     41  C   UNL A   1      39.874  31.431  30.142  1.00  0.00     0.031 C 
ATOM     42  C   UNL A   1      39.399  26.870  28.053  1.00  0.00     0.029 A 
ATOM     43  N   UNL A   1      41.355  27.356  29.019  1.00  0.00    -0.354 N 
ATOM     44  C   UNL A   1      42.044  31.231  30.830  1.00  0.00     0.074 A 
ATOM     45  C   UNL A   1      40.894  32.092  30.669  1.00  0.00     0.031 C 
ATOM     46  C   UNL A   1      40.188  25.792  27.926  1.00  0.00     0.029 A 
ATOM     47  C   UNL A   1      41.484  26.076  28.534  1.00  0.00     0.049 A 
ATOM     48  H   UNL A   1      42.082  27.831  29.485  1.00  0.00     0.167 HD
ATOM     49  C   UNL A   1      43.189  31.598  31.452  1.00  0.00     0.031 A 
ATOM     50  C   UNL A   1      42.526  25.226  28.575  1.00  0.00     0.031 A 
ATOM     51  C   UNL A   1      44.327  30.732  31.612  1.00  0.00     0.049 A 
ATOM     52  C   UNL A   1      43.789  25.658  29.269  1.00  0.00     0.074 A 
ATOM     53  C   UNL A   1      45.518  30.987  32.268  1.00  0.00     0.029 A 
ATOM     54  N   UNL A   1      44.416  29.441  31.109  1.00  0.00    -0.354 N 
ATOM     55  N   UNL A   1      44.056  26.800  29.859  1.00  0.00    -0.248 NA
ATOM     56  C   UNL A   1      44.882  24.679  29.321  1.00  0.00     0.031 C 
ATOM     57  C   UNL A   1      46.350  29.874  32.110  1.00  0.00     0.029 A 
ATOM     58  C   UNL A   1      45.649  28.896  31.421  1.00  0.00     0.049 A 
ATOM     59  H   UNL A   1      43.706  28.982  30.605  1.00  0.00     0.167 HD
ATOM     60  C   UNL A   1      45.337  26.663  30.384  1.00  0.00     0.074 A 
ATOM     61  C   UNL A   1      45.780  25.323  30.055  1.00  0.00     0.031 C 
ATOM     62  C   UNL A   1      46.076  27.561  31.081  1.00  0.00     0.031 A 
BRANCH  49  63
ATOM     63  C   UNL A   1      43.269  33.002  32.000  1.00  0.00    -0.014 A 
ATOM     64  C   UNL A   1      42.945  33.283  33.341  1.00  0.00     0.010 A 
ATOM     65  C   UNL A   1      43.711  34.050  31.173  1.00  0.00     0.010 A 
ATOM     66  C   UNL A   1      43.021  34.589  33.831  1.00  0.00     0.020 A 
ATOM     67  C   UNL A   1      43.820  35.354  31.669  1.00  0.00     0.020 A 
ATOM     68  C   UNL A   1      43.459  35.617  32.991  1.00  0.00     0.054 A 
BRANCH  68  69
ATOM     69  S   UNL A   1      43.572  37.298  33.662  1.00  0.00     0.124 S 
ATOM     70  O   UNL A   1      44.739  37.196  34.535  1.00  0.00    -0.237 OA
ATOM     71  O   UNL A   1      43.755  38.110  32.461  1.00  0.00    -0.237 OA
ATOM     72  O   UNL A   1      42.296  37.485  34.349  1.00  0.00    -0.744 OA
ENDBRANCH  68  69
ENDBRANCH  49  63
BRANCH  50  73
ATOM     73  C   UNL A   1      42.408  23.874  27.962  1.00  0.00    -0.014 A 
ATOM     74  C   UNL A   1      42.758  23.662  26.617  1.00  0.00     0.010 A 
ATOM     75  C   UNL A   1      41.958  22.783  28.729  1.00  0.00     0.010 A 
ATOM     76  C   UNL A   1      42.638  22.392  26.044  1.00  0.00     0.020 A 
ATOM     77  C   UNL A   1      41.868  21.506  28.170  1.00  0.00     0.020 A 
ATOM     78  C   UNL A   1      42.196  21.322  26.825  1.00  0.00     0.054 A 
BRANCH  78  79
ATOM     79  S   UNL A   1      42.091  19.674  26.074  1.00  0.00     0.124 S 
ATOM     80  O   UNL A   1      42.542  18.814  27.162  1.00  0.00    -0.237 OA
ATOM     81  O   UNL A   1      40.673  19.575  25.733  1.00  0.00    -0.237 OA
ATOM     82  O   UNL A   1      42.994  19.763  24.928  1.00  0.00    -0.744 OA
ENDBRANCH  78  79
ENDBRANCH  50  73
BRANCH  62  83
ATOM     83  C   UNL A   1      47.422  27.106  31.581  1.00  0.00    -0.014 A 
ATOM     84  C   UNL A   1      47.592  26.583  32.876  1.00  0.00     0.010 A 
ATOM     85  C   UNL A   1      48.534  27.179  30.721  1.00  0.00     0.010 A 
ATOM     86  C   UNL A   1      48.857  26.190  33.318  1.00  0.00     0.020 A 
ATOM     87  C   UNL A   1      49.795  26.754  31.147  1.00  0.00     0.020 A 
ATOM     88  C   UNL A   1      49.952  26.281  32.451  1.00  0.00     0.054 A 
BRANCH  88  89
ATOM     89  S   UNL A   1      51.580  25.749  33.043  1.00  0.00     0.124 S 
ATOM     90  O   UNL A   1      51.896  26.780  34.029  1.00  0.00    -0.237 OA
ATOM     91  O   UNL A   1      51.305  24.422  33.588  1.00  0.00    -0.237 OA
ATOM     92  O   UNL A   1      52.409  25.762  31.840  1.00  0.00    -0.744 OA
ENDBRANCH  88  89
ENDBRANCH  62  83
ENDBRANCH  36  37
ENDBRANCH  28  31
ENDBRANCH  26  27
ENDBRANCH   1  26
TORSDOF 16
ENDMDL
MODEL 2
REMARK VINA RESULT:      -9.7      5.016     11.885
REMARK SMILES Cc1cc(Br)ccc1NS(=O)(=O)c1ccc(C(=O)NCCCNC(=O)c2ccc(-c3c4nc(c(-c5ccc(S(=O)(=O)[O-])cc5)c5ccc([nH]5)c(-c5ccc(S(=O)(=O)[O-])cc5)c5nc(c(-c6ccc(S(=O)(=O)[O-])cc6)c6ccc3[nH]6)C=C5)C=C4)cc2)cc1
REMARK SMILES IDX 21 1 20 2 19 3 17 4 18 5 16 7 13 8 14 9 87 10 15 11 86 12
REMARK SMILES IDX 10 13 11 14 12 15 9 16 8 18 1 19 2 20 3 21 4 22 7 23 5 24
REMARK SMILES IDX 6 25 22 26 23 27 24 28 25 30 26 31 27 32 85 33 28 34 84 35
REMARK SMILES IDX 29 36 30 37 31 38 78 39 32 40 83 41 77 42 79 43 33 44 82 45
REMARK SMILES IDX 76 46 75 47 34 49 64 50 45 51 63 52 46 53 49 54 62 55 80 56
REMARK SMILES IDX 47 57 48 58 61 60 81 61 50 62 35 63 36 64 44 65 37 66 43 67
REMARK SMILES IDX 38 68 39 69 40 70 41 71 42 72 65 73 66 74 74 75 67 76 73 77
REMARK SMILES IDX 68 78 69 79 70 80 71 81 72 82 51 83 52 84 60 85 53 86 59 87
REMARK SMILES IDX 54 88 55 89 56 90 57 91 58 92
REMARK H PARENT 19 6 9 17 23 29 79 48 49 59
REMARK Flexibility Score: inf
ROOT
ATOM      1  C   UNL A   1      39.393  22.081  26.466  1.00  0.00     0.042 C 
ENDROOT
BRANCH   1   2
ATOM      2  C   UNL A   1      37.925  22.219  26.078  1.00  0.00     0.118 C 
BRANCH   2   3
ATOM      3  N   UNL A   1      37.792  22.495  24.660  1.00  0.00    -0.352 N 
ATOM      4  C   UNL A   1      36.667  22.720  23.917  1.00  0.00     0.251 C 
ATOM      5  O   UNL A   1      36.763  22.980  22.721  1.00  0.00    -0.269 OA
ATOM      6  H   UNL A   1      38.639  22.525  24.158  1.00  0.00     0.163 HD
BRANCH   4   7
ATOM      7  C   UNL A   1      35.333  22.723  24.546  1.00  0.00     0.039 A 
ATOM      8  C   UNL A   1      32.768  22.990  25.606  1.00  0.00     0.087 A 
ATOM      9  C   UNL A   1      33.762  23.912  25.950  1.00  0.00     0.023 A 
ATOM     10  C   UNL A   1      33.083  21.872  24.822  1.00  0.00     0.023 A 
ATOM     11  C   UNL A   1      35.027  23.806  25.377  1.00  0.00     0.015 A 
ATOM     12  C   UNL A   1      34.369  21.742  24.286  1.00  0.00     0.015 A 
BRANCH   8  13
ATOM     13  S   UNL A   1      31.114  23.229  26.208  1.00  0.00     0.261 S 
ATOM     14  O   UNL A   1      31.218  23.643  27.596  1.00  0.00    -0.201 OA
ATOM     15  O   UNL A   1      30.345  22.056  25.862  1.00  0.00    -0.201 OA
BRANCH  13  16
ATOM     16  N   UNL A   1      30.370  24.523  25.358  1.00  0.00    -0.279 N 
ATOM     17  H   UNL A   1      29.388  24.570  25.322  1.00  0.00     0.180 HD
BRANCH  16  18
ATOM     18  C   UNL A   1      31.146  25.542  24.697  1.00  0.00     0.052 A 
ATOM     19  C   UNL A   1      31.194  27.135  26.730  1.00  0.00     0.046 C 
ATOM     20  C   UNL A   1      31.609  26.701  25.350  1.00  0.00    -0.026 A 
ATOM     21  C   UNL A   1      32.409  27.617  24.629  1.00  0.00     0.021 A 
ATOM     22  C   UNL A   1      32.702  27.408  23.284  1.00  0.00     0.018 A 
ATOM     23  C   UNL A   1      31.340  25.430  23.315  1.00  0.00     0.028 A 
ATOM     24  Br  UNL A   1      33.810  28.624  22.356  1.00  0.00    -0.051 Br
ATOM     25  C   UNL A   1      32.145  26.331  22.615  1.00  0.00     0.018 A 
ENDBRANCH  16  18
ENDBRANCH  13  16
ENDBRANCH   8  13
ENDBRANCH   4   7
ENDBRANCH   2   3
ENDBRANCH   1   2
BRANCH   1  26
ATOM     26  C   UNL A   1      39.979  23.364  27.049  1.00  0.00     0.118 C 
BRANCH  26  27
ATOM     27  N   UNL A   1      40.923  23.987  26.134  1.00  0.00    -0.352 N 
ATOM     28  C   UNL A   1      41.358  25.286  26.078  1.00  0.00     0.251 C 
ATOM     29  H   UNL A   1      41.307  23.388  25.454  1.00  0.00     0.163 HD
ATOM     30  O   UNL A   1      41.930  25.686  25.068  1.00  0.00    -0.269 OA
BRANCH  28  31
ATOM     31  C   UNL A   1      41.147  26.195  27.224  1.00  0.00     0.039 A 
ATOM     32  C   UNL A   1      41.985  27.302  27.370  1.00  0.00     0.014 A 
ATOM     33  C   UNL A   1      40.164  25.929  28.183  1.00  0.00     0.014 A 
ATOM     34  C   UNL A   1      41.819  28.154  28.462  1.00  0.00     0.010 A 
ATOM     35  C   UNL A   1      39.941  26.828  29.220  1.00  0.00     0.010 A 
ATOM     36  C   UNL A   1      40.783  27.936  29.385  1.00  0.00    -0.014 A 
BRANCH  36  37
ATOM     37  C   UNL A   1      40.589  28.845  30.541  1.00  0.00     0.031 A 
ATOM     38  C   UNL A   1      41.449  28.704  31.770  1.00  0.00     0.074 A 
ATOM     39  C   UNL A   1      39.617  29.777  30.493  1.00  0.00     0.049 A 
ATOM     40  N   UNL A   1      41.430  29.406  32.874  1.00  0.00    -0.248 NA
ATOM     41  C   UNL A   1      42.444  27.618  31.770  1.00  0.00     0.031 C 
ATOM     42  C   UNL A   1      38.692  29.978  29.374  1.00  0.00     0.029 A 
ATOM     43  N   UNL A   1      39.248  30.734  31.403  1.00  0.00    -0.354 N 
ATOM     44  C   UNL A   1      42.395  28.841  33.700  1.00  0.00     0.074 A 
ATOM     45  C   UNL A   1      42.941  27.702  32.996  1.00  0.00     0.031 C 
ATOM     46  C   UNL A   1      37.893  31.020  29.647  1.00  0.00     0.029 A 
ATOM     47  C   UNL A   1      38.216  31.534  30.973  1.00  0.00     0.049 A 
ATOM     48  H   UNL A   1      39.682  30.839  32.281  1.00  0.00     0.167 HD
ATOM     49  C   UNL A   1      42.807  29.247  34.924  1.00  0.00     0.031 A 
ATOM     50  C   UNL A   1      37.600  32.567  31.579  1.00  0.00     0.031 A 
ATOM     51  C   UNL A   1      42.262  30.386  35.615  1.00  0.00     0.049 A 
ATOM     52  C   UNL A   1      38.074  32.998  32.939  1.00  0.00     0.074 A 
ATOM     53  C   UNL A   1      42.640  30.914  36.837  1.00  0.00     0.029 A 
ATOM     54  N   UNL A   1      41.220  31.172  35.145  1.00  0.00    -0.354 N 
ATOM     55  N   UNL A   1      39.033  32.491  33.677  1.00  0.00    -0.248 NA
ATOM     56  C   UNL A   1      37.396  34.155  33.539  1.00  0.00     0.031 C 
ATOM     57  C   UNL A   1      41.787  31.982  37.133  1.00  0.00     0.029 A 
ATOM     58  C   UNL A   1      40.927  32.167  36.062  1.00  0.00     0.049 A 
ATOM     59  H   UNL A   1      40.757  31.041  34.286  1.00  0.00     0.167 HD
ATOM     60  C   UNL A   1      39.097  33.289  34.815  1.00  0.00     0.074 A 
ATOM     61  C   UNL A   1      38.092  34.320  34.656  1.00  0.00     0.031 C 
ATOM     62  C   UNL A   1      39.918  33.184  35.889  1.00  0.00     0.031 A 
BRANCH  49  63
ATOM     63  C   UNL A   1      43.898  28.450  35.596  1.00  0.00    -0.014 A 
ATOM     64  C   UNL A   1      45.252  28.810  35.467  1.00  0.00     0.010 A 
ATOM     65  C   UNL A   1      43.560  27.347  36.402  1.00  0.00     0.010 A 
ATOM     66  C   UNL A   1      46.250  28.058  36.094  1.00  0.00     0.020 A 
ATOM     67  C   UNL A   1      44.554  26.611  37.057  1.00  0.00     0.020 A 
ATOM     68  C   UNL A   1      45.893  26.963  36.886  1.00  0.00     0.054 A 
BRANCH  68  69
ATOM     69  S   UNL A   1      47.208  26.022  37.708  1.00  0.00     0.124 S 
ATOM     70  O   UNL A   1      47.252  24.801  36.906  1.00  0.00    -0.237 OA
ATOM     71  O   UNL A   1      48.365  26.904  37.572  1.00  0.00    -0.237 OA
ATOM     72  O   UNL A   1      46.713  25.852  39.072  1.00  0.00    -0.744 OA
ENDBRANCH  68  69
ENDBRANCH  49  63
BRANCH  50  73
ATOM     73  C   UNL A   1      36.488  33.277  30.889  1.00  0.00    -0.014 A 
ATOM     74  C   UNL A   1      35.208  33.341  31.468  1.00  0.00     0.010 A 
ATOM     75  C   UNL A   1      36.709  33.912  29.652  1.00  0.00     0.010 A 
ATOM     76  C   UNL A   1      34.165  34.002  30.813  1.00  0.00     0.020 A 
ATOM     77  C   UNL A   1      35.678  34.602  29.011  1.00  0.00     0.020 A 
ATOM     78  C   UNL A   1      34.408  34.631  29.589  1.00  0.00     0.054 A 
BRANCH  78  79
ATOM     79  S   UNL A   1      33.051  35.523  28.779  1.00  0.00     0.124 S 
ATOM     80  O   UNL A   1      33.769  36.526  28.001  1.00  0.00    -0.237 OA
ATOM     81  O   UNL A   1      32.401  34.467  28.005  1.00  0.00    -0.237 OA
ATOM     82  O   UNL A   1      32.265  36.039  29.897  1.00  0.00    -0.744 OA
ENDBRANCH  78  79
ENDBRANCH  50  73
BRANCH  62  83
ATOM     83  C   UNL A   1      39.799  34.241  36.955  1.00  0.00    -0.014 A 
ATOM     84  C   UNL A   1      38.967  34.068  38.077  1.00  0.00     0.010 A 
ATOM     85  C   UNL A   1      40.560  35.419  36.843  1.00  0.00     0.010 A 
ATOM     86  C   UNL A   1      38.861  35.076  39.038  1.00  0.00     0.020 A 
ATOM     87  C   UNL A   1      40.484  36.414  37.820  1.00  0.00     0.020 A 
ATOM     88  C   UNL A   1      39.618  36.245  38.902  1.00  0.00     0.054 A 
BRANCH  88  89
ATOM     89  S   UNL A   1      39.475  37.531  40.171  1.00  0.00     0.124 S 
ATOM     90  O   UNL A   1      40.785  38.173  40.102  1.00  0.00    -0.237 OA
ATOM     91  O   UNL A   1      38.354  38.334  39.687  1.00  0.00    -0.237 OA
ATOM     92  O   UNL A   1      39.213  36.781  41.398  1.00  0.00    -0.744 OA
ENDBRANCH  88  89
ENDBRANCH  62  83
ENDBRANCH  36  37
ENDBRANCH  28  31
ENDBRANCH  26  27
ENDBRANCH   1  26
TORSDOF 16
ENDMDL
MODEL 3
REMARK VINA RESULT:      -9.6      5.277     11.532
REMARK SMILES Cc1cc(Br)ccc1NS(=O)(=O)c1ccc(C(=O)NCCCNC(=O)c2ccc(-c3c4nc(c(-c5ccc(S(=O)(=O)[O-])cc5)c5ccc([nH]5)c(-c5ccc(S(=O)(=O)[O-])cc5)c5nc(c(-c6ccc(S(=O)(=O)[O-])cc6)c6ccc3[nH]6)C=C5)C=C4)cc2)cc1
REMARK SMILES IDX 21 1 20 2 19 3 17 4 18 5 16 7 13 8 14 9 87 10 15 11 86 12
REMARK SMILES IDX 10 13 11 14 12 15 9 16 8 18 1 19 2 20 3 21 4 22 7 23 5 24
REMARK SMILES IDX 6 25 22 26 23 27 24 28 25 30 26 31 27 32 85 33 28 34 84 35
REMARK SMILES IDX 29 36 30 37 31 38 78 39 32 40 83 41 77 42 79 43 33 44 82 45
REMARK SMILES IDX 76 46 75 47 34 49 64 50 45 51 63 52 46 53 49 54 62 55 80 56
REMARK SMILES IDX 47 57 48 58 61 60 81 61 50 62 35 63 36 64 44 65 37 66 43 67
REMARK SMILES IDX 38 68 39 69 40 70 41 71 42 72 65 73 66 74 74 75 67 76 73 77
REMARK SMILES IDX 68 78 69 79 70 80 71 81 72 82 51 83 52 84 60 85 53 86 59 87
REMARK SMILES IDX 54 88 55 89 56 90 57 91 58 92
REMARK H PARENT 19 6 9 17 23 29 79 48 49 59
REMARK Flexibility Score: inf
ROOT
ATOM      1  C   UNL A   1      38.427  19.586  25.001  1.00  0.00     0.042 C 
ENDROOT
BRANCH   1   2
ATOM      2  C   UNL A   1      37.161  20.436  24.990  1.00  0.00     0.118 C 
BRANCH   2   3
ATOM      3  N   UNL A   1      37.268  21.504  24.015  1.00  0.00    -0.352 N 
ATOM      4  C   UNL A   1      36.357  22.461  23.665  1.00  0.00     0.251 C 
ATOM      5  O   UNL A   1      36.651  23.317  22.836  1.00  0.00    -0.269 OA
ATOM      6  H   UNL A   1      38.126  21.548  23.534  1.00  0.00     0.163 HD
BRANCH   4   7
ATOM      7  C   UNL A   1      35.037  22.524  24.321  1.00  0.00     0.039 A 
ATOM      8  C   UNL A   1      32.558  22.937  25.529  1.00  0.00     0.087 A 
ATOM      9  C   UNL A   1      33.713  23.468  26.112  1.00  0.00     0.023 A 
ATOM     10  C   UNL A   1      32.653  22.106  24.404  1.00  0.00     0.023 A 
ATOM     11  C   UNL A   1      34.942  23.305  25.478  1.00  0.00     0.015 A 
ATOM     12  C   UNL A   1      33.897  21.905  23.796  1.00  0.00     0.015 A 
BRANCH   8  13
ATOM     13  S   UNL A   1      30.975  23.292  26.254  1.00  0.00     0.261 S 
ATOM     14  O   UNL A   1      31.213  23.700  27.626  1.00  0.00    -0.201 OA
ATOM     15  O   UNL A   1      30.103  22.175  25.975  1.00  0.00    -0.201 OA
BRANCH  13  16
ATOM     16  N   UNL A   1      30.260  24.633  25.453  1.00  0.00    -0.279 N 
ATOM     17  H   UNL A   1      29.280  24.726  25.459  1.00  0.00     0.180 HD
BRANCH  16  18
ATOM     18  C   UNL A   1      31.056  25.624  24.775  1.00  0.00     0.052 A 
ATOM     19  C   UNL A   1      31.292  27.164  26.836  1.00  0.00     0.046 C 
ATOM     20  C   UNL A   1      31.613  26.741  25.428  1.00  0.00    -0.026 A 
ATOM     21  C   UNL A   1      32.425  27.630  24.686  1.00  0.00     0.021 A 
ATOM     22  C   UNL A   1      32.638  27.438  23.323  1.00  0.00     0.018 A 
ATOM     23  C   UNL A   1      31.174  25.536  23.383  1.00  0.00     0.028 A 
ATOM     24  Br  UNL A   1      33.763  28.616  22.366  1.00  0.00    -0.051 Br
ATOM     25  C   UNL A   1      31.990  26.408  22.661  1.00  0.00     0.018 A 
ENDBRANCH  16  18
ENDBRANCH  13  16
ENDBRANCH   8  13
ENDBRANCH   4   7
ENDBRANCH   2   3
ENDBRANCH   1   2
BRANCH   1  26
ATOM     26  C   UNL A   1      39.456  20.063  26.022  1.00  0.00     0.118 C 
BRANCH  26  27
ATOM     27  N   UNL A   1      40.576  19.139  26.127  1.00  0.00    -0.352 N 
ATOM     28  C   UNL A   1      41.922  19.395  26.130  1.00  0.00     0.251 C 
ATOM     29  H   UNL A   1      40.330  18.190  26.208  1.00  0.00     0.163 HD
ATOM     30  O   UNL A   1      42.710  18.473  25.939  1.00  0.00    -0.269 OA
BRANCH  28  31
ATOM     31  C   UNL A   1      42.422  20.766  26.367  1.00  0.00     0.039 A 
ATOM     32  C   UNL A   1      42.583  21.206  27.682  1.00  0.00     0.014 A 
ATOM     33  C   UNL A   1      42.680  21.633  25.301  1.00  0.00     0.014 A 
ATOM     34  C   UNL A   1      43.026  22.507  27.924  1.00  0.00     0.010 A 
ATOM     35  C   UNL A   1      43.207  22.896  25.543  1.00  0.00     0.010 A 
ATOM     36  C   UNL A   1      43.361  23.356  26.857  1.00  0.00    -0.014 A 
BRANCH  36  37
ATOM     37  C   UNL A   1      43.847  24.736  27.105  1.00  0.00     0.031 A 
ATOM     38  C   UNL A   1      45.301  25.075  26.904  1.00  0.00     0.074 A 
ATOM     39  C   UNL A   1      42.983  25.672  27.543  1.00  0.00     0.049 A 
ATOM     40  N   UNL A   1      45.909  26.222  27.066  1.00  0.00    -0.248 NA
ATOM     41  C   UNL A   1      46.193  23.980  26.488  1.00  0.00     0.031 C 
ATOM     42  C   UNL A   1      41.561  25.448  27.819  1.00  0.00     0.029 A 
ATOM     43  N   UNL A   1      43.170  27.000  27.827  1.00  0.00    -0.354 N 
ATOM     44  C   UNL A   1      47.250  25.984  26.787  1.00  0.00     0.074 A 
ATOM     45  C   UNL A   1      47.378  24.572  26.502  1.00  0.00     0.031 C 
ATOM     46  C   UNL A   1      40.998  26.608  28.190  1.00  0.00     0.029 A 
ATOM     47  C   UNL A   1      42.022  27.646  28.222  1.00  0.00     0.049 A 
ATOM     48  H   UNL A   1      44.043  27.449  27.756  1.00  0.00     0.167 HD
ATOM     49  C   UNL A   1      48.277  26.865  26.747  1.00  0.00     0.031 A 
ATOM     50  C   UNL A   1      41.817  28.930  28.569  1.00  0.00     0.031 A 
ATOM     51  C   UNL A   1      48.139  28.270  27.026  1.00  0.00     0.049 A 
ATOM     52  C   UNL A   1      42.975  29.890  28.519  1.00  0.00     0.074 A 
ATOM     53  C   UNL A   1      49.104  29.259  26.967  1.00  0.00     0.029 A 
ATOM     54  N   UNL A   1      46.959  28.886  27.419  1.00  0.00    -0.354 N 
ATOM     55  N   UNL A   1      44.224  29.658  28.190  1.00  0.00    -0.248 NA
ATOM     56  C   UNL A   1      42.690  31.288  28.868  1.00  0.00     0.031 C 
ATOM     57  C   UNL A   1      48.523  30.461  27.383  1.00  0.00     0.029 A 
ATOM     58  C   UNL A   1      47.177  30.237  27.628  1.00  0.00     0.049 A 
ATOM     59  H   UNL A   1      46.094  28.429  27.533  1.00  0.00     0.167 HD
ATOM     60  C   UNL A   1      44.867  30.889  28.258  1.00  0.00     0.074 A 
ATOM     61  C   UNL A   1      43.864  31.861  28.643  1.00  0.00     0.031 C 
ATOM     62  C   UNL A   1      46.167  31.190  28.016  1.00  0.00     0.031 A 
BRANCH  49  63
ATOM     63  C   UNL A   1      49.644  26.331  26.394  1.00  0.00    -0.014 A 
ATOM     64  C   UNL A   1      50.167  26.461  25.094  1.00  0.00     0.010 A 
ATOM     65  C   UNL A   1      50.435  25.725  27.388  1.00  0.00     0.010 A 
ATOM     66  C   UNL A   1      51.433  25.958  24.784  1.00  0.00     0.020 A 
ATOM     67  C   UNL A   1      51.716  25.249  27.089  1.00  0.00     0.020 A 
ATOM     68  C   UNL A   1      52.200  25.355  25.784  1.00  0.00     0.054 A 
BRANCH  68  69
ATOM     69  S   UNL A   1      53.850  24.735  25.358  1.00  0.00     0.124 S 
ATOM     70  O   UNL A   1      54.223  25.607  24.248  1.00  0.00    -0.237 OA
ATOM     71  O   UNL A   1      54.598  24.940  26.596  1.00  0.00    -0.237 OA
ATOM     72  O   UNL A   1      53.614  23.338  24.999  1.00  0.00    -0.744 OA
ENDBRANCH  68  69
ENDBRANCH  49  63
BRANCH  50  73
ATOM     73  C   UNL A   1      40.456  29.385  28.967  1.00  0.00    -0.014 A 
ATOM     74  C   UNL A   1      39.501  29.730  27.994  1.00  0.00     0.010 A 
ATOM     75  C   UNL A   1      40.101  29.459  30.327  1.00  0.00     0.010 A 
ATOM     76  C   UNL A   1      38.227  30.164  28.373  1.00  0.00     0.020 A 
ATOM     77  C   UNL A   1      38.818  29.860  30.708  1.00  0.00     0.020 A 
ATOM     78  C   UNL A   1      37.893  30.224  29.728  1.00  0.00     0.054 A 
BRANCH  78  79
ATOM     79  S   UNL A   1      36.219  30.746  30.195  1.00  0.00     0.124 S 
ATOM     80  O   UNL A   1      36.018  30.033  31.451  1.00  0.00    -0.237 OA
ATOM     81  O   UNL A   1      36.363  32.196  30.304  1.00  0.00    -0.237 OA
ATOM     82  O   UNL A   1      35.395  30.291  29.077  1.00  0.00    -0.744 OA
ENDBRANCH  78  79
ENDBRANCH  50  73
BRANCH  62  83
ATOM     83  C   UNL A   1      46.570  32.639  28.111  1.00  0.00    -0.014 A 
ATOM     84  C   UNL A   1      47.049  33.195  29.311  1.00  0.00     0.010 A 
ATOM     85  C   UNL A   1      46.492  33.449  26.964  1.00  0.00     0.010 A 
ATOM     86  C   UNL A   1      47.394  34.547  29.373  1.00  0.00     0.020 A 
ATOM     87  C   UNL A   1      46.870  34.794  27.013  1.00  0.00     0.020 A 
ATOM     88  C   UNL A   1      47.300  35.339  28.224  1.00  0.00     0.054 A 
BRANCH  88  89
ATOM     89  S   UNL A   1      47.769  37.087  28.327  1.00  0.00     0.124 S 
ATOM     90  O   UNL A   1      49.090  37.083  27.703  1.00  0.00    -0.237 OA
ATOM     91  O   UNL A   1      46.714  37.746  27.561  1.00  0.00    -0.237 OA
ATOM     92  O   UNL A   1      47.757  37.366  29.761  1.00  0.00    -0.744 OA
ENDBRANCH  88  89
ENDBRANCH  62  83
ENDBRANCH  36  37
ENDBRANCH  28  31
ENDBRANCH  26  27
ENDBRANCH   1  26
TORSDOF 16
ENDMDL
