MODEL 1
REMARK VINA RESULT:      -9.5      0.000      0.000
REMARK SMILES C#CC[C@@H](C(=O)NCCCNC(=O)c1ccc(-c2c3nc(c(-c4ccc(S(=O)(=O)[O-])cc4)c4ccc([nH]4)c(-c4ccc(S(=O)(=O)[O-])cc4)c4nc(c(-c5ccc(S(=O)(=O)[O-])cc5)c5ccc2[nH]5)C=C4)C=C3)cc1)[C@H]1CCS(=O)(=O)C1
REMARK SMILES IDX 9 1 8 2 7 3 5 4 6 5 4 7 3 8 2 9 1 10 74 11 75 12 80 13 76 14
REMARK SMILES IDX 77 15 78 16 79 17 10 18 11 19 12 20 13 22 14 23 15 24 73 25
REMARK SMILES IDX 16 26 72 27 17 28 18 29 19 30 66 31 20 32 71 33 65 34 67 35
REMARK SMILES IDX 21 36 70 37 64 38 63 39 22 41 52 42 33 43 51 44 34 45 37 46
REMARK SMILES IDX 50 47 68 48 35 49 36 50 49 52 69 53 38 54 23 55 24 56 32 57
REMARK SMILES IDX 25 58 31 59 26 60 27 61 28 62 29 63 30 64 53 65 54 66 62 67
REMARK SMILES IDX 55 68 61 69 56 70 57 71 58 72 59 73 60 74 39 75 40 76 48 77
REMARK SMILES IDX 41 78 47 79 42 80 43 81 44 82 45 83 46 84
REMARK H PARENT 7 6 11 21 67 40 37 51
REMARK Flexibility Score: inf
ROOT
ATOM      1  C   UNL A   1      34.002  34.219  28.318  1.00  0.00     0.042 C 
ENDROOT
BRANCH   1   2
ATOM      2  C   UNL A   1      34.306  34.847  29.677  1.00  0.00     0.117 C 
BRANCH   2   3
ATOM      3  N   UNL A   1      33.838  34.004  30.757  1.00  0.00    -0.356 N 
ATOM      4  C   UNL A   1      34.500  33.392  31.768  1.00  0.00     0.224 C 
ATOM      5  O   UNL A   1      33.807  32.694  32.511  1.00  0.00    -0.275 OA
ATOM      6  H   UNL A   1      32.865  33.849  30.757  1.00  0.00     0.163 HD
BRANCH   4   7
ATOM      7  C   UNL A   1      36.007  33.589  32.005  1.00  0.00     0.094 C 
BRANCH   7   8
ATOM      8  C   UNL A   1      36.868  32.814  30.983  1.00  0.00     0.103 C 
BRANCH   8   9
ATOM      9  C   UNL A   1      37.726  33.656  30.130  1.00  0.00    -0.106 C 
ATOM     10  C   UNL A   1      38.466  34.353  29.494  1.00  0.00     0.004 C 
ENDBRANCH   8   9
ENDBRANCH   7   8
BRANCH   7  11
ATOM     11  C   UNL A   1      36.426  33.125  33.437  1.00  0.00     0.018 C 
ATOM     12  C   UNL A   1      37.454  31.979  33.496  1.00  0.00     0.021 C 
ATOM     13  C   UNL A   1      36.990  34.232  34.349  1.00  0.00     0.141 C 
ATOM     14  C   UNL A   1      37.809  31.773  34.970  1.00  0.00     0.137 C 
ATOM     15  S   UNL A   1      37.644  33.365  35.763  1.00  0.00     0.150 S 
ATOM     16  O   UNL A   1      36.595  33.270  36.759  1.00  0.00    -0.229 OA
ATOM     17  O   UNL A   1      38.958  33.881  36.081  1.00  0.00    -0.229 OA
ENDBRANCH   7  11
ENDBRANCH   4   7
ENDBRANCH   2   3
ENDBRANCH   1   2
BRANCH   1  18
ATOM     18  C   UNL A   1      34.863  33.005  27.990  1.00  0.00     0.118 C 
BRANCH  18  19
ATOM     19  N   UNL A   1      34.082  31.779  27.952  1.00  0.00    -0.352 N 
ATOM     20  C   UNL A   1      34.475  30.466  27.911  1.00  0.00     0.251 C 
ATOM     21  H   UNL A   1      33.106  31.915  27.957  1.00  0.00     0.163 HD
ATOM     22  O   UNL A   1      33.648  29.618  27.584  1.00  0.00    -0.269 OA
BRANCH  20  23
ATOM     23  C   UNL A   1      35.860  30.057  28.244  1.00  0.00     0.039 A 
ATOM     24  C   UNL A   1      36.823  30.088  27.231  1.00  0.00     0.014 A 
ATOM     25  C   UNL A   1      36.211  29.580  29.510  1.00  0.00     0.014 A 
ATOM     26  C   UNL A   1      38.132  29.682  27.499  1.00  0.00     0.010 A 
ATOM     27  C   UNL A   1      37.540  29.273  29.804  1.00  0.00     0.010 A 
ATOM     28  C   UNL A   1      38.514  29.306  28.798  1.00  0.00    -0.014 A 
BRANCH  28  29
ATOM     29  C   UNL A   1      39.930  28.964  29.099  1.00  0.00     0.031 A 
ATOM     30  C   UNL A   1      40.846  29.961  29.759  1.00  0.00     0.074 A 
ATOM     31  C   UNL A   1      40.395  27.745  28.758  1.00  0.00     0.049 A 
ATOM     32  N   UNL A   1      42.097  29.815  30.118  1.00  0.00    -0.248 NA
ATOM     33  C   UNL A   1      40.299  31.299  30.037  1.00  0.00     0.031 C 
ATOM     34  C   UNL A   1      39.622  26.708  28.066  1.00  0.00     0.029 A 
ATOM     35  N   UNL A   1      41.622  27.162  28.954  1.00  0.00    -0.354 N 
ATOM     36  C   UNL A   1      42.484  31.035  30.663  1.00  0.00     0.074 A 
ATOM     37  C   UNL A   1      41.356  31.930  30.527  1.00  0.00     0.031 C 
ATOM     38  C   UNL A   1      40.375  25.607  27.941  1.00  0.00     0.029 A 
ATOM     39  C   UNL A   1      41.700  25.870  28.491  1.00  0.00     0.049 A 
ATOM     40  H   UNL A   1      42.376  27.626  29.387  1.00  0.00     0.167 HD
ATOM     41  C   UNL A   1      43.659  31.372  31.246  1.00  0.00     0.031 A 
ATOM     42  C   UNL A   1      42.722  24.993  28.498  1.00  0.00     0.031 A 
ATOM     43  C   UNL A   1      44.783  30.480  31.370  1.00  0.00     0.049 A 
ATOM     44  C   UNL A   1      44.026  25.403  29.126  1.00  0.00     0.074 A 
ATOM     45  C   UNL A   1      46.005  30.714  31.977  1.00  0.00     0.029 A 
ATOM     46  N   UNL A   1      44.828  29.185  30.873  1.00  0.00    -0.354 N 
ATOM     47  N   UNL A   1      44.345  26.538  29.700  1.00  0.00    -0.248 NA
ATOM     48  C   UNL A   1      45.102  24.405  29.121  1.00  0.00     0.031 C 
ATOM     49  C   UNL A   1      46.812  29.587  31.786  1.00  0.00     0.029 A 
ATOM     50  C   UNL A   1      46.066  28.620  31.131  1.00  0.00     0.049 A 
ATOM     51  H   UNL A   1      44.088  28.734  30.406  1.00  0.00     0.167 HD
ATOM     52  C   UNL A   1      45.654  26.383  30.142  1.00  0.00     0.074 A 
ATOM     53  C   UNL A   1      46.051  25.032  29.801  1.00  0.00     0.031 C 
ATOM     54  C   UNL A   1      46.456  27.280  30.769  1.00  0.00     0.031 A 
BRANCH  41  55
ATOM     55  C   UNL A   1      43.793  32.772  31.797  1.00  0.00    -0.014 A 
ATOM     56  C   UNL A   1      43.447  33.065  33.130  1.00  0.00     0.010 A 
ATOM     57  C   UNL A   1      44.329  33.796  30.994  1.00  0.00     0.010 A 
ATOM     58  C   UNL A   1      43.600  34.358  33.636  1.00  0.00     0.020 A 
ATOM     59  C   UNL A   1      44.516  35.083  31.507  1.00  0.00     0.020 A 
ATOM     60  C   UNL A   1      44.138  35.359  32.822  1.00  0.00     0.054 A 
BRANCH  60  61
ATOM     61  S   UNL A   1      44.361  37.018  33.521  1.00  0.00     0.124 S 
ATOM     62  O   UNL A   1      45.131  36.735  34.730  1.00  0.00    -0.237 OA
ATOM     63  O   UNL A   1      45.089  37.713  32.463  1.00  0.00    -0.237 OA
ATOM     64  O   UNL A   1      42.997  37.486  33.749  1.00  0.00    -0.744 OA
ENDBRANCH  60  61
ENDBRANCH  41  55
BRANCH  42  65
ATOM     65  C   UNL A   1      42.554  23.648  27.881  1.00  0.00    -0.014 A 
ATOM     66  C   UNL A   1      42.782  23.445  26.508  1.00  0.00     0.010 A 
ATOM     67  C   UNL A   1      42.163  22.554  28.675  1.00  0.00     0.010 A 
ATOM     68  C   UNL A   1      42.598  22.181  25.939  1.00  0.00     0.020 A 
ATOM     69  C   UNL A   1      42.016  21.281  28.119  1.00  0.00     0.020 A 
ATOM     70  C   UNL A   1      42.221  21.106  26.749  1.00  0.00     0.054 A 
BRANCH  70  71
ATOM     71  S   UNL A   1      42.033  19.466  25.998  1.00  0.00     0.124 S 
ATOM     72  O   UNL A   1      42.496  18.587  27.067  1.00  0.00    -0.237 OA
ATOM     73  O   UNL A   1      40.602  19.415  25.709  1.00  0.00    -0.237 OA
ATOM     74  O   UNL A   1      42.897  19.528  24.820  1.00  0.00    -0.744 OA
ENDBRANCH  70  71
ENDBRANCH  42  65
BRANCH  54  75
ATOM     75  C   UNL A   1      47.841  26.815  31.144  1.00  0.00    -0.014 A 
ATOM     76  C   UNL A   1      48.940  27.022  30.290  1.00  0.00     0.010 A 
ATOM     77  C   UNL A   1      48.048  26.169  32.377  1.00  0.00     0.010 A 
ATOM     78  C   UNL A   1      50.206  26.541  30.635  1.00  0.00     0.020 A 
ATOM     79  C   UNL A   1      49.320  25.723  32.744  1.00  0.00     0.020 A 
ATOM     80  C   UNL A   1      50.387  25.891  31.860  1.00  0.00     0.054 A 
BRANCH  80  81
ATOM     81  S   UNL A   1      52.041  25.284  32.287  1.00  0.00     0.124 S 
ATOM     82  O   UNL A   1      51.810  23.848  32.426  1.00  0.00    -0.237 OA
ATOM     83  O   UNL A   1      52.835  25.683  31.128  1.00  0.00    -0.237 OA
ATOM     84  O   UNL A   1      52.361  25.987  33.527  1.00  0.00    -0.744 OA
ENDBRANCH  80  81
ENDBRANCH  54  75
ENDBRANCH  28  29
ENDBRANCH  20  23
ENDBRANCH  18  19
ENDBRANCH   1  18
TORSDOF 16
ENDMDL
MODEL 2
REMARK VINA RESULT:      -9.3      4.315      7.119
REMARK SMILES C#CC[C@@H](C(=O)NCCCNC(=O)c1ccc(-c2c3nc(c(-c4ccc(S(=O)(=O)[O-])cc4)c4ccc([nH]4)c(-c4ccc(S(=O)(=O)[O-])cc4)c4nc(c(-c5ccc(S(=O)(=O)[O-])cc5)c5ccc2[nH]5)C=C4)C=C3)cc1)[C@H]1CCS(=O)(=O)C1
REMARK SMILES IDX 9 1 8 2 7 3 5 4 6 5 4 7 3 8 2 9 1 10 74 11 75 12 80 13 76 14
REMARK SMILES IDX 77 15 78 16 79 17 10 18 11 19 12 20 13 22 14 23 15 24 73 25
REMARK SMILES IDX 16 26 72 27 17 28 18 29 19 30 66 31 20 32 71 33 65 34 67 35
REMARK SMILES IDX 21 36 70 37 64 38 63 39 22 41 52 42 33 43 51 44 34 45 37 46
REMARK SMILES IDX 50 47 68 48 35 49 36 50 49 52 69 53 38 54 23 55 24 56 32 57
REMARK SMILES IDX 25 58 31 59 26 60 27 61 28 62 29 63 30 64 53 65 54 66 62 67
REMARK SMILES IDX 55 68 61 69 56 70 57 71 58 72 59 73 60 74 39 75 40 76 48 77
REMARK SMILES IDX 41 78 47 79 42 80 43 81 44 82 45 83 46 84
REMARK H PARENT 7 6 11 21 67 40 37 51
REMARK Flexibility Score: inf
ROOT
ATOM      1  C   UNL A   1      31.632  32.503  26.501  1.00  0.00     0.042 C 
ENDROOT
BRANCH   1   2
ATOM      2  C   UNL A   1      31.281  31.017  26.467  1.00  0.00     0.117 C 
BRANCH   2   3
ATOM      3  N   UNL A   1      31.695  30.412  25.219  1.00  0.00    -0.356 N 
ATOM      4  C   UNL A   1      32.417  29.294  24.960  1.00  0.00     0.224 C 
ATOM      5  O   UNL A   1      32.642  29.071  23.769  1.00  0.00    -0.275 OA
ATOM      6  H   UNL A   1      31.401  30.899  24.415  1.00  0.00     0.163 HD
BRANCH   4   7
ATOM      7  C   UNL A   1      32.883  28.338  26.072  1.00  0.00     0.094 C 
BRANCH   7   8
ATOM      8  C   UNL A   1      34.401  28.446  26.339  1.00  0.00     0.103 C 
BRANCH   8   9
ATOM      9  C   UNL A   1      34.795  29.534  27.251  1.00  0.00    -0.106 C 
ATOM     10  C   UNL A   1      35.171  30.379  28.015  1.00  0.00     0.004 C 
ENDBRANCH   8   9
ENDBRANCH   7   8
BRANCH   7  11
ATOM     11  C   UNL A   1      32.561  26.850  25.719  1.00  0.00     0.018 C 
ATOM     12  C   UNL A   1      33.678  25.834  26.021  1.00  0.00     0.021 C 
ATOM     13  C   UNL A   1      31.292  26.277  26.379  1.00  0.00     0.141 C 
ATOM     14  C   UNL A   1      33.111  24.445  25.719  1.00  0.00     0.137 C 
ATOM     15  S   UNL A   1      31.356  24.528  26.041  1.00  0.00     0.150 S 
ATOM     16  O   UNL A   1      30.653  24.282  24.797  1.00  0.00    -0.229 OA
ATOM     17  O   UNL A   1      31.055  23.791  27.251  1.00  0.00    -0.229 OA
ENDBRANCH   7  11
ENDBRANCH   4   7
ENDBRANCH   2   3
ENDBRANCH   1   2
BRANCH   1  18
ATOM     18  C   UNL A   1      32.868  32.828  27.332  1.00  0.00     0.118 C 
BRANCH  18  19
ATOM     19  N   UNL A   1      32.888  34.219  27.753  1.00  0.00    -0.352 N 
ATOM     20  C   UNL A   1      33.528  34.829  28.802  1.00  0.00     0.251 C 
ATOM     21  H   UNL A   1      32.352  34.825  27.192  1.00  0.00     0.163 HD
ATOM     22  O   UNL A   1      33.161  35.954  29.136  1.00  0.00    -0.269 OA
BRANCH  20  23
ATOM     23  C   UNL A   1      34.634  34.166  29.531  1.00  0.00     0.039 A 
ATOM     24  C   UNL A   1      35.944  34.385  29.093  1.00  0.00     0.014 A 
ATOM     25  C   UNL A   1      34.404  33.280  30.588  1.00  0.00     0.014 A 
ATOM     26  C   UNL A   1      37.010  33.755  29.737  1.00  0.00     0.010 A 
ATOM     27  C   UNL A   1      35.474  32.732  31.295  1.00  0.00     0.010 A 
ATOM     28  C   UNL A   1      36.790  32.951  30.869  1.00  0.00    -0.014 A 
BRANCH  28  29
ATOM     29  C   UNL A   1      37.937  32.356  31.606  1.00  0.00     0.031 A 
ATOM     30  C   UNL A   1      38.353  32.888  32.954  1.00  0.00     0.074 A 
ATOM     31  C   UNL A   1      38.617  31.336  31.046  1.00  0.00     0.049 A 
ATOM     32  N   UNL A   1      39.309  32.467  33.743  1.00  0.00    -0.248 NA
ATOM     33  C   UNL A   1      37.618  34.051  33.476  1.00  0.00     0.031 C 
ATOM     34  C   UNL A   1      38.345  30.765  29.723  1.00  0.00     0.029 A 
ATOM     35  N   UNL A   1      39.667  30.587  31.517  1.00  0.00    -0.354 N 
ATOM     36  C   UNL A   1      39.289  33.308  34.851  1.00  0.00     0.074 A 
ATOM     37  C   UNL A   1      38.271  34.304  34.601  1.00  0.00     0.031 C 
ATOM     38  C   UNL A   1      39.171  29.730  29.511  1.00  0.00     0.029 A 
ATOM     39  C   UNL A   1      40.067  29.595  30.654  1.00  0.00     0.049 A 
ATOM     40  H   UNL A   1      40.093  30.746  32.391  1.00  0.00     0.167 HD
ATOM     41  C   UNL A   1      40.031  33.243  35.983  1.00  0.00     0.031 A 
ATOM     42  C   UNL A   1      41.050  28.679  30.761  1.00  0.00     0.031 A 
ATOM     43  C   UNL A   1      41.051  32.255  36.222  1.00  0.00     0.049 A 
ATOM     44  C   UNL A   1      41.878  28.646  32.016  1.00  0.00     0.074 A 
ATOM     45  C   UNL A   1      41.833  32.081  37.351  1.00  0.00     0.029 A 
ATOM     46  N   UNL A   1      41.438  31.277  35.316  1.00  0.00    -0.354 N 
ATOM     47  N   UNL A   1      41.792  29.407  33.082  1.00  0.00    -0.248 NA
ATOM     48  C   UNL A   1      42.925  27.620  32.089  1.00  0.00     0.031 C 
ATOM     49  C   UNL A   1      42.738  31.043  37.102  1.00  0.00     0.029 A 
ATOM     50  C   UNL A   1      42.468  30.517  35.848  1.00  0.00     0.049 A 
ATOM     51  H   UNL A   1      41.039  31.142  34.427  1.00  0.00     0.167 HD
ATOM     52  C   UNL A   1      42.762  28.937  33.960  1.00  0.00     0.074 A 
ATOM     53  C   UNL A   1      43.395  27.805  33.314  1.00  0.00     0.031 C 
ATOM     54  C   UNL A   1      43.103  29.405  35.187  1.00  0.00     0.031 A 
BRANCH  41  55
ATOM     55  C   UNL A   1      39.767  34.273  37.055  1.00  0.00    -0.014 A 
ATOM     56  C   UNL A   1      38.979  33.967  38.180  1.00  0.00     0.010 A 
ATOM     57  C   UNL A   1      40.365  35.545  36.969  1.00  0.00     0.010 A 
ATOM     58  C   UNL A   1      38.765  34.920  39.178  1.00  0.00     0.020 A 
ATOM     59  C   UNL A   1      40.180  36.490  37.983  1.00  0.00     0.020 A 
ATOM     60  C   UNL A   1      39.370  36.176  39.075  1.00  0.00     0.054 A 
BRANCH  60  61
ATOM     61  S   UNL A   1      39.104  37.378  40.408  1.00  0.00     0.124 S 
ATOM     62  O   UNL A   1      38.573  36.533  41.475  1.00  0.00    -0.237 OA
ATOM     63  O   UNL A   1      40.448  37.903  40.634  1.00  0.00    -0.237 OA
ATOM     64  O   UNL A   1      38.154  38.328  39.836  1.00  0.00    -0.744 OA
ENDBRANCH  60  61
ENDBRANCH  41  55
BRANCH  42  65
ATOM     65  C   UNL A   1      41.307  27.729  29.644  1.00  0.00    -0.014 A 
ATOM     66  C   UNL A   1      40.458  26.631  29.414  1.00  0.00     0.010 A 
ATOM     67  C   UNL A   1      42.413  27.923  28.795  1.00  0.00     0.010 A 
ATOM     68  C   UNL A   1      40.725  25.735  28.374  1.00  0.00     0.020 A 
ATOM     69  C   UNL A   1      42.661  27.053  27.731  1.00  0.00     0.020 A 
ATOM     70  C   UNL A   1      41.823  25.955  27.536  1.00  0.00     0.054 A 
BRANCH  70  71
ATOM     71  S   UNL A   1      42.123  24.805  26.166  1.00  0.00     0.124 S 
ATOM     72  O   UNL A   1      41.885  25.652  25.001  1.00  0.00    -0.237 OA
ATOM     73  O   UNL A   1      43.511  24.407  26.389  1.00  0.00    -0.237 OA
ATOM     74  O   UNL A   1      41.137  23.748  26.384  1.00  0.00    -0.744 OA
ENDBRANCH  70  71
ENDBRANCH  42  65
BRANCH  54  75
ATOM     75  C   UNL A   1      44.199  28.672  35.919  1.00  0.00    -0.014 A 
ATOM     76  C   UNL A   1      43.924  27.539  36.707  1.00  0.00     0.010 A 
ATOM     77  C   UNL A   1      45.529  29.117  35.806  1.00  0.00     0.010 A 
ATOM     78  C   UNL A   1      44.947  26.903  37.414  1.00  0.00     0.020 A 
ATOM     79  C   UNL A   1      46.562  28.459  36.480  1.00  0.00     0.020 A 
ATOM     80  C   UNL A   1      46.260  27.369  37.298  1.00  0.00     0.054 A 
BRANCH  80  81
ATOM     81  S   UNL A   1      47.570  26.521  38.220  1.00  0.00     0.124 S 
ATOM     82  O   UNL A   1      46.897  26.196  39.476  1.00  0.00    -0.237 OA
ATOM     83  O   UNL A   1      47.879  25.382  37.360  1.00  0.00    -0.237 OA
ATOM     84  O   UNL A   1      48.629  27.523  38.323  1.00  0.00    -0.744 OA
ENDBRANCH  80  81
ENDBRANCH  54  75
ENDBRANCH  28  29
ENDBRANCH  20  23
ENDBRANCH  18  19
ENDBRANCH   1  18
TORSDOF 16
ENDMDL
MODEL 3
REMARK VINA RESULT:      -9.2      4.288      6.493
REMARK SMILES C#CC[C@@H](C(=O)NCCCNC(=O)c1ccc(-c2c3nc(c(-c4ccc(S(=O)(=O)[O-])cc4)c4ccc([nH]4)c(-c4ccc(S(=O)(=O)[O-])cc4)c4nc(c(-c5ccc(S(=O)(=O)[O-])cc5)c5ccc2[nH]5)C=C4)C=C3)cc1)[C@H]1CCS(=O)(=O)C1
REMARK SMILES IDX 9 1 8 2 7 3 5 4 6 5 4 7 3 8 2 9 1 10 74 11 75 12 80 13 76 14
REMARK SMILES IDX 77 15 78 16 79 17 10 18 11 19 12 20 13 22 14 23 15 24 73 25
REMARK SMILES IDX 16 26 72 27 17 28 18 29 19 30 66 31 20 32 71 33 65 34 67 35
REMARK SMILES IDX 21 36 70 37 64 38 63 39 22 41 52 42 33 43 51 44 34 45 37 46
REMARK SMILES IDX 50 47 68 48 35 49 36 50 49 52 69 53 38 54 23 55 24 56 32 57
REMARK SMILES IDX 25 58 31 59 26 60 27 61 28 62 29 63 30 64 53 65 54 66 62 67
REMARK SMILES IDX 55 68 61 69 56 70 57 71 58 72 59 73 60 74 39 75 40 76 48 77
REMARK SMILES IDX 41 78 47 79 42 80 43 81 44 82 45 83 46 84
REMARK H PARENT 7 6 11 21 67 40 37 51
REMARK Flexibility Score: inf
ROOT
ATOM      1  C   UNL A   1      34.634  29.209  27.314  1.00  0.00     0.042 C 
ENDROOT
BRANCH   1   2
ATOM      2  C   UNL A   1      33.317  29.570  26.630  1.00  0.00     0.117 C 
BRANCH   2   3
ATOM      3  N   UNL A   1      33.458  29.559  25.189  1.00  0.00    -0.356 N 
ATOM      4  C   UNL A   1      32.615  29.152  24.209  1.00  0.00     0.224 C 
ATOM      5  O   UNL A   1      33.057  29.231  23.061  1.00  0.00    -0.275 OA
ATOM      6  H   UNL A   1      34.319  29.908  24.864  1.00  0.00     0.163 HD
BRANCH   4   7
ATOM      7  C   UNL A   1      31.184  28.670  24.501  1.00  0.00     0.094 C 
BRANCH   7   8
ATOM      8  C   UNL A   1      31.040  27.139  24.356  1.00  0.00     0.103 C 
BRANCH   8   9
ATOM      9  C   UNL A   1      32.148  26.355  24.929  1.00  0.00    -0.106 C 
ATOM     10  C   UNL A   1      33.094  25.772  25.379  1.00  0.00     0.004 C 
ENDBRANCH   8   9
ENDBRANCH   7   8
BRANCH   7  11
ATOM     11  C   UNL A   1      30.147  29.343  23.544  1.00  0.00     0.018 C 
ATOM     12  C   UNL A   1      28.867  28.533  23.267  1.00  0.00     0.021 C 
ATOM     13  C   UNL A   1      29.665  30.742  23.975  1.00  0.00     0.141 C 
ATOM     14  C   UNL A   1      27.953  29.419  22.419  1.00  0.00     0.137 C 
ATOM     15  S   UNL A   1      28.304  31.108  22.883  1.00  0.00     0.150 S 
ATOM     16  O   UNL A   1      28.830  31.798  21.721  1.00  0.00    -0.229 OA
ATOM     17  O   UNL A   1      27.196  31.634  23.652  1.00  0.00    -0.229 OA
ENDBRANCH   7  11
ENDBRANCH   4   7
ENDBRANCH   2   3
ENDBRANCH   1   2
BRANCH   1  18
ATOM     18  C   UNL A   1      35.428  30.414  27.806  1.00  0.00     0.118 C 
BRANCH  18  19
ATOM     19  N   UNL A   1      35.435  30.503  29.257  1.00  0.00    -0.352 N 
ATOM     20  C   UNL A   1      36.348  30.057  30.177  1.00  0.00     0.251 C 
ATOM     21  H   UNL A   1      34.654  30.961  29.643  1.00  0.00     0.163 HD
ATOM     22  O   UNL A   1      36.002  29.980  31.354  1.00  0.00    -0.269 OA
BRANCH  20  23
ATOM     23  C   UNL A   1      37.723  29.667  29.785  1.00  0.00     0.039 A 
ATOM     24  C   UNL A   1      38.077  29.749  28.434  1.00  0.00     0.014 A 
ATOM     25  C   UNL A   1      38.644  29.157  30.705  1.00  0.00     0.014 A 
ATOM     26  C   UNL A   1      39.353  29.363  28.022  1.00  0.00     0.010 A 
ATOM     27  C   UNL A   1      39.950  28.869  30.309  1.00  0.00     0.010 A 
ATOM     28  C   UNL A   1      40.316  28.954  28.960  1.00  0.00    -0.014 A 
BRANCH  28  29
ATOM     29  C   UNL A   1      41.703  28.633  28.527  1.00  0.00     0.031 A 
ATOM     30  C   UNL A   1      42.769  29.697  28.481  1.00  0.00     0.074 A 
ATOM     31  C   UNL A   1      41.997  27.370  28.157  1.00  0.00     0.049 A 
ATOM     32  N   UNL A   1      44.032  29.581  28.157  1.00  0.00    -0.248 NA
ATOM     33  C   UNL A   1      42.365  31.070  28.824  1.00  0.00     0.031 C 
ATOM     34  C   UNL A   1      41.039  26.260  28.108  1.00  0.00     0.029 A 
ATOM     35  N   UNL A   1      43.181  26.799  27.765  1.00  0.00    -0.354 N 
ATOM     36  C   UNL A   1      44.572  30.859  28.258  1.00  0.00     0.074 A 
ATOM     37  C   UNL A   1      43.485  31.746  28.609  1.00  0.00     0.031 C 
ATOM     38  C   UNL A   1      41.683  25.138  27.756  1.00  0.00     0.029 A 
ATOM     39  C   UNL A   1      43.085  25.453  27.501  1.00  0.00     0.049 A 
ATOM     40  H   UNL A   1      44.022  27.305  27.680  1.00  0.00     0.167 HD
ATOM     41  C   UNL A   1      45.858  31.254  28.099  1.00  0.00     0.031 A 
ATOM     42  C   UNL A   1      44.014  24.567  27.093  1.00  0.00     0.031 A 
ATOM     43  C   UNL A   1      46.935  30.368  27.739  1.00  0.00     0.049 A 
ATOM     44  C   UNL A   1      45.429  25.038  26.897  1.00  0.00     0.074 A 
ATOM     45  C   UNL A   1      48.280  30.664  27.590  1.00  0.00     0.029 A 
ATOM     46  N   UNL A   1      46.793  29.015  27.465  1.00  0.00    -0.354 N 
ATOM     47  N   UNL A   1      45.931  26.238  27.069  1.00  0.00    -0.248 NA
ATOM     48  C   UNL A   1      46.405  24.030  26.466  1.00  0.00     0.031 C 
ATOM     49  C   UNL A   1      48.938  29.506  27.159  1.00  0.00     0.029 A 
ATOM     50  C   UNL A   1      48.019  28.470  27.117  1.00  0.00     0.049 A 
ATOM     51  H   UNL A   1      45.947  28.516  27.512  1.00  0.00     0.167 HD
ATOM     52  C   UNL A   1      47.287  26.124  26.786  1.00  0.00     0.074 A 
ATOM     53  C   UNL A   1      47.530  24.730  26.469  1.00  0.00     0.031 C 
ATOM     54  C   UNL A   1      48.244  27.085  26.784  1.00  0.00     0.031 A 
BRANCH  41  55
ATOM     55  C   UNL A   1      46.175  32.715  28.313  1.00  0.00    -0.014 A 
ATOM     56  C   UNL A   1      46.548  33.200  29.581  1.00  0.00     0.010 A 
ATOM     57  C   UNL A   1      46.160  33.604  27.222  1.00  0.00     0.010 A 
ATOM     58  C   UNL A   1      46.864  34.549  29.760  1.00  0.00     0.020 A 
ATOM     59  C   UNL A   1      46.509  34.948  27.392  1.00  0.00     0.020 A 
ATOM     60  C   UNL A   1      46.846  35.415  28.663  1.00  0.00     0.054 A 
BRANCH  60  61
ATOM     61  S   UNL A   1      47.301  37.152  28.922  1.00  0.00     0.124 S 
ATOM     62  O   UNL A   1      48.715  37.152  28.558  1.00  0.00    -0.237 OA
ATOM     63  O   UNL A   1      46.414  37.853  27.997  1.00  0.00    -0.237 OA
ATOM     64  O   UNL A   1      47.024  37.376  30.339  1.00  0.00    -0.744 OA
ENDBRANCH  60  61
ENDBRANCH  41  55
BRANCH  42  65
ATOM     65  C   UNL A   1      43.631  23.151  26.835  1.00  0.00    -0.014 A 
ATOM     66  C   UNL A   1      43.922  22.533  25.606  1.00  0.00     0.010 A 
ATOM     67  C   UNL A   1      42.969  22.409  27.830  1.00  0.00     0.010 A 
ATOM     68  C   UNL A   1      43.536  21.210  25.369  1.00  0.00     0.020 A 
ATOM     69  C   UNL A   1      42.616  21.074  27.613  1.00  0.00     0.020 A 
ATOM     70  C   UNL A   1      42.890  20.488  26.377  1.00  0.00     0.054 A 
BRANCH  70  71
ATOM     71  S   UNL A   1      42.440  18.759  26.065  1.00  0.00     0.124 S 
ATOM     72  O   UNL A   1      43.376  18.387  25.009  1.00  0.00    -0.237 OA
ATOM     73  O   UNL A   1      42.669  18.135  27.366  1.00  0.00    -0.237 OA
ATOM     74  O   UNL A   1      41.038  18.838  25.659  1.00  0.00    -0.744 OA
ENDBRANCH  70  71
ENDBRANCH  42  65
BRANCH  54  75
ATOM     75  C   UNL A   1      49.649  26.653  26.446  1.00  0.00    -0.014 A 
ATOM     76  C   UNL A   1      50.116  26.653  25.119  1.00  0.00     0.010 A 
ATOM     77  C   UNL A   1      50.520  26.251  27.475  1.00  0.00     0.010 A 
ATOM     78  C   UNL A   1      51.405  26.204  24.822  1.00  0.00     0.020 A 
ATOM     79  C   UNL A   1      51.824  25.839  27.187  1.00  0.00     0.020 A 
ATOM     80  C   UNL A   1      52.250  25.797  25.858  1.00  0.00     0.054 A 
BRANCH  80  81
ATOM     81  S   UNL A   1      53.921  25.225  25.447  1.00  0.00     0.124 S 
ATOM     82  O   UNL A   1      53.786  23.776  25.571  1.00  0.00    -0.237 OA
ATOM     83  O   UNL A   1      54.102  25.725  24.086  1.00  0.00    -0.237 OA
ATOM     84  O   UNL A   1      54.765  25.861  26.456  1.00  0.00    -0.744 OA
ENDBRANCH  80  81
ENDBRANCH  54  75
ENDBRANCH  28  29
ENDBRANCH  20  23
ENDBRANCH  18  19
ENDBRANCH   1  18
TORSDOF 16
ENDMDL
