MODEL 1
REMARK VINA RESULT:     -13.4      0.000      0.000
REMARK SMILES Cc1ccc(C(=O)NCCCNC(=O)c2ccc(-c3c4nc(c(-c5ccc(S(=O)(=O)[O-])cc5)c5ccc([nH]5)c(-c5ccc(S(=O)(=O)[O-])cc5)c5nc(c(-c6ccc(S(=O)(=O)[O-])cc6)c6ccc3[nH]6)C=C5)C=C4)cc2)c(NC(=O)C[C@@H]2SC(=O)N(c3cccc(C)c3C)C2=O)c1
REMARK SMILES IDX 9 1 8 2 6 3 7 4 5 6 1 7 2 8 3 9 95 10 4 11 75 12 76 13 77 14
REMARK SMILES IDX 78 16 79 17 80 18 81 19 93 20 82 21 84 22 94 23 83 24 85 25
REMARK SMILES IDX 86 26 91 27 87 28 89 29 92 30 88 31 90 32 10 33 11 34 12 35
REMARK SMILES IDX 13 36 14 38 15 39 16 40 74 41 17 42 73 43 18 44 19 45 20 46
REMARK SMILES IDX 67 47 21 48 72 49 66 50 68 51 22 52 71 53 65 54 64 55 23 57
REMARK SMILES IDX 53 58 34 59 52 60 35 61 38 62 51 63 69 64 36 65 37 66 50 68
REMARK SMILES IDX 70 69 39 70 24 71 25 72 33 73 26 74 32 75 27 76 28 77 29 78
REMARK SMILES IDX 30 79 31 80 54 81 55 82 63 83 56 84 62 85 57 86 58 87 59 88
REMARK SMILES IDX 60 89 61 90 40 91 41 92 49 93 42 94 48 95 43 96 44 97 45 98
REMARK SMILES IDX 46 99 47 100
REMARK H PARENT 8 5 76 15 12 37 68 56 38 67
REMARK Flexibility Score: inf
ROOT
ATOM      1  C   UNL A   1      39.370  25.814  28.103  1.00  0.00     0.118 C 
ENDROOT
BRANCH   1   2
ATOM      2  N   UNL A   1      39.873  27.131  27.650  1.00  0.00    -0.352 N 
ATOM      3  C   UNL A   1      39.616  28.279  28.359  1.00  0.00     0.253 C 
ATOM      4  O   UNL A   1      40.174  29.352  28.472  1.00  0.00    -0.269 OA
ATOM      5  H   UNL A   1      40.402  27.186  26.822  1.00  0.00     0.163 HD
BRANCH   3   6
ATOM      6  C   UNL A   1      38.889  28.241  29.525  1.00  0.00     0.063 A 
ATOM      7  C   UNL A   1      37.448  29.120  33.244  1.00  0.00     0.044 C 
ATOM      8  C   UNL A   1      37.807  28.701  31.850  1.00  0.00    -0.049 A 
ATOM      9  C   UNL A   1      38.821  27.730  31.781  1.00  0.00     0.004 A 
ATOM     10  C   UNL A   1      37.226  29.290  30.659  1.00  0.00     0.030 A 
ATOM     11  C   UNL A   1      39.421  27.530  30.586  1.00  0.00     0.016 A 
ATOM     12  C   UNL A   1      37.718  28.948  29.400  1.00  0.00     0.054 A 
BRANCH  12  13
ATOM     13  N   UNL A   1      37.297  29.451  28.091  1.00  0.00    -0.325 N 
ATOM     14  C   UNL A   1      36.187  29.332  27.222  1.00  0.00     0.226 C 
ATOM     15  H   UNL A   1      37.984  30.041  27.704  1.00  0.00     0.169 HD
ATOM     16  O   UNL A   1      36.517  29.741  26.078  1.00  0.00    -0.275 OA
BRANCH  14  17
ATOM     17  C   UNL A   1      34.506  28.980  27.328  1.00  0.00     0.125 C 
BRANCH  17  18
ATOM     18  C   UNL A   1      33.005  29.184  26.615  1.00  0.00     0.156 C 
ATOM     19  S   UNL A   1      31.759  28.310  27.719  1.00  0.00    -0.050 SA
ATOM     20  C   UNL A   1      32.425  28.602  25.238  1.00  0.00     0.248 C 
ATOM     21  C   UNL A   1      31.581  26.951  26.586  1.00  0.00     0.293 C 
ATOM     22  N   UNL A   1      32.137  27.246  25.381  1.00  0.00    -0.240 N 
ATOM     23  O   UNL A   1      32.337  29.255  24.199  1.00  0.00    -0.273 OA
ATOM     24  O   UNL A   1      30.971  25.937  26.899  1.00  0.00    -0.261 OA
BRANCH  22  25
ATOM     25  C   UNL A   1      32.431  26.260  24.368  1.00  0.00     0.056 A 
ATOM     26  C   UNL A   1      31.764  26.306  23.135  1.00  0.00     0.027 A 
ATOM     27  C   UNL A   1      33.518  25.330  24.509  1.00  0.00    -0.024 A 
ATOM     28  C   UNL A   1      32.101  25.434  22.089  1.00  0.00     0.002 A 
ATOM     29  C   UNL A   1      33.919  24.521  23.398  1.00  0.00    -0.046 A 
ATOM     30  C   UNL A   1      34.402  25.293  25.737  1.00  0.00     0.047 C 
ATOM     31  C   UNL A   1      33.173  24.556  22.216  1.00  0.00     0.004 A 
ATOM     32  C   UNL A   1      35.190  23.699  23.412  1.00  0.00     0.044 C 
ENDBRANCH  22  25
ENDBRANCH  17  18
ENDBRANCH  14  17
ENDBRANCH  12  13
ENDBRANCH   3   6
ENDBRANCH   1   2
BRANCH   1  33
ATOM     33  C   UNL A   1      39.083  24.715  27.063  1.00  0.00     0.042 C 
BRANCH  33  34
ATOM     34  C   UNL A   1      39.705  23.108  27.033  1.00  0.00     0.118 C 
BRANCH  34  35
ATOM     35  N   UNL A   1      41.068  22.425  26.088  1.00  0.00    -0.352 N 
ATOM     36  C   UNL A   1      42.494  22.304  25.490  1.00  0.00     0.251 C 
ATOM     37  H   UNL A   1      40.645  21.619  25.714  1.00  0.00     0.163 HD
ATOM     38  O   UNL A   1      42.685  21.113  25.138  1.00  0.00    -0.269 OA
BRANCH  36  39
ATOM     39  C   UNL A   1      43.991  23.158  25.406  1.00  0.00     0.039 A 
ATOM     40  C   UNL A   1      45.274  22.583  25.620  1.00  0.00     0.014 A 
ATOM     41  C   UNL A   1      44.237  24.483  25.170  1.00  0.00     0.014 A 
ATOM     42  C   UNL A   1      46.215  23.240  26.510  1.00  0.00     0.010 A 
ATOM     43  C   UNL A   1      45.061  25.147  26.154  1.00  0.00     0.010 A 
ATOM     44  C   UNL A   1      45.865  24.467  27.046  1.00  0.00    -0.014 A 
BRANCH  44  45
ATOM     45  C   UNL A   1      46.316  25.137  28.313  1.00  0.00     0.031 A 
ATOM     46  C   UNL A   1      45.272  25.398  29.285  1.00  0.00     0.074 A 
ATOM     47  C   UNL A   1      47.561  25.476  28.754  1.00  0.00     0.049 A 
ATOM     48  N   UNL A   1      44.777  26.554  29.553  1.00  0.00    -0.248 NA
ATOM     49  C   UNL A   1      44.651  24.285  29.991  1.00  0.00     0.031 C 
ATOM     50  C   UNL A   1      48.041  26.306  29.885  1.00  0.00     0.029 A 
ATOM     51  N   UNL A   1      48.743  25.268  28.099  1.00  0.00    -0.354 N 
ATOM     52  C   UNL A   1      44.046  26.348  30.699  1.00  0.00     0.074 A 
ATOM     53  C   UNL A   1      43.755  24.934  30.729  1.00  0.00     0.031 C 
ATOM     54  C   UNL A   1      49.217  26.886  29.532  1.00  0.00     0.029 A 
ATOM     55  C   UNL A   1      49.542  26.415  28.203  1.00  0.00     0.049 A 
ATOM     56  H   UNL A   1      48.993  24.441  27.627  1.00  0.00     0.167 HD
ATOM     57  C   UNL A   1      44.071  27.261  31.711  1.00  0.00     0.031 A 
ATOM     58  C   UNL A   1      49.755  27.120  27.048  1.00  0.00     0.031 A 
ATOM     59  C   UNL A   1      45.091  28.291  31.458  1.00  0.00     0.049 A 
ATOM     60  C   UNL A   1      48.927  28.408  27.106  1.00  0.00     0.074 A 
ATOM     61  C   UNL A   1      46.329  28.534  32.035  1.00  0.00     0.029 A 
ATOM     62  N   UNL A   1      45.079  29.003  30.262  1.00  0.00    -0.354 N 
ATOM     63  N   UNL A   1      47.945  28.584  27.956  1.00  0.00    -0.248 NA
ATOM     64  C   UNL A   1      49.177  29.627  26.331  1.00  0.00     0.031 C 
ATOM     65  C   UNL A   1      47.095  29.313  31.122  1.00  0.00     0.029 A 
ATOM     66  C   UNL A   1      46.318  29.562  30.003  1.00  0.00     0.049 A 
ATOM     67  H   UNL A   1      44.292  29.097  29.677  1.00  0.00     0.167 HD
ATOM     68  C   UNL A   1      47.490  29.872  27.920  1.00  0.00     0.074 A 
ATOM     69  C   UNL A   1      48.281  30.484  26.865  1.00  0.00     0.031 C 
ATOM     70  C   UNL A   1      46.535  30.340  28.783  1.00  0.00     0.031 A 
BRANCH  57  71
ATOM     71  C   UNL A   1      43.439  27.011  33.063  1.00  0.00    -0.014 A 
ATOM     72  C   UNL A   1      43.893  25.949  33.866  1.00  0.00     0.010 A 
ATOM     73  C   UNL A   1      42.428  27.821  33.628  1.00  0.00     0.010 A 
ATOM     74  C   UNL A   1      43.336  25.676  35.124  1.00  0.00     0.020 A 
ATOM     75  C   UNL A   1      41.826  27.533  34.859  1.00  0.00     0.020 A 
ATOM     76  C   UNL A   1      42.293  26.465  35.609  1.00  0.00     0.054 A 
BRANCH  76  77
ATOM     77  S   UNL A   1      41.614  26.121  37.250  1.00  0.00     0.124 S 
ATOM     78  O   UNL A   1      40.548  27.112  37.366  1.00  0.00    -0.237 OA
ATOM     79  O   UNL A   1      41.175  24.734  37.122  1.00  0.00    -0.237 OA
ATOM     80  O   UNL A   1      42.749  26.329  38.149  1.00  0.00    -0.744 OA
ENDBRANCH  76  77
ENDBRANCH  57  71
BRANCH  58  81
ATOM     81  C   UNL A   1      49.966  26.110  25.902  1.00  0.00    -0.014 A 
ATOM     82  C   UNL A   1      48.765  25.629  25.318  1.00  0.00     0.010 A 
ATOM     83  C   UNL A   1      50.959  26.326  24.976  1.00  0.00     0.010 A 
ATOM     84  C   UNL A   1      48.359  26.101  24.031  1.00  0.00     0.020 A 
ATOM     85  C   UNL A   1      50.574  26.534  23.616  1.00  0.00     0.020 A 
ATOM     86  C   UNL A   1      49.261  26.723  23.175  1.00  0.00     0.054 A 
BRANCH  86  87
ATOM     87  S   UNL A   1      48.417  28.022  21.825  1.00  0.00     0.124 S 
ATOM     88  O   UNL A   1      49.387  29.056  21.585  1.00  0.00    -0.237 OA
ATOM     89  O   UNL A   1      48.144  27.139  20.723  1.00  0.00    -0.237 OA
ATOM     90  O   UNL A   1      47.310  28.842  22.221  1.00  0.00    -0.744 OA
ENDBRANCH  86  87
ENDBRANCH  58  81
BRANCH  70  91
ATOM     91  C   UNL A   1      45.755  31.630  28.639  1.00  0.00    -0.014 A 
ATOM     92  C   UNL A   1      45.954  32.763  29.439  1.00  0.00     0.010 A 
ATOM     93  C   UNL A   1      44.856  31.775  27.548  1.00  0.00     0.010 A 
ATOM     94  C   UNL A   1      45.238  33.947  29.214  1.00  0.00     0.020 A 
ATOM     95  C   UNL A   1      44.187  32.969  27.274  1.00  0.00     0.020 A 
ATOM     96  C   UNL A   1      44.357  34.041  28.136  1.00  0.00     0.054 A 
BRANCH  96  97
ATOM     97  S   UNL A   1      43.462  35.586  27.857  1.00  0.00     0.124 S 
ATOM     98  O   UNL A   1      42.589  35.640  29.028  1.00  0.00    -0.237 OA
ATOM     99  O   UNL A   1      44.534  36.578  27.829  1.00  0.00    -0.237 OA
ATOM    100  O   UNL A   1      42.783  35.374  26.581  1.00  0.00    -0.744 OA
ENDBRANCH  96  97
ENDBRANCH  70  91
ENDBRANCH  44  45
ENDBRANCH  36  39
ENDBRANCH  34  35
ENDBRANCH  33  34
ENDBRANCH   1  33
TORSDOF 17
ENDMDL
MODEL 2
REMARK VINA RESULT:     -13.3      6.175     10.917
REMARK SMILES Cc1ccc(C(=O)NCCCNC(=O)c2ccc(-c3c4nc(c(-c5ccc(S(=O)(=O)[O-])cc5)c5ccc([nH]5)c(-c5ccc(S(=O)(=O)[O-])cc5)c5nc(c(-c6ccc(S(=O)(=O)[O-])cc6)c6ccc3[nH]6)C=C5)C=C4)cc2)c(NC(=O)C[C@@H]2SC(=O)N(c3cccc(C)c3C)C2=O)c1
REMARK SMILES IDX 9 1 8 2 6 3 7 4 5 6 1 7 2 8 3 9 95 10 4 11 75 12 76 13 77 14
REMARK SMILES IDX 78 16 79 17 80 18 81 19 93 20 82 21 84 22 94 23 83 24 85 25
REMARK SMILES IDX 86 26 91 27 87 28 89 29 92 30 88 31 90 32 10 33 11 34 12 35
REMARK SMILES IDX 13 36 14 38 15 39 16 40 74 41 17 42 73 43 18 44 19 45 20 46
REMARK SMILES IDX 67 47 21 48 72 49 66 50 68 51 22 52 71 53 65 54 64 55 23 57
REMARK SMILES IDX 53 58 34 59 52 60 35 61 38 62 51 63 69 64 36 65 37 66 50 68
REMARK SMILES IDX 70 69 39 70 24 71 25 72 33 73 26 74 32 75 27 76 28 77 29 78
REMARK SMILES IDX 30 79 31 80 54 81 55 82 63 83 56 84 62 85 57 86 58 87 59 88
REMARK SMILES IDX 60 89 61 90 40 91 41 92 49 93 42 94 48 95 43 96 44 97 45 98
REMARK SMILES IDX 46 99 47 100
REMARK H PARENT 8 5 76 15 12 37 68 56 38 67
REMARK Flexibility Score: inf
ROOT
ATOM      1  C   UNL A   1      38.603  22.917  25.972  1.00  0.00     0.118 C 
ENDROOT
BRANCH   1   2
ATOM      2  N   UNL A   1      38.067  21.542  26.088  1.00  0.00    -0.352 N 
ATOM      3  C   UNL A   1      36.942  21.152  25.402  1.00  0.00     0.253 C 
ATOM      4  O   UNL A   1      36.520  20.087  24.995  1.00  0.00    -0.269 OA
ATOM      5  H   UNL A   1      38.525  20.894  26.668  1.00  0.00     0.163 HD
BRANCH   3   6
ATOM      6  C   UNL A   1      36.281  22.026  24.573  1.00  0.00     0.063 A 
ATOM      7  C   UNL A   1      33.923  23.551  21.607  1.00  0.00     0.044 C 
ATOM      8  C   UNL A   1      34.768  23.167  22.784  1.00  0.00    -0.049 A 
ATOM      9  C   UNL A   1      36.138  23.037  22.497  1.00  0.00     0.004 A 
ATOM     10  C   UNL A   1      34.228  22.873  24.098  1.00  0.00     0.030 A 
ATOM     11  C   UNL A   1      36.914  22.396  23.400  1.00  0.00     0.016 A 
ATOM     12  C   UNL A   1      35.064  22.382  25.101  1.00  0.00     0.054 A 
BRANCH  12  13
ATOM     13  N   UNL A   1      34.712  21.995  26.469  1.00  0.00    -0.325 N 
ATOM     14  C   UNL A   1      33.799  22.389  27.476  1.00  0.00     0.226 C 
ATOM     15  H   UNL A   1      35.273  21.246  26.777  1.00  0.00     0.169 HD
ATOM     16  O   UNL A   1      34.169  21.901  28.576  1.00  0.00    -0.275 OA
BRANCH  14  17
ATOM     17  C   UNL A   1      32.266  23.161  27.587  1.00  0.00     0.125 C 
BRANCH  17  18
ATOM     18  C   UNL A   1      30.732  23.285  26.929  1.00  0.00     0.156 C 
ATOM     19  S   UNL A   1      30.731  22.251  25.359  1.00  0.00    -0.050 SA
ATOM     20  C   UNL A   1      29.981  24.546  26.283  1.00  0.00     0.248 C 
ATOM     21  C   UNL A   1      30.777  23.687  24.312  1.00  0.00     0.293 C 
ATOM     22  N   UNL A   1      30.508  24.816  25.021  1.00  0.00    -0.240 N 
ATOM     23  O   UNL A   1      29.129  25.213  26.868  1.00  0.00    -0.273 OA
ATOM     24  O   UNL A   1      30.969  23.591  23.107  1.00  0.00    -0.261 OA
BRANCH  22  25
ATOM     25  C   UNL A   1      30.772  26.151  24.539  1.00  0.00     0.056 A 
ATOM     26  C   UNL A   1      29.750  26.882  23.917  1.00  0.00     0.027 A 
ATOM     27  C   UNL A   1      32.004  26.832  24.830  1.00  0.00    -0.024 A 
ATOM     28  C   UNL A   1      29.936  28.219  23.534  1.00  0.00     0.002 A 
ATOM     29  C   UNL A   1      32.142  28.225  24.528  1.00  0.00    -0.046 A 
ATOM     30  C   UNL A   1      33.120  26.191  25.625  1.00  0.00     0.047 C 
ATOM     31  C   UNL A   1      31.117  28.887  23.844  1.00  0.00     0.004 A 
ATOM     32  C   UNL A   1      33.315  29.046  25.017  1.00  0.00     0.044 C 
ENDBRANCH  22  25
ENDBRANCH  17  18
ENDBRANCH  14  17
ENDBRANCH  12  13
ENDBRANCH   3   6
ENDBRANCH   1   2
BRANCH   1  33
ATOM     33  C   UNL A   1      39.763  23.356  26.886  1.00  0.00     0.042 C 
BRANCH  33  34
ATOM     34  C   UNL A   1      40.547  24.891  26.924  1.00  0.00     0.118 C 
BRANCH  34  35
ATOM     35  N   UNL A   1      39.903  26.496  27.399  1.00  0.00    -0.352 N 
ATOM     36  C   UNL A   1      39.358  27.619  28.319  1.00  0.00     0.251 C 
ATOM     37  H   UNL A   1      39.883  26.949  26.526  1.00  0.00     0.163 HD
ATOM     38  O   UNL A   1      39.490  28.722  27.732  1.00  0.00    -0.269 OA
BRANCH  36  39
ATOM     39  C   UNL A   1      38.908  27.910  29.959  1.00  0.00     0.039 A 
ATOM     40  C   UNL A   1      37.858  28.773  30.378  1.00  0.00     0.014 A 
ATOM     41  C   UNL A   1      39.452  27.432  31.120  1.00  0.00     0.014 A 
ATOM     42  C   UNL A   1      38.106  29.743  31.430  1.00  0.00     0.010 A 
ATOM     43  C   UNL A   1      39.823  28.436  32.091  1.00  0.00     0.010 A 
ATOM     44  C   UNL A   1      39.336  29.727  32.063  1.00  0.00    -0.014 A 
BRANCH  44  45
ATOM     45  C   UNL A   1      40.080  30.825  32.769  1.00  0.00     0.031 A 
ATOM     46  C   UNL A   1      41.050  30.387  33.754  1.00  0.00     0.074 A 
ATOM     47  C   UNL A   1      40.065  32.177  32.591  1.00  0.00     0.049 A 
ATOM     48  N   UNL A   1      40.908  30.475  35.029  1.00  0.00    -0.248 NA
ATOM     49  C   UNL A   1      42.270  29.722  33.316  1.00  0.00     0.031 C 
ATOM     50  C   UNL A   1      40.615  33.305  33.378  1.00  0.00     0.029 A 
ATOM     51  N   UNL A   1      39.324  32.870  31.674  1.00  0.00    -0.354 N 
ATOM     52  C   UNL A   1      42.161  30.203  35.525  1.00  0.00     0.074 A 
ATOM     53  C   UNL A   1      42.840  29.461  34.490  1.00  0.00     0.031 C 
ATOM     54  C   UNL A   1      39.813  34.388  33.208  1.00  0.00     0.029 A 
ATOM     55  C   UNL A   1      38.767  34.002  32.285  1.00  0.00     0.049 A 
ATOM     56  H   UNL A   1      39.200  32.613  30.732  1.00  0.00     0.167 HD
ATOM     57  C   UNL A   1      42.667  30.929  36.563  1.00  0.00     0.031 A 
ATOM     58  C   UNL A   1      37.407  34.005  32.448  1.00  0.00     0.031 A 
ATOM     59  C   UNL A   1      41.798  32.075  36.872  1.00  0.00     0.049 A 
ATOM     60  C   UNL A   1      37.094  33.776  33.930  1.00  0.00     0.074 A 
ATOM     61  C   UNL A   1      41.944  33.437  36.654  1.00  0.00     0.029 A 
ATOM     62  N   UNL A   1      40.446  31.871  37.133  1.00  0.00    -0.354 N 
ATOM     63  N   UNL A   1      37.979  33.316  34.780  1.00  0.00    -0.248 NA
ATOM     64  C   UNL A   1      35.847  34.135  34.611  1.00  0.00     0.031 C 
ATOM     65  C   UNL A   1      40.650  34.030  36.686  1.00  0.00     0.029 A 
ATOM     66  C   UNL A   1      39.722  33.035  36.943  1.00  0.00     0.049 A 
ATOM     67  H   UNL A   1      40.057  31.013  37.417  1.00  0.00     0.167 HD
ATOM     68  C   UNL A   1      37.504  33.372  36.061  1.00  0.00     0.074 A 
ATOM     69  C   UNL A   1      36.150  33.873  35.901  1.00  0.00     0.031 C 
ATOM     70  C   UNL A   1      38.273  33.043  37.145  1.00  0.00     0.031 A 
BRANCH  57  71
ATOM     71  C   UNL A   1      44.100  30.803  37.035  1.00  0.00    -0.014 A 
ATOM     72  C   UNL A   1      45.024  31.826  36.754  1.00  0.00     0.010 A 
ATOM     73  C   UNL A   1      44.589  29.727  37.808  1.00  0.00     0.010 A 
ATOM     74  C   UNL A   1      46.363  31.752  37.168  1.00  0.00     0.020 A 
ATOM     75  C   UNL A   1      45.933  29.612  38.185  1.00  0.00     0.020 A 
ATOM     76  C   UNL A   1      46.813  30.636  37.872  1.00  0.00     0.054 A 
BRANCH  76  77
ATOM     77  S   UNL A   1      48.533  30.577  38.430  1.00  0.00     0.124 S 
ATOM     78  O   UNL A   1      48.665  31.821  39.183  1.00  0.00    -0.237 OA
ATOM     79  O   UNL A   1      48.561  29.352  39.224  1.00  0.00    -0.237 OA
ATOM     80  O   UNL A   1      49.303  30.524  37.187  1.00  0.00    -0.744 OA
ENDBRANCH  76  77
ENDBRANCH  57  71
BRANCH  58  81
ATOM     81  C   UNL A   1      36.773  33.397  31.180  1.00  0.00    -0.014 A 
ATOM     82  C   UNL A   1      35.482  32.841  31.380  1.00  0.00     0.010 A 
ATOM     83  C   UNL A   1      36.889  34.054  29.977  1.00  0.00     0.010 A 
ATOM     84  C   UNL A   1      34.325  33.535  30.907  1.00  0.00     0.020 A 
ATOM     85  C   UNL A   1      35.693  34.523  29.352  1.00  0.00     0.020 A 
ATOM     86  C   UNL A   1      34.429  34.536  29.948  1.00  0.00     0.054 A 
BRANCH  86  87
ATOM     87  S   UNL A   1      32.920  35.932  29.988  1.00  0.00     0.124 S 
ATOM     88  O   UNL A   1      32.363  35.975  28.664  1.00  0.00    -0.237 OA
ATOM     89  O   UNL A   1      32.073  35.394  31.018  1.00  0.00    -0.237 OA
ATOM     90  O   UNL A   1      33.239  37.321  30.142  1.00  0.00    -0.744 OA
ENDBRANCH  86  87
ENDBRANCH  58  81
BRANCH  70  91
ATOM     91  C   UNL A   1      37.771  32.781  38.551  1.00  0.00    -0.014 A 
ATOM     92  C   UNL A   1      38.161  33.518  39.676  1.00  0.00     0.010 A 
ATOM     93  C   UNL A   1      36.738  31.825  38.747  1.00  0.00     0.010 A 
ATOM     94  C   UNL A   1      37.613  33.262  40.940  1.00  0.00     0.020 A 
ATOM     95  C   UNL A   1      36.137  31.608  39.988  1.00  0.00     0.020 A 
ATOM     96  C   UNL A   1      36.607  32.306  41.089  1.00  0.00     0.054 A 
BRANCH  96  97
ATOM     97  S   UNL A   1      35.904  32.010  42.726  1.00  0.00     0.124 S 
ATOM     98  O   UNL A   1      36.862  31.065  43.295  1.00  0.00    -0.237 OA
ATOM     99  O   UNL A   1      35.908  33.343  43.324  1.00  0.00    -0.237 OA
ATOM    100  O   UNL A   1      34.578  31.463  42.445  1.00  0.00    -0.744 OA
ENDBRANCH  96  97
ENDBRANCH  70  91
ENDBRANCH  44  45
ENDBRANCH  36  39
ENDBRANCH  34  35
ENDBRANCH  33  34
ENDBRANCH   1  33
TORSDOF 17
ENDMDL
MODEL 3
REMARK VINA RESULT:     -13.3      4.606     10.844
REMARK SMILES Cc1ccc(C(=O)NCCCNC(=O)c2ccc(-c3c4nc(c(-c5ccc(S(=O)(=O)[O-])cc5)c5ccc([nH]5)c(-c5ccc(S(=O)(=O)[O-])cc5)c5nc(c(-c6ccc(S(=O)(=O)[O-])cc6)c6ccc3[nH]6)C=C5)C=C4)cc2)c(NC(=O)C[C@@H]2SC(=O)N(c3cccc(C)c3C)C2=O)c1
REMARK SMILES IDX 9 1 8 2 6 3 7 4 5 6 1 7 2 8 3 9 95 10 4 11 75 12 76 13 77 14
REMARK SMILES IDX 78 16 79 17 80 18 81 19 93 20 82 21 84 22 94 23 83 24 85 25
REMARK SMILES IDX 86 26 91 27 87 28 89 29 92 30 88 31 90 32 10 33 11 34 12 35
REMARK SMILES IDX 13 36 14 38 15 39 16 40 74 41 17 42 73 43 18 44 19 45 20 46
REMARK SMILES IDX 67 47 21 48 72 49 66 50 68 51 22 52 71 53 65 54 64 55 23 57
REMARK SMILES IDX 53 58 34 59 52 60 35 61 38 62 51 63 69 64 36 65 37 66 50 68
REMARK SMILES IDX 70 69 39 70 24 71 25 72 33 73 26 74 32 75 27 76 28 77 29 78
REMARK SMILES IDX 30 79 31 80 54 81 55 82 63 83 56 84 62 85 57 86 58 87 59 88
REMARK SMILES IDX 60 89 61 90 40 91 41 92 49 93 42 94 48 95 43 96 44 97 45 98
REMARK SMILES IDX 46 99 47 100
REMARK H PARENT 8 5 76 15 12 37 68 56 38 67
REMARK Flexibility Score: inf
ROOT
ATOM      1  C   UNL A   1      47.927  26.036  25.589  1.00  0.00     0.118 C 
ENDROOT
BRANCH   1   2
ATOM      2  N   UNL A   1      48.328  27.423  25.262  1.00  0.00    -0.352 N 
ATOM      3  C   UNL A   1      49.609  27.871  25.479  1.00  0.00     0.253 C 
ATOM      4  O   UNL A   1      50.302  28.738  24.986  1.00  0.00    -0.269 OA
ATOM      5  H   UNL A   1      47.662  28.040  24.881  1.00  0.00     0.163 HD
BRANCH   3   6
ATOM      6  C   UNL A   1      50.569  27.036  25.999  1.00  0.00     0.063 A 
ATOM      7  C   UNL A   1      54.169  25.457  27.104  1.00  0.00     0.044 C 
ATOM      8  C   UNL A   1      52.769  25.920  26.838  1.00  0.00    -0.049 A 
ATOM      9  C   UNL A   1      52.237  25.480  25.613  1.00  0.00     0.004 A 
ATOM     10  C   UNL A   1      52.036  26.810  27.717  1.00  0.00     0.030 A 
ATOM     11  C   UNL A   1      51.126  26.096  25.150  1.00  0.00     0.016 A 
ATOM     12  C   UNL A   1      50.795  27.310  27.326  1.00  0.00     0.054 A 
BRANCH  12  13
ATOM     13  N   UNL A   1      49.920  28.238  28.046  1.00  0.00    -0.325 N 
ATOM     14  C   UNL A   1      49.896  29.608  28.399  1.00  0.00     0.226 C 
ATOM     15  H   UNL A   1      49.117  27.775  28.380  1.00  0.00     0.169 HD
ATOM     16  O   UNL A   1      49.037  29.782  29.302  1.00  0.00    -0.275 OA
BRANCH  14  17
ATOM     17  C   UNL A   1      50.551  31.092  27.827  1.00  0.00     0.125 C 
BRANCH  17  18
ATOM     18  C   UNL A   1      50.213  32.669  27.377  1.00  0.00     0.156 C 
ATOM     19  S   UNL A   1      49.855  33.617  28.960  1.00  0.00    -0.050 SA
ATOM     20  C   UNL A   1      48.972  33.268  26.556  1.00  0.00     0.248 C 
ATOM     21  C   UNL A   1      48.106  33.657  28.642  1.00  0.00     0.293 C 
ATOM     22  N   UNL A   1      47.836  33.288  27.362  1.00  0.00    -0.240 N 
ATOM     23  O   UNL A   1      49.021  33.576  25.366  1.00  0.00    -0.273 OA
ATOM     24  O   UNL A   1      47.313  34.038  29.492  1.00  0.00    -0.261 OA
BRANCH  22  25
ATOM     25  C   UNL A   1      46.521  32.921  26.891  1.00  0.00     0.056 A 
ATOM     26  C   UNL A   1      45.922  31.738  27.349  1.00  0.00     0.027 A 
ATOM     27  C   UNL A   1      45.721  33.816  26.101  1.00  0.00    -0.024 A 
ATOM     28  C   UNL A   1      44.605  31.404  27.000  1.00  0.00     0.002 A 
ATOM     29  C   UNL A   1      44.347  33.512  25.842  1.00  0.00    -0.046 A 
ATOM     30  C   UNL A   1      46.211  35.184  25.677  1.00  0.00     0.047 C 
ATOM     31  C   UNL A   1      43.822  32.286  26.261  1.00  0.00     0.004 A 
ATOM     32  C   UNL A   1      43.399  34.515  25.220  1.00  0.00     0.044 C 
ENDBRANCH  22  25
ENDBRANCH  17  18
ENDBRANCH  14  17
ENDBRANCH  12  13
ENDBRANCH   3   6
ENDBRANCH   1   2
BRANCH   1  33
ATOM     33  C   UNL A   1      46.741  25.795  26.540  1.00  0.00     0.042 C 
BRANCH  33  34
ATOM     34  C   UNL A   1      45.172  25.208  26.135  1.00  0.00     0.118 C 
BRANCH  34  35
ATOM     35  N   UNL A   1      43.790  24.799  27.202  1.00  0.00    -0.352 N 
ATOM     36  C   UNL A   1      42.381  24.897  27.843  1.00  0.00     0.251 C 
ATOM     37  H   UNL A   1      44.156  24.024  27.686  1.00  0.00     0.163 HD
ATOM     38  O   UNL A   1      42.102  23.796  28.377  1.00  0.00    -0.269 OA
BRANCH  36  39
ATOM     39  C   UNL A   1      40.966  25.885  27.827  1.00  0.00     0.039 A 
ATOM     40  C   UNL A   1      40.849  27.135  27.160  1.00  0.00     0.014 A 
ATOM     41  C   UNL A   1      39.757  25.702  28.441  1.00  0.00     0.014 A 
ATOM     42  C   UNL A   1      40.298  28.277  27.869  1.00  0.00     0.010 A 
ATOM     43  C   UNL A   1      39.303  26.804  29.259  1.00  0.00     0.010 A 
ATOM     44  C   UNL A   1      39.809  28.083  29.148  1.00  0.00    -0.014 A 
BRANCH  44  45
ATOM     45  C   UNL A   1      39.664  29.049  30.290  1.00  0.00     0.031 A 
ATOM     46  C   UNL A   1      38.707  30.118  30.082  1.00  0.00     0.074 A 
ATOM     47  C   UNL A   1      40.219  29.056  31.535  1.00  0.00     0.049 A 
ATOM     48  N   UNL A   1      39.003  31.350  29.858  1.00  0.00    -0.248 NA
ATOM     49  C   UNL A   1      37.283  29.813  30.045  1.00  0.00     0.031 C 
ATOM     50  C   UNL A   1      40.270  30.073  32.612  1.00  0.00     0.029 A 
ATOM     51  N   UNL A   1      41.082  28.128  32.048  1.00  0.00    -0.354 N 
ATOM     52  C   UNL A   1      37.808  32.014  30.005  1.00  0.00     0.074 A 
ATOM     53  C   UNL A   1      36.780  31.021  29.804  1.00  0.00     0.031 C 
ATOM     54  C   UNL A   1      41.427  29.916  33.307  1.00  0.00     0.029 A 
ATOM     55  C   UNL A   1      42.117  28.781  32.731  1.00  0.00     0.049 A 
ATOM     56  H   UNL A   1      40.991  27.153  31.952  1.00  0.00     0.167 HD
ATOM     57  C   UNL A   1      37.758  33.213  30.654  1.00  0.00     0.031 A 
ATOM     58  C   UNL A   1      43.365  28.704  32.171  1.00  0.00     0.031 A 
ATOM     59  C   UNL A   1      39.050  33.519  31.286  1.00  0.00     0.049 A 
ATOM     60  C   UNL A   1      43.706  30.065  31.555  1.00  0.00     0.074 A 
ATOM     61  C   UNL A   1      39.460  33.517  32.611  1.00  0.00     0.029 A 
ATOM     62  N   UNL A   1      40.216  33.512  30.524  1.00  0.00    -0.354 N 
ATOM     63  N   UNL A   1      42.803  30.985  31.320  1.00  0.00    -0.248 NA
ATOM     64  C   UNL A   1      45.052  30.562  31.259  1.00  0.00     0.031 C 
ATOM     65  C   UNL A   1      40.880  33.404  32.634  1.00  0.00     0.029 A 
ATOM     66  C   UNL A   1      41.333  33.359  31.326  1.00  0.00     0.049 A 
ATOM     67  H   UNL A   1      40.241  33.605  29.544  1.00  0.00     0.167 HD
ATOM     68  C   UNL A   1      43.387  32.159  30.936  1.00  0.00     0.074 A 
ATOM     69  C   UNL A   1      44.803  31.837  30.890  1.00  0.00     0.031 C 
ATOM     70  C   UNL A   1      42.668  33.306  30.729  1.00  0.00     0.031 A 
BRANCH  57  71
ATOM     71  C   UNL A   1      36.458  33.904  31.008  1.00  0.00    -0.014 A 
ATOM     72  C   UNL A   1      36.304  34.506  32.269  1.00  0.00     0.010 A 
ATOM     73  C   UNL A   1      35.368  34.044  30.121  1.00  0.00     0.010 A 
ATOM     74  C   UNL A   1      35.117  35.155  32.644  1.00  0.00     0.020 A 
ATOM     75  C   UNL A   1      34.159  34.644  30.495  1.00  0.00     0.020 A 
ATOM     76  C   UNL A   1      34.044  35.208  31.756  1.00  0.00     0.054 A 
BRANCH  76  77
ATOM     77  S   UNL A   1      32.537  36.083  32.242  1.00  0.00     0.124 S 
ATOM     78  O   UNL A   1      31.637  34.990  32.598  1.00  0.00    -0.237 OA
ATOM     79  O   UNL A   1      33.001  36.907  33.355  1.00  0.00    -0.237 OA
ATOM     80  O   UNL A   1      32.161  36.826  31.040  1.00  0.00    -0.744 OA
ENDBRANCH  76  77
ENDBRANCH  57  71
BRANCH  58  81
ATOM     81  C   UNL A   1      43.556  27.275  31.624  1.00  0.00    -0.014 A 
ATOM     82  C   UNL A   1      44.098  27.218  30.313  1.00  0.00     0.010 A 
ATOM     83  C   UNL A   1      44.049  26.289  32.446  1.00  0.00     0.010 A 
ATOM     84  C   UNL A   1      45.463  26.836  30.121  1.00  0.00     0.020 A 
ATOM     85  C   UNL A   1      45.306  25.701  32.109  1.00  0.00     0.020 A 
ATOM     86  C   UNL A   1      46.170  26.170  31.116  1.00  0.00     0.054 A 
BRANCH  86  87
ATOM     87  S   UNL A   1      48.208  26.429  31.048  1.00  0.00     0.124 S 
ATOM     88  O   UNL A   1      48.782  25.392  31.862  1.00  0.00    -0.237 OA
ATOM     89  O   UNL A   1      48.453  26.336  29.635  1.00  0.00    -0.237 OA
ATOM     90  O   UNL A   1      48.803  27.567  31.684  1.00  0.00    -0.744 OA
ENDBRANCH  86  87
ENDBRANCH  58  81
BRANCH  70  91
ATOM     91  C   UNL A   1      43.158  34.554  30.023  1.00  0.00    -0.014 A 
ATOM     92  C   UNL A   1      42.641  35.027  28.810  1.00  0.00     0.010 A 
ATOM     93  C   UNL A   1      44.103  35.390  30.677  1.00  0.00     0.010 A 
ATOM     94  C   UNL A   1      43.099  36.222  28.241  1.00  0.00     0.020 A 
ATOM     95  C   UNL A   1      44.518  36.614  30.152  1.00  0.00     0.020 A 
ATOM     96  C   UNL A   1      44.037  37.007  28.913  1.00  0.00     0.054 A 
BRANCH  96  97
ATOM     97  S   UNL A   1      44.595  38.553  28.165  1.00  0.00     0.124 S 
ATOM     98  O   UNL A   1      43.411  39.398  28.309  1.00  0.00    -0.237 OA
ATOM     99  O   UNL A   1      45.734  38.924  29.002  1.00  0.00    -0.237 OA
ATOM    100  O   UNL A   1      44.933  38.179  26.794  1.00  0.00    -0.744 OA
ENDBRANCH  96  97
ENDBRANCH  70  91
ENDBRANCH  44  45
ENDBRANCH  36  39
ENDBRANCH  34  35
ENDBRANCH  33  34
ENDBRANCH   1  33
TORSDOF 17
ENDMDL
