MODEL 1
REMARK VINA RESULT:     -11.7      0.000      0.000
REMARK SMILES C[C@H]1CCC[C@H](C)N1C(=O)C[N@@H+](CC(=O)NCCCNC(=O)c1ccc(-c2c3nc(c(-c4ccc(S(=O)(=O)[O-])cc4)c4ccc([nH]4)c(-c4ccc(S(=O)(=O)[O-])cc4)c4nc(c(-c5ccc(S(=O)(=O)[O-])cc5)c5ccc2[nH]5)C=C4)C=C3)cc1)C(C)(C)C
REMARK SMILES IDX 18 1 17 2 16 3 14 4 15 5 13 7 12 8 11 10 9 11 1 12 2 13 3 14
REMARK SMILES IDX 8 15 4 16 6 17 5 18 7 19 10 20 83 21 84 22 85 23 86 24 19 25
REMARK SMILES IDX 20 26 21 27 22 29 23 30 24 31 82 32 25 33 81 34 26 35 27 36
REMARK SMILES IDX 28 37 75 38 29 39 80 40 74 41 76 42 30 43 79 44 73 45 72 46
REMARK SMILES IDX 31 48 61 49 42 50 60 51 43 52 46 53 59 54 77 55 44 56 45 57
REMARK SMILES IDX 58 59 78 60 47 61 32 62 33 63 41 64 34 65 40 66 35 67 36 68
REMARK SMILES IDX 37 69 38 70 39 71 62 72 63 73 71 74 64 75 70 76 65 77 66 78
REMARK SMILES IDX 67 79 68 80 69 81 48 82 49 83 57 84 50 85 56 86 51 87 52 88
REMARK SMILES IDX 53 89 54 90 55 91
REMARK H PARENT 16 6 12 9 20 28 76 47 46 58
REMARK Flexibility Score: inf
ROOT
ATOM      1  C   UNL A   1      38.175  23.503  26.344  1.00  0.00     0.042 C 
ENDROOT
BRANCH   1   2
ATOM      2  C   UNL A   1      37.675  22.206  25.699  1.00  0.00     0.118 C 
BRANCH   2   3
ATOM      3  N   UNL A   1      37.440  22.293  24.265  1.00  0.00    -0.351 N 
ATOM      4  C   UNL A   1      36.377  22.747  23.539  1.00  0.00     0.275 C 
ATOM      5  O   UNL A   1      36.609  23.047  22.361  1.00  0.00    -0.269 OA
ATOM      6  H   UNL A   1      38.187  21.961  23.716  1.00  0.00     0.163 HD
BRANCH   4   7
ATOM      7  C   UNL A   1      34.975  22.939  24.128  1.00  0.00     0.364 C 
BRANCH   7   8
ATOM      8  N   UNL A   1      33.945  21.895  23.813  1.00  0.00    -0.315 N 
ATOM      9  H   UNL A   1      34.330  21.265  23.109  1.00  0.00     0.349 HD
BRANCH   8  10
ATOM     10  C   UNL A   1      32.771  22.561  23.225  1.00  0.00     0.364 C 
BRANCH  10  11
ATOM     11  C   UNL A   1      32.895  23.982  22.701  1.00  0.00     0.278 C 
ATOM     12  C   UNL A   1      31.398  24.080  25.558  1.00  0.00     0.031 C 
ATOM     13  C   UNL A   1      31.967  25.260  24.786  1.00  0.00     0.082 C 
ATOM     14  C   UNL A   1      33.063  25.974  25.593  1.00  0.00     0.025 C 
ATOM     15  N   UNL A   1      32.419  25.100  23.382  1.00  0.00    -0.332 N 
ATOM     16  C   UNL A   1      33.428  27.317  24.953  1.00  0.00     0.004 C 
ATOM     17  C   UNL A   1      32.653  26.398  22.697  1.00  0.00     0.082 C 
ATOM     18  C   UNL A   1      33.731  27.182  23.460  1.00  0.00     0.025 C 
ATOM     19  C   UNL A   1      31.364  27.197  22.478  1.00  0.00     0.031 C 
ATOM     20  O   UNL A   1      33.333  24.086  21.545  1.00  0.00    -0.268 OA
ENDBRANCH  10  11
ENDBRANCH   8  10
BRANCH   8  21
ATOM     21  C   UNL A   1      33.692  20.860  24.867  1.00  0.00     0.090 C 
ATOM     22  C   UNL A   1      34.461  19.529  24.706  1.00  0.00     0.078 C 
ATOM     23  C   UNL A   1      34.036  21.382  26.285  1.00  0.00     0.078 C 
ATOM     24  C   UNL A   1      32.176  20.542  24.911  1.00  0.00     0.078 C 
ENDBRANCH   8  21
ENDBRANCH   7   8
ENDBRANCH   4   7
ENDBRANCH   2   3
ENDBRANCH   1   2
BRANCH   1  25
ATOM     25  C   UNL A   1      39.545  23.405  27.009  1.00  0.00     0.118 C 
BRANCH  25  26
ATOM     26  N   UNL A   1      40.598  23.885  26.131  1.00  0.00    -0.352 N 
ATOM     27  C   UNL A   1      41.191  25.125  26.064  1.00  0.00     0.251 C 
ATOM     28  H   UNL A   1      40.940  23.223  25.487  1.00  0.00     0.163 HD
ATOM     29  O   UNL A   1      41.857  25.412  25.072  1.00  0.00    -0.269 OA
BRANCH  27  30
ATOM     30  C   UNL A   1      41.032  26.117  27.157  1.00  0.00     0.039 A 
ATOM     31  C   UNL A   1      41.792  27.294  27.118  1.00  0.00     0.014 A 
ATOM     32  C   UNL A   1      40.209  25.871  28.258  1.00  0.00     0.014 A 
ATOM     33  C   UNL A   1      41.697  28.229  28.154  1.00  0.00     0.010 A 
ATOM     34  C   UNL A   1      40.059  26.837  29.254  1.00  0.00     0.010 A 
ATOM     35  C   UNL A   1      40.814  28.019  29.225  1.00  0.00    -0.014 A 
BRANCH  35  36
ATOM     36  C   UNL A   1      40.693  28.997  30.342  1.00  0.00     0.031 A 
ATOM     37  C   UNL A   1      41.589  28.884  31.549  1.00  0.00     0.074 A 
ATOM     38  C   UNL A   1      39.730  29.939  30.317  1.00  0.00     0.049 A 
ATOM     39  N   UNL A   1      41.570  29.571  32.663  1.00  0.00    -0.248 NA
ATOM     40  C   UNL A   1      42.624  27.838  31.507  1.00  0.00     0.031 C 
ATOM     41  C   UNL A   1      38.763  30.133  29.236  1.00  0.00     0.029 A 
ATOM     42  N   UNL A   1      39.395  30.899  31.241  1.00  0.00    -0.354 N 
ATOM     43  C   UNL A   1      42.555  29.013  33.470  1.00  0.00     0.074 A 
ATOM     44  C   UNL A   1      43.132  27.912  32.728  1.00  0.00     0.031 C 
ATOM     45  C   UNL A   1      37.950  31.153  29.553  1.00  0.00     0.029 A 
ATOM     46  C   UNL A   1      38.313  31.662  30.872  1.00  0.00     0.049 A 
ATOM     47  H   UNL A   1      39.882  31.027  32.085  1.00  0.00     0.167 HD
ATOM     48  C   UNL A   1      42.954  29.384  34.711  1.00  0.00     0.031 A 
ATOM     49  C   UNL A   1      37.672  32.654  31.524  1.00  0.00     0.031 A 
ATOM     50  C   UNL A   1      42.403  30.496  35.440  1.00  0.00     0.049 A 
ATOM     51  C   UNL A   1      38.156  33.084  32.880  1.00  0.00     0.074 A 
ATOM     52  C   UNL A   1      42.794  31.000  36.668  1.00  0.00     0.029 A 
ATOM     53  N   UNL A   1      41.343  31.278  35.006  1.00  0.00    -0.354 N 
ATOM     54  N   UNL A   1      39.134  32.587  33.599  1.00  0.00    -0.248 NA
ATOM     55  C   UNL A   1      37.460  34.216  33.506  1.00  0.00     0.031 C 
ATOM     56  C   UNL A   1      41.944  32.065  36.994  1.00  0.00     0.029 A 
ATOM     57  C   UNL A   1      41.053  32.250  35.949  1.00  0.00     0.049 A 
ATOM     58  H   UNL A   1      40.866  31.160  34.153  1.00  0.00     0.167 HD
ATOM     59  C   UNL A   1      39.182  33.356  34.757  1.00  0.00     0.074 A 
ATOM     60  C   UNL A   1      38.142  34.359  34.636  1.00  0.00     0.031 C 
ATOM     61  C   UNL A   1      40.014  33.241  35.821  1.00  0.00     0.031 A 
BRANCH  48  62
ATOM     62  C   UNL A   1      44.030  28.556  35.363  1.00  0.00    -0.014 A 
ATOM     63  C   UNL A   1      43.715  27.405  36.108  1.00  0.00     0.010 A 
ATOM     64  C   UNL A   1      45.376  28.942  35.238  1.00  0.00     0.010 A 
ATOM     65  C   UNL A   1      44.719  26.697  36.775  1.00  0.00     0.020 A 
ATOM     66  C   UNL A   1      46.388  28.221  35.880  1.00  0.00     0.020 A 
ATOM     67  C   UNL A   1      46.047  27.119  36.669  1.00  0.00     0.054 A 
BRANCH  67  68
ATOM     68  S   UNL A   1      47.331  26.206  37.568  1.00  0.00     0.124 S 
ATOM     69  O   UNL A   1      47.583  27.085  38.707  1.00  0.00    -0.237 OA
ATOM     70  O   UNL A   1      46.669  24.943  37.886  1.00  0.00    -0.237 OA
ATOM     71  O   UNL A   1      48.424  26.106  36.603  1.00  0.00    -0.744 OA
ENDBRANCH  67  68
ENDBRANCH  48  62
BRANCH  49  72
ATOM     72  C   UNL A   1      36.510  33.316  30.873  1.00  0.00    -0.014 A 
ATOM     73  C   UNL A   1      35.292  33.450  31.561  1.00  0.00     0.010 A 
ATOM     74  C   UNL A   1      36.641  33.881  29.592  1.00  0.00     0.010 A 
ATOM     75  C   UNL A   1      34.228  34.148  30.984  1.00  0.00     0.020 A 
ATOM     76  C   UNL A   1      35.584  34.597  29.020  1.00  0.00     0.020 A 
ATOM     77  C   UNL A   1      34.384  34.727  29.720  1.00  0.00     0.054 A 
BRANCH  77  78
ATOM     78  S   UNL A   1      33.029  35.722  29.038  1.00  0.00     0.124 S 
ATOM     79  O   UNL A   1      33.747  36.811  28.385  1.00  0.00    -0.237 OA
ATOM     80  O   UNL A   1      32.360  34.779  28.143  1.00  0.00    -0.237 OA
ATOM     81  O   UNL A   1      32.254  36.100  30.218  1.00  0.00    -0.744 OA
ENDBRANCH  77  78
ENDBRANCH  49  72
BRANCH  61  82
ATOM     82  C   UNL A   1      39.856  34.238  36.937  1.00  0.00    -0.014 A 
ATOM     83  C   UNL A   1      40.357  35.546  36.820  1.00  0.00     0.010 A 
ATOM     84  C   UNL A   1      39.139  33.877  38.092  1.00  0.00     0.010 A 
ATOM     85  C   UNL A   1      40.165  36.470  37.850  1.00  0.00     0.020 A 
ATOM     86  C   UNL A   1      38.926  34.805  39.115  1.00  0.00     0.020 A 
ATOM     87  C   UNL A   1      39.451  36.094  38.993  1.00  0.00     0.054 A 
BRANCH  87  88
ATOM     88  S   UNL A   1      39.168  37.324  40.296  1.00  0.00     0.124 S 
ATOM     89  O   UNL A   1      40.531  37.726  40.635  1.00  0.00    -0.237 OA
ATOM     90  O   UNL A   1      38.365  38.338  39.616  1.00  0.00    -0.237 OA
ATOM     91  O   UNL A   1      38.463  36.573  41.333  1.00  0.00    -0.744 OA
ENDBRANCH  87  88
ENDBRANCH  61  82
ENDBRANCH  35  36
ENDBRANCH  27  30
ENDBRANCH  25  26
ENDBRANCH   1  25
TORSDOF 17
ENDMDL
MODEL 2
REMARK VINA RESULT:     -11.6      1.336      8.364
REMARK SMILES C[C@H]1CCC[C@H](C)N1C(=O)C[N@@H+](CC(=O)NCCCNC(=O)c1ccc(-c2c3nc(c(-c4ccc(S(=O)(=O)[O-])cc4)c4ccc([nH]4)c(-c4ccc(S(=O)(=O)[O-])cc4)c4nc(c(-c5ccc(S(=O)(=O)[O-])cc5)c5ccc2[nH]5)C=C4)C=C3)cc1)C(C)(C)C
REMARK SMILES IDX 18 1 17 2 16 3 14 4 15 5 13 7 12 8 11 10 9 11 1 12 2 13 3 14
REMARK SMILES IDX 8 15 4 16 6 17 5 18 7 19 10 20 83 21 84 22 85 23 86 24 19 25
REMARK SMILES IDX 20 26 21 27 22 29 23 30 24 31 82 32 25 33 81 34 26 35 27 36
REMARK SMILES IDX 28 37 75 38 29 39 80 40 74 41 76 42 30 43 79 44 73 45 72 46
REMARK SMILES IDX 31 48 61 49 42 50 60 51 43 52 46 53 59 54 77 55 44 56 45 57
REMARK SMILES IDX 58 59 78 60 47 61 32 62 33 63 41 64 34 65 40 66 35 67 36 68
REMARK SMILES IDX 37 69 38 70 39 71 62 72 63 73 71 74 64 75 70 76 65 77 66 78
REMARK SMILES IDX 67 79 68 80 69 81 48 82 49 83 57 84 50 85 56 86 51 87 52 88
REMARK SMILES IDX 53 89 54 90 55 91
REMARK H PARENT 16 6 12 9 20 28 76 47 46 58
REMARK Flexibility Score: inf
ROOT
ATOM      1  C   UNL A   1      37.359  23.732  25.432  1.00  0.00     0.042 C 
ENDROOT
BRANCH   1   2
ATOM      2  C   UNL A   1      36.572  22.444  25.693  1.00  0.00     0.118 C 
BRANCH   2   3
ATOM      3  N   UNL A   1      35.602  22.533  26.775  1.00  0.00    -0.351 N 
ATOM      4  C   UNL A   1      34.281  22.198  26.850  1.00  0.00     0.275 C 
ATOM      5  O   UNL A   1      33.823  22.031  27.986  1.00  0.00    -0.269 OA
ATOM      6  H   UNL A   1      35.968  22.905  27.611  1.00  0.00     0.163 HD
BRANCH   4   7
ATOM      7  C   UNL A   1      33.398  21.980  25.615  1.00  0.00     0.364 C 
BRANCH   7   8
ATOM      8  N   UNL A   1      33.185  23.151  24.704  1.00  0.00    -0.315 N 
ATOM      9  H   UNL A   1      34.079  23.396  24.279  1.00  0.00     0.349 HD
BRANCH   8  10
ATOM     10  C   UNL A   1      32.745  24.299  25.515  1.00  0.00     0.364 C 
BRANCH  10  11
ATOM     11  C   UNL A   1      33.432  25.645  25.351  1.00  0.00     0.278 C 
ATOM     12  C   UNL A   1      30.295  26.167  25.896  1.00  0.00     0.031 C 
ATOM     13  C   UNL A   1      31.410  27.201  25.926  1.00  0.00     0.082 C 
ATOM     14  C   UNL A   1      31.526  27.852  27.313  1.00  0.00     0.025 C 
ATOM     15  N   UNL A   1      32.767  26.866  25.428  1.00  0.00    -0.332 N 
ATOM     16  C   UNL A   1      32.437  29.082  27.267  1.00  0.00     0.004 C 
ATOM     17  C   UNL A   1      33.630  28.063  25.248  1.00  0.00     0.082 C 
ATOM     18  C   UNL A   1      33.779  28.782  26.598  1.00  0.00     0.025 C 
ATOM     19  C   UNL A   1      33.146  28.982  24.123  1.00  0.00     0.031 C 
ATOM     20  O   UNL A   1      34.622  25.595  25.002  1.00  0.00    -0.268 OA
ENDBRANCH  10  11
ENDBRANCH   8  10
BRANCH   8  21
ATOM     21  C   UNL A   1      32.441  22.887  23.430  1.00  0.00     0.090 C 
ATOM     22  C   UNL A   1      32.282  21.400  23.037  1.00  0.00     0.078 C 
ATOM     23  C   UNL A   1      31.007  23.473  23.464  1.00  0.00     0.078 C 
ATOM     24  C   UNL A   1      33.151  23.623  22.266  1.00  0.00     0.078 C 
ENDBRANCH   8  21
ENDBRANCH   7   8
ENDBRANCH   4   7
ENDBRANCH   2   3
ENDBRANCH   1   2
BRANCH   1  25
ATOM     25  C   UNL A   1      38.340  24.122  26.533  1.00  0.00     0.118 C 
BRANCH  25  26
ATOM     26  N   UNL A   1      39.686  24.288  26.012  1.00  0.00    -0.352 N 
ATOM     27  C   UNL A   1      40.626  25.253  26.291  1.00  0.00     0.251 C 
ATOM     28  H   UNL A   1      39.969  23.604  25.361  1.00  0.00     0.163 HD
ATOM     29  O   UNL A   1      41.590  25.378  25.540  1.00  0.00    -0.269 OA
BRANCH  27  30
ATOM     30  C   UNL A   1      40.490  26.146  27.470  1.00  0.00     0.039 A 
ATOM     31  C   UNL A   1      41.283  27.298  27.540  1.00  0.00     0.014 A 
ATOM     32  C   UNL A   1      39.654  25.824  28.542  1.00  0.00     0.014 A 
ATOM     33  C   UNL A   1      41.209  28.138  28.657  1.00  0.00     0.010 A 
ATOM     34  C   UNL A   1      39.527  26.699  29.621  1.00  0.00     0.010 A 
ATOM     35  C   UNL A   1      40.315  27.856  29.703  1.00  0.00    -0.014 A 
BRANCH  35  36
ATOM     36  C   UNL A   1      40.217  28.731  30.904  1.00  0.00     0.031 A 
ATOM     37  C   UNL A   1      39.185  29.828  30.960  1.00  0.00     0.074 A 
ATOM     38  C   UNL A   1      41.100  28.599  31.913  1.00  0.00     0.049 A 
ATOM     39  N   UNL A   1      39.008  30.755  31.867  1.00  0.00    -0.248 NA
ATOM     40  C   UNL A   1      38.247  29.911  29.828  1.00  0.00     0.031 C 
ATOM     41  C   UNL A   1      42.179  27.612  31.971  1.00  0.00     0.029 A 
ATOM     42  N   UNL A   1      41.239  29.314  33.078  1.00  0.00    -0.354 N 
ATOM     43  C   UNL A   1      37.973  31.555  31.396  1.00  0.00     0.074 A 
ATOM     44  C   UNL A   1      37.584  31.022  30.108  1.00  0.00     0.031 C 
ATOM     45  C   UNL A   1      42.864  27.778  33.114  1.00  0.00     0.029 A 
ATOM     46  C   UNL A   1      42.297  28.902  33.853  1.00  0.00     0.049 A 
ATOM     47  H   UNL A   1      40.639  30.050  33.333  1.00  0.00     0.167 HD
ATOM     48  C   UNL A   1      37.392  32.631  31.981  1.00  0.00     0.031 A 
ATOM     49  C   UNL A   1      42.770  29.380  35.021  1.00  0.00     0.031 A 
ATOM     50  C   UNL A   1      37.758  33.146  33.274  1.00  0.00     0.049 A 
ATOM     51  C   UNL A   1      42.085  30.543  35.679  1.00  0.00     0.074 A 
ATOM     52  C   UNL A   1      37.175  34.180  33.986  1.00  0.00     0.029 A 
ATOM     53  N   UNL A   1      38.801  32.665  34.050  1.00  0.00    -0.354 N 
ATOM     54  N   UNL A   1      41.064  31.246  35.249  1.00  0.00    -0.248 NA
ATOM     55  C   UNL A   1      42.606  30.971  36.985  1.00  0.00     0.031 C 
ATOM     56  C   UNL A   1      37.891  34.348  35.178  1.00  0.00     0.029 A 
ATOM     57  C   UNL A   1      38.892  33.391  35.226  1.00  0.00     0.049 A 
ATOM     58  H   UNL A   1      39.391  31.916  33.802  1.00  0.00     0.167 HD
ATOM     59  C   UNL A   1      40.810  32.189  36.239  1.00  0.00     0.074 A 
ATOM     60  C   UNL A   1      41.776  31.959  37.295  1.00  0.00     0.031 C 
ATOM     61  C   UNL A   1      39.859  33.156  36.268  1.00  0.00     0.031 A 
BRANCH  48  62
ATOM     62  C   UNL A   1      36.308  33.332  31.204  1.00  0.00    -0.014 A 
ATOM     63  C   UNL A   1      36.534  33.802  29.898  1.00  0.00     0.010 A 
ATOM     64  C   UNL A   1      35.049  33.534  31.795  1.00  0.00     0.010 A 
ATOM     65  C   UNL A   1      35.544  34.524  29.225  1.00  0.00     0.020 A 
ATOM     66  C   UNL A   1      34.045  34.231  31.115  1.00  0.00     0.020 A 
ATOM     67  C   UNL A   1      34.311  34.747  29.844  1.00  0.00     0.054 A 
BRANCH  67  68
ATOM     68  S   UNL A   1      33.051  35.713  28.967  1.00  0.00     0.124 S 
ATOM     69  O   UNL A   1      32.382  34.683  28.176  1.00  0.00    -0.237 OA
ATOM     70  O   UNL A   1      32.259  36.280  30.056  1.00  0.00    -0.237 OA
ATOM     71  O   UNL A   1      33.831  36.681  28.199  1.00  0.00    -0.744 OA
ENDBRANCH  67  68
ENDBRANCH  48  62
BRANCH  49  72
ATOM     72  C   UNL A   1      43.952  28.726  35.646  1.00  0.00    -0.014 A 
ATOM     73  C   UNL A   1      45.247  29.209  35.393  1.00  0.00     0.010 A 
ATOM     74  C   UNL A   1      43.779  27.666  36.554  1.00  0.00     0.010 A 
ATOM     75  C   UNL A   1      46.350  28.651  36.046  1.00  0.00     0.020 A 
ATOM     76  C   UNL A   1      44.878  27.119  37.225  1.00  0.00     0.020 A 
ATOM     77  C   UNL A   1      46.157  27.615  36.967  1.00  0.00     0.054 A 
BRANCH  77  78
ATOM     78  S   UNL A   1      47.588  26.982  37.886  1.00  0.00     0.124 S 
ATOM     79  O   UNL A   1      47.780  28.012  38.900  1.00  0.00    -0.237 OA
ATOM     80  O   UNL A   1      47.105  25.693  38.377  1.00  0.00    -0.237 OA
ATOM     81  O   UNL A   1      48.636  26.896  36.870  1.00  0.00    -0.744 OA
ENDBRANCH  77  78
ENDBRANCH  49  72
BRANCH  61  82
ATOM     82  C   UNL A   1      39.796  34.030  37.492  1.00  0.00    -0.014 A 
ATOM     83  C   UNL A   1      40.435  35.282  37.525  1.00  0.00     0.010 A 
ATOM     84  C   UNL A   1      39.034  33.618  38.600  1.00  0.00     0.010 A 
ATOM     85  C   UNL A   1      40.332  36.097  38.655  1.00  0.00     0.020 A 
ATOM     86  C   UNL A   1      38.911  34.440  39.724  1.00  0.00     0.020 A 
ATOM     87  C   UNL A   1      39.571  35.671  39.749  1.00  0.00     0.054 A 
BRANCH  87  88
ATOM     88  S   UNL A   1      39.408  36.766  41.185  1.00  0.00     0.124 S 
ATOM     89  O   UNL A   1      38.794  37.953  40.595  1.00  0.00    -0.237 OA
ATOM     90  O   UNL A   1      38.551  35.997  42.084  1.00  0.00    -0.237 OA
ATOM     91  O   UNL A   1      40.785  36.940  41.645  1.00  0.00    -0.744 OA
ENDBRANCH  87  88
ENDBRANCH  61  82
ENDBRANCH  35  36
ENDBRANCH  27  30
ENDBRANCH  25  26
ENDBRANCH   1  25
TORSDOF 17
ENDMDL
MODEL 3
REMARK VINA RESULT:     -11.5      4.514     10.299
REMARK SMILES C[C@H]1CCC[C@H](C)N1C(=O)C[N@@H+](CC(=O)NCCCNC(=O)c1ccc(-c2c3nc(c(-c4ccc(S(=O)(=O)[O-])cc4)c4ccc([nH]4)c(-c4ccc(S(=O)(=O)[O-])cc4)c4nc(c(-c5ccc(S(=O)(=O)[O-])cc5)c5ccc2[nH]5)C=C4)C=C3)cc1)C(C)(C)C
REMARK SMILES IDX 18 1 17 2 16 3 14 4 15 5 13 7 12 8 11 10 9 11 1 12 2 13 3 14
REMARK SMILES IDX 8 15 4 16 6 17 5 18 7 19 10 20 83 21 84 22 85 23 86 24 19 25
REMARK SMILES IDX 20 26 21 27 22 29 23 30 24 31 82 32 25 33 81 34 26 35 27 36
REMARK SMILES IDX 28 37 75 38 29 39 80 40 74 41 76 42 30 43 79 44 73 45 72 46
REMARK SMILES IDX 31 48 61 49 42 50 60 51 43 52 46 53 59 54 77 55 44 56 45 57
REMARK SMILES IDX 58 59 78 60 47 61 32 62 33 63 41 64 34 65 40 66 35 67 36 68
REMARK SMILES IDX 37 69 38 70 39 71 62 72 63 73 71 74 64 75 70 76 65 77 66 78
REMARK SMILES IDX 67 79 68 80 69 81 48 82 49 83 57 84 50 85 56 86 51 87 52 88
REMARK SMILES IDX 53 89 54 90 55 91
REMARK H PARENT 16 6 12 9 20 28 76 47 46 58
REMARK Flexibility Score: inf
ROOT
ATOM      1  C   UNL A   1      33.697  28.556  25.294  1.00  0.00     0.042 C 
ENDROOT
BRANCH   1   2
ATOM      2  C   UNL A   1      32.286  28.675  24.710  1.00  0.00     0.118 C 
BRANCH   2   3
ATOM      3  N   UNL A   1      31.269  27.911  25.417  1.00  0.00    -0.351 N 
ATOM      4  C   UNL A   1      31.047  26.569  25.531  1.00  0.00     0.275 C 
ATOM      5  O   UNL A   1      30.353  26.209  26.489  1.00  0.00    -0.269 OA
ATOM      6  H   UNL A   1      30.618  28.466  25.906  1.00  0.00     0.163 HD
BRANCH   4   7
ATOM      7  C   UNL A   1      31.654  25.533  24.577  1.00  0.00     0.364 C 
BRANCH   7   8
ATOM      8  N   UNL A   1      31.927  24.165  25.128  1.00  0.00    -0.315 N 
ATOM      9  H   UNL A   1      31.109  23.861  25.657  1.00  0.00     0.349 HD
BRANCH   8  10
ATOM     10  C   UNL A   1      33.058  24.258  26.067  1.00  0.00     0.364 C 
BRANCH  10  11
ATOM     11  C   UNL A   1      34.479  24.313  25.530  1.00  0.00     0.278 C 
ATOM     12  C   UNL A   1      34.192  21.684  27.380  1.00  0.00     0.031 C 
ATOM     13  C   UNL A   1      35.338  22.014  26.436  1.00  0.00     0.082 C 
ATOM     14  C   UNL A   1      35.477  20.948  25.338  1.00  0.00     0.025 C 
ATOM     15  N   UNL A   1      35.453  23.362  25.825  1.00  0.00    -0.332 N 
ATOM     16  C   UNL A   1      36.792  21.118  24.571  1.00  0.00     0.004 C 
ATOM     17  C   UNL A   1      36.774  23.599  25.189  1.00  0.00     0.082 C 
ATOM     18  C   UNL A   1      36.995  22.554  24.084  1.00  0.00     0.025 C 
ATOM     19  C   UNL A   1      37.921  23.661  26.202  1.00  0.00     0.031 C 
ATOM     20  O   UNL A   1      34.773  25.346  24.909  1.00  0.00    -0.268 OA
ENDBRANCH  10  11
ENDBRANCH   8  10
BRANCH   8  21
ATOM     21  C   UNL A   1      31.942  23.034  24.146  1.00  0.00     0.090 C 
ATOM     22  C   UNL A   1      33.184  22.951  23.229  1.00  0.00     0.078 C 
ATOM     23  C   UNL A   1      31.839  21.656  24.847  1.00  0.00     0.078 C 
ATOM     24  C   UNL A   1      30.682  23.125  23.248  1.00  0.00     0.078 C 
ENDBRANCH   8  21
ENDBRANCH   7   8
ENDBRANCH   4   7
ENDBRANCH   2   3
ENDBRANCH   1   2
BRANCH   1  25
ATOM     25  C   UNL A   1      33.771  28.613  26.817  1.00  0.00     0.118 C 
BRANCH  25  26
ATOM     26  N   UNL A   1      33.644  29.975  27.306  1.00  0.00    -0.352 N 
ATOM     27  C   UNL A   1      34.479  30.696  28.128  1.00  0.00     0.251 C 
ATOM     28  H   UNL A   1      32.840  30.455  27.001  1.00  0.00     0.163 HD
ATOM     29  O   UNL A   1      34.055  31.726  28.648  1.00  0.00    -0.269 OA
BRANCH  27  30
ATOM     30  C   UNL A   1      35.869  30.251  28.402  1.00  0.00     0.039 A 
ATOM     31  C   UNL A   1      36.184  29.766  29.678  1.00  0.00     0.014 A 
ATOM     32  C   UNL A   1      36.881  30.378  27.448  1.00  0.00     0.014 A 
ATOM     33  C   UNL A   1      37.494  29.378  29.980  1.00  0.00     0.010 A 
ATOM     34  C   UNL A   1      38.171  29.922  27.726  1.00  0.00     0.010 A 
ATOM     35  C   UNL A   1      38.498  29.435  29.000  1.00  0.00    -0.014 A 
BRANCH  35  36
ATOM     36  C   UNL A   1      39.901  29.029  29.294  1.00  0.00     0.031 A 
ATOM     37  C   UNL A   1      40.865  30.017  29.900  1.00  0.00     0.074 A 
ATOM     38  C   UNL A   1      40.339  27.803  28.948  1.00  0.00     0.049 A 
ATOM     39  N   UNL A   1      42.146  29.889  30.133  1.00  0.00    -0.248 NA
ATOM     40  C   UNL A   1      40.318  31.336  30.261  1.00  0.00     0.031 C 
ATOM     41  C   UNL A   1      39.529  26.763  28.312  1.00  0.00     0.029 A 
ATOM     42  N   UNL A   1      41.583  27.232  29.066  1.00  0.00    -0.354 N 
ATOM     43  C   UNL A   1      42.568  31.119  30.625  1.00  0.00     0.074 A 
ATOM     44  C   UNL A   1      41.411  31.989  30.626  1.00  0.00     0.031 C 
ATOM     45  C   UNL A   1      40.294  25.678  28.104  1.00  0.00     0.029 A 
ATOM     46  C   UNL A   1      41.653  25.956  28.558  1.00  0.00     0.049 A 
ATOM     47  H   UNL A   1      42.350  27.691  29.475  1.00  0.00     0.167 HD
ATOM     48  C   UNL A   1      43.800  31.494  31.046  1.00  0.00     0.031 A 
ATOM     49  C   UNL A   1      42.694  25.107  28.454  1.00  0.00     0.031 A 
ATOM     50  C   UNL A   1      44.946  30.623  31.074  1.00  0.00     0.049 A 
ATOM     51  C   UNL A   1      44.044  25.520  28.968  1.00  0.00     0.074 A 
ATOM     52  C   UNL A   1      46.216  30.885  31.556  1.00  0.00     0.029 A 
ATOM     53  N   UNL A   1      44.960  29.320  30.599  1.00  0.00    -0.354 N 
ATOM     54  N   UNL A   1      44.407  26.667  29.492  1.00  0.00    -0.248 NA
ATOM     55  C   UNL A   1      45.120  24.523  28.890  1.00  0.00     0.031 C 
ATOM     56  C   UNL A   1      47.009  29.751  31.339  1.00  0.00     0.029 A 
ATOM     57  C   UNL A   1      46.220  28.770  30.761  1.00  0.00     0.049 A 
ATOM     58  H   UNL A   1      44.187  28.855  30.204  1.00  0.00     0.167 HD
ATOM     59  C   UNL A   1      45.751  26.524  29.821  1.00  0.00     0.074 A 
ATOM     60  C   UNL A   1      46.132  25.176  29.448  1.00  0.00     0.031 C 
ATOM     61  C   UNL A   1      46.590  27.429  30.383  1.00  0.00     0.031 A 
BRANCH  48  62
ATOM     62  C   UNL A   1      43.968  32.923  31.492  1.00  0.00    -0.014 A 
ATOM     63  C   UNL A   1      43.795  33.293  32.838  1.00  0.00     0.010 A 
ATOM     64  C   UNL A   1      44.293  33.912  30.547  1.00  0.00     0.010 A 
ATOM     65  C   UNL A   1      43.872  34.636  33.218  1.00  0.00     0.020 A 
ATOM     66  C   UNL A   1      44.399  35.254  30.928  1.00  0.00     0.020 A 
ATOM     67  C   UNL A   1      44.158  35.610  32.257  1.00  0.00     0.054 A 
BRANCH  67  68
ATOM     68  S   UNL A   1      44.222  37.350  32.765  1.00  0.00     0.124 S 
ATOM     69  O   UNL A   1      43.091  37.435  33.685  1.00  0.00    -0.237 OA
ATOM     70  O   UNL A   1      45.542  37.459  33.383  1.00  0.00    -0.237 OA
ATOM     71  O   UNL A   1      44.064  38.082  31.511  1.00  0.00    -0.744 OA
ENDBRANCH  67  68
ENDBRANCH  48  62
BRANCH  49  72
ATOM     72  C   UNL A   1      42.477  23.765  27.850  1.00  0.00    -0.014 A 
ATOM     73  C   UNL A   1      42.670  23.565  26.472  1.00  0.00     0.010 A 
ATOM     74  C   UNL A   1      42.149  22.665  28.663  1.00  0.00     0.010 A 
ATOM     75  C   UNL A   1      42.551  22.288  25.919  1.00  0.00     0.020 A 
ATOM     76  C   UNL A   1      42.048  21.382  28.116  1.00  0.00     0.020 A 
ATOM     77  C   UNL A   1      42.250  21.201  26.747  1.00  0.00     0.054 A 
BRANCH  77  78
ATOM     78  S   UNL A   1      42.209  19.535  26.027  1.00  0.00     0.124 S 
ATOM     79  O   UNL A   1      42.650  18.708  27.145  1.00  0.00    -0.237 OA
ATOM     80  O   UNL A   1      40.806  19.388  25.646  1.00  0.00    -0.237 OA
ATOM     81  O   UNL A   1      43.143  19.625  24.906  1.00  0.00    -0.744 OA
ENDBRANCH  77  78
ENDBRANCH  49  72
BRANCH  61  82
ATOM     82  C   UNL A   1      48.004  26.989  30.655  1.00  0.00    -0.014 A 
ATOM     83  C   UNL A   1      49.037  27.258  29.740  1.00  0.00     0.010 A 
ATOM     84  C   UNL A   1      48.310  26.355  31.872  1.00  0.00     0.010 A 
ATOM     85  C   UNL A   1      50.350  26.877  30.028  1.00  0.00     0.020 A 
ATOM     86  C   UNL A   1      49.627  25.992  32.173  1.00  0.00     0.020 A 
ATOM     87  C   UNL A   1      50.637  26.246  31.242  1.00  0.00     0.054 A 
BRANCH  87  88
ATOM     88  S   UNL A   1      52.357  25.807  31.618  1.00  0.00     0.124 S 
ATOM     89  O   UNL A   1      52.222  24.434  32.097  1.00  0.00    -0.237 OA
ATOM     90  O   UNL A   1      53.020  25.959  30.325  1.00  0.00    -0.237 OA
ATOM     91  O   UNL A   1      52.750  26.785  32.630  1.00  0.00    -0.744 OA
ENDBRANCH  87  88
ENDBRANCH  61  82
ENDBRANCH  35  36
ENDBRANCH  27  30
ENDBRANCH  25  26
ENDBRANCH   1  25
TORSDOF 17
ENDMDL
