MODEL 1
REMARK VINA RESULT:     -10.4      0.000      0.000
REMARK SMILES C[C@H](NC(=O)[C@@H](C)Oc1ccc(Cl)cc1Br)C(=O)NCCCNC(=O)c1ccc(-c2c3nc(c(-c4ccc(S(=O)(=O)[O-])cc4)c4ccc([nH]4)c(-c4ccc(S(=O)(=O)[O-])cc4)c4nc(c(-c5ccc(S(=O)(=O)[O-])cc5)c5ccc2[nH]5)C=C4)C=C3)cc1
REMARK SMILES IDX 20 1 19 2 17 3 18 4 2 6 1 7 3 8 4 9 5 11 6 12 7 13 8 14 9 15
REMARK SMILES IDX 10 16 15 17 11 18 14 19 16 20 12 21 13 22 21 23 22 24 23 25
REMARK SMILES IDX 24 26 25 28 26 29 27 30 85 31 28 32 84 33 29 34 30 35 31 36
REMARK SMILES IDX 78 37 32 38 83 39 77 40 79 41 33 42 82 43 76 44 75 45 34 47
REMARK SMILES IDX 64 48 45 49 63 50 46 51 49 52 62 53 80 54 47 55 48 56 61 58
REMARK SMILES IDX 81 59 50 60 35 61 36 62 44 63 37 64 43 65 38 66 39 67 40 68
REMARK SMILES IDX 41 69 42 70 65 71 66 72 74 73 67 74 73 75 68 76 69 77 70 78
REMARK SMILES IDX 71 79 72 80 51 81 52 82 60 83 53 84 59 85 54 86 55 87 56 88
REMARK SMILES IDX 57 89 58 90
REMARK H PARENT 19 5 3 10 23 27 79 46 49 57
REMARK Flexibility Score: inf
ROOT
ATOM      1  C   UNL A   1      34.804  22.747  24.310  1.00  0.00     0.117 C 
ENDROOT
BRANCH   1   2
ATOM      2  N   UNL A   1      34.352  21.406  24.652  1.00  0.00    -0.354 N 
ATOM      3  C   UNL A   1      33.086  20.967  24.918  1.00  0.00     0.242 C 
ATOM      4  O   UNL A   1      32.911  19.774  25.166  1.00  0.00    -0.273 OA
ATOM      5  H   UNL A   1      35.057  20.721  24.697  1.00  0.00     0.163 HD
BRANCH   3   6
ATOM      6  C   UNL A   1      31.907  21.942  24.754  1.00  0.00     0.168 C 
ATOM      7  C   UNL A   1      31.936  22.407  23.307  1.00  0.00     0.041 C 
BRANCH   6   8
ATOM      8  N   UNL A   1      31.980  22.928  25.845  1.00  0.00    -0.341 N 
ATOM      9  C   UNL A   1      31.562  24.190  26.083  1.00  0.00     0.261 C 
ATOM     10  H   UNL A   1      32.470  22.566  26.617  1.00  0.00     0.164 HD
ATOM     11  O   UNL A   1      31.519  24.501  27.283  1.00  0.00    -0.271 OA
BRANCH   9  12
ATOM     12  C   UNL A   1      31.245  25.275  25.016  1.00  0.00     0.258 C 
ATOM     13  C   UNL A   1      30.034  26.094  25.485  1.00  0.00     0.064 C 
BRANCH  12  14
ATOM     14  O   UNL A   1      32.130  26.136  24.316  1.00  0.00    -0.480 OA
BRANCH  14  15
ATOM     15  C   UNL A   1      32.700  27.190  24.955  1.00  0.00     0.134 A 
ATOM     16  C   UNL A   1      33.585  27.044  26.022  1.00  0.00     0.049 A 
ATOM     17  C   UNL A   1      32.377  28.478  24.498  1.00  0.00     0.061 A 
ATOM     18  C   UNL A   1      34.011  28.173  26.728  1.00  0.00     0.024 A 
ATOM     19  C   UNL A   1      32.794  29.605  25.203  1.00  0.00     0.040 A 
ATOM     20  Br  UNL A   1      31.278  28.739  22.967  1.00  0.00    -0.047 Br
ATOM     21  C   UNL A   1      33.585  29.442  26.337  1.00  0.00     0.042 A 
ATOM     22  Cl  UNL A   1      34.019  30.817  27.273  1.00  0.00    -0.084 Cl
ENDBRANCH  14  15
ENDBRANCH  12  14
ENDBRANCH   9  12
ENDBRANCH   6   8
ENDBRANCH   3   6
ENDBRANCH   1   2
BRANCH   1  23
ATOM     23  C   UNL A   1      35.593  23.370  25.447  1.00  0.00     0.042 C 
BRANCH  23  24
ATOM     24  C   UNL A   1      37.006  23.740  25.030  1.00  0.00     0.118 C 
BRANCH  24  25
ATOM     25  N   UNL A   1      37.974  22.716  25.412  1.00  0.00    -0.352 N 
ATOM     26  C   UNL A   1      39.166  22.863  26.078  1.00  0.00     0.251 C 
ATOM     27  H   UNL A   1      37.740  21.795  25.156  1.00  0.00     0.163 HD
ATOM     28  O   UNL A   1      39.978  21.957  26.108  1.00  0.00    -0.269 OA
BRANCH  26  29
ATOM     29  C   UNL A   1      39.429  24.150  26.748  1.00  0.00     0.039 A 
ATOM     30  C   UNL A   1      38.956  24.359  28.043  1.00  0.00     0.014 A 
ATOM     31  C   UNL A   1      40.196  25.119  26.096  1.00  0.00     0.014 A 
ATOM     32  C   UNL A   1      39.312  25.528  28.713  1.00  0.00     0.010 A 
ATOM     33  C   UNL A   1      40.625  26.233  26.795  1.00  0.00     0.010 A 
ATOM     34  C   UNL A   1      40.178  26.454  28.107  1.00  0.00    -0.014 A 
BRANCH  34  35
ATOM     35  C   UNL A   1      40.628  27.675  28.812  1.00  0.00     0.031 A 
ATOM     36  C   UNL A   1      41.982  27.697  29.464  1.00  0.00     0.074 A 
ATOM     37  C   UNL A   1      39.785  28.718  28.939  1.00  0.00     0.049 A 
ATOM     38  N   UNL A   1      42.521  28.622  30.213  1.00  0.00    -0.248 NA
ATOM     39  C   UNL A   1      42.829  26.506  29.276  1.00  0.00     0.031 C 
ATOM     40  C   UNL A   1      38.428  28.787  28.390  1.00  0.00     0.029 A 
ATOM     41  N   UNL A   1      39.942  29.918  29.583  1.00  0.00    -0.354 N 
ATOM     42  C   UNL A   1      43.754  28.116  30.605  1.00  0.00     0.074 A 
ATOM     43  C   UNL A   1      43.862  26.782  30.059  1.00  0.00     0.031 C 
ATOM     44  C   UNL A   1      37.888  29.978  28.697  1.00  0.00     0.029 A 
ATOM     45  C   UNL A   1      38.840  30.737  29.502  1.00  0.00     0.049 A 
ATOM     46  H   UNL A   1      40.766  30.170  30.059  1.00  0.00     0.167 HD
ATOM     47  C   UNL A   1      44.720  28.719  31.336  1.00  0.00     0.031 A 
ATOM     48  C   UNL A   1      38.620  31.957  30.026  1.00  0.00     0.031 A 
ATOM     49  C   UNL A   1      44.610  30.053  31.857  1.00  0.00     0.049 A 
ATOM     50  C   UNL A   1      39.708  32.605  30.838  1.00  0.00     0.074 A 
ATOM     51  C   UNL A   1      45.553  30.784  32.556  1.00  0.00     0.029 A 
ATOM     52  N   UNL A   1      43.487  30.857  31.736  1.00  0.00    -0.354 N 
ATOM     53  N   UNL A   1      40.896  32.140  31.140  1.00  0.00    -0.248 NA
ATOM     54  C   UNL A   1      39.428  33.945  31.370  1.00  0.00     0.031 C 
ATOM     55  C   UNL A   1      44.982  32.013  32.902  1.00  0.00     0.029 A 
ATOM     56  C   UNL A   1      43.703  32.069  32.368  1.00  0.00     0.049 A 
ATOM     57  H   UNL A   1      42.658  30.605  31.268  1.00  0.00     0.167 HD
ATOM     58  C   UNL A   1      41.517  33.141  31.879  1.00  0.00     0.074 A 
ATOM     59  C   UNL A   1      40.577  34.241  31.963  1.00  0.00     0.031 C 
ATOM     60  C   UNL A   1      42.752  33.150  32.436  1.00  0.00     0.031 A 
BRANCH  47  61
ATOM     61  C   UNL A   1      45.975  27.935  31.612  1.00  0.00    -0.014 A 
ATOM     62  C   UNL A   1      47.075  27.991  30.735  1.00  0.00     0.010 A 
ATOM     63  C   UNL A   1      46.069  27.153  32.778  1.00  0.00     0.010 A 
ATOM     64  C   UNL A   1      48.228  27.247  30.997  1.00  0.00     0.020 A 
ATOM     65  C   UNL A   1      47.234  26.431  33.059  1.00  0.00     0.020 A 
ATOM     66  C   UNL A   1      48.298  26.469  32.156  1.00  0.00     0.054 A 
BRANCH  66  67
ATOM     67  S   UNL A   1      49.817  25.532  32.481  1.00  0.00     0.124 S 
ATOM     68  O   UNL A   1      50.129  24.998  31.158  1.00  0.00    -0.237 OA
ATOM     69  O   UNL A   1      50.729  26.561  32.974  1.00  0.00    -0.237 OA
ATOM     70  O   UNL A   1      49.407  24.539  33.472  1.00  0.00    -0.744 OA
ENDBRANCH  66  67
ENDBRANCH  47  61
BRANCH  48  71
ATOM     71  C   UNL A   1      37.324  32.648  29.784  1.00  0.00    -0.014 A 
ATOM     72  C   UNL A   1      36.300  32.600  30.746  1.00  0.00     0.010 A 
ATOM     73  C   UNL A   1      37.112  33.376  28.598  1.00  0.00     0.010 A 
ATOM     74  C   UNL A   1      35.083  33.249  30.520  1.00  0.00     0.020 A 
ATOM     75  C   UNL A   1      35.908  34.050  28.382  1.00  0.00     0.020 A 
ATOM     76  C   UNL A   1      34.896  33.972  29.339  1.00  0.00     0.054 A 
BRANCH  76  77
ATOM     77  S   UNL A   1      33.325  34.848  29.091  1.00  0.00     0.124 S 
ATOM     78  O   UNL A   1      32.757  34.838  30.435  1.00  0.00    -0.237 OA
ATOM     79  O   UNL A   1      33.765  36.150  28.599  1.00  0.00    -0.237 OA
ATOM     80  O   UNL A   1      32.626  34.022  28.108  1.00  0.00    -0.744 OA
ENDBRANCH  76  77
ENDBRANCH  48  71
BRANCH  60  81
ATOM     81  C   UNL A   1      43.176  34.398  33.161  1.00  0.00    -0.014 A 
ATOM     82  C   UNL A   1      43.054  34.504  34.558  1.00  0.00     0.010 A 
ATOM     83  C   UNL A   1      43.772  35.449  32.441  1.00  0.00     0.010 A 
ATOM     84  C   UNL A   1      43.503  35.651  35.219  1.00  0.00     0.020 A 
ATOM     85  C   UNL A   1      44.247  36.585  33.100  1.00  0.00     0.020 A 
ATOM     86  C   UNL A   1      44.099  36.682  34.485  1.00  0.00     0.054 A 
BRANCH  86  87
ATOM     87  S   UNL A   1      44.727  38.133  35.374  1.00  0.00     0.124 S 
ATOM     88  O   UNL A   1      44.576  39.189  34.377  1.00  0.00    -0.237 OA
ATOM     89  O   UNL A   1      43.828  38.219  36.522  1.00  0.00    -0.237 OA
ATOM     90  O   UNL A   1      46.106  37.772  35.696  1.00  0.00    -0.744 OA
ENDBRANCH  86  87
ENDBRANCH  60  81
ENDBRANCH  34  35
ENDBRANCH  26  29
ENDBRANCH  24  25
ENDBRANCH  23  24
ENDBRANCH   1  23
TORSDOF 17
ENDMDL
MODEL 2
REMARK VINA RESULT:     -10.1      3.200      8.947
REMARK SMILES C[C@H](NC(=O)[C@@H](C)Oc1ccc(Cl)cc1Br)C(=O)NCCCNC(=O)c1ccc(-c2c3nc(c(-c4ccc(S(=O)(=O)[O-])cc4)c4ccc([nH]4)c(-c4ccc(S(=O)(=O)[O-])cc4)c4nc(c(-c5ccc(S(=O)(=O)[O-])cc5)c5ccc2[nH]5)C=C4)C=C3)cc1
REMARK SMILES IDX 20 1 19 2 17 3 18 4 2 6 1 7 3 8 4 9 5 11 6 12 7 13 8 14 9 15
REMARK SMILES IDX 10 16 15 17 11 18 14 19 16 20 12 21 13 22 21 23 22 24 23 25
REMARK SMILES IDX 24 26 25 28 26 29 27 30 85 31 28 32 84 33 29 34 30 35 31 36
REMARK SMILES IDX 78 37 32 38 83 39 77 40 79 41 33 42 82 43 76 44 75 45 34 47
REMARK SMILES IDX 64 48 45 49 63 50 46 51 49 52 62 53 80 54 47 55 48 56 61 58
REMARK SMILES IDX 81 59 50 60 35 61 36 62 44 63 37 64 43 65 38 66 39 67 40 68
REMARK SMILES IDX 41 69 42 70 65 71 66 72 74 73 67 74 73 75 68 76 69 77 70 78
REMARK SMILES IDX 71 79 72 80 51 81 52 82 60 83 53 84 59 85 54 86 55 87 56 88
REMARK SMILES IDX 57 89 58 90
REMARK H PARENT 19 5 3 10 23 27 79 46 49 57
REMARK Flexibility Score: inf
ROOT
ATOM      1  C   UNL A   1      36.084  23.161  26.164  1.00  0.00     0.117 C 
ENDROOT
BRANCH   1   2
ATOM      2  N   UNL A   1      35.732  21.844  25.652  1.00  0.00    -0.354 N 
ATOM      3  C   UNL A   1      34.540  21.408  25.146  1.00  0.00     0.242 C 
ATOM      4  O   UNL A   1      34.455  20.250  24.740  1.00  0.00    -0.273 OA
ATOM      5  H   UNL A   1      36.454  21.175  25.673  1.00  0.00     0.163 HD
BRANCH   3   6
ATOM      6  C   UNL A   1      33.392  22.417  24.965  1.00  0.00     0.168 C 
ATOM      7  C   UNL A   1      32.184  21.817  25.666  1.00  0.00     0.041 C 
BRANCH   6   8
ATOM      8  N   UNL A   1      33.316  22.766  23.538  1.00  0.00    -0.341 N 
ATOM      9  C   UNL A   1      33.455  23.868  22.768  1.00  0.00     0.261 C 
ATOM     10  H   UNL A   1      33.104  21.976  22.991  1.00  0.00     0.164 HD
ATOM     11  O   UNL A   1      33.676  23.635  21.570  1.00  0.00    -0.271 OA
BRANCH   9  12
ATOM     12  C   UNL A   1      33.263  25.342  23.222  1.00  0.00     0.258 C 
ATOM     13  C   UNL A   1      33.335  26.254  21.988  1.00  0.00     0.064 C 
BRANCH  12  14
ATOM     14  O   UNL A   1      32.325  25.889  24.135  1.00  0.00    -0.480 OA
BRANCH  14  15
ATOM     15  C   UNL A   1      32.612  27.038  24.799  1.00  0.00     0.134 A 
ATOM     16  C   UNL A   1      33.754  27.198  25.583  1.00  0.00     0.049 A 
ATOM     17  C   UNL A   1      31.710  28.106  24.670  1.00  0.00     0.061 A 
ATOM     18  C   UNL A   1      33.907  28.350  26.359  1.00  0.00     0.024 A 
ATOM     19  C   UNL A   1      31.854  29.253  25.448  1.00  0.00     0.040 A 
ATOM     20  Br  UNL A   1      30.202  27.994  23.515  1.00  0.00    -0.047 Br
ATOM     21  C   UNL A   1      32.939  29.354  26.313  1.00  0.00     0.042 A 
ATOM     22  Cl  UNL A   1      33.072  30.718  27.352  1.00  0.00    -0.084 Cl
ENDBRANCH  14  15
ENDBRANCH  12  14
ENDBRANCH   9  12
ENDBRANCH   6   8
ENDBRANCH   3   6
ENDBRANCH   1   2
BRANCH   1  23
ATOM     23  C   UNL A   1      37.355  23.682  25.519  1.00  0.00     0.042 C 
BRANCH  23  24
ATOM     24  C   UNL A   1      38.264  24.376  26.520  1.00  0.00     0.118 C 
BRANCH  24  25
ATOM     25  N   UNL A   1      39.658  24.370  26.087  1.00  0.00    -0.352 N 
ATOM     26  C   UNL A   1      40.661  25.253  26.402  1.00  0.00     0.251 C 
ATOM     27  H   UNL A   1      39.913  23.632  25.487  1.00  0.00     0.163 HD
ATOM     28  O   UNL A   1      41.704  25.260  25.773  1.00  0.00    -0.269 OA
BRANCH  26  29
ATOM     29  C   UNL A   1      40.432  26.191  27.515  1.00  0.00     0.039 A 
ATOM     30  C   UNL A   1      39.587  25.821  28.561  1.00  0.00     0.014 A 
ATOM     31  C   UNL A   1      41.108  27.414  27.534  1.00  0.00     0.014 A 
ATOM     32  C   UNL A   1      39.471  26.661  29.667  1.00  0.00     0.010 A 
ATOM     33  C   UNL A   1      41.065  28.200  28.672  1.00  0.00     0.010 A 
ATOM     34  C   UNL A   1      40.237  27.836  29.745  1.00  0.00    -0.014 A 
BRANCH  34  35
ATOM     35  C   UNL A   1      40.187  28.720  30.931  1.00  0.00     0.031 A 
ATOM     36  C   UNL A   1      39.200  29.854  30.968  1.00  0.00     0.074 A 
ATOM     37  C   UNL A   1      41.084  28.555  31.922  1.00  0.00     0.049 A 
ATOM     38  N   UNL A   1      39.064  30.799  31.860  1.00  0.00    -0.248 NA
ATOM     39  C   UNL A   1      38.264  29.958  29.834  1.00  0.00     0.031 C 
ATOM     40  C   UNL A   1      42.120  27.519  31.967  1.00  0.00     0.029 A 
ATOM     41  N   UNL A   1      41.277  29.267  33.078  1.00  0.00    -0.354 N 
ATOM     42  C   UNL A   1      38.049  31.620  31.385  1.00  0.00     0.074 A 
ATOM     43  C   UNL A   1      37.642  31.097  30.101  1.00  0.00     0.031 C 
ATOM     44  C   UNL A   1      42.820  27.646  33.107  1.00  0.00     0.029 A 
ATOM     45  C   UNL A   1      42.315  28.798  33.849  1.00  0.00     0.049 A 
ATOM     46  H   UNL A   1      40.725  30.041  33.333  1.00  0.00     0.167 HD
ATOM     47  C   UNL A   1      37.491  32.701  31.977  1.00  0.00     0.031 A 
ATOM     48  C   UNL A   1      42.809  29.251  35.016  1.00  0.00     0.031 A 
ATOM     49  C   UNL A   1      37.891  33.202  33.263  1.00  0.00     0.049 A 
ATOM     50  C   UNL A   1      42.174  30.457  35.653  1.00  0.00     0.074 A 
ATOM     51  C   UNL A   1      37.351  34.251  33.984  1.00  0.00     0.029 A 
ATOM     52  N   UNL A   1      38.932  32.686  34.021  1.00  0.00    -0.354 N 
ATOM     53  N   UNL A   1      41.168  31.180  35.222  1.00  0.00    -0.248 NA
ATOM     54  C   UNL A   1      42.734  30.900  36.936  1.00  0.00     0.031 C 
ATOM     55  C   UNL A   1      38.098  34.402  35.156  1.00  0.00     0.029 A 
ATOM     56  C   UNL A   1      39.067  33.411  35.192  1.00  0.00     0.049 A 
ATOM     57  H   UNL A   1      39.492  31.918  33.765  1.00  0.00     0.167 HD
ATOM     58  C   UNL A   1      40.958  32.152  36.195  1.00  0.00     0.074 A 
ATOM     59  C   UNL A   1      41.932  31.912  37.241  1.00  0.00     0.031 C 
ATOM     60  C   UNL A   1      40.043  33.151  36.220  1.00  0.00     0.031 A 
BRANCH  47  61
ATOM     61  C   UNL A   1      36.391  33.411  31.234  1.00  0.00    -0.014 A 
ATOM     62  C   UNL A   1      35.146  33.660  31.841  1.00  0.00     0.010 A 
ATOM     63  C   UNL A   1      36.613  33.862  29.919  1.00  0.00     0.010 A 
ATOM     64  C   UNL A   1      34.130  34.308  31.134  1.00  0.00     0.020 A 
ATOM     65  C   UNL A   1      35.609  34.538  29.219  1.00  0.00     0.020 A 
ATOM     66  C   UNL A   1      34.367  34.740  29.826  1.00  0.00     0.054 A 
BRANCH  66  67
ATOM     67  S   UNL A   1      33.037  35.598  28.941  1.00  0.00     0.124 S 
ATOM     68  O   UNL A   1      32.232  36.120  30.042  1.00  0.00    -0.237 OA
ATOM     69  O   UNL A   1      33.763  36.600  28.165  1.00  0.00    -0.237 OA
ATOM     70  O   UNL A   1      32.405  34.542  28.154  1.00  0.00    -0.744 OA
ENDBRANCH  66  67
ENDBRANCH  47  61
BRANCH  48  71
ATOM     71  C   UNL A   1      43.953  28.552  35.662  1.00  0.00    -0.014 A 
ATOM     72  C   UNL A   1      45.275  28.931  35.373  1.00  0.00     0.010 A 
ATOM     73  C   UNL A   1      43.727  27.514  36.586  1.00  0.00     0.010 A 
ATOM     74  C   UNL A   1      46.350  28.276  35.980  1.00  0.00     0.020 A 
ATOM     75  C   UNL A   1      44.798  26.876  37.216  1.00  0.00     0.020 A 
ATOM     76  C   UNL A   1      46.104  27.253  36.899  1.00  0.00     0.054 A 
BRANCH  76  77
ATOM     77  S   UNL A   1      47.516  26.450  37.711  1.00  0.00     0.124 S 
ATOM     78  O   UNL A   1      47.422  25.086  37.203  1.00  0.00    -0.237 OA
ATOM     79  O   UNL A   1      48.647  27.233  37.222  1.00  0.00    -0.237 OA
ATOM     80  O   UNL A   1      47.226  26.611  39.135  1.00  0.00    -0.744 OA
ENDBRANCH  76  77
ENDBRANCH  48  71
BRANCH  60  81
ATOM     81  C   UNL A   1      40.027  34.044  37.431  1.00  0.00    -0.014 A 
ATOM     82  C   UNL A   1      39.222  33.746  38.543  1.00  0.00     0.010 A 
ATOM     83  C   UNL A   1      40.887  35.157  37.482  1.00  0.00     0.010 A 
ATOM     84  C   UNL A   1      39.261  34.558  39.680  1.00  0.00     0.020 A 
ATOM     85  C   UNL A   1      40.949  35.955  38.626  1.00  0.00     0.020 A 
ATOM     86  C   UNL A   1      40.127  35.656  39.714  1.00  0.00     0.054 A 
BRANCH  86  87
ATOM     87  S   UNL A   1      40.203  36.658  41.223  1.00  0.00     0.124 S 
ATOM     88  O   UNL A   1      41.426  36.166  41.853  1.00  0.00    -0.237 OA
ATOM     89  O   UNL A   1      40.271  38.021  40.700  1.00  0.00    -0.237 OA
ATOM     90  O   UNL A   1      38.965  36.327  41.922  1.00  0.00    -0.744 OA
ENDBRANCH  86  87
ENDBRANCH  60  81
ENDBRANCH  34  35
ENDBRANCH  26  29
ENDBRANCH  24  25
ENDBRANCH  23  24
ENDBRANCH   1  23
TORSDOF 17
ENDMDL
MODEL 3
REMARK VINA RESULT:     -10.0      4.080      5.157
REMARK SMILES C[C@H](NC(=O)[C@@H](C)Oc1ccc(Cl)cc1Br)C(=O)NCCCNC(=O)c1ccc(-c2c3nc(c(-c4ccc(S(=O)(=O)[O-])cc4)c4ccc([nH]4)c(-c4ccc(S(=O)(=O)[O-])cc4)c4nc(c(-c5ccc(S(=O)(=O)[O-])cc5)c5ccc2[nH]5)C=C4)C=C3)cc1
REMARK SMILES IDX 20 1 19 2 17 3 18 4 2 6 1 7 3 8 4 9 5 11 6 12 7 13 8 14 9 15
REMARK SMILES IDX 10 16 15 17 11 18 14 19 16 20 12 21 13 22 21 23 22 24 23 25
REMARK SMILES IDX 24 26 25 28 26 29 27 30 85 31 28 32 84 33 29 34 30 35 31 36
REMARK SMILES IDX 78 37 32 38 83 39 77 40 79 41 33 42 82 43 76 44 75 45 34 47
REMARK SMILES IDX 64 48 45 49 63 50 46 51 49 52 62 53 80 54 47 55 48 56 61 58
REMARK SMILES IDX 81 59 50 60 35 61 36 62 44 63 37 64 43 65 38 66 39 67 40 68
REMARK SMILES IDX 41 69 42 70 65 71 66 72 74 73 67 74 73 75 68 76 69 77 70 78
REMARK SMILES IDX 71 79 72 80 51 81 52 82 60 83 53 84 59 85 54 86 55 87 56 88
REMARK SMILES IDX 57 89 58 90
REMARK H PARENT 19 5 3 10 23 27 79 46 49 57
REMARK Flexibility Score: inf
ROOT
ATOM      1  C   UNL A   1      37.350  20.708  25.069  1.00  0.00     0.117 C 
ENDROOT
BRANCH   1   2
ATOM      2  N   UNL A   1      36.066  20.023  25.026  1.00  0.00    -0.354 N 
ATOM      3  C   UNL A   1      34.808  20.554  25.026  1.00  0.00     0.242 C 
ATOM      4  O   UNL A   1      33.842  19.793  24.961  1.00  0.00    -0.273 OA
ATOM      5  H   UNL A   1      36.112  19.040  24.991  1.00  0.00     0.163 HD
BRANCH   3   6
ATOM      6  C   UNL A   1      34.641  22.082  24.960  1.00  0.00     0.168 C 
ATOM      7  C   UNL A   1      33.818  22.474  26.176  1.00  0.00     0.041 C 
BRANCH   6   8
ATOM      8  N   UNL A   1      34.169  22.429  23.610  1.00  0.00    -0.341 N 
ATOM      9  C   UNL A   1      33.928  23.546  22.890  1.00  0.00     0.261 C 
ATOM     10  H   UNL A   1      33.975  21.620  23.084  1.00  0.00     0.164 HD
ATOM     11  O   UNL A   1      33.895  23.371  21.662  1.00  0.00    -0.271 OA
BRANCH   9  12
ATOM     12  C   UNL A   1      33.596  24.956  23.455  1.00  0.00     0.258 C 
ATOM     13  C   UNL A   1      33.413  25.930  22.281  1.00  0.00     0.064 C 
BRANCH  12  14
ATOM     14  O   UNL A   1      32.700  25.322  24.492  1.00  0.00    -0.480 OA
BRANCH  14  15
ATOM     15  C   UNL A   1      32.746  26.572  25.021  1.00  0.00     0.134 A 
ATOM     16  C   UNL A   1      33.886  27.100  25.624  1.00  0.00     0.049 A 
ATOM     17  C   UNL A   1      31.584  27.356  24.937  1.00  0.00     0.061 A 
ATOM     18  C   UNL A   1      33.816  28.331  26.282  1.00  0.00     0.024 A 
ATOM     19  C   UNL A   1      31.507  28.581  25.598  1.00  0.00     0.040 A 
ATOM     20  Br  UNL A   1      30.039  26.741  24.014  1.00  0.00    -0.047 Br
ATOM     21  C   UNL A   1      32.618  29.047  26.295  1.00  0.00     0.042 A 
ATOM     22  Cl  UNL A   1      32.502  30.505  27.199  1.00  0.00    -0.084 Cl
ENDBRANCH  14  15
ENDBRANCH  12  14
ENDBRANCH   9  12
ENDBRANCH   6   8
ENDBRANCH   3   6
ENDBRANCH   1   2
BRANCH   1  23
ATOM     23  C   UNL A   1      38.491  19.730  25.279  1.00  0.00     0.042 C 
BRANCH  23  24
ATOM     24  C   UNL A   1      39.604  20.320  26.128  1.00  0.00     0.118 C 
BRANCH  24  25
ATOM     25  N   UNL A   1      40.805  19.490  26.107  1.00  0.00    -0.352 N 
ATOM     26  C   UNL A   1      42.122  19.882  26.107  1.00  0.00     0.251 C 
ATOM     27  H   UNL A   1      40.650  18.519  26.089  1.00  0.00     0.163 HD
ATOM     28  O   UNL A   1      43.007  19.089  25.839  1.00  0.00    -0.269 OA
BRANCH  26  29
ATOM     29  C   UNL A   1      42.426  21.286  26.434  1.00  0.00     0.039 A 
ATOM     30  C   UNL A   1      42.717  21.636  27.753  1.00  0.00     0.014 A 
ATOM     31  C   UNL A   1      42.472  22.236  25.410  1.00  0.00     0.014 A 
ATOM     32  C   UNL A   1      43.120  22.940  28.034  1.00  0.00     0.010 A 
ATOM     33  C   UNL A   1      42.964  23.502  25.676  1.00  0.00     0.010 A 
ATOM     34  C   UNL A   1      43.282  23.870  26.992  1.00  0.00    -0.014 A 
BRANCH  34  35
ATOM     35  C   UNL A   1      43.769  25.244  27.245  1.00  0.00     0.031 A 
ATOM     36  C   UNL A   1      45.209  25.580  26.974  1.00  0.00     0.074 A 
ATOM     37  C   UNL A   1      42.942  26.152  27.799  1.00  0.00     0.049 A 
ATOM     38  N   UNL A   1      45.858  26.686  27.222  1.00  0.00    -0.248 NA
ATOM     39  C   UNL A   1      46.038  24.519  26.375  1.00  0.00     0.031 C 
ATOM     40  C   UNL A   1      41.539  25.920  28.151  1.00  0.00     0.029 A 
ATOM     41  N   UNL A   1      43.168  27.451  28.176  1.00  0.00    -0.354 N 
ATOM     42  C   UNL A   1      47.170  26.447  26.835  1.00  0.00     0.074 A 
ATOM     43  C   UNL A   1      47.241  25.075  26.387  1.00  0.00     0.031 C 
ATOM     44  C   UNL A   1      41.022  27.048  28.666  1.00  0.00     0.029 A 
ATOM     45  C   UNL A   1      42.067  28.066  28.724  1.00  0.00     0.049 A 
ATOM     46  H   UNL A   1      44.036  27.900  28.065  1.00  0.00     0.167 HD
ATOM     47  C   UNL A   1      48.219  27.303  26.831  1.00  0.00     0.031 A 
ATOM     48  C   UNL A   1      41.920  29.306  29.225  1.00  0.00     0.031 A 
ATOM     49  C   UNL A   1      48.133  28.671  27.260  1.00  0.00     0.049 A 
ATOM     50  C   UNL A   1      43.101  30.238  29.213  1.00  0.00     0.074 A 
ATOM     51  C   UNL A   1      49.117  29.642  27.239  1.00  0.00     0.029 A 
ATOM     52  N   UNL A   1      46.995  29.262  27.789  1.00  0.00    -0.354 N 
ATOM     53  N   UNL A   1      44.319  30.016  28.777  1.00  0.00    -0.248 NA
ATOM     54  C   UNL A   1      42.886  31.587  29.751  1.00  0.00     0.031 C 
ATOM     55  C   UNL A   1      48.589  30.808  27.802  1.00  0.00     0.029 A 
ATOM     56  C   UNL A   1      47.258  30.580  28.120  1.00  0.00     0.049 A 
ATOM     57  H   UNL A   1      46.128  28.812  27.910  1.00  0.00     0.167 HD
ATOM     58  C   UNL A   1      45.010  31.209  28.966  1.00  0.00     0.074 A 
ATOM     59  C   UNL A   1      44.069  32.150  29.540  1.00  0.00     0.031 C 
ATOM     60  C   UNL A   1      46.304  31.498  28.689  1.00  0.00     0.031 A 
BRANCH  47  61
ATOM     61  C   UNL A   1      49.544  26.776  26.349  1.00  0.00    -0.014 A 
ATOM     62  C   UNL A   1      50.299  25.882  27.130  1.00  0.00     0.010 A 
ATOM     63  C   UNL A   1      50.030  27.158  25.084  1.00  0.00     0.010 A 
ATOM     64  C   UNL A   1      51.534  25.412  26.675  1.00  0.00     0.020 A 
ATOM     65  C   UNL A   1      51.251  26.666  24.613  1.00  0.00     0.020 A 
ATOM     66  C   UNL A   1      52.003  25.810  25.420  1.00  0.00     0.054 A 
BRANCH  66  67
ATOM     67  S   UNL A   1      53.599  25.166  24.847  1.00  0.00     0.124 S 
ATOM     68  O   UNL A   1      53.470  25.290  23.398  1.00  0.00    -0.237 OA
ATOM     69  O   UNL A   1      54.555  26.077  25.472  1.00  0.00    -0.237 OA
ATOM     70  O   UNL A   1      53.624  23.796  25.355  1.00  0.00    -0.744 OA
ENDBRANCH  66  67
ENDBRANCH  47  61
BRANCH  48  71
ATOM     71  C   UNL A   1      40.602  29.741  29.763  1.00  0.00    -0.014 A 
ATOM     72  C   UNL A   1      40.393  29.833  31.150  1.00  0.00     0.010 A 
ATOM     73  C   UNL A   1      39.553  30.085  28.890  1.00  0.00     0.010 A 
ATOM     74  C   UNL A   1      39.156  30.241  31.655  1.00  0.00     0.020 A 
ATOM     75  C   UNL A   1      38.323  30.522  29.392  1.00  0.00     0.020 A 
ATOM     76  C   UNL A   1      38.129  30.585  30.772  1.00  0.00     0.054 A 
BRANCH  76  77
ATOM     77  S   UNL A   1      36.548  31.161  31.453  1.00  0.00     0.124 S 
ATOM     78  O   UNL A   1      36.083  29.982  32.176  1.00  0.00    -0.237 OA
ATOM     79  O   UNL A   1      36.955  32.292  32.280  1.00  0.00    -0.237 OA
ATOM     80  O   UNL A   1      35.773  31.514  30.265  1.00  0.00    -0.744 OA
ENDBRANCH  76  77
ENDBRANCH  48  71
BRANCH  60  81
ATOM     81  C   UNL A   1      46.776  32.898  28.972  1.00  0.00    -0.014 A 
ATOM     82  C   UNL A   1      47.387  33.225  30.195  1.00  0.00     0.010 A 
ATOM     83  C   UNL A   1      46.673  33.880  27.970  1.00  0.00     0.010 A 
ATOM     84  C   UNL A   1      47.868  34.518  30.419  1.00  0.00     0.020 A 
ATOM     85  C   UNL A   1      47.177  35.166  28.179  1.00  0.00     0.020 A 
ATOM     86  C   UNL A   1      47.761  35.479  29.407  1.00  0.00     0.054 A 
BRANCH  86  87
ATOM     87  S   UNL A   1      48.447  37.132  29.700  1.00  0.00     0.124 S 
ATOM     88  O   UNL A   1      47.250  37.968  29.660  1.00  0.00    -0.237 OA
ATOM     89  O   UNL A   1      49.071  36.992  31.013  1.00  0.00    -0.237 OA
ATOM     90  O   UNL A   1      49.378  37.323  28.591  1.00  0.00    -0.744 OA
ENDBRANCH  86  87
ENDBRANCH  60  81
ENDBRANCH  34  35
ENDBRANCH  26  29
ENDBRANCH  24  25
ENDBRANCH  23  24
ENDBRANCH   1  23
TORSDOF 17
ENDMDL
