MODEL 1
REMARK VINA RESULT:     -12.4      0.000      0.000
REMARK SMILES CCC(=O)Nc1ccc(NC(=O)[C@@H]2CC=CC[C@@H]2C(=O)NCCCNC(=O)c2ccc(-c3c4nc(c(-c5ccc(S(=O)(=O)[O-])cc5)c5ccc([nH]5)c(-c5ccc(S(=O)(=O)[O-])cc5)c5nc(c(-c6ccc(S(=O)(=O)[O-])cc6)c6ccc3[nH]6)C=C5)C=C4)cc2)cc1
REMARK SMILES IDX 22 1 21 2 19 3 20 4 18 6 13 7 14 8 15 9 17 10 16 11 11 12
REMARK SMILES IDX 10 13 12 15 9 16 6 17 7 18 89 19 8 20 88 21 5 22 3 23 4 24
REMARK SMILES IDX 2 26 1 27 23 28 24 29 25 30 26 31 27 33 28 34 29 35 87 36
REMARK SMILES IDX 30 37 86 38 31 39 32 40 33 41 80 42 34 43 85 44 79 45 81 46
REMARK SMILES IDX 35 47 84 48 78 49 77 50 36 52 66 53 47 54 65 55 48 56 51 57
REMARK SMILES IDX 64 58 82 59 49 60 50 61 63 63 83 64 52 65 37 66 38 67 46 68
REMARK SMILES IDX 39 69 45 70 40 71 41 72 42 73 43 74 44 75 67 76 68 77 76 78
REMARK SMILES IDX 69 79 75 80 70 81 71 82 72 83 73 84 74 85 53 86 54 87 62 88
REMARK SMILES IDX 55 89 61 90 56 91 57 92 58 93 59 94 60 95
REMARK H PARENT 21 5 10 14 5 25 25 32 81 51 51 62
REMARK Flexibility Score: inf
ROOT
ATOM      1  C   UNL A   1      34.329  28.319  26.420  1.00  0.00     0.117 C 
ENDROOT
BRANCH   1   2
ATOM      2  N   UNL A   1      34.082  28.804  25.071  1.00  0.00    -0.356 N 
ATOM      3  C   UNL A   1      33.331  28.269  24.064  1.00  0.00     0.224 C 
ATOM      4  O   UNL A   1      33.303  28.877  22.997  1.00  0.00    -0.275 OA
ATOM      5  H   UNL A   1      34.529  29.653  24.849  1.00  0.00     0.163 HD
BRANCH   3   6
ATOM      6  C   UNL A   1      32.589  26.957  24.313  1.00  0.00     0.095 C 
ATOM      7  C   UNL A   1      32.135  26.208  23.039  1.00  0.00     0.095 C 
ATOM      8  C   UNL A   1      31.127  27.033  22.221  1.00  0.00     0.041 C 
ATOM      9  C   UNL A   1      30.035  27.581  23.098  1.00  0.00    -0.030 C 
ATOM     10  C   UNL A   1      31.345  27.200  25.199  1.00  0.00     0.041 C 
ATOM     11  C   UNL A   1      30.122  27.625  24.436  1.00  0.00    -0.030 C 
BRANCH   7  12
ATOM     12  C   UNL A   1      33.277  25.690  22.190  1.00  0.00     0.228 C 
ATOM     13  N   UNL A   1      33.794  24.438  22.350  1.00  0.00    -0.326 N 
ATOM     14  H   UNL A   1      34.511  24.254  21.700  1.00  0.00     0.169 HD
ATOM     15  O   UNL A   1      33.752  26.360  21.267  1.00  0.00    -0.274 OA
BRANCH  13  16
ATOM     16  C   UNL A   1      33.570  23.341  23.201  1.00  0.00     0.041 A 
ATOM     17  C   UNL A   1      32.997  20.956  24.606  1.00  0.00     0.041 A 
ATOM     18  C   UNL A   1      34.114  21.714  24.932  1.00  0.00     0.028 A 
ATOM     19  C   UNL A   1      32.099  21.458  23.675  1.00  0.00     0.028 A 
ATOM     20  C   UNL A   1      34.397  22.895  24.231  1.00  0.00     0.028 A 
ATOM     21  C   UNL A   1      32.389  22.626  22.965  1.00  0.00     0.028 A 
BRANCH  17  22
ATOM     22  N   UNL A   1      32.782  19.755  25.288  1.00  0.00    -0.326 N 
ATOM     23  C   UNL A   1      32.553  18.499  24.793  1.00  0.00     0.224 C 
ATOM     24  O   UNL A   1      32.128  17.634  25.561  1.00  0.00    -0.275 OA
ATOM     25  H   UNL A   1      32.798  19.822  26.270  1.00  0.00     0.169 HD
BRANCH  23  26
ATOM     26  C   UNL A   1      32.965  18.152  23.370  1.00  0.00     0.097 C 
ATOM     27  C   UNL A   1      33.995  17.046  23.254  1.00  0.00     0.014 C 
ENDBRANCH  23  26
ENDBRANCH  17  22
ENDBRANCH  13  16
ENDBRANCH   7  12
ENDBRANCH   3   6
ENDBRANCH   1   2
BRANCH   1  28
ATOM     28  C   UNL A   1      34.108  29.388  27.479  1.00  0.00     0.042 C 
BRANCH  28  29
ATOM     29  C   UNL A   1      35.344  30.207  27.827  1.00  0.00     0.118 C 
BRANCH  29  30
ATOM     30  N   UNL A   1      35.378  30.638  29.218  1.00  0.00    -0.352 N 
ATOM     31  C   UNL A   1      36.363  30.481  30.163  1.00  0.00     0.251 C 
ATOM     32  H   UNL A   1      34.573  31.112  29.529  1.00  0.00     0.163 HD
ATOM     33  O   UNL A   1      36.140  30.794  31.330  1.00  0.00    -0.269 OA
BRANCH  31  34
ATOM     34  C   UNL A   1      37.673  29.907  29.786  1.00  0.00     0.039 A 
ATOM     35  C   UNL A   1      38.060  29.930  28.443  1.00  0.00     0.014 A 
ATOM     36  C   UNL A   1      38.524  29.357  30.747  1.00  0.00     0.014 A 
ATOM     37  C   UNL A   1      39.331  29.477  28.080  1.00  0.00     0.010 A 
ATOM     38  C   UNL A   1      39.820  28.989  30.397  1.00  0.00     0.010 A 
ATOM     39  C   UNL A   1      40.239  29.045  29.059  1.00  0.00    -0.014 A 
BRANCH  39  40
ATOM     40  C   UNL A   1      41.632  28.662  28.711  1.00  0.00     0.031 A 
ATOM     41  C   UNL A   1      42.721  29.701  28.688  1.00  0.00     0.074 A 
ATOM     42  C   UNL A   1      41.904  27.393  28.344  1.00  0.00     0.049 A 
ATOM     43  N   UNL A   1      43.976  29.572  28.340  1.00  0.00    -0.248 NA
ATOM     44  C   UNL A   1      42.347  31.069  29.084  1.00  0.00     0.031 C 
ATOM     45  C   UNL A   1      40.931  26.301  28.286  1.00  0.00     0.029 A 
ATOM     46  N   UNL A   1      43.080  26.808  27.942  1.00  0.00    -0.354 N 
ATOM     47  C   UNL A   1      44.535  30.839  28.458  1.00  0.00     0.074 A 
ATOM     48  C   UNL A   1      43.471  31.734  28.859  1.00  0.00     0.031 C 
ATOM     49  C   UNL A   1      41.553  25.175  27.900  1.00  0.00     0.029 A 
ATOM     50  C   UNL A   1      42.957  25.473  27.637  1.00  0.00     0.049 A 
ATOM     51  H   UNL A   1      43.930  27.299  27.878  1.00  0.00     0.167 HD
ATOM     52  C   UNL A   1      45.820  31.223  28.268  1.00  0.00     0.031 A 
ATOM     53  C   UNL A   1      43.867  24.588  27.186  1.00  0.00     0.031 A 
ATOM     54  C   UNL A   1      46.878  30.330  27.877  1.00  0.00     0.049 A 
ATOM     55  C   UNL A   1      45.284  25.041  26.962  1.00  0.00     0.074 A 
ATOM     56  C   UNL A   1      48.224  30.611  27.713  1.00  0.00     0.029 A 
ATOM     57  N   UNL A   1      46.713  28.984  27.583  1.00  0.00    -0.354 N 
ATOM     58  N   UNL A   1      45.806  26.231  27.144  1.00  0.00    -0.248 NA
ATOM     59  C   UNL A   1      46.237  24.031  26.482  1.00  0.00     0.031 C 
ATOM     60  C   UNL A   1      48.861  29.450  27.263  1.00  0.00     0.029 A 
ATOM     61  C   UNL A   1      47.926  28.429  27.212  1.00  0.00     0.049 A 
ATOM     62  H   UNL A   1      45.859  28.496  27.632  1.00  0.00     0.167 HD
ATOM     63  C   UNL A   1      47.155  26.104  26.828  1.00  0.00     0.074 A 
ATOM     64  C   UNL A   1      47.369  24.720  26.458  1.00  0.00     0.031 C 
ATOM     65  C   UNL A   1      48.126  27.049  26.845  1.00  0.00     0.031 A 
BRANCH  52  66
ATOM     66  C   UNL A   1      46.153  32.679  28.476  1.00  0.00    -0.014 A 
ATOM     67  C   UNL A   1      46.015  33.612  27.433  1.00  0.00     0.010 A 
ATOM     68  C   UNL A   1      46.567  33.127  29.743  1.00  0.00     0.010 A 
ATOM     69  C   UNL A   1      46.327  34.958  27.642  1.00  0.00     0.020 A 
ATOM     70  C   UNL A   1      46.850  34.478  29.965  1.00  0.00     0.020 A 
ATOM     71  C   UNL A   1      46.744  35.382  28.906  1.00  0.00     0.054 A 
BRANCH  71  72
ATOM     72  S   UNL A   1      47.119  37.139  29.153  1.00  0.00     0.124 S 
ATOM     73  O   UNL A   1      48.184  37.082  30.152  1.00  0.00    -0.237 OA
ATOM     74  O   UNL A   1      47.533  37.568  27.819  1.00  0.00    -0.237 OA
ATOM     75  O   UNL A   1      45.855  37.702  29.622  1.00  0.00    -0.744 OA
ENDBRANCH  71  72
ENDBRANCH  52  66
BRANCH  53  76
ATOM     76  C   UNL A   1      43.466  23.178  26.922  1.00  0.00    -0.014 A 
ATOM     77  C   UNL A   1      43.554  22.640  25.626  1.00  0.00     0.010 A 
ATOM     78  C   UNL A   1      43.004  22.360  27.970  1.00  0.00     0.010 A 
ATOM     79  C   UNL A   1      43.169  21.318  25.378  1.00  0.00     0.020 A 
ATOM     80  C   UNL A   1      42.648  21.030  27.733  1.00  0.00     0.020 A 
ATOM     81  C   UNL A   1      42.722  20.521  26.435  1.00  0.00     0.054 A 
BRANCH  81  82
ATOM     82  S   UNL A   1      42.278  18.794  26.099  1.00  0.00     0.124 S 
ATOM     83  O   UNL A   1      43.230  18.435  25.053  1.00  0.00    -0.237 OA
ATOM     84  O   UNL A   1      42.492  18.157  27.396  1.00  0.00    -0.237 OA
ATOM     85  O   UNL A   1      40.882  18.877  25.677  1.00  0.00    -0.744 OA
ENDBRANCH  81  82
ENDBRANCH  53  76
BRANCH  65  86
ATOM     86  C   UNL A   1      49.524  26.617  26.488  1.00  0.00    -0.014 A 
ATOM     87  C   UNL A   1      50.368  26.013  27.437  1.00  0.00     0.010 A 
ATOM     88  C   UNL A   1      49.977  26.761  25.162  1.00  0.00     0.010 A 
ATOM     89  C   UNL A   1      51.649  25.587  27.074  1.00  0.00     0.020 A 
ATOM     90  C   UNL A   1      51.244  26.308  24.789  1.00  0.00     0.020 A 
ATOM     91  C   UNL A   1      52.077  25.735  25.751  1.00  0.00     0.054 A 
BRANCH  91  92
ATOM     92  S   UNL A   1      53.724  25.128  25.294  1.00  0.00     0.124 S 
ATOM     93  O   UNL A   1      54.563  25.701  26.343  1.00  0.00    -0.237 OA
ATOM     94  O   UNL A   1      53.555  23.677  25.347  1.00  0.00    -0.237 OA
ATOM     95  O   UNL A   1      53.939  25.676  23.956  1.00  0.00    -0.744 OA
ENDBRANCH  91  92
ENDBRANCH  65  86
ENDBRANCH  39  40
ENDBRANCH  31  34
ENDBRANCH  29  30
ENDBRANCH  28  29
ENDBRANCH   1  28
TORSDOF 17
ENDMDL
MODEL 2
REMARK VINA RESULT:     -11.7      2.567      3.313
REMARK SMILES CCC(=O)Nc1ccc(NC(=O)[C@@H]2CC=CC[C@@H]2C(=O)NCCCNC(=O)c2ccc(-c3c4nc(c(-c5ccc(S(=O)(=O)[O-])cc5)c5ccc([nH]5)c(-c5ccc(S(=O)(=O)[O-])cc5)c5nc(c(-c6ccc(S(=O)(=O)[O-])cc6)c6ccc3[nH]6)C=C5)C=C4)cc2)cc1
REMARK SMILES IDX 22 1 21 2 19 3 20 4 18 6 13 7 14 8 15 9 17 10 16 11 11 12
REMARK SMILES IDX 10 13 12 15 9 16 6 17 7 18 89 19 8 20 88 21 5 22 3 23 4 24
REMARK SMILES IDX 2 26 1 27 23 28 24 29 25 30 26 31 27 33 28 34 29 35 87 36
REMARK SMILES IDX 30 37 86 38 31 39 32 40 33 41 80 42 34 43 85 44 79 45 81 46
REMARK SMILES IDX 35 47 84 48 78 49 77 50 36 52 66 53 47 54 65 55 48 56 51 57
REMARK SMILES IDX 64 58 82 59 49 60 50 61 63 63 83 64 52 65 37 66 38 67 46 68
REMARK SMILES IDX 39 69 45 70 40 71 41 72 42 73 43 74 44 75 67 76 68 77 76 78
REMARK SMILES IDX 69 79 75 80 70 81 71 82 72 83 73 84 74 85 53 86 54 87 62 88
REMARK SMILES IDX 55 89 61 90 56 91 57 92 58 93 59 94 60 95
REMARK H PARENT 21 5 10 14 5 25 25 32 81 51 51 62
REMARK Flexibility Score: inf
ROOT
ATOM      1  C   UNL A   1      31.175  28.214  26.507  1.00  0.00     0.117 C 
ENDROOT
BRANCH   1   2
ATOM      2  N   UNL A   1      31.685  28.639  25.213  1.00  0.00    -0.356 N 
ATOM      3  C   UNL A   1      32.029  27.904  24.115  1.00  0.00     0.224 C 
ATOM      4  O   UNL A   1      32.459  28.516  23.140  1.00  0.00    -0.275 OA
ATOM      5  H   UNL A   1      31.801  29.612  25.114  1.00  0.00     0.163 HD
BRANCH   3   6
ATOM      6  C   UNL A   1      31.876  26.385  24.164  1.00  0.00     0.095 C 
ATOM      7  C   UNL A   1      33.185  25.587  23.962  1.00  0.00     0.095 C 
ATOM      8  C   UNL A   1      33.794  25.834  22.571  1.00  0.00     0.041 C 
ATOM      9  C   UNL A   1      32.755  25.700  21.491  1.00  0.00    -0.030 C 
ATOM     10  C   UNL A   1      30.853  25.911  23.107  1.00  0.00     0.041 C 
ATOM     11  C   UNL A   1      31.437  25.703  21.738  1.00  0.00    -0.030 C 
BRANCH   7  12
ATOM     12  C   UNL A   1      34.196  25.770  25.073  1.00  0.00     0.228 C 
ATOM     13  N   UNL A   1      34.634  24.729  25.838  1.00  0.00    -0.326 N 
ATOM     14  H   UNL A   1      35.309  25.018  26.494  1.00  0.00     0.169 HD
ATOM     15  O   UNL A   1      34.719  26.867  25.297  1.00  0.00    -0.274 OA
BRANCH  13  16
ATOM     16  C   UNL A   1      34.375  23.350  25.932  1.00  0.00     0.041 A 
ATOM     17  C   UNL A   1      33.546  20.647  25.922  1.00  0.00     0.041 A 
ATOM     18  C   UNL A   1      34.892  20.971  25.815  1.00  0.00     0.028 A 
ATOM     19  C   UNL A   1      32.633  21.663  26.168  1.00  0.00     0.028 A 
ATOM     20  C   UNL A   1      35.300  22.313  25.818  1.00  0.00     0.028 A 
ATOM     21  C   UNL A   1      33.038  23.001  26.154  1.00  0.00     0.028 A 
BRANCH  17  22
ATOM     22  N   UNL A   1      33.174  19.302  25.855  1.00  0.00    -0.326 N 
ATOM     23  C   UNL A   1      32.448  18.643  24.900  1.00  0.00     0.224 C 
ATOM     24  O   UNL A   1      32.010  17.522  25.165  1.00  0.00    -0.275 OA
ATOM     25  H   UNL A   1      33.480  18.745  26.607  1.00  0.00     0.169 HD
BRANCH  23  26
ATOM     26  C   UNL A   1      32.325  19.222  23.499  1.00  0.00     0.097 C 
ATOM     27  C   UNL A   1      32.379  18.204  22.378  1.00  0.00     0.014 C 
ENDBRANCH  23  26
ENDBRANCH  17  22
ENDBRANCH  13  16
ENDBRANCH   7  12
ENDBRANCH   3   6
ENDBRANCH   1   2
BRANCH   1  28
ATOM     28  C   UNL A   1      32.281  27.966  27.522  1.00  0.00     0.042 C 
BRANCH  28  29
ATOM     29  C   UNL A   1      33.567  28.741  27.266  1.00  0.00     0.118 C 
BRANCH  29  30
ATOM     30  N   UNL A   1      33.519  30.114  27.751  1.00  0.00    -0.352 N 
ATOM     31  C   UNL A   1      34.480  30.849  28.403  1.00  0.00     0.251 C 
ATOM     32  H   UNL A   1      32.671  30.586  27.586  1.00  0.00     0.163 HD
ATOM     33  O   UNL A   1      34.192  31.954  28.858  1.00  0.00    -0.269 OA
BRANCH  31  34
ATOM     34  C   UNL A   1      35.841  30.301  28.589  1.00  0.00     0.039 A 
ATOM     35  C   UNL A   1      36.737  30.340  27.517  1.00  0.00     0.014 A 
ATOM     36  C   UNL A   1      36.240  29.759  29.813  1.00  0.00     0.014 A 
ATOM     37  C   UNL A   1      38.055  29.912  27.700  1.00  0.00     0.010 A 
ATOM     38  C   UNL A   1      37.573  29.417  30.018  1.00  0.00     0.010 A 
ATOM     39  C   UNL A   1      38.497  29.490  28.964  1.00  0.00    -0.014 A 
BRANCH  39  40
ATOM     40  C   UNL A   1      39.919  29.134  29.209  1.00  0.00     0.031 A 
ATOM     41  C   UNL A   1      40.872  30.158  29.766  1.00  0.00     0.074 A 
ATOM     42  C   UNL A   1      40.371  27.911  28.864  1.00  0.00     0.049 A 
ATOM     43  N   UNL A   1      42.159  30.056  29.979  1.00  0.00    -0.248 NA
ATOM     44  C   UNL A   1      40.311  31.477  30.104  1.00  0.00     0.031 C 
ATOM     45  C   UNL A   1      39.559  26.842  28.279  1.00  0.00     0.029 A 
ATOM     46  N   UNL A   1      41.627  27.363  28.947  1.00  0.00    -0.354 N 
ATOM     47  C   UNL A   1      42.564  31.296  30.458  1.00  0.00     0.074 A 
ATOM     48  C   UNL A   1      41.396  32.151  30.454  1.00  0.00     0.031 C 
ATOM     49  C   UNL A   1      40.330  25.760  28.082  1.00  0.00     0.029 A 
ATOM     50  C   UNL A   1      41.699  26.071  28.480  1.00  0.00     0.049 A 
ATOM     51  H   UNL A   1      42.403  27.849  29.306  1.00  0.00     0.167 HD
ATOM     52  C   UNL A   1      43.791  31.685  30.880  1.00  0.00     0.031 A 
ATOM     53  C   UNL A   1      42.748  25.233  28.373  1.00  0.00     0.031 A 
ATOM     54  C   UNL A   1      44.948  30.831  30.890  1.00  0.00     0.049 A 
ATOM     55  C   UNL A   1      44.106  25.694  28.829  1.00  0.00     0.074 A 
ATOM     56  C   UNL A   1      46.223  31.115  31.351  1.00  0.00     0.029 A 
ATOM     57  N   UNL A   1      44.977  29.528  30.413  1.00  0.00    -0.354 N 
ATOM     58  N   UNL A   1      44.453  26.850  29.341  1.00  0.00    -0.248 NA
ATOM     59  C   UNL A   1      45.211  24.734  28.701  1.00  0.00     0.031 C 
ATOM     60  C   UNL A   1      47.035  30.006  31.098  1.00  0.00     0.029 A 
ATOM     61  C   UNL A   1      46.253  29.006  30.543  1.00  0.00     0.049 A 
ATOM     62  H   UNL A   1      44.204  29.047  30.040  1.00  0.00     0.167 HD
ATOM     63  C   UNL A   1      45.811  26.747  29.624  1.00  0.00     0.074 A 
ATOM     64  C   UNL A   1      46.216  25.410  29.239  1.00  0.00     0.031 C 
ATOM     65  C   UNL A   1      46.644  27.674  30.155  1.00  0.00     0.031 A 
BRANCH  52  66
ATOM     66  C   UNL A   1      43.946  33.106  31.362  1.00  0.00    -0.014 A 
ATOM     67  C   UNL A   1      43.705  33.449  32.704  1.00  0.00     0.010 A 
ATOM     68  C   UNL A   1      44.380  34.103  30.469  1.00  0.00     0.010 A 
ATOM     69  C   UNL A   1      43.854  34.770  33.134  1.00  0.00     0.020 A 
ATOM     70  C   UNL A   1      44.560  35.420  30.903  1.00  0.00     0.020 A 
ATOM     71  C   UNL A   1      44.279  35.747  32.230  1.00  0.00     0.054 A 
BRANCH  71  72
ATOM     72  S   UNL A   1      44.485  37.449  32.823  1.00  0.00     0.124 S 
ATOM     73  O   UNL A   1      43.583  37.478  33.972  1.00  0.00    -0.237 OA
ATOM     74  O   UNL A   1      45.910  37.506  33.142  1.00  0.00    -0.237 OA
ATOM     75  O   UNL A   1      44.071  38.267  31.686  1.00  0.00    -0.744 OA
ENDBRANCH  71  72
ENDBRANCH  52  66
BRANCH  53  76
ATOM     76  C   UNL A   1      42.553  23.865  27.817  1.00  0.00    -0.014 A 
ATOM     77  C   UNL A   1      42.231  22.788  28.662  1.00  0.00     0.010 A 
ATOM     78  C   UNL A   1      42.678  23.633  26.434  1.00  0.00     0.010 A 
ATOM     79  C   UNL A   1      42.057  21.503  28.139  1.00  0.00     0.020 A 
ATOM     80  C   UNL A   1      42.475  22.357  25.904  1.00  0.00     0.020 A 
ATOM     81  C   UNL A   1      42.176  21.297  26.763  1.00  0.00     0.054 A 
BRANCH  81  82
ATOM     82  S   UNL A   1      41.894  19.631  26.101  1.00  0.00     0.124 S 
ATOM     83  O   UNL A   1      42.787  19.608  24.947  1.00  0.00    -0.237 OA
ATOM     84  O   UNL A   1      42.283  18.778  27.221  1.00  0.00    -0.237 OA
ATOM     85  O   UNL A   1      40.466  19.626  25.791  1.00  0.00    -0.744 OA
ENDBRANCH  81  82
ENDBRANCH  53  76
BRANCH  65  86
ATOM     86  C   UNL A   1      48.076  27.269  30.390  1.00  0.00    -0.014 A 
ATOM     87  C   UNL A   1      49.087  27.585  29.465  1.00  0.00     0.010 A 
ATOM     88  C   UNL A   1      48.424  26.618  31.589  1.00  0.00     0.010 A 
ATOM     89  C   UNL A   1      50.414  27.231  29.720  1.00  0.00     0.020 A 
ATOM     90  C   UNL A   1      49.755  26.291  31.862  1.00  0.00     0.020 A 
ATOM     91  C   UNL A   1      50.740  26.588  30.919  1.00  0.00     0.054 A 
BRANCH  91  92
ATOM     92  S   UNL A   1      52.477  26.186  31.250  1.00  0.00     0.124 S 
ATOM     93  O   UNL A   1      53.014  26.021  29.902  1.00  0.00    -0.237 OA
ATOM     94  O   UNL A   1      52.946  27.368  31.972  1.00  0.00    -0.237 OA
ATOM     95  O   UNL A   1      52.406  24.964  32.047  1.00  0.00    -0.744 OA
ENDBRANCH  91  92
ENDBRANCH  65  86
ENDBRANCH  39  40
ENDBRANCH  31  34
ENDBRANCH  29  30
ENDBRANCH  28  29
ENDBRANCH   1  28
TORSDOF 17
ENDMDL
MODEL 3
REMARK VINA RESULT:     -11.5      2.352      9.178
REMARK SMILES CCC(=O)Nc1ccc(NC(=O)[C@@H]2CC=CC[C@@H]2C(=O)NCCCNC(=O)c2ccc(-c3c4nc(c(-c5ccc(S(=O)(=O)[O-])cc5)c5ccc([nH]5)c(-c5ccc(S(=O)(=O)[O-])cc5)c5nc(c(-c6ccc(S(=O)(=O)[O-])cc6)c6ccc3[nH]6)C=C5)C=C4)cc2)cc1
REMARK SMILES IDX 22 1 21 2 19 3 20 4 18 6 13 7 14 8 15 9 17 10 16 11 11 12
REMARK SMILES IDX 10 13 12 15 9 16 6 17 7 18 89 19 8 20 88 21 5 22 3 23 4 24
REMARK SMILES IDX 2 26 1 27 23 28 24 29 25 30 26 31 27 33 28 34 29 35 87 36
REMARK SMILES IDX 30 37 86 38 31 39 32 40 33 41 80 42 34 43 85 44 79 45 81 46
REMARK SMILES IDX 35 47 84 48 78 49 77 50 36 52 66 53 47 54 65 55 48 56 51 57
REMARK SMILES IDX 64 58 82 59 49 60 50 61 63 63 83 64 52 65 37 66 38 67 46 68
REMARK SMILES IDX 39 69 45 70 40 71 41 72 42 73 43 74 44 75 67 76 68 77 76 78
REMARK SMILES IDX 69 79 75 80 70 81 71 82 72 83 73 84 74 85 53 86 54 87 62 88
REMARK SMILES IDX 55 89 61 90 56 91 57 92 58 93 59 94 60 95
REMARK H PARENT 21 5 10 14 5 25 25 32 81 51 51 62
REMARK Flexibility Score: inf
ROOT
ATOM      1  C   UNL A   1      36.617  20.552  25.174  1.00  0.00     0.117 C 
ENDROOT
BRANCH   1   2
ATOM      2  N   UNL A   1      35.889  21.232  26.233  1.00  0.00    -0.356 N 
ATOM      3  C   UNL A   1      34.745  21.975  26.182  1.00  0.00     0.224 C 
ATOM      4  O   UNL A   1      34.343  22.465  27.235  1.00  0.00    -0.275 OA
ATOM      5  H   UNL A   1      36.285  21.143  27.130  1.00  0.00     0.163 HD
BRANCH   3   6
ATOM      6  C   UNL A   1      34.047  22.166  24.836  1.00  0.00     0.095 C 
ATOM      7  C   UNL A   1      33.335  23.525  24.653  1.00  0.00     0.095 C 
ATOM      8  C   UNL A   1      32.196  23.714  25.670  1.00  0.00     0.041 C 
ATOM      9  C   UNL A   1      31.311  22.499  25.728  1.00  0.00    -0.030 C 
ATOM     10  C   UNL A   1      33.011  21.042  24.603  1.00  0.00     0.041 C 
ATOM     11  C   UNL A   1      31.667  21.310  25.219  1.00  0.00    -0.030 C 
BRANCH   7  12
ATOM     12  C   UNL A   1      34.273  24.712  24.614  1.00  0.00     0.228 C 
ATOM     13  N   UNL A   1      33.830  25.985  24.405  1.00  0.00    -0.326 N 
ATOM     14  H   UNL A   1      34.567  26.637  24.437  1.00  0.00     0.169 HD
ATOM     15  O   UNL A   1      35.483  24.587  24.832  1.00  0.00    -0.274 OA
BRANCH  13  16
ATOM     16  C   UNL A   1      32.594  26.609  24.158  1.00  0.00     0.041 A 
ATOM     17  C   UNL A   1      30.025  27.561  23.459  1.00  0.00     0.041 A 
ATOM     18  C   UNL A   1      30.543  27.797  24.726  1.00  0.00     0.028 A 
ATOM     19  C   UNL A   1      30.841  26.969  22.505  1.00  0.00     0.028 A 
ATOM     20  C   UNL A   1      31.817  27.322  25.070  1.00  0.00     0.028 A 
ATOM     21  C   UNL A   1      32.104  26.481  22.853  1.00  0.00     0.028 A 
BRANCH  17  22
ATOM     22  N   UNL A   1      28.729  27.998  23.175  1.00  0.00    -0.326 N 
ATOM     23  C   UNL A   1      28.266  29.266  22.946  1.00  0.00     0.224 C 
ATOM     24  O   UNL A   1      27.050  29.462  22.977  1.00  0.00    -0.275 OA
ATOM     25  H   UNL A   1      28.047  27.290  23.133  1.00  0.00     0.169 HD
BRANCH  23  26
ATOM     26  C   UNL A   1      29.227  30.363  22.511  1.00  0.00     0.097 C 
ATOM     27  C   UNL A   1      28.736  31.226  21.366  1.00  0.00     0.014 C 
ENDBRANCH  23  26
ENDBRANCH  17  22
ENDBRANCH  13  16
ENDBRANCH   7  12
ENDBRANCH   3   6
ENDBRANCH   1   2
BRANCH   1  28
ATOM     28  C   UNL A   1      37.959  21.201  24.872  1.00  0.00     0.042 C 
BRANCH  28  29
ATOM     29  C   UNL A   1      38.935  21.221  26.041  1.00  0.00     0.118 C 
BRANCH  29  30
ATOM     30  N   UNL A   1      39.878  20.111  26.025  1.00  0.00    -0.352 N 
ATOM     31  C   UNL A   1      41.248  20.120  26.129  1.00  0.00     0.251 C 
ATOM     32  H   UNL A   1      39.473  19.220  25.923  1.00  0.00     0.163 HD
ATOM     33  O   UNL A   1      41.878  19.080  25.949  1.00  0.00    -0.269 OA
BRANCH  31  34
ATOM     34  C   UNL A   1      41.966  21.381  26.420  1.00  0.00     0.039 A 
ATOM     35  C   UNL A   1      42.298  22.229  25.360  1.00  0.00     0.014 A 
ATOM     36  C   UNL A   1      42.302  21.734  27.729  1.00  0.00     0.014 A 
ATOM     37  C   UNL A   1      42.893  23.467  25.624  1.00  0.00     0.010 A 
ATOM     38  C   UNL A   1      42.812  23.002  27.995  1.00  0.00     0.010 A 
ATOM     39  C   UNL A   1      43.112  23.883  26.946  1.00  0.00    -0.014 A 
BRANCH  39  40
ATOM     40  C   UNL A   1      43.642  25.237  27.254  1.00  0.00     0.031 A 
ATOM     41  C   UNL A   1      45.096  25.553  27.029  1.00  0.00     0.074 A 
ATOM     42  C   UNL A   1      42.830  26.162  27.806  1.00  0.00     0.049 A 
ATOM     43  N   UNL A   1      45.754  26.649  27.305  1.00  0.00    -0.248 NA
ATOM     44  C   UNL A   1      45.926  24.488  26.440  1.00  0.00     0.031 C 
ATOM     45  C   UNL A   1      41.410  25.970  28.111  1.00  0.00     0.029 A 
ATOM     46  N   UNL A   1      43.084  27.448  28.215  1.00  0.00    -0.354 N 
ATOM     47  C   UNL A   1      47.073  26.403  26.941  1.00  0.00     0.074 A 
ATOM     48  C   UNL A   1      47.132  25.035  26.473  1.00  0.00     0.031 C 
ATOM     49  C   UNL A   1      40.914  27.103  28.633  1.00  0.00     0.029 A 
ATOM     50  C   UNL A   1      41.986  28.087  28.745  1.00  0.00     0.049 A 
ATOM     51  H   UNL A   1      43.968  27.872  28.138  1.00  0.00     0.167 HD
ATOM     52  C   UNL A   1      48.135  27.243  26.974  1.00  0.00     0.031 A 
ATOM     53  C   UNL A   1      41.857  29.320  29.271  1.00  0.00     0.031 A 
ATOM     54  C   UNL A   1      48.071  28.605  27.432  1.00  0.00     0.049 A 
ATOM     55  C   UNL A   1      43.056  30.228  29.317  1.00  0.00     0.074 A 
ATOM     56  C   UNL A   1      49.080  29.553  27.452  1.00  0.00     0.029 A 
ATOM     57  N   UNL A   1      46.940  29.214  27.955  1.00  0.00    -0.354 N 
ATOM     58  N   UNL A   1      44.279  29.998  28.905  1.00  0.00    -0.248 NA
ATOM     59  C   UNL A   1      42.854  31.567  29.889  1.00  0.00     0.031 C 
ATOM     60  C   UNL A   1      48.575  30.715  28.042  1.00  0.00     0.029 A 
ATOM     61  C   UNL A   1      47.234  30.516  28.327  1.00  0.00     0.049 A 
ATOM     62  H   UNL A   1      46.059  28.785  28.047  1.00  0.00     0.167 HD
ATOM     63  C   UNL A   1      44.986  31.171  29.142  1.00  0.00     0.074 A 
ATOM     64  C   UNL A   1      44.049  32.114  29.719  1.00  0.00     0.031 C 
ATOM     65  C   UNL A   1      46.292  31.444  28.902  1.00  0.00     0.031 A 
BRANCH  52  66
ATOM     66  C   UNL A   1      49.465  26.706  26.506  1.00  0.00    -0.014 A 
ATOM     67  C   UNL A   1      50.224  25.840  27.312  1.00  0.00     0.010 A 
ATOM     68  C   UNL A   1      49.940  27.040  25.225  1.00  0.00     0.010 A 
ATOM     69  C   UNL A   1      51.453  25.351  26.864  1.00  0.00     0.020 A 
ATOM     70  C   UNL A   1      51.156  26.527  24.760  1.00  0.00     0.020 A 
ATOM     71  C   UNL A   1      51.912  25.700  25.591  1.00  0.00     0.054 A 
BRANCH  71  72
ATOM     72  S   UNL A   1      53.501  25.031  25.027  1.00  0.00     0.124 S 
ATOM     73  O   UNL A   1      53.526  25.452  23.629  1.00  0.00    -0.237 OA
ATOM     74  O   UNL A   1      54.459  25.703  25.902  1.00  0.00    -0.237 OA
ATOM     75  O   UNL A   1      53.369  23.592  25.242  1.00  0.00    -0.744 OA
ENDBRANCH  71  72
ENDBRANCH  52  66
BRANCH  53  76
ATOM     76  C   UNL A   1      40.537  29.772  29.791  1.00  0.00    -0.014 A 
ATOM     77  C   UNL A   1      40.217  29.629  31.153  1.00  0.00     0.010 A 
ATOM     78  C   UNL A   1      39.593  30.360  28.927  1.00  0.00     0.010 A 
ATOM     79  C   UNL A   1      38.974  30.046  31.638  1.00  0.00     0.020 A 
ATOM     80  C   UNL A   1      38.362  30.806  29.414  1.00  0.00     0.020 A 
ATOM     81  C   UNL A   1      38.055  30.635  30.766  1.00  0.00     0.054 A 
BRANCH  81  82
ATOM     82  S   UNL A   1      36.470  31.217  31.428  1.00  0.00     0.124 S 
ATOM     83  O   UNL A   1      36.098  30.128  32.326  1.00  0.00    -0.237 OA
ATOM     84  O   UNL A   1      36.841  32.473  32.075  1.00  0.00    -0.237 OA
ATOM     85  O   UNL A   1      35.636  31.361  30.237  1.00  0.00    -0.744 OA
ENDBRANCH  81  82
ENDBRANCH  53  76
BRANCH  65  86
ATOM     86  C   UNL A   1      46.785  32.829  29.226  1.00  0.00    -0.014 A 
ATOM     87  C   UNL A   1      46.700  33.875  28.290  1.00  0.00     0.010 A 
ATOM     88  C   UNL A   1      47.285  33.102  30.514  1.00  0.00     0.010 A 
ATOM     89  C   UNL A   1      47.132  35.161  28.625  1.00  0.00     0.020 A 
ATOM     90  C   UNL A   1      47.689  34.394  30.862  1.00  0.00     0.020 A 
ATOM     91  C   UNL A   1      47.621  35.412  29.911  1.00  0.00     0.054 A 
BRANCH  91  92
ATOM     92  S   UNL A   1      48.126  37.101  30.337  1.00  0.00     0.124 S 
ATOM     93  O   UNL A   1      48.879  37.503  29.152  1.00  0.00    -0.237 OA
ATOM     94  O   UNL A   1      46.845  37.779  30.527  1.00  0.00    -0.237 OA
ATOM     95  O   UNL A   1      48.920  36.931  31.552  1.00  0.00    -0.744 OA
ENDBRANCH  91  92
ENDBRANCH  65  86
ENDBRANCH  39  40
ENDBRANCH  31  34
ENDBRANCH  29  30
ENDBRANCH  28  29
ENDBRANCH   1  28
TORSDOF 17
ENDMDL
