MODEL 1
REMARK VINA RESULT:     -12.0      0.000      0.000
REMARK SMILES Cc1cc(OC(F)(F)F)cc2c1O[C@H](C(F)(F)F)C(C(=O)NCCCNC(=O)c1ccc(-c3c4nc(c(-c5ccc(S(=O)(=O)[O-])cc5)c5ccc([nH]5)c(-c5ccc(S(=O)(=O)[O-])cc5)c5nc(c(-c6ccc(S(=O)(=O)[O-])cc6)c6ccc3[nH]6)C=C5)C=C4)cc1)=C2
REMARK SMILES IDX 24 1 23 2 22 3 20 4 21 5 19 7 1 8 2 9 3 10 12 11 4 12 11 13
REMARK SMILES IDX 13 14 10 15 89 16 14 17 5 18 6 19 7 20 8 21 9 22 15 23 16 24
REMARK SMILES IDX 17 25 18 26 25 27 26 28 27 29 28 31 29 32 30 33 88 34 31 35
REMARK SMILES IDX 87 36 32 37 33 38 34 39 81 40 35 41 86 42 80 43 82 44 36 45
REMARK SMILES IDX 85 46 79 47 78 48 37 50 67 51 48 52 66 53 49 54 52 55 65 56
REMARK SMILES IDX 83 57 50 58 51 59 64 61 84 62 53 63 38 64 39 65 47 66 40 67
REMARK SMILES IDX 46 68 41 69 42 70 43 71 44 72 45 73 68 74 69 75 77 76 70 77
REMARK SMILES IDX 76 78 71 79 72 80 73 81 74 82 75 83 54 84 55 85 63 86 56 87
REMARK SMILES IDX 62 88 57 89 58 90 59 91 60 92 61 93
REMARK H PARENT 22 6 26 30 82 49 52 60
REMARK Flexibility Score: inf
ROOT
ATOM      1  C   UNL A   1      33.808  28.814  24.491  1.00  0.00     0.042 C 
ENDROOT
BRANCH   1   2
ATOM      2  C   UNL A   1      32.400  28.293  24.240  1.00  0.00     0.118 C 
BRANCH   2   3
ATOM      3  N   UNL A   1      31.759  27.843  25.466  1.00  0.00    -0.352 N 
ATOM      4  C   UNL A   1      31.545  26.667  26.102  1.00  0.00     0.251 C 
ATOM      5  O   UNL A   1      30.929  26.752  27.170  1.00  0.00    -0.270 OA
ATOM      6  H   UNL A   1      31.376  28.597  25.970  1.00  0.00     0.163 HD
BRANCH   4   7
ATOM      7  C   UNL A   1      32.001  25.333  25.616  1.00  0.00     0.067 C 
ATOM      8  C   UNL A   1      32.490  20.424  24.143  1.00  0.00     0.048 C 
ATOM      9  C   UNL A   1      33.429  21.555  24.456  1.00  0.00    -0.005 A 
ATOM     10  C   UNL A   1      34.806  21.384  24.240  1.00  0.00     0.054 A 
ATOM     11  C   UNL A   1      32.962  22.798  24.895  1.00  0.00     0.131 A 
ATOM     12  C   UNL A   1      35.704  22.425  24.492  1.00  0.00     0.130 A 
ATOM     13  C   UNL A   1      33.847  23.848  25.151  1.00  0.00     0.021 A 
ATOM     14  O   UNL A   1      31.620  22.927  25.109  1.00  0.00    -0.475 OA
ATOM     15  C   UNL A   1      35.216  23.655  24.949  1.00  0.00     0.058 A 
ATOM     16  C   UNL A   1      33.330  25.118  25.648  1.00  0.00     0.025 C 
ATOM     17  C   UNL A   1      31.085  24.275  25.076  1.00  0.00     0.314 C 
BRANCH  12  18
ATOM     18  O   UNL A   1      37.059  22.377  24.333  1.00  0.00    -0.406 OA
BRANCH  18  19
ATOM     19  C   UNL A   1      37.783  21.447  25.119  1.00  0.00     0.573 C 
ATOM     20  F   UNL A   1      37.833  20.235  24.526  1.00  0.00    -0.132 F 
ATOM     21  F   UNL A   1      39.038  21.885  25.360  1.00  0.00    -0.132 F 
ATOM     22  F   UNL A   1      37.156  21.305  26.309  1.00  0.00    -0.132 F 
ENDBRANCH  18  19
ENDBRANCH  12  18
BRANCH  17  23
ATOM     23  C   UNL A   1      30.593  24.587  23.650  1.00  0.00     0.429 C 
ATOM     24  F   UNL A   1      31.578  25.171  22.922  1.00  0.00    -0.167 F 
ATOM     25  F   UNL A   1      30.222  23.476  22.969  1.00  0.00    -0.167 F 
ATOM     26  F   UNL A   1      29.530  25.423  23.634  1.00  0.00    -0.167 F 
ENDBRANCH  17  23
ENDBRANCH   4   7
ENDBRANCH   2   3
ENDBRANCH   1   2
BRANCH   1  27
ATOM     27  C   UNL A   1      34.158  28.814  25.975  1.00  0.00     0.118 C 
BRANCH  27  28
ATOM     28  N   UNL A   1      33.887  30.114  26.584  1.00  0.00    -0.352 N 
ATOM     29  C   UNL A   1      34.500  30.717  27.653  1.00  0.00     0.251 C 
ATOM     30  H   UNL A   1      33.160  30.632  26.168  1.00  0.00     0.163 HD
ATOM     31  O   UNL A   1      33.950  31.654  28.230  1.00  0.00    -0.269 OA
BRANCH  29  32
ATOM     32  C   UNL A   1      35.822  30.240  28.098  1.00  0.00     0.039 A 
ATOM     33  C   UNL A   1      35.959  29.659  29.360  1.00  0.00     0.014 A 
ATOM     34  C   UNL A   1      36.932  30.399  27.263  1.00  0.00     0.014 A 
ATOM     35  C   UNL A   1      37.209  29.186  29.764  1.00  0.00     0.010 A 
ATOM     36  C   UNL A   1      38.156  29.863  27.635  1.00  0.00     0.010 A 
ATOM     37  C   UNL A   1      38.308  29.268  28.896  1.00  0.00    -0.014 A 
BRANCH  37  38
ATOM     38  C   UNL A   1      39.649  28.794  29.299  1.00  0.00     0.031 A 
ATOM     39  C   UNL A   1      40.538  29.696  30.106  1.00  0.00     0.074 A 
ATOM     40  C   UNL A   1      40.085  27.587  28.894  1.00  0.00     0.049 A 
ATOM     41  N   UNL A   1      41.770  29.503  30.495  1.00  0.00    -0.248 NA
ATOM     42  C   UNL A   1      39.974  30.996  30.506  1.00  0.00     0.031 C 
ATOM     43  C   UNL A   1      39.319  26.639  28.083  1.00  0.00     0.029 A 
ATOM     44  N   UNL A   1      41.283  26.955  29.106  1.00  0.00    -0.354 N 
ATOM     45  C   UNL A   1      42.128  30.654  31.183  1.00  0.00     0.074 A 
ATOM     46  C   UNL A   1      41.009  31.566  31.105  1.00  0.00     0.031 C 
ATOM     47  C   UNL A   1      40.058  25.535  27.888  1.00  0.00     0.029 A 
ATOM     48  C   UNL A   1      41.356  25.710  28.532  1.00  0.00     0.049 A 
ATOM     49  H   UNL A   1      42.020  27.356  29.622  1.00  0.00     0.167 HD
ATOM     50  C   UNL A   1      43.277  30.919  31.848  1.00  0.00     0.031 A 
ATOM     51  C   UNL A   1      42.357  24.808  28.526  1.00  0.00     0.031 A 
ATOM     52  C   UNL A   1      44.384  30.008  31.928  1.00  0.00     0.049 A 
ATOM     53  C   UNL A   1      43.634  25.126  29.249  1.00  0.00     0.074 A 
ATOM     54  C   UNL A   1      45.586  30.171  32.593  1.00  0.00     0.029 A 
ATOM     55  N   UNL A   1      44.420  28.759  31.327  1.00  0.00    -0.354 N 
ATOM     56  N   UNL A   1      43.952  26.215  29.909  1.00  0.00    -0.248 NA
ATOM     57  C   UNL A   1      44.684  24.098  29.234  1.00  0.00     0.031 C 
ATOM     58  C   UNL A   1      46.363  29.030  32.367  1.00  0.00     0.029 A 
ATOM     59  C   UNL A   1      45.628  28.141  31.596  1.00  0.00     0.049 A 
ATOM     60  H   UNL A   1      43.694  28.370  30.788  1.00  0.00     0.167 HD
ATOM     61  C   UNL A   1      45.233  26.000  30.399  1.00  0.00     0.074 A 
ATOM     62  C   UNL A   1      45.631  24.675  29.964  1.00  0.00     0.031 C 
ATOM     63  C   UNL A   1      46.007  26.825  31.145  1.00  0.00     0.031 A 
BRANCH  50  64
ATOM     64  C   UNL A   1      43.371  32.244  32.550  1.00  0.00    -0.014 A 
ATOM     65  C   UNL A   1      42.971  32.372  33.893  1.00  0.00     0.010 A 
ATOM     66  C   UNL A   1      43.862  33.371  31.870  1.00  0.00     0.010 A 
ATOM     67  C   UNL A   1      43.020  33.612  34.531  1.00  0.00     0.020 A 
ATOM     68  C   UNL A   1      43.936  34.611  32.512  1.00  0.00     0.020 A 
ATOM     69  C   UNL A   1      43.500  34.725  33.835  1.00  0.00     0.054 A 
BRANCH  69  70
ATOM     70  S   UNL A   1      43.538  36.324  34.690  1.00  0.00     0.124 S 
ATOM     71  O   UNL A   1      44.943  36.425  35.081  1.00  0.00    -0.237 OA
ATOM     72  O   UNL A   1      43.109  37.250  33.645  1.00  0.00    -0.237 OA
ATOM     73  O   UNL A   1      42.600  36.151  35.795  1.00  0.00    -0.744 OA
ENDBRANCH  69  70
ENDBRANCH  50  64
BRANCH  51  74
ATOM     74  C   UNL A   1      42.146  23.510  27.836  1.00  0.00    -0.014 A 
ATOM     75  C   UNL A   1      42.736  23.275  26.583  1.00  0.00     0.010 A 
ATOM     76  C   UNL A   1      41.458  22.466  28.480  1.00  0.00     0.010 A 
ATOM     77  C   UNL A   1      42.669  22.007  25.999  1.00  0.00     0.020 A 
ATOM     78  C   UNL A   1      41.401  21.193  27.905  1.00  0.00     0.020 A 
ATOM     79  C   UNL A   1      42.019  20.970  26.673  1.00  0.00     0.054 A 
BRANCH  79  80
ATOM     80  S   UNL A   1      42.053  19.308  25.944  1.00  0.00     0.124 S 
ATOM     81  O   UNL A   1      40.648  19.084  25.619  1.00  0.00    -0.237 OA
ATOM     82  O   UNL A   1      42.945  19.493  24.802  1.00  0.00    -0.237 OA
ATOM     83  O   UNL A   1      42.588  18.471  27.016  1.00  0.00    -0.744 OA
ENDBRANCH  79  80
ENDBRANCH  51  74
BRANCH  63  84
ATOM     84  C   UNL A   1      47.367  26.334  31.554  1.00  0.00    -0.014 A 
ATOM     85  C   UNL A   1      47.553  25.682  32.784  1.00  0.00     0.010 A 
ATOM     86  C   UNL A   1      48.436  26.411  30.642  1.00  0.00     0.010 A 
ATOM     87  C   UNL A   1      48.788  25.109  33.094  1.00  0.00     0.020 A 
ATOM     88  C   UNL A   1      49.666  25.824  30.942  1.00  0.00     0.020 A 
ATOM     89  C   UNL A   1      49.833  25.173  32.166  1.00  0.00     0.054 A 
BRANCH  89  90
ATOM     90  S   UNL A   1      51.399  24.352  32.569  1.00  0.00     0.124 S 
ATOM     91  O   UNL A   1      51.517  24.600  34.003  1.00  0.00    -0.237 OA
ATOM     92  O   UNL A   1      51.132  22.966  32.191  1.00  0.00    -0.237 OA
ATOM     93  O   UNL A   1      52.380  25.043  31.736  1.00  0.00    -0.744 OA
ENDBRANCH  89  90
ENDBRANCH  63  84
ENDBRANCH  37  38
ENDBRANCH  29  32
ENDBRANCH  27  28
ENDBRANCH   1  27
TORSDOF 16
ENDMDL
MODEL 2
REMARK VINA RESULT:     -11.4      4.330     10.120
REMARK SMILES Cc1cc(OC(F)(F)F)cc2c1O[C@H](C(F)(F)F)C(C(=O)NCCCNC(=O)c1ccc(-c3c4nc(c(-c5ccc(S(=O)(=O)[O-])cc5)c5ccc([nH]5)c(-c5ccc(S(=O)(=O)[O-])cc5)c5nc(c(-c6ccc(S(=O)(=O)[O-])cc6)c6ccc3[nH]6)C=C5)C=C4)cc1)=C2
REMARK SMILES IDX 24 1 23 2 22 3 20 4 21 5 19 7 1 8 2 9 3 10 12 11 4 12 11 13
REMARK SMILES IDX 13 14 10 15 89 16 14 17 5 18 6 19 7 20 8 21 9 22 15 23 16 24
REMARK SMILES IDX 17 25 18 26 25 27 26 28 27 29 28 31 29 32 30 33 88 34 31 35
REMARK SMILES IDX 87 36 32 37 33 38 34 39 81 40 35 41 86 42 80 43 82 44 36 45
REMARK SMILES IDX 85 46 79 47 78 48 37 50 67 51 48 52 66 53 49 54 52 55 65 56
REMARK SMILES IDX 83 57 50 58 51 59 64 61 84 62 53 63 38 64 39 65 47 66 40 67
REMARK SMILES IDX 46 68 41 69 42 70 43 71 44 72 45 73 68 74 69 75 77 76 70 77
REMARK SMILES IDX 76 78 71 79 72 80 73 81 74 82 75 83 54 84 55 85 63 86 56 87
REMARK SMILES IDX 62 88 57 89 58 90 59 91 60 92 61 93
REMARK H PARENT 22 6 26 30 82 49 52 60
REMARK Flexibility Score: inf
ROOT
ATOM      1  C   UNL A   1      38.100  23.730  26.050  1.00  0.00     0.042 C 
ENDROOT
BRANCH   1   2
ATOM      2  C   UNL A   1      37.715  22.351  25.531  1.00  0.00     0.118 C 
BRANCH   2   3
ATOM      3  N   UNL A   1      36.463  21.884  26.106  1.00  0.00    -0.352 N 
ATOM      4  C   UNL A   1      35.141  22.113  25.927  1.00  0.00     0.251 C 
ATOM      5  O   UNL A   1      34.391  21.467  26.667  1.00  0.00    -0.270 OA
ATOM      6  H   UNL A   1      36.618  21.223  26.819  1.00  0.00     0.163 HD
BRANCH   4   7
ATOM      7  C   UNL A   1      34.560  23.050  24.923  1.00  0.00     0.067 C 
ATOM      8  C   UNL A   1      32.798  25.444  20.719  1.00  0.00     0.048 C 
ATOM      9  C   UNL A   1      33.123  25.843  22.131  1.00  0.00    -0.005 A 
ATOM     10  C   UNL A   1      32.827  27.146  22.563  1.00  0.00     0.054 A 
ATOM     11  C   UNL A   1      33.653  24.930  23.050  1.00  0.00     0.131 A 
ATOM     12  C   UNL A   1      33.088  27.541  23.878  1.00  0.00     0.130 A 
ATOM     13  C   UNL A   1      33.919  25.311  24.367  1.00  0.00     0.021 A 
ATOM     14  O   UNL A   1      33.943  23.676  22.595  1.00  0.00    -0.475 OA
ATOM     15  C   UNL A   1      33.636  26.617  24.774  1.00  0.00     0.058 A 
ATOM     16  C   UNL A   1      34.511  24.345  25.287  1.00  0.00     0.025 C 
ATOM     17  C   UNL A   1      34.011  22.625  23.593  1.00  0.00     0.314 C 
BRANCH  12  18
ATOM     18  O   UNL A   1      32.857  28.777  24.409  1.00  0.00    -0.406 OA
BRANCH  18  19
ATOM     19  C   UNL A   1      31.509  29.171  24.600  1.00  0.00     0.573 C 
ATOM     20  F   UNL A   1      30.748  28.137  25.017  1.00  0.00    -0.132 F 
ATOM     21  F   UNL A   1      31.419  30.186  25.486  1.00  0.00    -0.132 F 
ATOM     22  F   UNL A   1      31.014  29.606  23.419  1.00  0.00    -0.132 F 
ENDBRANCH  18  19
ENDBRANCH  12  18
BRANCH  17  23
ATOM     23  C   UNL A   1      32.632  21.950  23.708  1.00  0.00     0.429 C 
ATOM     24  F   UNL A   1      32.759  20.677  24.160  1.00  0.00    -0.167 F 
ATOM     25  F   UNL A   1      31.809  22.584  24.577  1.00  0.00    -0.167 F 
ATOM     26  F   UNL A   1      31.977  21.894  22.526  1.00  0.00    -0.167 F 
ENDBRANCH  17  23
ENDBRANCH   4   7
ENDBRANCH   2   3
ENDBRANCH   1   2
BRANCH   1  27
ATOM     27  C   UNL A   1      39.327  23.675  26.954  1.00  0.00     0.118 C 
BRANCH  27  28
ATOM     28  N   UNL A   1      40.536  24.066  26.231  1.00  0.00    -0.352 N 
ATOM     29  C   UNL A   1      41.221  25.253  26.265  1.00  0.00     0.251 C 
ATOM     30  H   UNL A   1      40.911  23.379  25.634  1.00  0.00     0.163 HD
ATOM     31  O   UNL A   1      42.020  25.528  25.371  1.00  0.00    -0.269 OA
BRANCH  29  32
ATOM     32  C   UNL A   1      41.001  26.189  27.382  1.00  0.00     0.039 A 
ATOM     33  C   UNL A   1      40.052  25.888  28.361  1.00  0.00     0.014 A 
ATOM     34  C   UNL A   1      41.725  27.383  27.437  1.00  0.00     0.014 A 
ATOM     35  C   UNL A   1      39.868  26.766  29.430  1.00  0.00     0.010 A 
ATOM     36  C   UNL A   1      41.595  28.219  28.537  1.00  0.00     0.010 A 
ATOM     37  C   UNL A   1      40.652  27.925  29.532  1.00  0.00    -0.014 A 
BRANCH  37  38
ATOM     38  C   UNL A   1      40.470  28.887  30.641  1.00  0.00     0.031 A 
ATOM     39  C   UNL A   1      41.331  28.770  31.867  1.00  0.00     0.074 A 
ATOM     40  C   UNL A   1      39.502  29.819  30.570  1.00  0.00     0.049 A 
ATOM     41  N   UNL A   1      41.282  29.461  32.974  1.00  0.00    -0.248 NA
ATOM     42  C   UNL A   1      42.366  27.723  31.852  1.00  0.00     0.031 C 
ATOM     43  C   UNL A   1      38.588  30.005  29.442  1.00  0.00     0.029 A 
ATOM     44  N   UNL A   1      39.123  30.779  31.471  1.00  0.00    -0.354 N 
ATOM     45  C   UNL A   1      42.275  28.932  33.787  1.00  0.00     0.074 A 
ATOM     46  C   UNL A   1      42.869  27.824  33.073  1.00  0.00     0.031 C 
ATOM     47  C   UNL A   1      37.771  31.036  29.709  1.00  0.00     0.029 A 
ATOM     48  C   UNL A   1      38.082  31.561  31.035  1.00  0.00     0.049 A 
ATOM     49  H   UNL A   1      39.557  30.898  32.347  1.00  0.00     0.167 HD
ATOM     50  C   UNL A   1      42.680  29.351  35.009  1.00  0.00     0.031 A 
ATOM     51  C   UNL A   1      37.448  32.587  31.636  1.00  0.00     0.031 A 
ATOM     52  C   UNL A   1      42.091  30.455  35.712  1.00  0.00     0.049 A 
ATOM     53  C   UNL A   1      37.893  33.025  33.001  1.00  0.00     0.074 A 
ATOM     54  C   UNL A   1      42.439  30.973  36.947  1.00  0.00     0.029 A 
ATOM     55  N   UNL A   1      41.034  31.216  35.238  1.00  0.00    -0.354 N 
ATOM     56  N   UNL A   1      38.846  32.523  33.751  1.00  0.00    -0.248 NA
ATOM     57  C   UNL A   1      37.187  34.165  33.601  1.00  0.00     0.031 C 
ATOM     58  C   UNL A   1      41.570  32.030  37.233  1.00  0.00     0.029 A 
ATOM     59  C   UNL A   1      40.708  32.196  36.158  1.00  0.00     0.049 A 
ATOM     60  H   UNL A   1      40.581  31.080  34.375  1.00  0.00     0.167 HD
ATOM     61  C   UNL A   1      38.864  33.294  34.907  1.00  0.00     0.074 A 
ATOM     62  C   UNL A   1      37.829  34.299  34.755  1.00  0.00     0.031 C 
ATOM     63  C   UNL A   1      39.667  33.180  35.991  1.00  0.00     0.031 A 
BRANCH  50  64
ATOM     64  C   UNL A   1      43.824  28.610  35.641  1.00  0.00    -0.014 A 
ATOM     65  C   UNL A   1      43.584  27.507  36.482  1.00  0.00     0.010 A 
ATOM     66  C   UNL A   1      45.148  29.010  35.395  1.00  0.00     0.010 A 
ATOM     67  C   UNL A   1      44.646  26.846  37.101  1.00  0.00     0.020 A 
ATOM     68  C   UNL A   1      46.216  28.335  35.993  1.00  0.00     0.020 A 
ATOM     69  C   UNL A   1      45.956  27.266  36.854  1.00  0.00     0.054 A 
BRANCH  69  70
ATOM     70  S   UNL A   1      47.311  26.392  37.684  1.00  0.00     0.124 S 
ATOM     71  O   UNL A   1      48.487  27.009  37.076  1.00  0.00    -0.237 OA
ATOM     72  O   UNL A   1      47.084  26.721  39.089  1.00  0.00    -0.237 OA
ATOM     73  O   UNL A   1      47.093  24.992  37.328  1.00  0.00    -0.744 OA
ENDBRANCH  69  70
ENDBRANCH  50  64
BRANCH  51  74
ATOM     74  C   UNL A   1      36.354  33.278  30.906  1.00  0.00    -0.014 A 
ATOM     75  C   UNL A   1      35.067  33.345  31.465  1.00  0.00     0.010 A 
ATOM     76  C   UNL A   1      36.624  33.971  29.712  1.00  0.00     0.010 A 
ATOM     77  C   UNL A   1      34.075  34.120  30.860  1.00  0.00     0.020 A 
ATOM     78  C   UNL A   1      35.636  34.760  29.112  1.00  0.00     0.020 A 
ATOM     79  C   UNL A   1      34.372  34.838  29.699  1.00  0.00     0.054 A 
BRANCH  79  80
ATOM     80  S   UNL A   1      33.098  35.929  29.004  1.00  0.00     0.124 S 
ATOM     81  O   UNL A   1      33.893  36.889  28.246  1.00  0.00    -0.237 OA
ATOM     82  O   UNL A   1      32.300  34.999  28.209  1.00  0.00    -0.237 OA
ATOM     83  O   UNL A   1      32.425  36.467  30.184  1.00  0.00    -0.744 OA
ENDBRANCH  79  80
ENDBRANCH  51  74
BRANCH  63  84
ATOM     84  C   UNL A   1      39.479  34.164  37.112  1.00  0.00    -0.014 A 
ATOM     85  C   UNL A   1      38.832  33.782  38.299  1.00  0.00     0.010 A 
ATOM     86  C   UNL A   1      40.069  35.438  37.024  1.00  0.00     0.010 A 
ATOM     87  C   UNL A   1      38.784  34.658  39.385  1.00  0.00     0.020 A 
ATOM     88  C   UNL A   1      40.037  36.310  38.113  1.00  0.00     0.020 A 
ATOM     89  C   UNL A   1      39.397  35.912  39.289  1.00  0.00     0.054 A 
BRANCH  89  90
ATOM     90  S   UNL A   1      39.381  36.995  40.744  1.00  0.00     0.124 S 
ATOM     91  O   UNL A   1      38.688  38.177  40.241  1.00  0.00    -0.237 OA
ATOM     92  O   UNL A   1      38.640  36.199  41.719  1.00  0.00    -0.237 OA
ATOM     93  O   UNL A   1      40.797  37.189  41.050  1.00  0.00    -0.744 OA
ENDBRANCH  89  90
ENDBRANCH  63  84
ENDBRANCH  37  38
ENDBRANCH  29  32
ENDBRANCH  27  28
ENDBRANCH   1  27
TORSDOF 16
ENDMDL
MODEL 3
REMARK VINA RESULT:     -11.3      3.557      4.339
REMARK SMILES Cc1cc(OC(F)(F)F)cc2c1O[C@H](C(F)(F)F)C(C(=O)NCCCNC(=O)c1ccc(-c3c4nc(c(-c5ccc(S(=O)(=O)[O-])cc5)c5ccc([nH]5)c(-c5ccc(S(=O)(=O)[O-])cc5)c5nc(c(-c6ccc(S(=O)(=O)[O-])cc6)c6ccc3[nH]6)C=C5)C=C4)cc1)=C2
REMARK SMILES IDX 24 1 23 2 22 3 20 4 21 5 19 7 1 8 2 9 3 10 12 11 4 12 11 13
REMARK SMILES IDX 13 14 10 15 89 16 14 17 5 18 6 19 7 20 8 21 9 22 15 23 16 24
REMARK SMILES IDX 17 25 18 26 25 27 26 28 27 29 28 31 29 32 30 33 88 34 31 35
REMARK SMILES IDX 87 36 32 37 33 38 34 39 81 40 35 41 86 42 80 43 82 44 36 45
REMARK SMILES IDX 85 46 79 47 78 48 37 50 67 51 48 52 66 53 49 54 52 55 65 56
REMARK SMILES IDX 83 57 50 58 51 59 64 61 84 62 53 63 38 64 39 65 47 66 40 67
REMARK SMILES IDX 46 68 41 69 42 70 43 71 44 72 45 73 68 74 69 75 77 76 70 77
REMARK SMILES IDX 76 78 71 79 72 80 73 81 74 82 75 83 54 84 55 85 63 86 56 87
REMARK SMILES IDX 62 88 57 89 58 90 59 91 60 92 61 93
REMARK H PARENT 22 6 26 30 82 49 52 60
REMARK Flexibility Score: inf
ROOT
ATOM      1  C   UNL A   1      34.438  30.702  27.780  1.00  0.00     0.042 C 
ENDROOT
BRANCH   1   2
ATOM      2  C   UNL A   1      34.558  29.330  27.131  1.00  0.00     0.118 C 
BRANCH   2   3
ATOM      3  N   UNL A   1      34.069  29.331  25.761  1.00  0.00    -0.352 N 
ATOM      4  C   UNL A   1      33.371  28.498  24.954  1.00  0.00     0.251 C 
ATOM      5  O   UNL A   1      33.169  28.921  23.811  1.00  0.00    -0.270 OA
ATOM      6  H   UNL A   1      34.312  30.163  25.292  1.00  0.00     0.163 HD
BRANCH   4   7
ATOM      7  C   UNL A   1      32.843  27.161  25.351  1.00  0.00     0.067 C 
ATOM      8  C   UNL A   1      30.101  23.146  27.044  1.00  0.00     0.048 C 
ATOM      9  C   UNL A   1      31.532  23.387  26.653  1.00  0.00    -0.005 A 
ATOM     10  C   UNL A   1      32.423  22.303  26.604  1.00  0.00     0.054 A 
ATOM     11  C   UNL A   1      31.987  24.654  26.271  1.00  0.00     0.131 A 
ATOM     12  C   UNL A   1      33.753  22.487  26.216  1.00  0.00     0.130 A 
ATOM     13  C   UNL A   1      33.313  24.853  25.880  1.00  0.00     0.021 A 
ATOM     14  O   UNL A   1      31.099  25.689  26.343  1.00  0.00    -0.475 OA
ATOM     15  C   UNL A   1      34.191  23.766  25.856  1.00  0.00     0.058 A 
ATOM     16  C   UNL A   1      33.764  26.195  25.528  1.00  0.00     0.025 C 
ATOM     17  C   UNL A   1      31.386  26.846  25.516  1.00  0.00     0.314 C 
BRANCH  12  18
ATOM     18  O   UNL A   1      34.712  21.518  26.141  1.00  0.00    -0.406 OA
BRANCH  18  19
ATOM     19  C   UNL A   1      34.634  20.594  25.070  1.00  0.00     0.573 C 
ATOM     20  F   UNL A   1      33.856  19.537  25.387  1.00  0.00    -0.132 F 
ATOM     21  F   UNL A   1      34.161  21.185  23.951  1.00  0.00    -0.132 F 
ATOM     22  F   UNL A   1      35.877  20.134  24.803  1.00  0.00    -0.132 F 
ENDBRANCH  18  19
ENDBRANCH  12  18
BRANCH  17  23
ATOM     23  C   UNL A   1      30.655  26.695  24.168  1.00  0.00     0.429 C 
ATOM     24  F   UNL A   1      29.590  25.863  24.293  1.00  0.00    -0.167 F 
ATOM     25  F   UNL A   1      30.169  27.871  23.702  1.00  0.00    -0.167 F 
ATOM     26  F   UNL A   1      31.449  26.191  23.197  1.00  0.00    -0.167 F 
ENDBRANCH  17  23
ENDBRANCH   4   7
ENDBRANCH   2   3
ENDBRANCH   1   2
BRANCH   1  27
ATOM     27  C   UNL A   1      35.744  31.138  28.434  1.00  0.00     0.118 C 
BRANCH  27  28
ATOM     28  N   UNL A   1      35.705  30.938  29.881  1.00  0.00    -0.352 N 
ATOM     29  C   UNL A   1      36.534  30.191  30.677  1.00  0.00     0.251 C 
ATOM     30  H   UNL A   1      34.978  31.407  30.352  1.00  0.00     0.163 HD
ATOM     31  O   UNL A   1      36.178  29.875  31.811  1.00  0.00    -0.269 OA
BRANCH  29  32
ATOM     32  C   UNL A   1      37.854  29.777  30.167  1.00  0.00     0.039 A 
ATOM     33  C   UNL A   1      38.108  29.814  28.794  1.00  0.00     0.014 A 
ATOM     34  C   UNL A   1      38.830  29.326  31.060  1.00  0.00     0.014 A 
ATOM     35  C   UNL A   1      39.368  29.445  28.321  1.00  0.00     0.010 A 
ATOM     36  C   UNL A   1      40.104  29.032  30.596  1.00  0.00     0.010 A 
ATOM     37  C   UNL A   1      40.378  29.072  29.222  1.00  0.00    -0.014 A 
BRANCH  37  38
ATOM     38  C   UNL A   1      41.718  28.659  28.754  1.00  0.00     0.031 A 
ATOM     39  C   UNL A   1      42.824  29.673  28.694  1.00  0.00     0.074 A 
ATOM     40  C   UNL A   1      41.923  27.397  28.331  1.00  0.00     0.049 A 
ATOM     41  N   UNL A   1      44.043  29.535  28.246  1.00  0.00    -0.248 NA
ATOM     42  C   UNL A   1      42.507  31.027  29.181  1.00  0.00     0.031 C 
ATOM     43  C   UNL A   1      40.914  26.336  28.316  1.00  0.00     0.029 A 
ATOM     44  N   UNL A   1      43.048  26.798  27.827  1.00  0.00    -0.354 N 
ATOM     45  C   UNL A   1      44.638  30.781  28.395  1.00  0.00     0.074 A 
ATOM     46  C   UNL A   1      43.630  31.678  28.915  1.00  0.00     0.031 C 
ATOM     47  C   UNL A   1      41.475  25.209  27.851  1.00  0.00     0.029 A 
ATOM     48  C   UNL A   1      42.869  25.475  27.508  1.00  0.00     0.049 A 
ATOM     49  H   UNL A   1      43.903  27.272  27.707  1.00  0.00     0.167 HD
ATOM     50  C   UNL A   1      45.919  31.141  28.150  1.00  0.00     0.031 A 
ATOM     51  C   UNL A   1      43.732  24.576  26.996  1.00  0.00     0.031 A 
ATOM     52  C   UNL A   1      46.918  30.246  27.639  1.00  0.00     0.049 A 
ATOM     53  C   UNL A   1      45.143  24.996  26.707  1.00  0.00     0.074 A 
ATOM     54  C   UNL A   1      48.251  30.505  27.374  1.00  0.00     0.029 A 
ATOM     55  N   UNL A   1      46.694  28.914  27.322  1.00  0.00    -0.354 N 
ATOM     56  N   UNL A   1      45.695  26.176  26.868  1.00  0.00    -0.248 NA
ATOM     57  C   UNL A   1      46.051  23.970  26.175  1.00  0.00     0.031 C 
ATOM     58  C   UNL A   1      48.825  29.335  26.866  1.00  0.00     0.029 A 
ATOM     59  C   UNL A   1      47.861  28.338  26.855  1.00  0.00     0.049 A 
ATOM     60  H   UNL A   1      45.832  28.449  27.416  1.00  0.00     0.167 HD
ATOM     61  C   UNL A   1      47.018  26.033  26.470  1.00  0.00     0.074 A 
ATOM     62  C   UNL A   1      47.186  24.651  26.064  1.00  0.00     0.031 C 
ATOM     63  C   UNL A   1      48.003  26.962  26.446  1.00  0.00     0.031 A 
BRANCH  50  64
ATOM     64  C   UNL A   1      46.299  32.563  28.452  1.00  0.00    -0.014 A 
ATOM     65  C   UNL A   1      46.790  32.917  29.723  1.00  0.00     0.010 A 
ATOM     66  C   UNL A   1      46.171  33.554  27.465  1.00  0.00     0.010 A 
ATOM     67  C   UNL A   1      47.103  34.245  30.015  1.00  0.00     0.020 A 
ATOM     68  C   UNL A   1      46.508  34.882  27.745  1.00  0.00     0.020 A 
ATOM     69  C   UNL A   1      46.958  35.220  29.023  1.00  0.00     0.054 A 
BRANCH  69  70
ATOM     70  S   UNL A   1      47.363  36.938  29.440  1.00  0.00     0.124 S 
ATOM     71  O   UNL A   1      47.317  36.914  30.901  1.00  0.00    -0.237 OA
ATOM     72  O   UNL A   1      48.691  37.099  28.856  1.00  0.00    -0.237 OA
ATOM     73  O   UNL A   1      46.302  37.711  28.801  1.00  0.00    -0.744 OA
ENDBRANCH  69  70
ENDBRANCH  50  64
BRANCH  51  74
ATOM     74  C   UNL A   1      43.264  23.183  26.773  1.00  0.00    -0.014 A 
ATOM     75  C   UNL A   1      43.319  22.620  25.487  1.00  0.00     0.010 A 
ATOM     76  C   UNL A   1      42.878  22.380  27.861  1.00  0.00     0.010 A 
ATOM     77  C   UNL A   1      43.026  21.267  25.297  1.00  0.00     0.020 A 
ATOM     78  C   UNL A   1      42.598  21.022  27.676  1.00  0.00     0.020 A 
ATOM     79  C   UNL A   1      42.687  20.473  26.396  1.00  0.00     0.054 A 
BRANCH  79  80
ATOM     80  S   UNL A   1      42.429  18.695  26.134  1.00  0.00     0.124 S 
ATOM     81  O   UNL A   1      41.020  18.640  25.756  1.00  0.00    -0.237 OA
ATOM     82  O   UNL A   1      43.383  18.402  25.067  1.00  0.00    -0.237 OA
ATOM     83  O   UNL A   1      42.752  18.105  27.430  1.00  0.00    -0.744 OA
ENDBRANCH  79  80
ENDBRANCH  51  74
BRANCH  63  84
ATOM     84  C   UNL A   1      49.363  26.533  25.973  1.00  0.00    -0.014 A 
ATOM     85  C   UNL A   1      49.821  26.886  24.693  1.00  0.00     0.010 A 
ATOM     86  C   UNL A   1      50.236  25.885  26.866  1.00  0.00     0.010 A 
ATOM     87  C   UNL A   1      51.134  26.602  24.314  1.00  0.00     0.020 A 
ATOM     88  C   UNL A   1      51.555  25.615  26.496  1.00  0.00     0.020 A 
ATOM     89  C   UNL A   1      51.996  25.980  25.222  1.00  0.00     0.054 A 
BRANCH  89  90
ATOM     90  S   UNL A   1      53.717  25.695  24.725  1.00  0.00     0.124 S 
ATOM     91  O   UNL A   1      53.899  24.282  25.042  1.00  0.00    -0.237 OA
ATOM     92  O   UNL A   1      53.690  26.022  23.301  1.00  0.00    -0.237 OA
ATOM     93  O   UNL A   1      54.480  26.622  25.559  1.00  0.00    -0.744 OA
ENDBRANCH  89  90
ENDBRANCH  63  84
ENDBRANCH  37  38
ENDBRANCH  29  32
ENDBRANCH  27  28
ENDBRANCH   1  27
TORSDOF 16
ENDMDL
