MODEL 1
REMARK VINA RESULT:      -9.8      0.000      0.000
REMARK SMILES CC(C)N(CC1CC1)C(=O)N1CC[C@H](C(=O)NCCCNC(=O)c2ccc(-c3c4nc(c(-c5ccc(S(=O)(=O)[O-])cc5)c5ccc([nH]5)c(-c5ccc(S(=O)(=O)[O-])cc5)c5nc(c(-c6ccc(S(=O)(=O)[O-])cc6)c6ccc3[nH]6)C=C5)C=C4)cc2)[C@H]1C
REMARK SMILES IDX 18 1 17 2 15 3 16 4 14 6 11 7 12 8 84 9 13 10 85 11 9 12
REMARK SMILES IDX 10 13 4 14 2 15 1 16 3 17 5 18 6 19 7 20 8 21 19 22 20 23
REMARK SMILES IDX 21 24 22 25 23 27 24 28 25 29 83 30 26 31 82 32 27 33 28 34
REMARK SMILES IDX 29 35 76 36 30 37 81 38 75 39 77 40 31 41 80 42 74 43 73 44
REMARK SMILES IDX 32 46 62 47 43 48 61 49 44 50 47 51 60 52 78 53 45 54 46 55
REMARK SMILES IDX 59 57 79 58 48 59 33 60 34 61 42 62 35 63 41 64 36 65 37 66
REMARK SMILES IDX 38 67 39 68 40 69 63 70 64 71 72 72 65 73 71 74 66 75 67 76
REMARK SMILES IDX 68 77 69 78 70 79 49 80 50 81 58 82 51 83 57 84 52 85 53 86
REMARK SMILES IDX 54 87 55 88 56 89
REMARK H PARENT 17 5 21 26 77 45 47 56
REMARK Flexibility Score: inf
ROOT
ATOM      1  C   UNL A   1      31.790  28.610  24.940  1.00  0.00     0.117 C 
ENDROOT
BRANCH   1   2
ATOM      2  N   UNL A   1      32.767  28.396  23.886  1.00  0.00    -0.356 N 
ATOM      3  C   UNL A   1      32.984  27.254  23.165  1.00  0.00     0.225 C 
ATOM      4  O   UNL A   1      33.875  27.241  22.322  1.00  0.00    -0.275 OA
ATOM      5  H   UNL A   1      33.341  29.165  23.665  1.00  0.00     0.163 HD
BRANCH   3   6
ATOM      6  C   UNL A   1      32.112  26.059  23.503  1.00  0.00     0.102 C 
ATOM      7  N   UNL A   1      33.468  24.111  23.663  1.00  0.00    -0.321 N 
ATOM      8  C   UNL A   1      33.027  24.245  22.276  1.00  0.00     0.122 C 
ATOM      9  C   UNL A   1      32.744  25.075  24.499  1.00  0.00     0.096 C 
ATOM     10  C   UNL A   1      31.832  25.177  22.291  1.00  0.00     0.037 C 
ATOM     11  C   UNL A   1      31.561  24.485  25.297  1.00  0.00     0.032 C 
BRANCH   7  12
ATOM     12  C   UNL A   1      34.724  23.560  23.836  1.00  0.00     0.320 C 
ATOM     13  O   UNL A   1      35.489  23.557  22.862  1.00  0.00    -0.248 OA
BRANCH  12  14
ATOM     14  N   UNL A   1      35.113  22.944  25.016  1.00  0.00    -0.322 N 
BRANCH  14  15
ATOM     15  C   UNL A   1      34.233  21.861  25.536  1.00  0.00     0.080 C 
ATOM     16  C   UNL A   1      34.628  20.462  25.025  1.00  0.00     0.031 C 
ATOM     17  C   UNL A   1      34.072  21.882  27.055  1.00  0.00     0.031 C 
ENDBRANCH  14  15
BRANCH  14  18
ATOM     18  C   UNL A   1      36.143  23.389  25.952  1.00  0.00     0.125 C 
BRANCH  18  19
ATOM     19  C   UNL A   1      37.558  23.208  25.472  1.00  0.00     0.009 C 
ATOM     20  C   UNL A   1      38.796  22.879  26.296  1.00  0.00     0.006 C 
ATOM     21  C   UNL A   1      38.123  21.800  25.519  1.00  0.00     0.006 C 
ENDBRANCH  18  19
ENDBRANCH  14  18
ENDBRANCH  12  14
ENDBRANCH   7  12
ENDBRANCH   3   6
ENDBRANCH   1   2
BRANCH   1  22
ATOM     22  C   UNL A   1      32.279  28.128  26.292  1.00  0.00     0.042 C 
BRANCH  22  23
ATOM     23  C   UNL A   1      33.667  28.634  26.647  1.00  0.00     0.118 C 
BRANCH  23  24
ATOM     24  N   UNL A   1      33.660  30.024  27.084  1.00  0.00    -0.352 N 
ATOM     25  C   UNL A   1      34.545  30.719  27.865  1.00  0.00     0.251 C 
ATOM     26  H   UNL A   1      32.891  30.550  26.766  1.00  0.00     0.163 HD
ATOM     27  O   UNL A   1      34.220  31.827  28.299  1.00  0.00    -0.269 OA
BRANCH  25  28
ATOM     28  C   UNL A   1      35.863  30.149  28.204  1.00  0.00     0.039 A 
ATOM     29  C   UNL A   1      36.883  30.193  27.253  1.00  0.00     0.014 A 
ATOM     30  C   UNL A   1      36.098  29.557  29.449  1.00  0.00     0.014 A 
ATOM     31  C   UNL A   1      38.152  29.710  27.577  1.00  0.00     0.010 A 
ATOM     32  C   UNL A   1      37.386  29.181  29.808  1.00  0.00     0.010 A 
ATOM     33  C   UNL A   1      38.427  29.244  28.874  1.00  0.00    -0.014 A 
BRANCH  33  34
ATOM     34  C   UNL A   1      39.802  28.843  29.263  1.00  0.00     0.031 A 
ATOM     35  C   UNL A   1      40.693  29.786  30.027  1.00  0.00     0.074 A 
ATOM     36  C   UNL A   1      40.264  27.633  28.886  1.00  0.00     0.049 A 
ATOM     37  N   UNL A   1      41.911  29.594  30.464  1.00  0.00    -0.248 NA
ATOM     38  C   UNL A   1      40.161  31.129  30.314  1.00  0.00     0.031 C 
ATOM     39  C   UNL A   1      39.521  26.655  28.087  1.00  0.00     0.029 A 
ATOM     40  N   UNL A   1      41.465  27.016  29.129  1.00  0.00    -0.354 N 
ATOM     41  C   UNL A   1      42.292  30.787  31.066  1.00  0.00     0.074 A 
ATOM     42  C   UNL A   1      41.200  31.718  30.886  1.00  0.00     0.031 C 
ATOM     43  C   UNL A   1      40.262  25.545  27.948  1.00  0.00     0.029 A 
ATOM     44  C   UNL A   1      41.548  25.747  28.607  1.00  0.00     0.049 A 
ATOM     45  H   UNL A   1      42.198  27.442  29.630  1.00  0.00     0.167 HD
ATOM     46  C   UNL A   1      43.437  31.076  31.729  1.00  0.00     0.031 A 
ATOM     47  C   UNL A   1      42.545  24.843  28.649  1.00  0.00     0.031 A 
ATOM     48  C   UNL A   1      44.519  30.144  31.907  1.00  0.00     0.049 A 
ATOM     49  C   UNL A   1      43.807  25.186  29.392  1.00  0.00     0.074 A 
ATOM     50  C   UNL A   1      45.693  30.316  32.619  1.00  0.00     0.029 A 
ATOM     51  N   UNL A   1      44.566  28.869  31.363  1.00  0.00    -0.354 N 
ATOM     52  N   UNL A   1      44.110  26.289  30.033  1.00  0.00    -0.248 NA
ATOM     53  C   UNL A   1      44.853  24.156  29.428  1.00  0.00     0.031 C 
ATOM     54  C   UNL A   1      46.479  29.170  32.449  1.00  0.00     0.029 A 
ATOM     55  C   UNL A   1      45.764  28.256  31.691  1.00  0.00     0.049 A 
ATOM     56  H   UNL A   1      43.853  28.460  30.821  1.00  0.00     0.167 HD
ATOM     57  C   UNL A   1      45.377  26.079  30.567  1.00  0.00     0.074 A 
ATOM     58  C   UNL A   1      45.768  24.734  30.194  1.00  0.00     0.031 C 
ATOM     59  C   UNL A   1      46.148  26.923  31.297  1.00  0.00     0.031 A 
BRANCH  46  60
ATOM     60  C   UNL A   1      43.582  32.464  32.303  1.00  0.00    -0.014 A 
ATOM     61  C   UNL A   1      43.181  32.755  33.620  1.00  0.00     0.010 A 
ATOM     62  C   UNL A   1      44.165  33.482  31.528  1.00  0.00     0.010 A 
ATOM     63  C   UNL A   1      43.319  34.047  34.134  1.00  0.00     0.020 A 
ATOM     64  C   UNL A   1      44.336  34.768  32.049  1.00  0.00     0.020 A 
ATOM     65  C   UNL A   1      43.896  35.046  33.344  1.00  0.00     0.054 A 
BRANCH  65  66
ATOM     66  S   UNL A   1      44.083  36.708  34.047  1.00  0.00     0.124 S 
ATOM     67  O   UNL A   1      42.785  37.310  33.748  1.00  0.00    -0.237 OA
ATOM     68  O   UNL A   1      44.337  36.432  35.458  1.00  0.00    -0.237 OA
ATOM     69  O   UNL A   1      45.214  37.271  33.311  1.00  0.00    -0.744 OA
ENDBRANCH  65  66
ENDBRANCH  46  60
BRANCH  47  70
ATOM     70  C   UNL A   1      42.378  23.524  27.981  1.00  0.00    -0.014 A 
ATOM     71  C   UNL A   1      42.707  23.358  26.625  1.00  0.00     0.010 A 
ATOM     72  C   UNL A   1      41.912  22.414  28.711  1.00  0.00     0.010 A 
ATOM     73  C   UNL A   1      42.560  22.112  26.006  1.00  0.00     0.020 A 
ATOM     74  C   UNL A   1      41.795  21.160  28.106  1.00  0.00     0.020 A 
ATOM     75  C   UNL A   1      42.111  21.019  26.754  1.00  0.00     0.054 A 
BRANCH  75  76
ATOM     76  S   UNL A   1      41.990  19.398  25.948  1.00  0.00     0.124 S 
ATOM     77  O   UNL A   1      40.570  19.331  25.613  1.00  0.00    -0.237 OA
ATOM     78  O   UNL A   1      42.903  19.541  24.816  1.00  0.00    -0.237 OA
ATOM     79  O   UNL A   1      42.434  18.468  26.984  1.00  0.00    -0.744 OA
ENDBRANCH  75  76
ENDBRANCH  47  70
BRANCH  59  80
ATOM     80  C   UNL A   1      47.488  26.409  31.755  1.00  0.00    -0.014 A 
ATOM     81  C   UNL A   1      47.642  25.791  33.008  1.00  0.00     0.010 A 
ATOM     82  C   UNL A   1      48.602  26.514  30.902  1.00  0.00     0.010 A 
ATOM     83  C   UNL A   1      48.897  25.333  33.421  1.00  0.00     0.020 A 
ATOM     84  C   UNL A   1      49.850  26.026  31.295  1.00  0.00     0.020 A 
ATOM     85  C   UNL A   1      49.993  25.455  32.561  1.00  0.00     0.054 A 
BRANCH  85  86
ATOM     86  S   UNL A   1      51.604  24.831  33.111  1.00  0.00     0.124 S 
ATOM     87  O   UNL A   1      51.831  23.721  32.188  1.00  0.00    -0.237 OA
ATOM     88  O   UNL A   1      52.476  25.989  32.926  1.00  0.00    -0.237 OA
ATOM     89  O   UNL A   1      51.373  24.448  34.502  1.00  0.00    -0.744 OA
ENDBRANCH  85  86
ENDBRANCH  59  80
ENDBRANCH  33  34
ENDBRANCH  25  28
ENDBRANCH  23  24
ENDBRANCH  22  23
ENDBRANCH   1  22
TORSDOF 18
ENDMDL
MODEL 2
REMARK VINA RESULT:      -9.7      3.781      9.583
REMARK SMILES CC(C)N(CC1CC1)C(=O)N1CC[C@H](C(=O)NCCCNC(=O)c2ccc(-c3c4nc(c(-c5ccc(S(=O)(=O)[O-])cc5)c5ccc([nH]5)c(-c5ccc(S(=O)(=O)[O-])cc5)c5nc(c(-c6ccc(S(=O)(=O)[O-])cc6)c6ccc3[nH]6)C=C5)C=C4)cc2)[C@H]1C
REMARK SMILES IDX 18 1 17 2 15 3 16 4 14 6 11 7 12 8 84 9 13 10 85 11 9 12
REMARK SMILES IDX 10 13 4 14 2 15 1 16 3 17 5 18 6 19 7 20 8 21 19 22 20 23
REMARK SMILES IDX 21 24 22 25 23 27 24 28 25 29 83 30 26 31 82 32 27 33 28 34
REMARK SMILES IDX 29 35 76 36 30 37 81 38 75 39 77 40 31 41 80 42 74 43 73 44
REMARK SMILES IDX 32 46 62 47 43 48 61 49 44 50 47 51 60 52 78 53 45 54 46 55
REMARK SMILES IDX 59 57 79 58 48 59 33 60 34 61 42 62 35 63 41 64 36 65 37 66
REMARK SMILES IDX 38 67 39 68 40 69 63 70 64 71 72 72 65 73 71 74 66 75 67 76
REMARK SMILES IDX 68 77 69 78 70 79 49 80 50 81 58 82 51 83 57 84 52 85 53 86
REMARK SMILES IDX 54 87 55 88 56 89
REMARK H PARENT 17 5 21 26 77 45 47 56
REMARK Flexibility Score: inf
ROOT
ATOM      1  C   UNL A   1      36.660  21.747  25.115  1.00  0.00     0.117 C 
ENDROOT
BRANCH   1   2
ATOM      2  N   UNL A   1      35.682  21.273  26.080  1.00  0.00    -0.356 N 
ATOM      3  C   UNL A   1      34.318  21.311  25.979  1.00  0.00     0.225 C 
ATOM      4  O   UNL A   1      33.639  20.884  26.907  1.00  0.00    -0.275 OA
ATOM      5  H   UNL A   1      36.045  20.876  26.906  1.00  0.00     0.163 HD
BRANCH   3   6
ATOM      6  C   UNL A   1      33.747  21.928  24.716  1.00  0.00     0.102 C 
ATOM      7  N   UNL A   1      32.150  23.591  25.303  1.00  0.00    -0.321 N 
ATOM      8  C   UNL A   1      31.452  22.313  25.186  1.00  0.00     0.122 C 
ATOM      9  C   UNL A   1      33.520  23.445  24.799  1.00  0.00     0.096 C 
ATOM     10  C   UNL A   1      32.356  21.399  24.384  1.00  0.00     0.037 C 
ATOM     11  C   UNL A   1      33.746  23.972  23.366  1.00  0.00     0.032 C 
BRANCH   7  12
ATOM     12  C   UNL A   1      31.646  24.458  26.254  1.00  0.00     0.320 C 
ATOM     13  O   UNL A   1      31.292  23.977  27.340  1.00  0.00    -0.248 OA
BRANCH  12  14
ATOM     14  N   UNL A   1      31.446  25.808  26.005  1.00  0.00    -0.322 N 
BRANCH  14  15
ATOM     15  C   UNL A   1      32.372  26.764  26.673  1.00  0.00     0.080 C 
ATOM     16  C   UNL A   1      33.528  27.222  25.764  1.00  0.00     0.031 C 
ATOM     17  C   UNL A   1      31.661  27.949  27.322  1.00  0.00     0.031 C 
ENDBRANCH  14  15
BRANCH  14  18
ATOM     18  C   UNL A   1      30.287  26.431  25.371  1.00  0.00     0.125 C 
BRANCH  18  19
ATOM     19  C   UNL A   1      30.541  26.995  23.998  1.00  0.00     0.009 C 
ATOM     20  C   UNL A   1      29.563  27.722  23.084  1.00  0.00     0.006 C 
ATOM     21  C   UNL A   1      30.557  28.507  23.871  1.00  0.00     0.006 C 
ENDBRANCH  18  19
ENDBRANCH  14  18
ENDBRANCH  12  14
ENDBRANCH   7  12
ENDBRANCH   3   6
ENDBRANCH   1   2
BRANCH   1  22
ATOM     22  C   UNL A   1      37.841  20.806  24.976  1.00  0.00     0.042 C 
BRANCH  22  23
ATOM     23  C   UNL A   1      38.937  21.057  25.998  1.00  0.00     0.118 C 
BRANCH  23  24
ATOM     24  N   UNL A   1      39.914  19.977  26.045  1.00  0.00    -0.352 N 
ATOM     25  C   UNL A   1      41.282  20.013  26.122  1.00  0.00     0.251 C 
ATOM     26  H   UNL A   1      39.528  19.073  26.015  1.00  0.00     0.163 HD
ATOM     27  O   UNL A   1      41.921  18.980  25.915  1.00  0.00    -0.269 OA
BRANCH  25  28
ATOM     28  C   UNL A   1      41.988  21.273  26.428  1.00  0.00     0.039 A 
ATOM     29  C   UNL A   1      42.303  22.142  25.383  1.00  0.00     0.014 A 
ATOM     30  C   UNL A   1      42.356  21.597  27.737  1.00  0.00     0.014 A 
ATOM     31  C   UNL A   1      42.919  23.362  25.661  1.00  0.00     0.010 A 
ATOM     32  C   UNL A   1      42.866  22.857  28.025  1.00  0.00     0.010 A 
ATOM     33  C   UNL A   1      43.162  23.752  26.990  1.00  0.00    -0.014 A 
BRANCH  33  34
ATOM     34  C   UNL A   1      43.705  25.098  27.301  1.00  0.00     0.031 A 
ATOM     35  C   UNL A   1      45.153  25.422  27.047  1.00  0.00     0.074 A 
ATOM     36  C   UNL A   1      42.892  26.020  27.856  1.00  0.00     0.049 A 
ATOM     37  N   UNL A   1      45.788  26.549  27.241  1.00  0.00    -0.248 NA
ATOM     38  C   UNL A   1      46.006  24.336  26.537  1.00  0.00     0.031 C 
ATOM     39  C   UNL A   1      41.486  25.806  28.211  1.00  0.00     0.029 A 
ATOM     40  N   UNL A   1      43.127  27.323  28.214  1.00  0.00    -0.354 N 
ATOM     41  C   UNL A   1      47.110  26.307  26.887  1.00  0.00     0.074 A 
ATOM     42  C   UNL A   1      47.200  24.910  26.524  1.00  0.00     0.031 C 
ATOM     43  C   UNL A   1      40.973  26.949  28.689  1.00  0.00     0.029 A 
ATOM     44  C   UNL A   1      42.021  27.965  28.718  1.00  0.00     0.049 A 
ATOM     45  H   UNL A   1      44.006  27.758  28.119  1.00  0.00     0.167 HD
ATOM     46  C   UNL A   1      48.151  27.172  26.845  1.00  0.00     0.031 A 
ATOM     47  C   UNL A   1      41.861  29.228  29.157  1.00  0.00     0.031 A 
ATOM     48  C   UNL A   1      48.054  28.562  27.205  1.00  0.00     0.049 A 
ATOM     49  C   UNL A   1      43.031  30.171  29.100  1.00  0.00     0.074 A 
ATOM     50  C   UNL A   1      49.033  29.538  27.135  1.00  0.00     0.029 A 
ATOM     51  N   UNL A   1      46.917  29.174  27.712  1.00  0.00    -0.354 N 
ATOM     52  N   UNL A   1      44.251  29.945  28.675  1.00  0.00    -0.248 NA
ATOM     53  C   UNL A   1      42.797  31.543  29.568  1.00  0.00     0.031 C 
ATOM     54  C   UNL A   1      48.507  30.723  27.662  1.00  0.00     0.029 A 
ATOM     55  C   UNL A   1      47.179  30.505  27.993  1.00  0.00     0.049 A 
ATOM     56  H   UNL A   1      46.051  28.727  27.852  1.00  0.00     0.167 HD
ATOM     57  C   UNL A   1      44.927  31.152  28.807  1.00  0.00     0.074 A 
ATOM     58  C   UNL A   1      43.971  32.110  29.326  1.00  0.00     0.031 C 
ATOM     59  C   UNL A   1      46.222  31.442  28.527  1.00  0.00     0.031 A 
BRANCH  46  60
ATOM     60  C   UNL A   1      49.490  26.635  26.404  1.00  0.00    -0.014 A 
ATOM     61  C   UNL A   1      49.949  26.812  25.085  1.00  0.00     0.010 A 
ATOM     62  C   UNL A   1      50.319  25.979  27.331  1.00  0.00     0.010 A 
ATOM     63  C   UNL A   1      51.191  26.304  24.692  1.00  0.00     0.020 A 
ATOM     64  C   UNL A   1      51.576  25.499  26.952  1.00  0.00     0.020 A 
ATOM     65  C   UNL A   1      51.996  25.650  25.629  1.00  0.00     0.054 A 
BRANCH  65  66
ATOM     66  S   UNL A   1      53.613  25.023  25.096  1.00  0.00     0.124 S 
ATOM     67  O   UNL A   1      54.521  25.724  26.000  1.00  0.00    -0.237 OA
ATOM     68  O   UNL A   1      53.488  23.585  25.321  1.00  0.00    -0.237 OA
ATOM     69  O   UNL A   1      53.696  25.427  23.694  1.00  0.00    -0.744 OA
ENDBRANCH  65  66
ENDBRANCH  46  60
BRANCH  47  70
ATOM     70  C   UNL A   1      40.537  29.672  29.671  1.00  0.00    -0.014 A 
ATOM     71  C   UNL A   1      40.272  29.697  31.051  1.00  0.00     0.010 A 
ATOM     72  C   UNL A   1      39.538  30.100  28.777  1.00  0.00     0.010 A 
ATOM     73  C   UNL A   1      39.031  30.128  31.528  1.00  0.00     0.020 A 
ATOM     74  C   UNL A   1      38.307  30.562  29.250  1.00  0.00     0.020 A 
ATOM     75  C   UNL A   1      38.058  30.564  30.623  1.00  0.00     0.054 A 
BRANCH  75  76
ATOM     76  S   UNL A   1      36.478  31.180  31.267  1.00  0.00     0.124 S 
ATOM     77  O   UNL A   1      36.072  30.100  32.162  1.00  0.00    -0.237 OA
ATOM     78  O   UNL A   1      36.869  32.429  31.918  1.00  0.00    -0.237 OA
ATOM     79  O   UNL A   1      35.660  31.342  30.068  1.00  0.00    -0.744 OA
ENDBRANCH  75  76
ENDBRANCH  47  70
BRANCH  59  80
ATOM     80  C   UNL A   1      46.676  32.859  28.761  1.00  0.00    -0.014 A 
ATOM     81  C   UNL A   1      46.547  33.841  27.763  1.00  0.00     0.010 A 
ATOM     82  C   UNL A   1      47.207  33.222  30.012  1.00  0.00     0.010 A 
ATOM     83  C   UNL A   1      46.987  35.147  27.995  1.00  0.00     0.020 A 
ATOM     84  C   UNL A   1      47.616  34.534  30.261  1.00  0.00     0.020 A 
ATOM     85  C   UNL A   1      47.520  35.485  29.243  1.00  0.00     0.054 A 
BRANCH  85  86
ATOM     86  S   UNL A   1      48.061  37.192  29.526  1.00  0.00     0.124 S 
ATOM     87  O   UNL A   1      46.910  37.958  29.053  1.00  0.00    -0.237 OA
ATOM     88  O   UNL A   1      48.285  37.221  30.969  1.00  0.00    -0.237 OA
ATOM     89  O   UNL A   1      49.268  37.314  28.711  1.00  0.00    -0.744 OA
ENDBRANCH  85  86
ENDBRANCH  59  80
ENDBRANCH  33  34
ENDBRANCH  25  28
ENDBRANCH  23  24
ENDBRANCH  22  23
ENDBRANCH   1  22
TORSDOF 18
ENDMDL
MODEL 3
REMARK VINA RESULT:      -9.2      3.394      9.452
REMARK SMILES CC(C)N(CC1CC1)C(=O)N1CC[C@H](C(=O)NCCCNC(=O)c2ccc(-c3c4nc(c(-c5ccc(S(=O)(=O)[O-])cc5)c5ccc([nH]5)c(-c5ccc(S(=O)(=O)[O-])cc5)c5nc(c(-c6ccc(S(=O)(=O)[O-])cc6)c6ccc3[nH]6)C=C5)C=C4)cc2)[C@H]1C
REMARK SMILES IDX 18 1 17 2 15 3 16 4 14 6 11 7 12 8 84 9 13 10 85 11 9 12
REMARK SMILES IDX 10 13 4 14 2 15 1 16 3 17 5 18 6 19 7 20 8 21 19 22 20 23
REMARK SMILES IDX 21 24 22 25 23 27 24 28 25 29 83 30 26 31 82 32 27 33 28 34
REMARK SMILES IDX 29 35 76 36 30 37 81 38 75 39 77 40 31 41 80 42 74 43 73 44
REMARK SMILES IDX 32 46 62 47 43 48 61 49 44 50 47 51 60 52 78 53 45 54 46 55
REMARK SMILES IDX 59 57 79 58 48 59 33 60 34 61 42 62 35 63 41 64 36 65 37 66
REMARK SMILES IDX 38 67 39 68 40 69 63 70 64 71 72 72 65 73 71 74 66 75 67 76
REMARK SMILES IDX 68 77 69 78 70 79 49 80 50 81 58 82 51 83 57 84 52 85 53 86
REMARK SMILES IDX 54 87 55 88 56 89
REMARK H PARENT 17 5 21 26 77 45 47 56
REMARK Flexibility Score: inf
ROOT
ATOM      1  C   UNL A   1      35.303  22.499  24.120  1.00  0.00     0.117 C 
ENDROOT
BRANCH   1   2
ATOM      2  N   UNL A   1      34.751  23.201  22.974  1.00  0.00    -0.356 N 
ATOM      3  C   UNL A   1      33.790  24.175  22.971  1.00  0.00     0.225 C 
ATOM      4  O   UNL A   1      33.422  24.647  21.900  1.00  0.00    -0.275 OA
ATOM      5  H   UNL A   1      35.113  22.946  22.094  1.00  0.00     0.163 HD
BRANCH   3   6
ATOM      6  C   UNL A   1      33.219  24.572  24.320  1.00  0.00     0.102 C 
ATOM      7  N   UNL A   1      32.350  26.783  24.190  1.00  0.00    -0.321 N 
ATOM      8  C   UNL A   1      33.756  26.869  24.580  1.00  0.00     0.122 C 
ATOM      9  C   UNL A   1      31.916  25.382  24.241  1.00  0.00     0.096 C 
ATOM     10  C   UNL A   1      34.146  25.499  25.098  1.00  0.00     0.037 C 
ATOM     11  C   UNL A   1      31.117  24.994  25.504  1.00  0.00     0.032 C 
BRANCH   7  12
ATOM     12  C   UNL A   1      31.887  27.823  23.407  1.00  0.00     0.320 C 
ATOM     13  O   UNL A   1      32.520  28.092  22.377  1.00  0.00    -0.248 OA
BRANCH  12  14
ATOM     14  N   UNL A   1      30.809  28.614  23.777  1.00  0.00    -0.322 N 
BRANCH  14  15
ATOM     15  C   UNL A   1      29.527  28.391  23.053  1.00  0.00     0.080 C 
ATOM     16  C   UNL A   1      28.705  27.219  23.624  1.00  0.00     0.031 C 
ATOM     17  C   UNL A   1      28.680  29.654  22.907  1.00  0.00     0.031 C 
ENDBRANCH  14  15
BRANCH  14  18
ATOM     18  C   UNL A   1      30.833  29.813  24.610  1.00  0.00     0.125 C 
BRANCH  18  19
ATOM     19  C   UNL A   1      32.007  29.910  25.549  1.00  0.00     0.009 C 
ATOM     20  C   UNL A   1      32.112  30.706  26.843  1.00  0.00     0.006 C 
ATOM     21  C   UNL A   1      31.858  29.238  26.902  1.00  0.00     0.006 C 
ENDBRANCH  18  19
ENDBRANCH  14  18
ENDBRANCH  12  14
ENDBRANCH   7  12
ENDBRANCH   3   6
ENDBRANCH   1   2
BRANCH   1  22
ATOM     22  C   UNL A   1      36.794  22.725  24.277  1.00  0.00     0.042 C 
BRANCH  22  23
ATOM     23  C   UNL A   1      37.247  22.785  25.727  1.00  0.00     0.118 C 
BRANCH  23  24
ATOM     24  N   UNL A   1      38.272  21.796  26.032  1.00  0.00    -0.352 N 
ATOM     25  C   UNL A   1      39.569  21.952  26.443  1.00  0.00     0.251 C 
ATOM     26  H   UNL A   1      37.985  20.860  25.924  1.00  0.00     0.163 HD
ATOM     27  O   UNL A   1      40.327  20.980  26.419  1.00  0.00    -0.269 OA
BRANCH  25  28
ATOM     28  C   UNL A   1      40.066  23.268  26.892  1.00  0.00     0.039 A 
ATOM     29  C   UNL A   1      40.846  23.337  28.048  1.00  0.00     0.014 A 
ATOM     30  C   UNL A   1      39.757  24.436  26.190  1.00  0.00     0.014 A 
ATOM     31  C   UNL A   1      41.371  24.564  28.454  1.00  0.00     0.010 A 
ATOM     32  C   UNL A   1      40.371  25.635  26.530  1.00  0.00     0.010 A 
ATOM     33  C   UNL A   1      41.179  25.716  27.672  1.00  0.00    -0.014 A 
BRANCH  33  34
ATOM     34  C   UNL A   1      41.834  26.999  28.030  1.00  0.00     0.031 A 
ATOM     35  C   UNL A   1      43.304  27.207  27.783  1.00  0.00     0.074 A 
ATOM     36  C   UNL A   1      41.105  27.966  28.623  1.00  0.00     0.049 A 
ATOM     37  N   UNL A   1      44.034  28.268  28.015  1.00  0.00    -0.248 NA
ATOM     38  C   UNL A   1      44.061  26.072  27.228  1.00  0.00     0.031 C 
ATOM     39  C   UNL A   1      39.686  27.859  28.976  1.00  0.00     0.029 A 
ATOM     40  N   UNL A   1      41.451  29.229  29.028  1.00  0.00    -0.354 N 
ATOM     41  C   UNL A   1      45.330  27.926  27.647  1.00  0.00     0.074 A 
ATOM     42  C   UNL A   1      45.299  26.542  27.232  1.00  0.00     0.031 C 
ATOM     43  C   UNL A   1      39.273  29.023  29.498  1.00  0.00     0.029 A 
ATOM     44  C   UNL A   1      40.403  29.944  29.561  1.00  0.00     0.049 A 
ATOM     45  H   UNL A   1      42.363  29.591  28.946  1.00  0.00     0.167 HD
ATOM     46  C   UNL A   1      46.442  28.701  27.633  1.00  0.00     0.031 A 
ATOM     47  C   UNL A   1      40.353  31.198  30.047  1.00  0.00     0.031 A 
ATOM     48  C   UNL A   1      46.464  30.080  28.045  1.00  0.00     0.049 A 
ATOM     49  C   UNL A   1      41.599  32.040  30.020  1.00  0.00     0.074 A 
ATOM     50  C   UNL A   1      47.523  30.971  28.006  1.00  0.00     0.029 A 
ATOM     51  N   UNL A   1      45.384  30.767  28.579  1.00  0.00    -0.354 N 
ATOM     52  N   UNL A   1      42.795  31.726  29.582  1.00  0.00    -0.248 NA
ATOM     53  C   UNL A   1      41.484  33.408  30.540  1.00  0.00     0.031 C 
ATOM     54  C   UNL A   1      47.100  32.176  28.579  1.00  0.00     0.029 A 
ATOM     55  C   UNL A   1      45.759  32.059  28.908  1.00  0.00     0.049 A 
ATOM     56  H   UNL A   1      44.483  30.391  28.706  1.00  0.00     0.167 HD
ATOM     57  C   UNL A   1      43.572  32.865  29.756  1.00  0.00     0.074 A 
ATOM     58  C   UNL A   1      42.701  33.882  30.314  1.00  0.00     0.031 C 
ATOM     59  C   UNL A   1      44.887  33.054  29.481  1.00  0.00     0.031 A 
BRANCH  46  60
ATOM     60  C   UNL A   1      47.729  28.069  27.166  1.00  0.00    -0.014 A 
ATOM     61  C   UNL A   1      48.040  27.972  25.797  1.00  0.00     0.010 A 
ATOM     62  C   UNL A   1      48.660  27.601  28.111  1.00  0.00     0.010 A 
ATOM     63  C   UNL A   1      49.236  27.379  25.382  1.00  0.00     0.020 A 
ATOM     64  C   UNL A   1      49.872  27.038  27.702  1.00  0.00     0.020 A 
ATOM     65  C   UNL A   1      50.145  26.915  26.338  1.00  0.00     0.054 A 
BRANCH  65  66
ATOM     66  S   UNL A   1      51.699  26.172  25.769  1.00  0.00     0.124 S 
ATOM     67  O   UNL A   1      51.622  26.382  24.325  1.00  0.00    -0.237 OA
ATOM     68  O   UNL A   1      52.707  26.966  26.466  1.00  0.00    -0.237 OA
ATOM     69  O   UNL A   1      51.597  24.780  26.202  1.00  0.00    -0.744 OA
ENDBRANCH  65  66
ENDBRANCH  46  60
BRANCH  47  70
ATOM     70  C   UNL A   1      39.072  31.734  30.583  1.00  0.00    -0.014 A 
ATOM     71  C   UNL A   1      38.156  32.385  29.740  1.00  0.00     0.010 A 
ATOM     72  C   UNL A   1      38.750  31.569  31.943  1.00  0.00     0.010 A 
ATOM     73  C   UNL A   1      36.947  32.873  30.247  1.00  0.00     0.020 A 
ATOM     74  C   UNL A   1      37.530  32.028  32.448  1.00  0.00     0.020 A 
ATOM     75  C   UNL A   1      36.640  32.686  31.598  1.00  0.00     0.054 A 
BRANCH  75  76
ATOM     76  S   UNL A   1      35.040  33.270  32.220  1.00  0.00     0.124 S 
ATOM     77  O   UNL A   1      35.192  33.093  33.662  1.00  0.00    -0.237 OA
ATOM     78  O   UNL A   1      35.006  34.654  31.751  1.00  0.00    -0.237 OA
ATOM     79  O   UNL A   1      34.077  32.379  31.578  1.00  0.00    -0.744 OA
ENDBRANCH  75  76
ENDBRANCH  47  70
BRANCH  59  80
ATOM     80  C   UNL A   1      45.460  34.418  29.766  1.00  0.00    -0.014 A 
ATOM     81  C   UNL A   1      46.044  34.718  31.009  1.00  0.00     0.010 A 
ATOM     82  C   UNL A   1      45.444  35.402  28.761  1.00  0.00     0.010 A 
ATOM     83  C   UNL A   1      46.558  35.994  31.258  1.00  0.00     0.020 A 
ATOM     84  C   UNL A   1      45.988  36.668  28.994  1.00  0.00     0.020 A 
ATOM     85  C   UNL A   1      46.525  36.961  30.249  1.00  0.00     0.054 A 
BRANCH  85  86
ATOM     86  S   UNL A   1      47.220  38.600  30.590  1.00  0.00     0.124 S 
ATOM     87  O   UNL A   1      46.115  39.481  30.221  1.00  0.00    -0.237 OA
ATOM     88  O   UNL A   1      47.517  38.531  32.019  1.00  0.00    -0.237 OA
ATOM     89  O   UNL A   1      48.390  38.671  29.719  1.00  0.00    -0.744 OA
ENDBRANCH  85  86
ENDBRANCH  59  80
ENDBRANCH  33  34
ENDBRANCH  25  28
ENDBRANCH  23  24
ENDBRANCH  22  23
ENDBRANCH   1  22
TORSDOF 18
ENDMDL
