MODEL 1
REMARK VINA RESULT:      -9.5      0.000      0.000
REMARK SMILES Cc1cccc(CN(C)c2nc(C)c(C(=O)NCCCNC(=O)c3ccc(-c4c5nc(c(-c6ccc(S(=O)(=O)[O-])cc6)c6ccc([nH]6)c(-c6ccc(S(=O)(=O)[O-])cc6)c6nc(c(-c7ccc(S(=O)(=O)[O-])cc7)c7ccc4[nH]7)C=C6)C=C5)cc3)s2)n1
REMARK SMILES IDX 19 1 18 2 17 3 15 4 16 5 14 7 10 8 11 9 84 10 12 11 13 12
REMARK SMILES IDX 8 13 9 14 7 15 6 16 1 17 2 18 3 19 85 20 4 21 5 22 20 23
REMARK SMILES IDX 21 24 22 25 23 27 24 28 25 29 83 30 26 31 82 32 27 33 28 34
REMARK SMILES IDX 29 35 76 36 30 37 81 38 75 39 77 40 31 41 80 42 74 43 73 44
REMARK SMILES IDX 32 46 62 47 43 48 61 49 44 50 47 51 60 52 78 53 45 54 46 55
REMARK SMILES IDX 59 57 79 58 48 59 33 60 34 61 42 62 35 63 41 64 36 65 37 66
REMARK SMILES IDX 38 67 39 68 40 69 63 70 64 71 72 72 65 73 71 74 66 75 67 76
REMARK SMILES IDX 68 77 69 78 70 79 49 80 50 81 58 82 51 83 57 84 52 85 53 86
REMARK SMILES IDX 54 87 55 88 56 89
REMARK H PARENT 17 6 21 26 77 45 47 56
REMARK Flexibility Score: inf
ROOT
ATOM      1  C   UNL A   1      41.788  20.744  26.622  1.00  0.00     0.042 C 
ENDROOT
BRANCH   1   2
ATOM      2  C   UNL A   1      42.614  21.688  25.752  1.00  0.00     0.118 C 
BRANCH   2   3
ATOM      3  N   UNL A   1      43.959  21.184  25.617  1.00  0.00    -0.351 N 
ATOM      4  C   UNL A   1      45.195  21.752  25.765  1.00  0.00     0.263 C 
ATOM      5  O   UNL A   1      46.116  20.975  25.481  1.00  0.00    -0.268 OA
ATOM      6  H   UNL A   1      43.995  20.232  25.365  1.00  0.00     0.163 HD
BRANCH   4   7
ATOM      7  C   UNL A   1      45.432  23.096  26.273  1.00  0.00     0.117 A 
ATOM      8  C   UNL A   1      46.026  25.503  26.197  1.00  0.00     0.186 A 
ATOM      9  N   UNL A   1      45.750  25.117  27.418  1.00  0.00    -0.225 NA
ATOM     10  S   UNL A   1      45.928  24.227  25.060  1.00  0.00    -0.091 S 
ATOM     11  C   UNL A   1      45.322  23.793  27.471  1.00  0.00     0.063 A 
ATOM     12  C   UNL A   1      44.784  23.398  28.796  1.00  0.00     0.068 C 
BRANCH   8  13
ATOM     13  N   UNL A   1      46.394  26.778  25.885  1.00  0.00    -0.345 N 
ATOM     14  C   UNL A   1      47.099  26.979  24.633  1.00  0.00     0.146 C 
BRANCH  13  15
ATOM     15  C   UNL A   1      46.536  27.808  26.920  1.00  0.00     0.174 C 
BRANCH  15  16
ATOM     16  C   UNL A   1      45.457  28.878  26.875  1.00  0.00     0.060 A 
ATOM     17  C   UNL A   1      41.969  29.015  25.734  1.00  0.00     0.067 C 
ATOM     18  C   UNL A   1      43.266  29.447  26.344  1.00  0.00     0.038 A 
ATOM     19  C   UNL A   1      43.370  30.647  27.038  1.00  0.00     0.023 A 
ATOM     20  N   UNL A   1      44.297  28.579  26.231  1.00  0.00    -0.256 NA
ATOM     21  C   UNL A   1      44.582  30.975  27.635  1.00  0.00     0.004 A 
ATOM     22  C   UNL A   1      45.644  30.081  27.553  1.00  0.00     0.026 A 
ENDBRANCH  15  16
ENDBRANCH  13  15
ENDBRANCH   8  13
ENDBRANCH   4   7
ENDBRANCH   2   3
ENDBRANCH   1   2
BRANCH   1  23
ATOM     23  C   UNL A   1      40.609  21.430  27.305  1.00  0.00     0.118 C 
BRANCH  23  24
ATOM     24  N   UNL A   1      39.565  21.770  26.352  1.00  0.00    -0.352 N 
ATOM     25  C   UNL A   1      38.859  22.939  26.204  1.00  0.00     0.251 C 
ATOM     26  H   UNL A   1      39.329  21.055  25.717  1.00  0.00     0.163 HD
ATOM     27  O   UNL A   1      37.838  22.937  25.522  1.00  0.00    -0.269 OA
BRANCH  25  28
ATOM     28  C   UNL A   1      39.312  24.190  26.858  1.00  0.00     0.039 A 
ATOM     29  C   UNL A   1      38.913  24.444  28.174  1.00  0.00     0.014 A 
ATOM     30  C   UNL A   1      40.072  25.139  26.169  1.00  0.00     0.014 A 
ATOM     31  C   UNL A   1      39.310  25.626  28.808  1.00  0.00     0.010 A 
ATOM     32  C   UNL A   1      40.532  26.278  26.826  1.00  0.00     0.010 A 
ATOM     33  C   UNL A   1      40.140  26.542  28.146  1.00  0.00    -0.014 A 
BRANCH  33  34
ATOM     34  C   UNL A   1      40.590  27.796  28.804  1.00  0.00     0.031 A 
ATOM     35  C   UNL A   1      41.984  27.899  29.363  1.00  0.00     0.074 A 
ATOM     36  C   UNL A   1      39.725  28.820  28.952  1.00  0.00     0.049 A 
ATOM     37  N   UNL A   1      42.540  28.885  30.019  1.00  0.00    -0.248 NA
ATOM     38  C   UNL A   1      42.858  26.728  29.186  1.00  0.00     0.031 C 
ATOM     39  C   UNL A   1      38.338  28.833  28.481  1.00  0.00     0.029 A 
ATOM     40  N   UNL A   1      39.886  30.046  29.546  1.00  0.00    -0.354 N 
ATOM     41  C   UNL A   1      43.814  28.443  30.359  1.00  0.00     0.074 A 
ATOM     42  C   UNL A   1      43.934  27.086  29.872  1.00  0.00     0.031 C 
ATOM     43  C   UNL A   1      37.788  30.023  28.771  1.00  0.00     0.029 A 
ATOM     44  C   UNL A   1      38.765  30.840  29.484  1.00  0.00     0.049 A 
ATOM     45  H   UNL A   1      40.725  30.332  29.975  1.00  0.00     0.167 HD
ATOM     46  C   UNL A   1      44.801  29.110  31.006  1.00  0.00     0.031 A 
ATOM     47  C   UNL A   1      38.548  32.085  29.947  1.00  0.00     0.031 A 
ATOM     48  C   UNL A   1      44.687  30.467  31.467  1.00  0.00     0.049 A 
ATOM     49  C   UNL A   1      39.657  32.806  30.661  1.00  0.00     0.074 A 
ATOM     50  C   UNL A   1      45.652  31.258  32.065  1.00  0.00     0.029 A 
ATOM     51  N   UNL A   1      43.534  31.234  31.387  1.00  0.00    -0.354 N 
ATOM     52  N   UNL A   1      40.877  32.395  30.916  1.00  0.00    -0.248 NA
ATOM     53  C   UNL A   1      39.361  34.161  31.145  1.00  0.00     0.031 C 
ATOM     54  C   UNL A   1      45.067  32.488  32.391  1.00  0.00     0.029 A 
ATOM     55  C   UNL A   1      43.753  32.480  31.949  1.00  0.00     0.049 A 
ATOM     56  H   UNL A   1      42.684  30.936  30.990  1.00  0.00     0.167 HD
ATOM     57  C   UNL A   1      41.504  33.453  31.565  1.00  0.00     0.074 A 
ATOM     58  C   UNL A   1      40.531  34.523  31.656  1.00  0.00     0.031 C 
ATOM     59  C   UNL A   1      42.772  33.532  32.037  1.00  0.00     0.031 A 
BRANCH  46  60
ATOM     60  C   UNL A   1      46.084  28.363  31.267  1.00  0.00    -0.014 A 
ATOM     61  C   UNL A   1      46.198  27.454  32.334  1.00  0.00     0.010 A 
ATOM     62  C   UNL A   1      47.193  28.573  30.428  1.00  0.00     0.010 A 
ATOM     63  C   UNL A   1      47.415  26.817  32.597  1.00  0.00     0.020 A 
ATOM     64  C   UNL A   1      48.404  27.915  30.668  1.00  0.00     0.020 A 
ATOM     65  C   UNL A   1      48.514  27.061  31.767  1.00  0.00     0.054 A 
BRANCH  65  66
ATOM     66  S   UNL A   1      50.086  26.235  32.136  1.00  0.00     0.124 S 
ATOM     67  O   UNL A   1      49.648  24.871  32.423  1.00  0.00    -0.237 OA
ATOM     68  O   UNL A   1      50.838  26.404  30.895  1.00  0.00    -0.237 OA
ATOM     69  O   UNL A   1      50.607  26.977  33.281  1.00  0.00    -0.744 OA
ENDBRANCH  65  66
ENDBRANCH  46  60
BRANCH  47  70
ATOM     70  C   UNL A   1      37.235  32.743  29.709  1.00  0.00    -0.014 A 
ATOM     71  C   UNL A   1      36.285  32.813  30.744  1.00  0.00     0.010 A 
ATOM     72  C   UNL A   1      36.941  33.336  28.468  1.00  0.00     0.010 A 
ATOM     73  C   UNL A   1      35.063  33.458  30.540  1.00  0.00     0.020 A 
ATOM     74  C   UNL A   1      35.729  34.002  28.268  1.00  0.00     0.020 A 
ATOM     75  C   UNL A   1      34.794  34.054  29.305  1.00  0.00     0.054 A 
BRANCH  75  76
ATOM     76  S   UNL A   1      33.231  34.950  29.088  1.00  0.00     0.124 S 
ATOM     77  O   UNL A   1      33.691  36.259  28.635  1.00  0.00    -0.237 OA
ATOM     78  O   UNL A   1      32.539  34.141  28.088  1.00  0.00    -0.237 OA
ATOM     79  O   UNL A   1      32.634  34.922  30.421  1.00  0.00    -0.744 OA
ENDBRANCH  75  76
ENDBRANCH  47  70
BRANCH  59  80
ATOM     80  C   UNL A   1      43.192  34.831  32.670  1.00  0.00    -0.014 A 
ATOM     81  C   UNL A   1      43.584  35.930  31.886  1.00  0.00     0.010 A 
ATOM     82  C   UNL A   1      43.143  34.967  34.069  1.00  0.00     0.010 A 
ATOM     83  C   UNL A   1      43.949  37.135  32.493  1.00  0.00     0.020 A 
ATOM     84  C   UNL A   1      43.481  36.178  34.678  1.00  0.00     0.020 A 
ATOM     85  C   UNL A   1      43.895  37.250  33.885  1.00  0.00     0.054 A 
BRANCH  85  86
ATOM     86  S   UNL A   1      44.327  38.838  34.649  1.00  0.00     0.124 S 
ATOM     87  O   UNL A   1      44.003  38.598  36.052  1.00  0.00    -0.237 OA
ATOM     88  O   UNL A   1      45.751  38.964  34.345  1.00  0.00    -0.237 OA
ATOM     89  O   UNL A   1      43.463  39.798  33.965  1.00  0.00    -0.744 OA
ENDBRANCH  85  86
ENDBRANCH  59  80
ENDBRANCH  33  34
ENDBRANCH  25  28
ENDBRANCH  23  24
ENDBRANCH   1  23
TORSDOF 16
ENDMDL
MODEL 2
REMARK VINA RESULT:      -9.2      4.117     11.162
REMARK SMILES Cc1cccc(CN(C)c2nc(C)c(C(=O)NCCCNC(=O)c3ccc(-c4c5nc(c(-c6ccc(S(=O)(=O)[O-])cc6)c6ccc([nH]6)c(-c6ccc(S(=O)(=O)[O-])cc6)c6nc(c(-c7ccc(S(=O)(=O)[O-])cc7)c7ccc4[nH]7)C=C6)C=C5)cc3)s2)n1
REMARK SMILES IDX 19 1 18 2 17 3 15 4 16 5 14 7 10 8 11 9 84 10 12 11 13 12
REMARK SMILES IDX 8 13 9 14 7 15 6 16 1 17 2 18 3 19 85 20 4 21 5 22 20 23
REMARK SMILES IDX 21 24 22 25 23 27 24 28 25 29 83 30 26 31 82 32 27 33 28 34
REMARK SMILES IDX 29 35 76 36 30 37 81 38 75 39 77 40 31 41 80 42 74 43 73 44
REMARK SMILES IDX 32 46 62 47 43 48 61 49 44 50 47 51 60 52 78 53 45 54 46 55
REMARK SMILES IDX 59 57 79 58 48 59 33 60 34 61 42 62 35 63 41 64 36 65 37 66
REMARK SMILES IDX 38 67 39 68 40 69 63 70 64 71 72 72 65 73 71 74 66 75 67 76
REMARK SMILES IDX 68 77 69 78 70 79 49 80 50 81 58 82 51 83 57 84 52 85 53 86
REMARK SMILES IDX 54 87 55 88 56 89
REMARK H PARENT 17 6 21 26 77 45 47 56
REMARK Flexibility Score: inf
ROOT
ATOM      1  C   UNL A   1      32.893  27.978  25.589  1.00  0.00     0.042 C 
ENDROOT
BRANCH   1   2
ATOM      2  C   UNL A   1      33.320  28.415  24.191  1.00  0.00     0.118 C 
BRANCH   2   3
ATOM      3  N   UNL A   1      32.206  28.310  23.279  1.00  0.00    -0.351 N 
ATOM      4  C   UNL A   1      31.389  27.275  22.909  1.00  0.00     0.263 C 
ATOM      5  O   UNL A   1      30.585  27.595  22.024  1.00  0.00    -0.268 OA
ATOM      6  H   UNL A   1      31.990  29.158  22.828  1.00  0.00     0.163 HD
BRANCH   4   7
ATOM      7  C   UNL A   1      31.394  25.956  23.525  1.00  0.00     0.117 A 
ATOM      8  C   UNL A   1      32.099  23.610  23.912  1.00  0.00     0.186 A 
ATOM      9  N   UNL A   1      31.118  23.952  24.711  1.00  0.00    -0.225 NA
ATOM     10  S   UNL A   1      32.551  24.866  22.841  1.00  0.00    -0.091 S 
ATOM     11  C   UNL A   1      30.770  25.294  24.576  1.00  0.00     0.063 A 
ATOM     12  C   UNL A   1      29.829  25.768  25.621  1.00  0.00     0.068 C 
BRANCH   8  13
ATOM     13  N   UNL A   1      32.661  22.368  23.915  1.00  0.00    -0.345 N 
ATOM     14  C   UNL A   1      32.247  21.449  22.873  1.00  0.00     0.146 C 
BRANCH  13  15
ATOM     15  C   UNL A   1      33.252  21.798  25.132  1.00  0.00     0.174 C 
BRANCH  15  16
ATOM     16  C   UNL A   1      34.766  21.676  25.081  1.00  0.00     0.060 A 
ATOM     17  C   UNL A   1      37.589  23.878  25.896  1.00  0.00     0.067 C 
ATOM     18  C   UNL A   1      36.838  22.652  25.479  1.00  0.00     0.038 A 
ATOM     19  C   UNL A   1      37.486  21.434  25.313  1.00  0.00     0.023 A 
ATOM     20  N   UNL A   1      35.500  22.791  25.339  1.00  0.00    -0.256 NA
ATOM     21  C   UNL A   1      36.734  20.313  24.981  1.00  0.00     0.004 A 
ATOM     22  C   UNL A   1      35.354  20.431  24.861  1.00  0.00     0.026 A 
ENDBRANCH  15  16
ENDBRANCH  13  15
ENDBRANCH   8  13
ENDBRANCH   4   7
ENDBRANCH   2   3
ENDBRANCH   1   2
BRANCH   1  23
ATOM     23  C   UNL A   1      33.887  28.372  26.675  1.00  0.00     0.118 C 
BRANCH  23  24
ATOM     24  N   UNL A   1      33.765  29.778  27.025  1.00  0.00    -0.352 N 
ATOM     25  C   UNL A   1      34.568  30.558  27.822  1.00  0.00     0.251 C 
ATOM     26  H   UNL A   1      32.991  30.242  26.630  1.00  0.00     0.163 HD
ATOM     27  O   UNL A   1      34.149  31.645  28.209  1.00  0.00    -0.269 OA
BRANCH  25  28
ATOM     28  C   UNL A   1      35.920  30.100  28.218  1.00  0.00     0.039 A 
ATOM     29  C   UNL A   1      36.958  30.174  27.283  1.00  0.00     0.014 A 
ATOM     30  C   UNL A   1      36.161  29.543  29.478  1.00  0.00     0.014 A 
ATOM     31  C   UNL A   1      38.239  29.729  27.624  1.00  0.00     0.010 A 
ATOM     32  C   UNL A   1      37.454  29.174  29.844  1.00  0.00     0.010 A 
ATOM     33  C   UNL A   1      38.502  29.246  28.915  1.00  0.00    -0.014 A 
BRANCH  33  34
ATOM     34  C   UNL A   1      39.859  28.784  29.308  1.00  0.00     0.031 A 
ATOM     35  C   UNL A   1      40.768  29.692  30.093  1.00  0.00     0.074 A 
ATOM     36  C   UNL A   1      40.295  27.573  28.907  1.00  0.00     0.049 A 
ATOM     37  N   UNL A   1      42.002  29.491  30.480  1.00  0.00    -0.248 NA
ATOM     38  C   UNL A   1      40.229  31.009  30.468  1.00  0.00     0.031 C 
ATOM     39  C   UNL A   1      39.521  26.613  28.118  1.00  0.00     0.029 A 
ATOM     40  N   UNL A   1      41.498  26.946  29.107  1.00  0.00    -0.354 N 
ATOM     41  C   UNL A   1      42.396  30.665  31.113  1.00  0.00     0.074 A 
ATOM     42  C   UNL A   1      41.284  31.586  31.024  1.00  0.00     0.031 C 
ATOM     43  C   UNL A   1      40.256  25.504  27.933  1.00  0.00     0.029 A 
ATOM     44  C   UNL A   1      41.564  25.690  28.552  1.00  0.00     0.049 A 
ATOM     45  H   UNL A   1      42.244  27.356  29.602  1.00  0.00     0.167 HD
ATOM     46  C   UNL A   1      43.571  30.947  31.727  1.00  0.00     0.031 A 
ATOM     47  C   UNL A   1      42.565  24.789  28.543  1.00  0.00     0.031 A 
ATOM     48  C   UNL A   1      44.665  30.020  31.834  1.00  0.00     0.049 A 
ATOM     49  C   UNL A   1      43.859  25.123  29.229  1.00  0.00     0.074 A 
ATOM     50  C   UNL A   1      45.868  30.180  32.499  1.00  0.00     0.029 A 
ATOM     51  N   UNL A   1      44.693  28.760  31.256  1.00  0.00    -0.354 N 
ATOM     52  N   UNL A   1      44.190  26.213  29.880  1.00  0.00    -0.248 NA
ATOM     53  C   UNL A   1      44.914  24.101  29.185  1.00  0.00     0.031 C 
ATOM     54  C   UNL A   1      46.643  29.034  32.282  1.00  0.00     0.029 A 
ATOM     55  C   UNL A   1      45.901  28.141  31.524  1.00  0.00     0.049 A 
ATOM     56  H   UNL A   1      43.960  28.364  30.731  1.00  0.00     0.167 HD
ATOM     57  C   UNL A   1      45.480  25.997  30.348  1.00  0.00     0.074 A 
ATOM     58  C   UNL A   1      45.867  24.670  29.912  1.00  0.00     0.031 C 
ATOM     59  C   UNL A   1      46.272  26.821  31.078  1.00  0.00     0.031 A 
BRANCH  46  60
ATOM     60  C   UNL A   1      43.733  32.327  32.310  1.00  0.00    -0.014 A 
ATOM     61  C   UNL A   1      43.409  32.597  33.653  1.00  0.00     0.010 A 
ATOM     62  C   UNL A   1      44.220  33.371  31.503  1.00  0.00     0.010 A 
ATOM     63  C   UNL A   1      43.508  33.896  34.159  1.00  0.00     0.020 A 
ATOM     64  C   UNL A   1      44.350  34.666  32.014  1.00  0.00     0.020 A 
ATOM     65  C   UNL A   1      43.968  34.926  33.331  1.00  0.00     0.054 A 
BRANCH  65  66
ATOM     66  S   UNL A   1      44.075  36.607  34.005  1.00  0.00     0.124 S 
ATOM     67  O   UNL A   1      44.502  36.352  35.379  1.00  0.00    -0.237 OA
ATOM     68  O   UNL A   1      45.073  37.237  33.145  1.00  0.00    -0.237 OA
ATOM     69  O   UNL A   1      42.716  37.124  33.861  1.00  0.00    -0.744 OA
ENDBRANCH  65  66
ENDBRANCH  46  60
BRANCH  47  70
ATOM     70  C   UNL A   1      42.360  23.465  27.894  1.00  0.00    -0.014 A 
ATOM     71  C   UNL A   1      43.025  23.161  26.693  1.00  0.00     0.010 A 
ATOM     72  C   UNL A   1      41.537  22.492  28.487  1.00  0.00     0.010 A 
ATOM     73  C   UNL A   1      42.865  21.909  26.094  1.00  0.00     0.020 A 
ATOM     74  C   UNL A   1      41.394  21.230  27.903  1.00  0.00     0.020 A 
ATOM     75  C   UNL A   1      42.055  20.949  26.705  1.00  0.00     0.054 A 
BRANCH  75  76
ATOM     76  S   UNL A   1      41.923  19.305  25.947  1.00  0.00     0.124 S 
ATOM     77  O   UNL A   1      42.443  18.441  27.003  1.00  0.00    -0.237 OA
ATOM     78  O   UNL A   1      40.490  19.193  25.686  1.00  0.00    -0.237 OA
ATOM     79  O   UNL A   1      42.759  19.411  24.755  1.00  0.00    -0.744 OA
ENDBRANCH  75  76
ENDBRANCH  47  70
BRANCH  59  80
ATOM     80  C   UNL A   1      47.626  26.302  31.477  1.00  0.00    -0.014 A 
ATOM     81  C   UNL A   1      47.817  25.629  32.697  1.00  0.00     0.010 A 
ATOM     82  C   UNL A   1      48.711  26.443  30.593  1.00  0.00     0.010 A 
ATOM     83  C   UNL A   1      49.079  25.133  33.039  1.00  0.00     0.020 A 
ATOM     84  C   UNL A   1      49.967  25.927  30.920  1.00  0.00     0.020 A 
ATOM     85  C   UNL A   1      50.145  25.286  32.148  1.00  0.00     0.054 A 
BRANCH  85  86
ATOM     86  S   UNL A   1      51.762  24.594  32.591  1.00  0.00     0.124 S 
ATOM     87  O   UNL A   1      52.655  25.297  31.675  1.00  0.00    -0.237 OA
ATOM     88  O   UNL A   1      51.893  24.958  34.000  1.00  0.00    -0.237 OA
ATOM     89  O   UNL A   1      51.608  23.163  32.336  1.00  0.00    -0.744 OA
ENDBRANCH  85  86
ENDBRANCH  59  80
ENDBRANCH  33  34
ENDBRANCH  25  28
ENDBRANCH  23  24
ENDBRANCH   1  23
TORSDOF 16
ENDMDL
MODEL 3
REMARK VINA RESULT:      -9.0      4.765      7.271
REMARK SMILES Cc1cccc(CN(C)c2nc(C)c(C(=O)NCCCNC(=O)c3ccc(-c4c5nc(c(-c6ccc(S(=O)(=O)[O-])cc6)c6ccc([nH]6)c(-c6ccc(S(=O)(=O)[O-])cc6)c6nc(c(-c7ccc(S(=O)(=O)[O-])cc7)c7ccc4[nH]7)C=C6)C=C5)cc3)s2)n1
REMARK SMILES IDX 19 1 18 2 17 3 15 4 16 5 14 7 10 8 11 9 84 10 12 11 13 12
REMARK SMILES IDX 8 13 9 14 7 15 6 16 1 17 2 18 3 19 85 20 4 21 5 22 20 23
REMARK SMILES IDX 21 24 22 25 23 27 24 28 25 29 83 30 26 31 82 32 27 33 28 34
REMARK SMILES IDX 29 35 76 36 30 37 81 38 75 39 77 40 31 41 80 42 74 43 73 44
REMARK SMILES IDX 32 46 62 47 43 48 61 49 44 50 47 51 60 52 78 53 45 54 46 55
REMARK SMILES IDX 59 57 79 58 48 59 33 60 34 61 42 62 35 63 41 64 36 65 37 66
REMARK SMILES IDX 38 67 39 68 40 69 63 70 64 71 72 72 65 73 71 74 66 75 67 76
REMARK SMILES IDX 68 77 69 78 70 79 49 80 50 81 58 82 51 83 57 84 52 85 53 86
REMARK SMILES IDX 54 87 55 88 56 89
REMARK H PARENT 17 6 21 26 77 45 47 56
REMARK Flexibility Score: inf
ROOT
ATOM      1  C   UNL A   1      38.965  22.646  26.463  1.00  0.00     0.042 C 
ENDROOT
BRANCH   1   2
ATOM      2  C   UNL A   1      37.664  23.357  26.096  1.00  0.00     0.118 C 
BRANCH   2   3
ATOM      3  N   UNL A   1      37.466  23.316  24.668  1.00  0.00    -0.351 N 
ATOM      4  C   UNL A   1      36.373  23.089  23.876  1.00  0.00     0.263 C 
ATOM      5  O   UNL A   1      36.652  23.069  22.670  1.00  0.00    -0.268 OA
ATOM      6  H   UNL A   1      38.290  23.486  24.155  1.00  0.00     0.163 HD
BRANCH   4   7
ATOM      7  C   UNL A   1      35.009  22.957  24.368  1.00  0.00     0.117 A 
ATOM      8  C   UNL A   1      32.731  23.682  25.030  1.00  0.00     0.186 A 
ATOM      9  N   UNL A   1      32.897  22.396  25.220  1.00  0.00    -0.225 NA
ATOM     10  S   UNL A   1      34.137  24.451  24.428  1.00  0.00    -0.091 S 
ATOM     11  C   UNL A   1      34.137  21.950  24.768  1.00  0.00     0.063 A 
ATOM     12  C   UNL A   1      34.264  20.472  24.755  1.00  0.00     0.068 C 
BRANCH   8  13
ATOM     13  N   UNL A   1      31.571  24.334  25.326  1.00  0.00    -0.345 N 
ATOM     14  C   UNL A   1      30.754  23.785  26.391  1.00  0.00     0.146 C 
BRANCH  13  15
ATOM     15  C   UNL A   1      30.918  25.215  24.350  1.00  0.00     0.174 C 
BRANCH  15  16
ATOM     16  C   UNL A   1      31.030  26.693  24.686  1.00  0.00     0.060 A 
ATOM     17  C   UNL A   1      32.789  28.660  27.240  1.00  0.00     0.067 C 
ATOM     18  C   UNL A   1      31.951  28.343  26.041  1.00  0.00     0.038 A 
ATOM     19  C   UNL A   1      31.534  29.343  25.171  1.00  0.00     0.023 A 
ATOM     20  N   UNL A   1      31.684  27.034  25.829  1.00  0.00    -0.256 NA
ATOM     21  C   UNL A   1      30.807  28.989  24.040  1.00  0.00     0.004 A 
ATOM     22  C   UNL A   1      30.547  27.647  23.791  1.00  0.00     0.026 A 
ENDBRANCH  15  16
ENDBRANCH  13  15
ENDBRANCH   8  13
ENDBRANCH   4   7
ENDBRANCH   2   3
ENDBRANCH   1   2
BRANCH   1  23
ATOM     23  C   UNL A   1      39.992  23.566  27.114  1.00  0.00     0.118 C 
BRANCH  23  24
ATOM     24  N   UNL A   1      40.818  24.230  26.119  1.00  0.00    -0.352 N 
ATOM     25  C   UNL A   1      41.207  25.546  26.038  1.00  0.00     0.251 C 
ATOM     26  H   UNL A   1      41.152  23.651  25.396  1.00  0.00     0.163 HD
ATOM     27  O   UNL A   1      41.677  25.964  24.984  1.00  0.00    -0.269 OA
BRANCH  25  28
ATOM     28  C   UNL A   1      41.058  26.456  27.198  1.00  0.00     0.039 A 
ATOM     29  C   UNL A   1      40.060  26.188  28.141  1.00  0.00     0.014 A 
ATOM     30  C   UNL A   1      41.849  27.600  27.333  1.00  0.00     0.014 A 
ATOM     31  C   UNL A   1      39.885  27.042  29.235  1.00  0.00     0.010 A 
ATOM     32  C   UNL A   1      41.727  28.406  28.462  1.00  0.00     0.010 A 
ATOM     33  C   UNL A   1      40.732  28.146  29.415  1.00  0.00    -0.014 A 
BRANCH  33  34
ATOM     34  C   UNL A   1      40.578  29.059  30.578  1.00  0.00     0.031 A 
ATOM     35  C   UNL A   1      41.460  28.898  31.787  1.00  0.00     0.074 A 
ATOM     36  C   UNL A   1      39.604  29.991  30.572  1.00  0.00     0.049 A 
ATOM     37  N   UNL A   1      41.442  29.557  32.917  1.00  0.00    -0.248 NA
ATOM     38  C   UNL A   1      42.480  27.838  31.728  1.00  0.00     0.031 C 
ATOM     39  C   UNL A   1      38.664  30.227  29.473  1.00  0.00     0.029 A 
ATOM     40  N   UNL A   1      39.243  30.912  31.522  1.00  0.00    -0.354 N 
ATOM     41  C   UNL A   1      42.421  28.973  33.713  1.00  0.00     0.074 A 
ATOM     42  C   UNL A   1      42.987  27.881  32.952  1.00  0.00     0.031 C 
ATOM     43  C   UNL A   1      37.859  31.252  29.798  1.00  0.00     0.029 A 
ATOM     44  C   UNL A   1      38.195  31.716  31.140  1.00  0.00     0.049 A 
ATOM     45  H   UNL A   1      39.691  30.990  32.395  1.00  0.00     0.167 HD
ATOM     46  C   UNL A   1      42.824  29.321  34.960  1.00  0.00     0.031 A 
ATOM     47  C   UNL A   1      37.576  32.716  31.795  1.00  0.00     0.031 A 
ATOM     48  C   UNL A   1      42.274  30.422  35.704  1.00  0.00     0.049 A 
ATOM     49  C   UNL A   1      38.039  33.086  33.177  1.00  0.00     0.074 A 
ATOM     50  C   UNL A   1      42.662  30.905  36.941  1.00  0.00     0.029 A 
ATOM     51  N   UNL A   1      41.213  31.210  35.282  1.00  0.00    -0.354 N 
ATOM     52  N   UNL A   1      39.011  32.564  33.887  1.00  0.00    -0.248 NA
ATOM     53  C   UNL A   1      37.324  34.184  33.842  1.00  0.00     0.031 C 
ATOM     54  C   UNL A   1      41.804  31.955  37.289  1.00  0.00     0.029 A 
ATOM     55  C   UNL A   1      40.914  32.158  36.245  1.00  0.00     0.049 A 
ATOM     56  H   UNL A   1      40.742  31.109  34.424  1.00  0.00     0.167 HD
ATOM     57  C   UNL A   1      39.043  33.289  35.072  1.00  0.00     0.074 A 
ATOM     58  C   UNL A   1      37.999  34.290  34.979  1.00  0.00     0.031 C 
ATOM     59  C   UNL A   1      39.868  33.144  36.139  1.00  0.00     0.031 A 
BRANCH  46  60
ATOM     60  C   UNL A   1      43.900  28.482  35.598  1.00  0.00    -0.014 A 
ATOM     61  C   UNL A   1      45.264  28.777  35.415  1.00  0.00     0.010 A 
ATOM     62  C   UNL A   1      43.541  27.382  36.398  1.00  0.00     0.010 A 
ATOM     63  C   UNL A   1      46.248  27.951  35.967  1.00  0.00     0.020 A 
ATOM     64  C   UNL A   1      44.522  26.571  36.976  1.00  0.00     0.020 A 
ATOM     65  C   UNL A   1      45.870  26.846  36.736  1.00  0.00     0.054 A 
BRANCH  65  66
ATOM     66  S   UNL A   1      47.164  25.780  37.428  1.00  0.00     0.124 S 
ATOM     67  O   UNL A   1      47.352  26.361  38.755  1.00  0.00    -0.237 OA
ATOM     68  O   UNL A   1      46.541  24.459  37.404  1.00  0.00    -0.237 OA
ATOM     69  O   UNL A   1      48.284  25.953  36.507  1.00  0.00    -0.744 OA
ENDBRANCH  65  66
ENDBRANCH  46  60
BRANCH  47  70
ATOM     70  C   UNL A   1      36.477  33.466  31.129  1.00  0.00    -0.014 A 
ATOM     71  C   UNL A   1      36.611  33.868  29.788  1.00  0.00     0.010 A 
ATOM     72  C   UNL A   1      35.280  33.748  31.811  1.00  0.00     0.010 A 
ATOM     73  C   UNL A   1      35.571  34.542  29.144  1.00  0.00     0.020 A 
ATOM     74  C   UNL A   1      34.229  34.401  31.163  1.00  0.00     0.020 A 
ATOM     75  C   UNL A   1      34.384  34.800  29.834  1.00  0.00     0.054 A 
BRANCH  75  76
ATOM     76  S   UNL A   1      33.020  35.612  28.953  1.00  0.00     0.124 S 
ATOM     77  O   UNL A   1      33.715  36.670  28.225  1.00  0.00    -0.237 OA
ATOM     78  O   UNL A   1      32.484  34.527  28.134  1.00  0.00    -0.237 OA
ATOM     79  O   UNL A   1      32.141  36.064  30.028  1.00  0.00    -0.744 OA
ENDBRANCH  75  76
ENDBRANCH  47  70
BRANCH  59  80
ATOM     80  C   UNL A   1      39.694  34.107  37.281  1.00  0.00    -0.014 A 
ATOM     81  C   UNL A   1      38.901  33.781  38.395  1.00  0.00     0.010 A 
ATOM     82  C   UNL A   1      40.380  35.336  37.261  1.00  0.00     0.010 A 
ATOM     83  C   UNL A   1      38.771  34.680  39.457  1.00  0.00     0.020 A 
ATOM     84  C   UNL A   1      40.273  36.226  38.332  1.00  0.00     0.020 A 
ATOM     85  C   UNL A   1      39.459  35.898  39.418  1.00  0.00     0.054 A 
BRANCH  85  86
ATOM     86  S   UNL A   1      39.314  37.029  40.828  1.00  0.00     0.124 S 
ATOM     87  O   UNL A   1      38.466  38.086  40.283  1.00  0.00    -0.237 OA
ATOM     88  O   UNL A   1      38.693  36.191  41.851  1.00  0.00    -0.237 OA
ATOM     89  O   UNL A   1      40.695  37.418  41.104  1.00  0.00    -0.744 OA
ENDBRANCH  85  86
ENDBRANCH  59  80
ENDBRANCH  33  34
ENDBRANCH  25  28
ENDBRANCH  23  24
ENDBRANCH   1  23
TORSDOF 16
ENDMDL
