MODEL 1
REMARK VINA RESULT:     -11.9      0.000      0.000
REMARK SMILES CC(=O)N1CCN(C(=O)c2ccc(=O)n(CCC(=O)NCCCNC(=O)c3ccc(-c4c5nc(c(-c6ccc(S(=O)(=O)[O-])cc6)c6ccc([nH]6)c(-c6ccc(S(=O)(=O)[O-])cc6)c6nc(c(-c7ccc(S(=O)(=O)[O-])cc7)c7ccc4[nH]7)C=C6)C=C5)cc3)n2)CC1
REMARK SMILES IDX 22 1 21 2 20 3 18 4 19 5 17 7 16 8 15 9 10 10 11 11 87 12
REMARK SMILES IDX 12 13 13 14 14 15 8 16 1 17 2 18 3 19 4 20 5 21 89 22 6 23
REMARK SMILES IDX 88 24 7 25 9 26 23 27 24 28 25 29 26 31 27 32 28 33 86 34
REMARK SMILES IDX 29 35 85 36 30 37 31 38 32 39 79 40 33 41 84 42 78 43 80 44
REMARK SMILES IDX 34 45 83 46 77 47 76 48 35 50 65 51 46 52 64 53 47 54 50 55
REMARK SMILES IDX 63 56 81 57 48 58 49 59 62 61 82 62 51 63 36 64 37 65 45 66
REMARK SMILES IDX 38 67 44 68 39 69 40 70 41 71 42 72 43 73 66 74 67 75 75 76
REMARK SMILES IDX 68 77 74 78 69 79 70 80 71 81 72 82 73 83 52 84 53 85 61 86
REMARK SMILES IDX 54 87 60 88 55 89 56 90 57 91 58 92 59 93
REMARK H PARENT 20 6 24 30 80 49 50 60
REMARK Flexibility Score: inf
ROOT
ATOM      1  C   UNL A   1      33.519  28.091  25.701  1.00  0.00     0.042 C 
ENDROOT
BRANCH   1   2
ATOM      2  C   UNL A   1      33.640  26.598  25.376  1.00  0.00     0.117 C 
BRANCH   2   3
ATOM      3  N   UNL A   1      33.967  26.397  23.971  1.00  0.00    -0.356 N 
ATOM      4  C   UNL A   1      33.205  26.449  22.849  1.00  0.00     0.221 C 
ATOM      5  O   UNL A   1      33.760  26.269  21.760  1.00  0.00    -0.275 OA
ATOM      6  H   UNL A   1      34.914  26.185  23.805  1.00  0.00     0.163 HD
BRANCH   4   7
ATOM      7  C   UNL A   1      31.723  26.716  22.914  1.00  0.00     0.124 C 
BRANCH   7   8
ATOM      8  C   UNL A   1      30.940  25.412  22.785  1.00  0.00     0.158 C 
BRANCH   8   9
ATOM      9  N   UNL A   1      30.936  24.669  24.044  1.00  0.00    -0.229 N 
ATOM     10  C   UNL A   1      31.515  22.738  25.109  1.00  0.00     0.149 A 
ATOM     11  C   UNL A   1      30.696  23.056  26.292  1.00  0.00     0.042 A 
ATOM     12  N   UNL A   1      31.600  23.460  24.035  1.00  0.00    -0.164 NA
ATOM     13  C   UNL A   1      30.169  24.281  26.317  1.00  0.00     0.076 A 
ATOM     14  C   UNL A   1      30.326  25.203  25.170  1.00  0.00     0.266 A 
ATOM     15  O   UNL A   1      29.874  26.341  25.253  1.00  0.00    -0.268 OA
BRANCH  10  16
ATOM     16  C   UNL A   1      32.377  21.496  25.211  1.00  0.00     0.274 C 
ATOM     17  C   UNL A   1      38.388  23.485  26.267  1.00  0.00     0.114 C 
ATOM     18  C   UNL A   1      37.883  22.200  25.659  1.00  0.00     0.219 C 
ATOM     19  O   UNL A   1      38.656  21.279  25.391  1.00  0.00    -0.275 OA
ATOM     20  N   UNL A   1      36.525  22.119  25.392  1.00  0.00    -0.339 N 
ATOM     21  C   UNL A   1      35.951  20.834  24.980  1.00  0.00     0.141 C 
ATOM     22  C   UNL A   1      35.623  23.266  25.300  1.00  0.00     0.141 C 
ATOM     23  C   UNL A   1      34.613  20.560  25.686  1.00  0.00     0.141 C 
ATOM     24  C   UNL A   1      34.277  22.994  25.980  1.00  0.00     0.141 C 
ATOM     25  N   UNL A   1      33.701  21.702  25.575  1.00  0.00    -0.334 N 
ATOM     26  O   UNL A   1      31.857  20.413  24.973  1.00  0.00    -0.267 OA
ENDBRANCH  10  16
ENDBRANCH   8   9
ENDBRANCH   7   8
ENDBRANCH   4   7
ENDBRANCH   2   3
ENDBRANCH   1   2
BRANCH   1  27
ATOM     27  C   UNL A   1      33.167  28.395  27.157  1.00  0.00     0.118 C 
BRANCH  27  28
ATOM     28  N   UNL A   1      33.355  29.788  27.513  1.00  0.00    -0.352 N 
ATOM     29  C   UNL A   1      34.438  30.530  27.903  1.00  0.00     0.251 C 
ATOM     30  H   UNL A   1      32.524  30.314  27.463  1.00  0.00     0.163 HD
ATOM     31  O   UNL A   1      34.259  31.748  27.976  1.00  0.00    -0.269 OA
BRANCH  29  32
ATOM     32  C   UNL A   1      35.786  29.985  28.253  1.00  0.00     0.039 A 
ATOM     33  C   UNL A   1      36.161  29.498  29.507  1.00  0.00     0.014 A 
ATOM     34  C   UNL A   1      36.777  30.066  27.256  1.00  0.00     0.014 A 
ATOM     35  C   UNL A   1      37.489  29.129  29.765  1.00  0.00     0.010 A 
ATOM     36  C   UNL A   1      38.102  29.685  27.505  1.00  0.00     0.010 A 
ATOM     37  C   UNL A   1      38.473  29.229  28.773  1.00  0.00    -0.014 A 
BRANCH  37  38
ATOM     38  C   UNL A   1      39.874  28.850  29.072  1.00  0.00     0.031 A 
ATOM     39  C   UNL A   1      40.770  29.765  29.858  1.00  0.00     0.074 A 
ATOM     40  C   UNL A   1      40.341  27.656  28.664  1.00  0.00     0.049 A 
ATOM     41  N   UNL A   1      41.982  29.542  30.300  1.00  0.00    -0.248 NA
ATOM     42  C   UNL A   1      40.240  31.095  30.191  1.00  0.00     0.031 C 
ATOM     43  C   UNL A   1      39.583  26.678  27.883  1.00  0.00     0.029 A 
ATOM     44  N   UNL A   1      41.558  27.057  28.868  1.00  0.00    -0.354 N 
ATOM     45  C   UNL A   1      42.359  30.696  30.973  1.00  0.00     0.074 A 
ATOM     46  C   UNL A   1      41.255  31.628  30.861  1.00  0.00     0.031 C 
ATOM     47  C   UNL A   1      40.342  25.585  27.703  1.00  0.00     0.029 A 
ATOM     48  C   UNL A   1      41.637  25.789  28.349  1.00  0.00     0.049 A 
ATOM     49  H   UNL A   1      42.303  27.494  29.341  1.00  0.00     0.167 HD
ATOM     50  C   UNL A   1      43.513  30.955  31.632  1.00  0.00     0.031 A 
ATOM     51  C   UNL A   1      42.628  24.878  28.404  1.00  0.00     0.031 A 
ATOM     52  C   UNL A   1      44.622  30.049  31.742  1.00  0.00     0.049 A 
ATOM     53  C   UNL A   1      43.900  25.187  29.135  1.00  0.00     0.074 A 
ATOM     54  C   UNL A   1      45.824  30.240  32.403  1.00  0.00     0.029 A 
ATOM     55  N   UNL A   1      44.672  28.786  31.178  1.00  0.00    -0.354 N 
ATOM     56  N   UNL A   1      44.224  26.275  29.790  1.00  0.00    -0.248 NA
ATOM     57  C   UNL A   1      44.937  24.144  29.141  1.00  0.00     0.031 C 
ATOM     58  C   UNL A   1      46.609  29.094  32.224  1.00  0.00     0.029 A 
ATOM     59  C   UNL A   1      45.885  28.186  31.469  1.00  0.00     0.049 A 
ATOM     60  H   UNL A   1      43.950  28.375  30.649  1.00  0.00     0.167 HD
ATOM     61  C   UNL A   1      45.499  26.045  30.294  1.00  0.00     0.074 A 
ATOM     62  C   UNL A   1      45.887  24.714  29.873  1.00  0.00     0.031 C 
ATOM     63  C   UNL A   1      46.272  26.868  31.042  1.00  0.00     0.031 A 
BRANCH  50  64
ATOM     64  C   UNL A   1      43.628  32.287  32.310  1.00  0.00    -0.014 A 
ATOM     65  C   UNL A   1      43.145  32.461  33.617  1.00  0.00     0.010 A 
ATOM     66  C   UNL A   1      44.177  33.381  31.619  1.00  0.00     0.010 A 
ATOM     67  C   UNL A   1      43.223  33.711  34.236  1.00  0.00     0.020 A 
ATOM     68  C   UNL A   1      44.264  34.629  32.237  1.00  0.00     0.020 A 
ATOM     69  C   UNL A   1      43.781  34.786  33.539  1.00  0.00     0.054 A 
BRANCH  69  70
ATOM     70  S   UNL A   1      43.952  36.396  34.358  1.00  0.00     0.124 S 
ATOM     71  O   UNL A   1      44.868  37.097  33.466  1.00  0.00    -0.237 OA
ATOM     72  O   UNL A   1      42.581  36.898  34.382  1.00  0.00    -0.237 OA
ATOM     73  O   UNL A   1      44.495  36.033  35.666  1.00  0.00    -0.744 OA
ENDBRANCH  69  70
ENDBRANCH  50  64
BRANCH  51  74
ATOM     74  C   UNL A   1      42.411  23.552  27.776  1.00  0.00    -0.014 A 
ATOM     75  C   UNL A   1      41.691  22.555  28.454  1.00  0.00     0.010 A 
ATOM     76  C   UNL A   1      42.997  23.264  26.533  1.00  0.00     0.010 A 
ATOM     77  C   UNL A   1      41.588  21.272  27.912  1.00  0.00     0.020 A 
ATOM     78  C   UNL A   1      42.889  21.984  25.985  1.00  0.00     0.020 A 
ATOM     79  C   UNL A   1      42.205  20.990  26.690  1.00  0.00     0.054 A 
BRANCH  79  80
ATOM     80  S   UNL A   1      42.112  19.313  26.006  1.00  0.00     0.124 S 
ATOM     81  O   UNL A   1      42.961  19.428  24.823  1.00  0.00    -0.237 OA
ATOM     82  O   UNL A   1      42.648  18.485  27.084  1.00  0.00    -0.237 OA
ATOM     83  O   UNL A   1      40.687  19.140  25.742  1.00  0.00    -0.744 OA
ENDBRANCH  79  80
ENDBRANCH  51  74
BRANCH  63  84
ATOM     84  C   UNL A   1      47.623  26.370  31.463  1.00  0.00    -0.014 A 
ATOM     85  C   UNL A   1      48.718  26.494  30.590  1.00  0.00     0.010 A 
ATOM     86  C   UNL A   1      47.786  25.696  32.685  1.00  0.00     0.010 A 
ATOM     87  C   UNL A   1      49.956  25.939  30.927  1.00  0.00     0.020 A 
ATOM     88  C   UNL A   1      49.025  25.149  33.030  1.00  0.00     0.020 A 
ATOM     89  C   UNL A   1      50.098  25.259  32.140  1.00  0.00     0.054 A 
BRANCH  89  90
ATOM     90  S   UNL A   1      51.704  24.535  32.575  1.00  0.00     0.124 S 
ATOM     91  O   UNL A   1      51.485  23.117  32.298  1.00  0.00    -0.237 OA
ATOM     92  O   UNL A   1      52.631  25.216  31.674  1.00  0.00    -0.237 OA
ATOM     93  O   UNL A   1      51.855  24.882  33.987  1.00  0.00    -0.744 OA
ENDBRANCH  89  90
ENDBRANCH  63  84
ENDBRANCH  37  38
ENDBRANCH  29  32
ENDBRANCH  27  28
ENDBRANCH   1  27
TORSDOF 16
ENDMDL
MODEL 2
REMARK VINA RESULT:     -11.7      1.310      1.907
REMARK SMILES CC(=O)N1CCN(C(=O)c2ccc(=O)n(CCC(=O)NCCCNC(=O)c3ccc(-c4c5nc(c(-c6ccc(S(=O)(=O)[O-])cc6)c6ccc([nH]6)c(-c6ccc(S(=O)(=O)[O-])cc6)c6nc(c(-c7ccc(S(=O)(=O)[O-])cc7)c7ccc4[nH]7)C=C6)C=C5)cc3)n2)CC1
REMARK SMILES IDX 22 1 21 2 20 3 18 4 19 5 17 7 16 8 15 9 10 10 11 11 87 12
REMARK SMILES IDX 12 13 13 14 14 15 8 16 1 17 2 18 3 19 4 20 5 21 89 22 6 23
REMARK SMILES IDX 88 24 7 25 9 26 23 27 24 28 25 29 26 31 27 32 28 33 86 34
REMARK SMILES IDX 29 35 85 36 30 37 31 38 32 39 79 40 33 41 84 42 78 43 80 44
REMARK SMILES IDX 34 45 83 46 77 47 76 48 35 50 65 51 46 52 64 53 47 54 50 55
REMARK SMILES IDX 63 56 81 57 48 58 49 59 62 61 82 62 51 63 36 64 37 65 45 66
REMARK SMILES IDX 38 67 44 68 39 69 40 70 41 71 42 72 43 73 66 74 67 75 75 76
REMARK SMILES IDX 68 77 74 78 69 79 70 80 71 81 72 82 73 83 52 84 53 85 61 86
REMARK SMILES IDX 54 87 60 88 55 89 56 90 57 91 58 92 59 93
REMARK H PARENT 20 6 24 30 80 49 50 60
REMARK Flexibility Score: inf
ROOT
ATOM      1  C   UNL A   1      32.212  28.317  25.952  1.00  0.00     0.042 C 
ENDROOT
BRANCH   1   2
ATOM      2  C   UNL A   1      32.583  29.290  24.828  1.00  0.00     0.117 C 
BRANCH   2   3
ATOM      3  N   UNL A   1      31.467  29.471  23.909  1.00  0.00    -0.356 N 
ATOM      4  C   UNL A   1      31.064  28.760  22.825  1.00  0.00     0.221 C 
ATOM      5  O   UNL A   1      30.040  29.125  22.237  1.00  0.00    -0.275 OA
ATOM      6  H   UNL A   1      30.902  30.252  24.110  1.00  0.00     0.163 HD
BRANCH   4   7
ATOM      7  C   UNL A   1      31.833  27.558  22.339  1.00  0.00     0.124 C 
BRANCH   7   8
ATOM      8  C   UNL A   1      30.961  26.305  22.405  1.00  0.00     0.158 C 
BRANCH   8   9
ATOM      9  N   UNL A   1      31.198  25.559  23.639  1.00  0.00    -0.229 N 
ATOM     10  C   UNL A   1      32.546  24.081  24.734  1.00  0.00     0.149 A 
ATOM     11  C   UNL A   1      31.562  23.862  25.807  1.00  0.00     0.042 A 
ATOM     12  N   UNL A   1      32.372  24.835  23.693  1.00  0.00    -0.164 NA
ATOM     13  C   UNL A   1      30.497  24.664  25.787  1.00  0.00     0.076 A 
ATOM     14  C   UNL A   1      30.291  25.633  24.687  1.00  0.00     0.266 A 
ATOM     15  O   UNL A   1      29.329  26.393  24.732  1.00  0.00    -0.268 OA
BRANCH  10  16
ATOM     16  C   UNL A   1      33.896  23.417  24.923  1.00  0.00     0.274 C 
ATOM     17  C   UNL A   1      33.203  17.275  23.191  1.00  0.00     0.114 C 
ATOM     18  C   UNL A   1      34.202  17.915  24.124  1.00  0.00     0.219 C 
ATOM     19  O   UNL A   1      35.137  17.265  24.592  1.00  0.00    -0.275 OA
ATOM     20  N   UNL A   1      33.999  19.247  24.448  1.00  0.00    -0.339 N 
ATOM     21  C   UNL A   1      35.035  19.969  25.194  1.00  0.00     0.141 C 
ATOM     22  C   UNL A   1      32.737  19.965  24.274  1.00  0.00     0.141 C 
ATOM     23  C   UNL A   1      35.260  21.380  24.627  1.00  0.00     0.141 C 
ATOM     24  C   UNL A   1      32.953  21.382  23.733  1.00  0.00     0.141 C 
ATOM     25  N   UNL A   1      33.997  22.107  24.474  1.00  0.00    -0.334 N 
ATOM     26  O   UNL A   1      34.790  24.069  25.447  1.00  0.00    -0.267 OA
ENDBRANCH  10  16
ENDBRANCH   8   9
ENDBRANCH   7   8
ENDBRANCH   4   7
ENDBRANCH   2   3
ENDBRANCH   1   2
BRANCH   1  27
ATOM     27  C   UNL A   1      32.934  28.572  27.274  1.00  0.00     0.118 C 
BRANCH  27  28
ATOM     28  N   UNL A   1      33.175  29.978  27.533  1.00  0.00    -0.352 N 
ATOM     29  C   UNL A   1      34.285  30.705  27.870  1.00  0.00     0.251 C 
ATOM     30  H   UNL A   1      32.363  30.530  27.449  1.00  0.00     0.163 HD
ATOM     31  O   UNL A   1      34.151  31.932  27.860  1.00  0.00    -0.269 OA
BRANCH  29  32
ATOM     32  C   UNL A   1      35.614  30.137  28.255  1.00  0.00     0.039 A 
ATOM     33  C   UNL A   1      35.967  29.699  29.532  1.00  0.00     0.014 A 
ATOM     34  C   UNL A   1      36.612  30.140  27.262  1.00  0.00     0.014 A 
ATOM     35  C   UNL A   1      37.282  29.302  29.817  1.00  0.00     0.010 A 
ATOM     36  C   UNL A   1      37.923  29.731  27.537  1.00  0.00     0.010 A 
ATOM     37  C   UNL A   1      38.273  29.325  28.827  1.00  0.00    -0.014 A 
BRANCH  37  38
ATOM     38  C   UNL A   1      39.661  28.917  29.154  1.00  0.00     0.031 A 
ATOM     39  C   UNL A   1      40.555  29.808  29.970  1.00  0.00     0.074 A 
ATOM     40  C   UNL A   1      40.116  27.720  28.743  1.00  0.00     0.049 A 
ATOM     41  N   UNL A   1      41.752  29.559  30.436  1.00  0.00    -0.248 NA
ATOM     42  C   UNL A   1      40.041  31.144  30.305  1.00  0.00     0.031 C 
ATOM     43  C   UNL A   1      39.358  26.764  27.935  1.00  0.00     0.029 A 
ATOM     44  N   UNL A   1      41.317  27.097  28.968  1.00  0.00    -0.354 N 
ATOM     45  C   UNL A   1      42.134  30.699  31.130  1.00  0.00     0.074 A 
ATOM     46  C   UNL A   1      41.050  31.652  31.003  1.00  0.00     0.031 C 
ATOM     47  C   UNL A   1      40.102  25.659  27.760  1.00  0.00     0.029 A 
ATOM     48  C   UNL A   1      41.386  25.833  28.437  1.00  0.00     0.049 A 
ATOM     49  H   UNL A   1      42.059  27.516  29.462  1.00  0.00     0.167 HD
ATOM     50  C   UNL A   1      43.277  30.930  31.817  1.00  0.00     0.031 A 
ATOM     51  C   UNL A   1      42.359  24.904  28.504  1.00  0.00     0.031 A 
ATOM     52  C   UNL A   1      44.368  30.004  31.942  1.00  0.00     0.049 A 
ATOM     53  C   UNL A   1      43.620  25.183  29.266  1.00  0.00     0.074 A 
ATOM     54  C   UNL A   1      45.558  30.166  32.632  1.00  0.00     0.029 A 
ATOM     55  N   UNL A   1      44.408  28.746  31.365  1.00  0.00    -0.354 N 
ATOM     56  N   UNL A   1      43.947  26.259  29.940  1.00  0.00    -0.248 NA
ATOM     57  C   UNL A   1      44.637  24.122  29.284  1.00  0.00     0.031 C 
ATOM     58  C   UNL A   1      46.326  29.009  32.458  1.00  0.00     0.029 A 
ATOM     59  C   UNL A   1      45.604  28.122  31.677  1.00  0.00     0.049 A 
ATOM     60  H   UNL A   1      43.691  28.353  30.816  1.00  0.00     0.167 HD
ATOM     61  C   UNL A   1      45.206  26.001  30.470  1.00  0.00     0.074 A 
ATOM     62  C   UNL A   1      45.581  24.668  30.044  1.00  0.00     0.031 C 
ATOM     63  C   UNL A   1      45.977  26.802  31.244  1.00  0.00     0.031 A 
BRANCH  50  64
ATOM     64  C   UNL A   1      43.401  32.253  32.512  1.00  0.00    -0.014 A 
ATOM     65  C   UNL A   1      43.934  33.362  31.835  1.00  0.00     0.010 A 
ATOM     66  C   UNL A   1      43.027  32.374  33.862  1.00  0.00     0.010 A 
ATOM     67  C   UNL A   1      44.078  34.585  32.494  1.00  0.00     0.020 A 
ATOM     68  C   UNL A   1      43.163  33.597  34.520  1.00  0.00     0.020 A 
ATOM     69  C   UNL A   1      43.693  34.693  33.833  1.00  0.00     0.054 A 
BRANCH  69  70
ATOM     70  S   UNL A   1      43.811  36.294  34.676  1.00  0.00     0.124 S 
ATOM     71  O   UNL A   1      43.505  37.230  33.601  1.00  0.00    -0.237 OA
ATOM     72  O   UNL A   1      42.804  36.184  35.729  1.00  0.00    -0.237 OA
ATOM     73  O   UNL A   1      45.194  36.305  35.151  1.00  0.00    -0.744 OA
ENDBRANCH  69  70
ENDBRANCH  50  64
BRANCH  51  74
ATOM     74  C   UNL A   1      42.133  23.590  27.857  1.00  0.00    -0.014 A 
ATOM     75  C   UNL A   1      41.358  22.608  28.496  1.00  0.00     0.010 A 
ATOM     76  C   UNL A   1      42.763  23.294  26.637  1.00  0.00     0.010 A 
ATOM     77  C   UNL A   1      41.243  21.332  27.939  1.00  0.00     0.020 A 
ATOM     78  C   UNL A   1      42.644  22.021  26.075  1.00  0.00     0.020 A 
ATOM     79  C   UNL A   1      41.904  21.041  26.742  1.00  0.00     0.054 A 
BRANCH  79  80
ATOM     80  S   UNL A   1      41.795  19.372  26.042  1.00  0.00     0.124 S 
ATOM     81  O   UNL A   1      42.648  19.490  24.862  1.00  0.00    -0.237 OA
ATOM     82  O   UNL A   1      42.319  18.528  27.113  1.00  0.00    -0.237 OA
ATOM     83  O   UNL A   1      40.368  19.217  25.774  1.00  0.00    -0.744 OA
ENDBRANCH  79  80
ENDBRANCH  51  74
BRANCH  63  84
ATOM     84  C   UNL A   1      47.310  26.275  31.689  1.00  0.00    -0.014 A 
ATOM     85  C   UNL A   1      48.402  26.296  30.805  1.00  0.00     0.010 A 
ATOM     86  C   UNL A   1      47.453  25.676  32.952  1.00  0.00     0.010 A 
ATOM     87  C   UNL A   1      49.619  25.713  31.171  1.00  0.00     0.020 A 
ATOM     88  C   UNL A   1      48.672  25.100  33.325  1.00  0.00     0.020 A 
ATOM     89  C   UNL A   1      49.742  25.107  32.425  1.00  0.00     0.054 A 
BRANCH  89  90
ATOM     90  S   UNL A   1      51.319  24.345  32.898  1.00  0.00     0.124 S 
ATOM     91  O   UNL A   1      51.279  23.081  32.168  1.00  0.00    -0.237 OA
ATOM     92  O   UNL A   1      52.309  25.311  32.426  1.00  0.00    -0.237 OA
ATOM     93  O   UNL A   1      51.214  24.235  34.351  1.00  0.00    -0.744 OA
ENDBRANCH  89  90
ENDBRANCH  63  84
ENDBRANCH  37  38
ENDBRANCH  29  32
ENDBRANCH  27  28
ENDBRANCH   1  27
TORSDOF 16
ENDMDL
MODEL 3
REMARK VINA RESULT:     -11.6      3.969     10.203
REMARK SMILES CC(=O)N1CCN(C(=O)c2ccc(=O)n(CCC(=O)NCCCNC(=O)c3ccc(-c4c5nc(c(-c6ccc(S(=O)(=O)[O-])cc6)c6ccc([nH]6)c(-c6ccc(S(=O)(=O)[O-])cc6)c6nc(c(-c7ccc(S(=O)(=O)[O-])cc7)c7ccc4[nH]7)C=C6)C=C5)cc3)n2)CC1
REMARK SMILES IDX 22 1 21 2 20 3 18 4 19 5 17 7 16 8 15 9 10 10 11 11 87 12
REMARK SMILES IDX 12 13 13 14 14 15 8 16 1 17 2 18 3 19 4 20 5 21 89 22 6 23
REMARK SMILES IDX 88 24 7 25 9 26 23 27 24 28 25 29 26 31 27 32 28 33 86 34
REMARK SMILES IDX 29 35 85 36 30 37 31 38 32 39 79 40 33 41 84 42 78 43 80 44
REMARK SMILES IDX 34 45 83 46 77 47 76 48 35 50 65 51 46 52 64 53 47 54 50 55
REMARK SMILES IDX 63 56 81 57 48 58 49 59 62 61 82 62 51 63 36 64 37 65 45 66
REMARK SMILES IDX 38 67 44 68 39 69 40 70 41 71 42 72 43 73 66 74 67 75 75 76
REMARK SMILES IDX 68 77 74 78 69 79 70 80 71 81 72 82 73 83 52 84 53 85 61 86
REMARK SMILES IDX 54 87 60 88 55 89 56 90 57 91 58 92 59 93
REMARK H PARENT 20 6 24 30 80 49 50 60
REMARK Flexibility Score: inf
ROOT
ATOM      1  C   UNL A   1      41.264  21.621  26.179  1.00  0.00     0.042 C 
ENDROOT
BRANCH   1   2
ATOM      2  C   UNL A   1      39.812  21.157  26.332  1.00  0.00     0.117 C 
BRANCH   2   3
ATOM      3  N   UNL A   1      38.912  22.296  26.448  1.00  0.00    -0.356 N 
ATOM      4  C   UNL A   1      37.766  22.613  25.793  1.00  0.00     0.221 C 
ATOM      5  O   UNL A   1      37.173  23.645  26.124  1.00  0.00    -0.275 OA
ATOM      6  H   UNL A   1      39.184  22.956  27.126  1.00  0.00     0.163 HD
BRANCH   4   7
ATOM      7  C   UNL A   1      37.220  21.742  24.691  1.00  0.00     0.124 C 
BRANCH   7   8
ATOM      8  C   UNL A   1      36.114  20.835  25.226  1.00  0.00     0.158 C 
BRANCH   8   9
ATOM      9  N   UNL A   1      34.827  21.147  24.610  1.00  0.00    -0.229 N 
ATOM     10  C   UNL A   1      33.539  22.739  23.607  1.00  0.00     0.149 A 
ATOM     11  C   UNL A   1      32.315  21.926  23.716  1.00  0.00     0.042 A 
ATOM     12  N   UNL A   1      34.707  22.407  24.060  1.00  0.00    -0.164 NA
ATOM     13  C   UNL A   1      32.490  20.673  24.138  1.00  0.00     0.076 A 
ATOM     14  C   UNL A   1      33.823  20.189  24.563  1.00  0.00     0.266 A 
ATOM     15  O   UNL A   1      33.955  19.015  24.893  1.00  0.00    -0.268 OA
BRANCH  10  16
ATOM     16  C   UNL A   1      33.409  24.035  22.832  1.00  0.00     0.274 C 
ATOM     17  C   UNL A   1      31.954  28.612  27.091  1.00  0.00     0.114 C 
ATOM     18  C   UNL A   1      31.689  28.546  25.607  1.00  0.00     0.219 C 
ATOM     19  O   UNL A   1      31.225  29.514  25.003  1.00  0.00    -0.275 OA
ATOM     20  N   UNL A   1      31.962  27.345  24.970  1.00  0.00    -0.339 N 
ATOM     21  C   UNL A   1      31.902  27.281  23.506  1.00  0.00     0.141 C 
ATOM     22  C   UNL A   1      32.123  26.059  25.647  1.00  0.00     0.141 C 
ATOM     23  C   UNL A   1      33.081  26.481  22.927  1.00  0.00     0.141 C 
ATOM     24  C   UNL A   1      33.280  25.243  25.061  1.00  0.00     0.141 C 
ATOM     25  N   UNL A   1      33.228  25.183  23.592  1.00  0.00    -0.334 N 
ATOM     26  O   UNL A   1      33.474  23.984  21.611  1.00  0.00    -0.267 OA
ENDBRANCH  10  16
ENDBRANCH   8   9
ENDBRANCH   7   8
ENDBRANCH   4   7
ENDBRANCH   2   3
ENDBRANCH   1   2
BRANCH   1  27
ATOM     27  C   UNL A   1      41.568  22.973  26.826  1.00  0.00     0.118 C 
BRANCH  27  28
ATOM     28  N   UNL A   1      41.538  24.077  25.887  1.00  0.00    -0.352 N 
ATOM     29  C   UNL A   1      41.506  25.439  26.025  1.00  0.00     0.251 C 
ATOM     30  H   UNL A   1      41.542  23.783  24.947  1.00  0.00     0.163 HD
ATOM     31  O   UNL A   1      41.647  26.089  24.986  1.00  0.00    -0.269 OA
BRANCH  29  32
ATOM     32  C   UNL A   1      41.303  26.180  27.308  1.00  0.00     0.039 A 
ATOM     33  C   UNL A   1      40.274  25.947  28.222  1.00  0.00     0.014 A 
ATOM     34  C   UNL A   1      42.168  27.264  27.554  1.00  0.00     0.014 A 
ATOM     35  C   UNL A   1      40.098  26.784  29.333  1.00  0.00     0.010 A 
ATOM     36  C   UNL A   1      42.005  28.094  28.670  1.00  0.00     0.010 A 
ATOM     37  C   UNL A   1      40.953  27.870  29.561  1.00  0.00    -0.014 A 
BRANCH  37  38
ATOM     38  C   UNL A   1      40.738  28.753  30.733  1.00  0.00     0.031 A 
ATOM     39  C   UNL A   1      41.652  28.691  31.924  1.00  0.00     0.074 A 
ATOM     40  C   UNL A   1      39.733  29.646  30.717  1.00  0.00     0.049 A 
ATOM     41  N   UNL A   1      41.673  29.463  32.981  1.00  0.00    -0.248 NA
ATOM     42  C   UNL A   1      42.671  27.630  31.929  1.00  0.00     0.031 C 
ATOM     43  C   UNL A   1      38.765  29.804  29.631  1.00  0.00     0.029 A 
ATOM     44  N   UNL A   1      39.373  30.601  31.634  1.00  0.00    -0.354 N 
ATOM     45  C   UNL A   1      42.711  28.993  33.774  1.00  0.00     0.074 A 
ATOM     46  C   UNL A   1      43.282  27.851  33.088  1.00  0.00     0.031 C 
ATOM     47  C   UNL A   1      37.940  30.822  29.930  1.00  0.00     0.029 A 
ATOM     48  C   UNL A   1      38.318  31.380  31.227  1.00  0.00     0.049 A 
ATOM     49  H   UNL A   1      39.826  30.717  32.500  1.00  0.00     0.167 HD
ATOM     50  C   UNL A   1      43.156  29.471  34.960  1.00  0.00     0.031 A 
ATOM     51  C   UNL A   1      37.732  32.441  31.815  1.00  0.00     0.031 A 
ATOM     52  C   UNL A   1      42.595  30.591  35.661  1.00  0.00     0.049 A 
ATOM     53  C   UNL A   1      38.237  32.951  33.131  1.00  0.00     0.074 A 
ATOM     54  C   UNL A   1      42.999  31.140  36.867  1.00  0.00     0.029 A 
ATOM     55  N   UNL A   1      41.510  31.335  35.227  1.00  0.00    -0.354 N 
ATOM     56  N   UNL A   1      39.240  32.509  33.850  1.00  0.00    -0.248 NA
ATOM     57  C   UNL A   1      37.538  34.108  33.711  1.00  0.00     0.031 C 
ATOM     58  C   UNL A   1      42.146  32.208  37.170  1.00  0.00     0.029 A 
ATOM     59  C   UNL A   1      41.226  32.333  36.143  1.00  0.00     0.049 A 
ATOM     60  H   UNL A   1      41.015  31.176  34.391  1.00  0.00     0.167 HD
ATOM     61  C   UNL A   1      39.297  33.338  34.964  1.00  0.00     0.074 A 
ATOM     62  C   UNL A   1      38.234  34.311  34.824  1.00  0.00     0.031 C 
ATOM     63  C   UNL A   1      40.162  33.292  36.006  1.00  0.00     0.031 A 
BRANCH  50  64
ATOM     64  C   UNL A   1      44.335  28.781  35.575  1.00  0.00    -0.014 A 
ATOM     65  C   UNL A   1      44.145  27.730  36.488  1.00  0.00     0.010 A 
ATOM     66  C   UNL A   1      45.639  29.217  35.277  1.00  0.00     0.010 A 
ATOM     67  C   UNL A   1      45.245  27.109  37.086  1.00  0.00     0.020 A 
ATOM     68  C   UNL A   1      46.739  28.594  35.867  1.00  0.00     0.020 A 
ATOM     69  C   UNL A   1      46.534  27.548  36.771  1.00  0.00     0.054 A 
BRANCH  69  70
ATOM     70  S   UNL A   1      47.970  26.703  37.487  1.00  0.00     0.124 S 
ATOM     71  O   UNL A   1      49.044  27.110  36.589  1.00  0.00    -0.237 OA
ATOM     72  O   UNL A   1      48.032  27.252  38.840  1.00  0.00    -0.237 OA
ATOM     73  O   UNL A   1      47.583  25.295  37.414  1.00  0.00    -0.744 OA
ENDBRANCH  69  70
ENDBRANCH  50  64
BRANCH  51  74
ATOM     74  C   UNL A   1      36.620  33.121  31.108  1.00  0.00    -0.014 A 
ATOM     75  C   UNL A   1      36.834  33.718  29.855  1.00  0.00     0.010 A 
ATOM     76  C   UNL A   1      35.366  33.240  31.730  1.00  0.00     0.010 A 
ATOM     77  C   UNL A   1      35.817  34.457  29.246  1.00  0.00     0.020 A 
ATOM     78  C   UNL A   1      34.345  33.972  31.120  1.00  0.00     0.020 A 
ATOM     79  C   UNL A   1      34.585  34.595  29.893  1.00  0.00     0.054 A 
BRANCH  79  80
ATOM     80  S   UNL A   1      33.279  35.593  29.127  1.00  0.00     0.124 S 
ATOM     81  O   UNL A   1      32.529  34.581  28.387  1.00  0.00    -0.237 OA
ATOM     82  O   UNL A   1      32.587  36.172  30.276  1.00  0.00    -0.237 OA
ATOM     83  O   UNL A   1      34.025  36.545  28.309  1.00  0.00    -0.744 OA
ENDBRANCH  79  80
ENDBRANCH  51  74
BRANCH  63  84
ATOM     84  C   UNL A   1      40.007  34.318  37.091  1.00  0.00    -0.014 A 
ATOM     85  C   UNL A   1      39.058  34.122  38.109  1.00  0.00     0.010 A 
ATOM     86  C   UNL A   1      40.737  35.517  37.047  1.00  0.00     0.010 A 
ATOM     87  C   UNL A   1      38.831  35.117  39.064  1.00  0.00     0.020 A 
ATOM     88  C   UNL A   1      40.520  36.511  38.007  1.00  0.00     0.020 A 
ATOM     89  C   UNL A   1      39.554  36.311  38.999  1.00  0.00     0.054 A 
BRANCH  89  90
ATOM     90  S   UNL A   1      39.256  37.605  40.235  1.00  0.00     0.124 S 
ATOM     91  O   UNL A   1      40.544  38.294  40.273  1.00  0.00    -0.237 OA
ATOM     92  O   UNL A   1      38.152  38.368  39.657  1.00  0.00    -0.237 OA
ATOM     93  O   UNL A   1      38.915  36.847  41.437  1.00  0.00    -0.744 OA
ENDBRANCH  89  90
ENDBRANCH  63  84
ENDBRANCH  37  38
ENDBRANCH  29  32
ENDBRANCH  27  28
ENDBRANCH   1  27
TORSDOF 16
ENDMDL
