MODEL 1
REMARK VINA RESULT:     -11.8      0.000      0.000
REMARK SMILES O=C(C[N@H+]1CCC[C@@H]1C(=O)NCCCNC(=O)c1ccc(-c2c3nc(c(-c4ccc(S(=O)(=O)[O-])cc4)c4ccc([nH]4)c(-c4ccc(S(=O)(=O)[O-])cc4)c4nc(c(-c5ccc(S(=O)(=O)[O-])cc5)c5ccc2[nH]5)C=C4)C=C3)cc1)NCc1ccc(Cl)cc1
REMARK SMILES IDX 12 1 11 2 9 3 10 4 8 6 4 7 5 8 6 10 7 11 3 12 2 13 1 14
REMARK SMILES IDX 78 15 79 17 80 18 81 19 86 20 82 21 85 22 83 23 84 24 13 25
REMARK SMILES IDX 14 26 15 27 16 28 17 30 18 31 19 32 77 33 20 34 76 35 21 36
REMARK SMILES IDX 22 37 23 38 70 39 24 40 75 41 69 42 71 43 25 44 74 45 68 46
REMARK SMILES IDX 67 47 26 49 56 50 37 51 55 52 38 53 41 54 54 55 72 56 39 57
REMARK SMILES IDX 40 58 53 60 73 61 42 62 27 63 28 64 36 65 29 66 35 67 30 68
REMARK SMILES IDX 31 69 32 70 33 71 34 72 57 73 58 74 66 75 59 76 65 77 60 78
REMARK SMILES IDX 61 79 62 80 63 81 64 82 43 83 44 84 52 85 45 86 51 87 46 88
REMARK SMILES IDX 47 89 48 90 49 91 50 92
REMARK H PARENT 11 5 4 9 78 16 15 29 71 48 41 59
REMARK Flexibility Score: inf
ROOT
ATOM      1  C   UNL A   1      33.072  27.209  24.862  1.00  0.00     0.118 C 
ENDROOT
BRANCH   1   2
ATOM      2  N   UNL A   1      33.442  26.993  23.488  1.00  0.00    -0.351 N 
ATOM      3  C   UNL A   1      33.667  25.799  22.875  1.00  0.00     0.278 C 
ATOM      4  O   UNL A   1      33.699  25.795  21.639  1.00  0.00    -0.268 OA
ATOM      5  H   UNL A   1      33.545  27.798  22.931  1.00  0.00     0.163 HD
BRANCH   3   6
ATOM      6  C   UNL A   1      33.951  24.509  23.655  1.00  0.00     0.274 C 
ATOM      7  N   UNL A   1      32.831  23.784  24.257  1.00  0.00    -0.317 N 
ATOM      8  C   UNL A   1      33.373  22.840  25.204  1.00  0.00     0.263 C 
ATOM      9  H   UNL A   1      32.141  24.476  24.550  1.00  0.00     0.349 HD
ATOM     10  C   UNL A   1      34.248  23.816  25.977  1.00  0.00     0.068 C 
ATOM     11  C   UNL A   1      34.862  24.704  24.883  1.00  0.00     0.081 C 
BRANCH   7  12
ATOM     12  C   UNL A   1      31.466  23.727  23.780  1.00  0.00     0.364 C 
BRANCH  12  13
ATOM     13  C   UNL A   1      30.585  24.814  24.467  1.00  0.00     0.275 C 
ATOM     14  O   UNL A   1      30.560  24.942  25.690  1.00  0.00    -0.268 OA
ATOM     15  N   UNL A   1      29.815  25.599  23.635  1.00  0.00    -0.347 N 
ATOM     16  H   UNL A   1      30.046  25.616  22.677  1.00  0.00     0.164 HD
BRANCH  15  17
ATOM     17  C   UNL A   1      28.690  26.400  24.072  1.00  0.00     0.151 C 
BRANCH  17  18
ATOM     18  C   UNL A   1      28.706  27.773  23.452  1.00  0.00    -0.029 A 
ATOM     19  C   UNL A   1      27.500  28.443  23.208  1.00  0.00     0.007 A 
ATOM     20  C   UNL A   1      29.911  28.376  23.054  1.00  0.00     0.007 A 
ATOM     21  C   UNL A   1      27.493  29.695  22.592  1.00  0.00     0.021 A 
ATOM     22  C   UNL A   1      29.904  29.628  22.433  1.00  0.00     0.021 A 
ATOM     23  C   UNL A   1      28.695  30.282  22.205  1.00  0.00     0.041 A 
ATOM     24  Cl  UNL A   1      28.679  31.820  21.435  1.00  0.00    -0.084 Cl
ENDBRANCH  17  18
ENDBRANCH  15  17
ENDBRANCH  12  13
ENDBRANCH   7  12
ENDBRANCH   3   6
ENDBRANCH   1   2
BRANCH   1  25
ATOM     25  C   UNL A   1      33.940  28.182  25.620  1.00  0.00     0.042 C 
BRANCH  25  26
ATOM     26  C   UNL A   1      33.513  28.384  27.059  1.00  0.00     0.118 C 
BRANCH  26  27
ATOM     27  N   UNL A   1      33.457  29.789  27.454  1.00  0.00    -0.352 N 
ATOM     28  C   UNL A   1      34.395  30.586  28.059  1.00  0.00     0.251 C 
ATOM     29  H   UNL A   1      32.604  30.238  27.252  1.00  0.00     0.163 HD
ATOM     30  O   UNL A   1      34.082  31.717  28.427  1.00  0.00    -0.269 OA
BRANCH  28  31
ATOM     31  C   UNL A   1      35.763  30.084  28.305  1.00  0.00     0.039 A 
ATOM     32  C   UNL A   1      36.711  30.181  27.284  1.00  0.00     0.014 A 
ATOM     33  C   UNL A   1      36.119  29.524  29.533  1.00  0.00     0.014 A 
ATOM     34  C   UNL A   1      38.027  29.784  27.525  1.00  0.00     0.010 A 
ATOM     35  C   UNL A   1      37.452  29.256  29.813  1.00  0.00     0.010 A 
ATOM     36  C   UNL A   1      38.418  29.360  28.806  1.00  0.00    -0.014 A 
BRANCH  36  37
ATOM     37  C   UNL A   1      39.827  28.996  29.097  1.00  0.00     0.031 A 
ATOM     38  C   UNL A   1      40.734  29.978  29.795  1.00  0.00     0.074 A 
ATOM     39  C   UNL A   1      40.295  27.794  28.707  1.00  0.00     0.049 A 
ATOM     40  N   UNL A   1      41.986  29.836  30.143  1.00  0.00    -0.248 NA
ATOM     41  C   UNL A   1      40.172  31.302  30.120  1.00  0.00     0.031 C 
ATOM     42  C   UNL A   1      39.530  26.781  27.971  1.00  0.00     0.029 A 
ATOM     43  N   UNL A   1      41.524  27.211  28.886  1.00  0.00    -0.354 N 
ATOM     44  C   UNL A   1      42.358  31.045  30.720  1.00  0.00     0.074 A 
ATOM     45  C   UNL A   1      41.226  31.936  30.605  1.00  0.00     0.031 C 
ATOM     46  C   UNL A   1      40.288  25.684  27.816  1.00  0.00     0.029 A 
ATOM     47  C   UNL A   1      41.602  25.928  28.398  1.00  0.00     0.049 A 
ATOM     48  H   UNL A   1      42.279  27.669  29.322  1.00  0.00     0.167 HD
ATOM     49  C   UNL A   1      43.523  31.377  31.325  1.00  0.00     0.031 A 
ATOM     50  C   UNL A   1      42.617  25.042  28.429  1.00  0.00     0.031 A 
ATOM     51  C   UNL A   1      44.643  30.483  31.448  1.00  0.00     0.049 A 
ATOM     52  C   UNL A   1      43.902  25.437  29.104  1.00  0.00     0.074 A 
ATOM     53  C   UNL A   1      45.857  30.704  32.075  1.00  0.00     0.029 A 
ATOM     54  N   UNL A   1      44.683  29.193  30.942  1.00  0.00    -0.354 N 
ATOM     55  N   UNL A   1      44.211  26.567  29.695  1.00  0.00    -0.248 NA
ATOM     56  C   UNL A   1      44.967  24.428  29.131  1.00  0.00     0.031 C 
ATOM     57  C   UNL A   1      46.650  29.564  31.902  1.00  0.00     0.029 A 
ATOM     58  C   UNL A   1      45.905  28.610  31.227  1.00  0.00     0.049 A 
ATOM     59  H   UNL A   1      43.949  28.755  30.451  1.00  0.00     0.167 HD
ATOM     60  C   UNL A   1      45.496  26.390  30.198  1.00  0.00     0.074 A 
ATOM     61  C   UNL A   1      45.891  25.037  29.860  1.00  0.00     0.031 C 
ATOM     62  C   UNL A   1      46.281  27.264  30.878  1.00  0.00     0.031 A 
BRANCH  49  63
ATOM     63  C   UNL A   1      43.636  32.760  31.912  1.00  0.00    -0.014 A 
ATOM     64  C   UNL A   1      44.161  33.826  31.156  1.00  0.00     0.010 A 
ATOM     65  C   UNL A   1      43.170  33.013  33.214  1.00  0.00     0.010 A 
ATOM     66  C   UNL A   1      44.250  35.109  31.704  1.00  0.00     0.020 A 
ATOM     67  C   UNL A   1      43.227  34.302  33.753  1.00  0.00     0.020 A 
ATOM     68  C   UNL A   1      43.779  35.338  32.999  1.00  0.00     0.054 A 
BRANCH  68  69
ATOM     69  S   UNL A   1      43.867  37.023  33.666  1.00  0.00     0.124 S 
ATOM     70  O   UNL A   1      45.182  37.027  34.303  1.00  0.00    -0.237 OA
ATOM     71  O   UNL A   1      43.748  37.847  32.466  1.00  0.00    -0.237 OA
ATOM     72  O   UNL A   1      42.731  37.093  34.582  1.00  0.00    -0.744 OA
ENDBRANCH  68  69
ENDBRANCH  49  63
BRANCH  50  73
ATOM     73  C   UNL A   1      42.453  23.687  27.833  1.00  0.00    -0.014 A 
ATOM     74  C   UNL A   1      41.854  22.648  28.568  1.00  0.00     0.010 A 
ATOM     75  C   UNL A   1      42.914  23.422  26.530  1.00  0.00     0.010 A 
ATOM     76  C   UNL A   1      41.756  21.362  28.029  1.00  0.00     0.020 A 
ATOM     77  C   UNL A   1      42.787  22.146  25.975  1.00  0.00     0.020 A 
ATOM     78  C   UNL A   1      42.227  21.118  26.736  1.00  0.00     0.054 A 
BRANCH  78  79
ATOM     79  S   UNL A   1      42.076  19.447  26.049  1.00  0.00     0.124 S 
ATOM     80  O   UNL A   1      42.872  19.546  24.830  1.00  0.00    -0.237 OA
ATOM     81  O   UNL A   1      42.639  18.616  27.110  1.00  0.00    -0.237 OA
ATOM     82  O   UNL A   1      40.636  19.291  25.847  1.00  0.00    -0.744 OA
ENDBRANCH  78  79
ENDBRANCH  50  73
BRANCH  62  83
ATOM     83  C   UNL A   1      47.624  26.760  31.340  1.00  0.00    -0.014 A 
ATOM     84  C   UNL A   1      47.776  26.096  32.570  1.00  0.00     0.010 A 
ATOM     85  C   UNL A   1      48.752  26.958  30.522  1.00  0.00     0.010 A 
ATOM     86  C   UNL A   1      49.042  25.697  33.003  1.00  0.00     0.020 A 
ATOM     87  C   UNL A   1      50.013  26.527  30.936  1.00  0.00     0.020 A 
ATOM     88  C   UNL A   1      50.154  25.923  32.187  1.00  0.00     0.054 A 
BRANCH  88  89
ATOM     89  S   UNL A   1      51.789  25.406  32.775  1.00  0.00     0.124 S 
ATOM     90  O   UNL A   1      52.170  26.526  33.633  1.00  0.00    -0.237 OA
ATOM     91  O   UNL A   1      51.499  24.154  33.469  1.00  0.00    -0.237 OA
ATOM     92  O   UNL A   1      52.571  25.267  31.549  1.00  0.00    -0.744 OA
ENDBRANCH  88  89
ENDBRANCH  62  83
ENDBRANCH  36  37
ENDBRANCH  28  31
ENDBRANCH  26  27
ENDBRANCH  25  26
ENDBRANCH   1  25
TORSDOF 17
ENDMDL
MODEL 2
REMARK VINA RESULT:     -11.3      3.970      9.692
REMARK SMILES O=C(C[N@H+]1CCC[C@@H]1C(=O)NCCCNC(=O)c1ccc(-c2c3nc(c(-c4ccc(S(=O)(=O)[O-])cc4)c4ccc([nH]4)c(-c4ccc(S(=O)(=O)[O-])cc4)c4nc(c(-c5ccc(S(=O)(=O)[O-])cc5)c5ccc2[nH]5)C=C4)C=C3)cc1)NCc1ccc(Cl)cc1
REMARK SMILES IDX 12 1 11 2 9 3 10 4 8 6 4 7 5 8 6 10 7 11 3 12 2 13 1 14
REMARK SMILES IDX 78 15 79 17 80 18 81 19 86 20 82 21 85 22 83 23 84 24 13 25
REMARK SMILES IDX 14 26 15 27 16 28 17 30 18 31 19 32 77 33 20 34 76 35 21 36
REMARK SMILES IDX 22 37 23 38 70 39 24 40 75 41 69 42 71 43 25 44 74 45 68 46
REMARK SMILES IDX 67 47 26 49 56 50 37 51 55 52 38 53 41 54 54 55 72 56 39 57
REMARK SMILES IDX 40 58 53 60 73 61 42 62 27 63 28 64 36 65 29 66 35 67 30 68
REMARK SMILES IDX 31 69 32 70 33 71 34 72 57 73 58 74 66 75 59 76 65 77 60 78
REMARK SMILES IDX 61 79 62 80 63 81 64 82 43 83 44 84 52 85 45 86 51 87 46 88
REMARK SMILES IDX 47 89 48 90 49 91 50 92
REMARK H PARENT 11 5 4 9 78 16 15 29 71 48 41 59
REMARK Flexibility Score: inf
ROOT
ATOM      1  C   UNL A   1      33.489  29.521  26.250  1.00  0.00     0.118 C 
ENDROOT
BRANCH   1   2
ATOM      2  N   UNL A   1      33.902  29.221  24.905  1.00  0.00    -0.351 N 
ATOM      3  C   UNL A   1      33.103  29.073  23.813  1.00  0.00     0.278 C 
ATOM      4  O   UNL A   1      33.650  29.096  22.704  1.00  0.00    -0.268 OA
ATOM      5  H   UNL A   1      34.869  29.110  24.758  1.00  0.00     0.163 HD
BRANCH   3   6
ATOM      6  C   UNL A   1      31.596  28.807  23.920  1.00  0.00     0.274 C 
ATOM      7  N   UNL A   1      31.134  27.438  24.154  1.00  0.00    -0.317 N 
ATOM      8  C   UNL A   1      29.721  27.394  23.867  1.00  0.00     0.263 C 
ATOM      9  H   UNL A   1      31.780  26.811  23.676  1.00  0.00     0.349 HD
ATOM     10  C   UNL A   1      29.779  28.031  22.487  1.00  0.00     0.068 C 
ATOM     11  C   UNL A   1      30.800  29.168  22.651  1.00  0.00     0.081 C 
BRANCH   7  12
ATOM     12  C   UNL A   1      31.826  26.390  24.872  1.00  0.00     0.364 C 
BRANCH  12  13
ATOM     13  C   UNL A   1      32.519  25.399  23.888  1.00  0.00     0.275 C 
ATOM     14  O   UNL A   1      32.025  25.126  22.795  1.00  0.00    -0.268 OA
ATOM     15  N   UNL A   1      33.695  24.824  24.320  1.00  0.00    -0.347 N 
ATOM     16  H   UNL A   1      34.160  25.245  25.080  1.00  0.00     0.164 HD
BRANCH  15  17
ATOM     17  C   UNL A   1      34.294  23.642  23.735  1.00  0.00     0.151 C 
BRANCH  17  18
ATOM     18  C   UNL A   1      35.596  23.285  24.403  1.00  0.00    -0.029 A 
ATOM     19  C   UNL A   1      36.305  22.148  23.990  1.00  0.00     0.007 A 
ATOM     20  C   UNL A   1      36.090  24.038  25.482  1.00  0.00     0.007 A 
ATOM     21  C   UNL A   1      37.488  21.776  24.629  1.00  0.00     0.021 A 
ATOM     22  C   UNL A   1      37.273  23.662  26.125  1.00  0.00     0.021 A 
ATOM     23  C   UNL A   1      37.967  22.534  25.695  1.00  0.00     0.041 A 
ATOM     24  Cl  UNL A   1      39.420  22.062  26.486  1.00  0.00    -0.084 Cl
ENDBRANCH  17  18
ENDBRANCH  15  17
ENDBRANCH  12  13
ENDBRANCH   7  12
ENDBRANCH   3   6
ENDBRANCH   1   2
BRANCH   1  25
ATOM     25  C   UNL A   1      34.308  28.873  27.338  1.00  0.00     0.042 C 
BRANCH  25  26
ATOM     26  C   UNL A   1      35.485  29.710  27.794  1.00  0.00     0.118 C 
BRANCH  26  27
ATOM     27  N   UNL A   1      35.527  29.911  29.239  1.00  0.00    -0.352 N 
ATOM     28  C   UNL A   1      36.534  29.689  30.144  1.00  0.00     0.251 C 
ATOM     29  H   UNL A   1      34.695  30.266  29.628  1.00  0.00     0.163 HD
ATOM     30  O   UNL A   1      36.303  29.803  31.347  1.00  0.00    -0.269 OA
BRANCH  28  31
ATOM     31  C   UNL A   1      37.879  29.281  29.688  1.00  0.00     0.039 A 
ATOM     32  C   UNL A   1      38.350  29.756  28.462  1.00  0.00     0.014 A 
ATOM     33  C   UNL A   1      38.680  28.439  30.462  1.00  0.00     0.014 A 
ATOM     34  C   UNL A   1      39.647  29.443  28.054  1.00  0.00     0.010 A 
ATOM     35  C   UNL A   1      40.011  28.240  30.119  1.00  0.00     0.010 A 
ATOM     36  C   UNL A   1      40.503  28.719  28.901  1.00  0.00    -0.014 A 
BRANCH  36  37
ATOM     37  C   UNL A   1      41.907  28.434  28.510  1.00  0.00     0.031 A 
ATOM     38  C   UNL A   1      42.305  27.045  28.079  1.00  0.00     0.074 A 
ATOM     39  C   UNL A   1      42.825  29.419  28.570  1.00  0.00     0.049 A 
ATOM     40  N   UNL A   1      43.476  26.610  27.692  1.00  0.00    -0.248 NA
ATOM     41  C   UNL A   1      41.263  26.004  28.114  1.00  0.00     0.031 C 
ATOM     42  C   UNL A   1      42.573  30.790  29.028  1.00  0.00     0.029 A 
ATOM     43  N   UNL A   1      44.155  29.425  28.233  1.00  0.00    -0.354 N 
ATOM     44  C   UNL A   1      43.310  25.251  27.443  1.00  0.00     0.074 A 
ATOM     45  C   UNL A   1      41.949  24.918  27.797  1.00  0.00     0.031 C 
ATOM     46  C   UNL A   1      43.694  31.515  28.886  1.00  0.00     0.029 A 
ATOM     47  C   UNL A   1      44.753  30.655  28.372  1.00  0.00     0.049 A 
ATOM     48  H   UNL A   1      44.634  28.624  27.922  1.00  0.00     0.167 HD
ATOM     49  C   UNL A   1      44.197  24.365  26.931  1.00  0.00     0.031 A 
ATOM     50  C   UNL A   1      46.013  31.049  28.101  1.00  0.00     0.031 A 
ATOM     51  C   UNL A   1      45.546  24.705  26.569  1.00  0.00     0.049 A 
ATOM     52  C   UNL A   1      46.980  30.044  27.537  1.00  0.00     0.074 A 
ATOM     53  C   UNL A   1      46.517  23.894  26.006  1.00  0.00     0.029 A 
ATOM     54  N   UNL A   1      46.114  25.960  26.724  1.00  0.00    -0.354 N 
ATOM     55  N   UNL A   1      46.784  28.777  27.254  1.00  0.00    -0.248 NA
ATOM     56  C   UNL A   1      48.332  30.529  27.237  1.00  0.00     0.031 C 
ATOM     57  C   UNL A   1      47.688  24.647  25.870  1.00  0.00     0.029 A 
ATOM     58  C   UNL A   1      47.426  25.943  26.283  1.00  0.00     0.049 A 
ATOM     59  H   UNL A   1      45.652  26.747  27.093  1.00  0.00     0.167 HD
ATOM     60  C   UNL A   1      47.980  28.324  26.708  1.00  0.00     0.074 A 
ATOM     61  C   UNL A   1      48.880  29.460  26.680  1.00  0.00     0.031 C 
ATOM     62  C   UNL A   1      48.308  27.083  26.268  1.00  0.00     0.031 A 
BRANCH  49  63
ATOM     63  C   UNL A   1      43.726  22.949  26.721  1.00  0.00    -0.014 A 
ATOM     64  C   UNL A   1      44.027  22.256  25.533  1.00  0.00     0.010 A 
ATOM     65  C   UNL A   1      43.016  22.285  27.737  1.00  0.00     0.010 A 
ATOM     66  C   UNL A   1      43.597  20.939  25.351  1.00  0.00     0.020 A 
ATOM     67  C   UNL A   1      42.612  20.957  27.572  1.00  0.00     0.020 A 
ATOM     68  C   UNL A   1      42.895  20.297  26.374  1.00  0.00     0.054 A 
BRANCH  68  69
ATOM     69  S   UNL A   1      42.390  18.572  26.127  1.00  0.00     0.124 S 
ATOM     70  O   UNL A   1      40.975  18.718  25.789  1.00  0.00    -0.237 OA
ATOM     71  O   UNL A   1      43.256  18.140  25.033  1.00  0.00    -0.237 OA
ATOM     72  O   UNL A   1      42.660  17.943  27.417  1.00  0.00    -0.744 OA
ENDBRANCH  68  69
ENDBRANCH  49  63
BRANCH  50  73
ATOM     73  C   UNL A   1      46.427  32.462  28.329  1.00  0.00    -0.014 A 
ATOM     74  C   UNL A   1      46.279  33.425  27.313  1.00  0.00     0.010 A 
ATOM     75  C   UNL A   1      46.990  32.849  29.558  1.00  0.00     0.010 A 
ATOM     76  C   UNL A   1      46.724  34.735  27.508  1.00  0.00     0.020 A 
ATOM     77  C   UNL A   1      47.405  34.168  29.769  1.00  0.00     0.020 A 
ATOM     78  C   UNL A   1      47.287  35.097  28.734  1.00  0.00     0.054 A 
BRANCH  78  79
ATOM     79  S   UNL A   1      47.842  36.808  28.972  1.00  0.00     0.124 S 
ATOM     80  O   UNL A   1      46.856  37.318  29.919  1.00  0.00    -0.237 OA
ATOM     81  O   UNL A   1      49.195  36.631  29.496  1.00  0.00    -0.237 OA
ATOM     82  O   UNL A   1      47.774  37.378  27.628  1.00  0.00    -0.744 OA
ENDBRANCH  78  79
ENDBRANCH  50  73
BRANCH  62  83
ATOM     83  C   UNL A   1      49.682  26.908  25.677  1.00  0.00    -0.014 A 
ATOM     84  C   UNL A   1      50.751  26.403  26.440  1.00  0.00     0.010 A 
ATOM     85  C   UNL A   1      49.903  27.255  24.331  1.00  0.00     0.010 A 
ATOM     86  C   UNL A   1      52.030  26.312  25.886  1.00  0.00     0.020 A 
ATOM     87  C   UNL A   1      51.172  27.130  23.764  1.00  0.00     0.020 A 
ATOM     88  C   UNL A   1      52.234  26.684  24.554  1.00  0.00     0.054 A 
BRANCH  88  89
ATOM     89  S   UNL A   1      53.905  26.566  23.861  1.00  0.00     0.124 S 
ATOM     90  O   UNL A   1      54.449  25.415  24.577  1.00  0.00    -0.237 OA
ATOM     91  O   UNL A   1      53.647  26.356  22.439  1.00  0.00    -0.237 OA
ATOM     92  O   UNL A   1      54.511  27.852  24.196  1.00  0.00    -0.744 OA
ENDBRANCH  88  89
ENDBRANCH  62  83
ENDBRANCH  36  37
ENDBRANCH  28  31
ENDBRANCH  26  27
ENDBRANCH  25  26
ENDBRANCH   1  25
TORSDOF 17
ENDMDL
MODEL 3
REMARK VINA RESULT:     -11.2      2.809      9.051
REMARK SMILES O=C(C[N@H+]1CCC[C@@H]1C(=O)NCCCNC(=O)c1ccc(-c2c3nc(c(-c4ccc(S(=O)(=O)[O-])cc4)c4ccc([nH]4)c(-c4ccc(S(=O)(=O)[O-])cc4)c4nc(c(-c5ccc(S(=O)(=O)[O-])cc5)c5ccc2[nH]5)C=C4)C=C3)cc1)NCc1ccc(Cl)cc1
REMARK SMILES IDX 12 1 11 2 9 3 10 4 8 6 4 7 5 8 6 10 7 11 3 12 2 13 1 14
REMARK SMILES IDX 78 15 79 17 80 18 81 19 86 20 82 21 85 22 83 23 84 24 13 25
REMARK SMILES IDX 14 26 15 27 16 28 17 30 18 31 19 32 77 33 20 34 76 35 21 36
REMARK SMILES IDX 22 37 23 38 70 39 24 40 75 41 69 42 71 43 25 44 74 45 68 46
REMARK SMILES IDX 67 47 26 49 56 50 37 51 55 52 38 53 41 54 54 55 72 56 39 57
REMARK SMILES IDX 40 58 53 60 73 61 42 62 27 63 28 64 36 65 29 66 35 67 30 68
REMARK SMILES IDX 31 69 32 70 33 71 34 72 57 73 58 74 66 75 59 76 65 77 60 78
REMARK SMILES IDX 61 79 62 80 63 81 64 82 43 83 44 84 52 85 45 86 51 87 46 88
REMARK SMILES IDX 47 89 48 90 49 91 50 92
REMARK H PARENT 11 5 4 9 78 16 15 29 71 48 41 59
REMARK Flexibility Score: inf
ROOT
ATOM      1  C   UNL A   1      34.514  23.067  24.503  1.00  0.00     0.118 C 
ENDROOT
BRANCH   1   2
ATOM      2  N   UNL A   1      33.940  21.749  24.421  1.00  0.00    -0.351 N 
ATOM      3  C   UNL A   1      32.654  21.394  24.689  1.00  0.00     0.278 C 
ATOM      4  O   UNL A   1      32.280  20.283  24.297  1.00  0.00    -0.268 OA
ATOM      5  H   UNL A   1      34.545  21.025  24.139  1.00  0.00     0.163 HD
BRANCH   3   6
ATOM      6  C   UNL A   1      31.707  22.278  25.510  1.00  0.00     0.274 C 
ATOM      7  N   UNL A   1      31.135  23.473  24.887  1.00  0.00    -0.317 N 
ATOM      8  C   UNL A   1      30.585  24.298  25.935  1.00  0.00     0.263 C 
ATOM      9  H   UNL A   1      31.832  23.846  24.244  1.00  0.00     0.349 HD
ATOM     10  C   UNL A   1      31.817  24.331  26.827  1.00  0.00     0.068 C 
ATOM     11  C   UNL A   1      32.349  22.889  26.771  1.00  0.00     0.081 C 
BRANCH   7  12
ATOM     12  C   UNL A   1      30.830  23.669  23.486  1.00  0.00     0.364 C 
BRANCH  12  13
ATOM     13  C   UNL A   1      31.477  24.982  22.950  1.00  0.00     0.275 C 
ATOM     14  O   UNL A   1      32.668  25.035  22.649  1.00  0.00    -0.268 OA
ATOM     15  N   UNL A   1      30.653  26.084  22.864  1.00  0.00    -0.347 N 
ATOM     16  H   UNL A   1      29.680  25.932  22.889  1.00  0.00     0.164 HD
BRANCH  15  17
ATOM     17  C   UNL A   1      31.120  27.450  22.738  1.00  0.00     0.151 C 
BRANCH  17  18
ATOM     18  C   UNL A   1      31.890  27.892  23.954  1.00  0.00    -0.029 A 
ATOM     19  C   UNL A   1      33.212  28.339  23.820  1.00  0.00     0.007 A 
ATOM     20  C   UNL A   1      31.330  27.807  25.240  1.00  0.00     0.007 A 
ATOM     21  C   UNL A   1      33.957  28.708  24.940  1.00  0.00     0.021 A 
ATOM     22  C   UNL A   1      32.078  28.172  26.364  1.00  0.00     0.021 A 
ATOM     23  C   UNL A   1      33.387  28.622  26.208  1.00  0.00     0.041 A 
ATOM     24  Cl  UNL A   1      34.315  29.066  27.587  1.00  0.00    -0.084 Cl
ENDBRANCH  17  18
ENDBRANCH  15  17
ENDBRANCH  12  13
ENDBRANCH   7  12
ENDBRANCH   3   6
ENDBRANCH   1   2
BRANCH   1  25
ATOM     25  C   UNL A   1      35.542  23.257  25.590  1.00  0.00     0.042 C 
BRANCH  25  26
ATOM     26  C   UNL A   1      36.893  23.709  25.077  1.00  0.00     0.118 C 
BRANCH  26  27
ATOM     27  N   UNL A   1      37.973  22.779  25.393  1.00  0.00    -0.352 N 
ATOM     28  C   UNL A   1      39.139  22.965  26.092  1.00  0.00     0.251 C 
ATOM     29  H   UNL A   1      37.843  21.866  25.046  1.00  0.00     0.163 HD
ATOM     30  O   UNL A   1      39.978  22.066  26.120  1.00  0.00    -0.269 OA
BRANCH  28  31
ATOM     31  C   UNL A   1      39.408  24.245  26.778  1.00  0.00     0.039 A 
ATOM     32  C   UNL A   1      38.937  24.426  28.080  1.00  0.00     0.014 A 
ATOM     33  C   UNL A   1      40.124  25.266  26.150  1.00  0.00     0.014 A 
ATOM     34  C   UNL A   1      39.250  25.597  28.770  1.00  0.00     0.010 A 
ATOM     35  C   UNL A   1      40.546  26.369  26.881  1.00  0.00     0.010 A 
ATOM     36  C   UNL A   1      40.095  26.559  28.191  1.00  0.00    -0.014 A 
BRANCH  36  37
ATOM     37  C   UNL A   1      40.491  27.781  28.936  1.00  0.00     0.031 A 
ATOM     38  C   UNL A   1      41.862  27.879  29.555  1.00  0.00     0.074 A 
ATOM     39  C   UNL A   1      39.604  28.787  29.077  1.00  0.00     0.049 A 
ATOM     40  N   UNL A   1      42.389  28.868  30.229  1.00  0.00    -0.248 NA
ATOM     41  C   UNL A   1      42.746  26.707  29.424  1.00  0.00     0.031 C 
ATOM     42  C   UNL A   1      38.227  28.784  28.574  1.00  0.00     0.029 A 
ATOM     43  N   UNL A   1      39.732  30.015  29.676  1.00  0.00    -0.354 N 
ATOM     44  C   UNL A   1      43.657  28.435  30.604  1.00  0.00     0.074 A 
ATOM     45  C   UNL A   1      43.791  27.070  30.151  1.00  0.00     0.031 C 
ATOM     46  C   UNL A   1      37.661  29.973  28.832  1.00  0.00     0.029 A 
ATOM     47  C   UNL A   1      38.614  30.806  29.556  1.00  0.00     0.049 A 
ATOM     48  H   UNL A   1      40.548  30.302  30.146  1.00  0.00     0.167 HD
ATOM     49  C   UNL A   1      44.638  29.122  31.236  1.00  0.00     0.031 A 
ATOM     50  C   UNL A   1      38.388  32.067  29.972  1.00  0.00     0.031 A 
ATOM     51  C   UNL A   1      44.505  30.485  31.674  1.00  0.00     0.049 A 
ATOM     52  C   UNL A   1      39.494  32.806  30.675  1.00  0.00     0.074 A 
ATOM     53  C   UNL A   1      45.449  31.288  32.290  1.00  0.00     0.029 A 
ATOM     54  N   UNL A   1      43.358  31.251  31.535  1.00  0.00    -0.354 N 
ATOM     55  N   UNL A   1      40.706  32.397  30.967  1.00  0.00    -0.248 NA
ATOM     56  C   UNL A   1      39.204  34.185  31.087  1.00  0.00     0.031 C 
ATOM     57  C   UNL A   1      44.855  32.523  32.569  1.00  0.00     0.029 A 
ATOM     58  C   UNL A   1      43.564  32.513  32.066  1.00  0.00     0.049 A 
ATOM     59  H   UNL A   1      42.520  30.943  31.119  1.00  0.00     0.167 HD
ATOM     60  C   UNL A   1      41.336  33.484  31.565  1.00  0.00     0.074 A 
ATOM     61  C   UNL A   1      40.377  34.570  31.568  1.00  0.00     0.031 C 
ATOM     62  C   UNL A   1      42.594  33.578  32.065  1.00  0.00     0.031 A 
BRANCH  49  63
ATOM     63  C   UNL A   1      45.945  28.411  31.475  1.00  0.00    -0.014 A 
ATOM     64  C   UNL A   1      46.161  27.671  32.653  1.00  0.00     0.010 A 
ATOM     65  C   UNL A   1      46.952  28.440  30.494  1.00  0.00     0.010 A 
ATOM     66  C   UNL A   1      47.371  27.004  32.861  1.00  0.00     0.020 A 
ATOM     67  C   UNL A   1      48.152  27.747  30.684  1.00  0.00     0.020 A 
ATOM     68  C   UNL A   1      48.358  27.045  31.873  1.00  0.00     0.054 A 
BRANCH  68  69
ATOM     69  S   UNL A   1      49.901  26.132  32.152  1.00  0.00     0.124 S 
ATOM     70  O   UNL A   1      50.908  27.116  31.763  1.00  0.00    -0.237 OA
ATOM     71  O   UNL A   1      49.837  25.828  33.579  1.00  0.00    -0.237 OA
ATOM     72  O   UNL A   1      49.785  24.976  31.266  1.00  0.00    -0.744 OA
ENDBRANCH  68  69
ENDBRANCH  49  63
BRANCH  50  73
ATOM     73  C   UNL A   1      37.076  32.723  29.711  1.00  0.00    -0.014 A 
ATOM     74  C   UNL A   1      36.811  33.327  28.468  1.00  0.00     0.010 A 
ATOM     75  C   UNL A   1      36.090  32.766  30.713  1.00  0.00     0.010 A 
ATOM     76  C   UNL A   1      35.604  33.994  28.246  1.00  0.00     0.020 A 
ATOM     77  C   UNL A   1      34.867  33.403  30.483  1.00  0.00     0.020 A 
ATOM     78  C   UNL A   1      34.641  34.032  29.257  1.00  0.00     0.054 A 
BRANCH  78  79
ATOM     79  S   UNL A   1      33.073  34.889  28.943  1.00  0.00     0.124 S 
ATOM     80  O   UNL A   1      32.480  34.936  30.275  1.00  0.00    -0.237 OA
ATOM     81  O   UNL A   1      33.517  36.170  28.399  1.00  0.00    -0.237 OA
ATOM     82  O   UNL A   1      32.395  34.017  27.985  1.00  0.00    -0.744 OA
ENDBRANCH  78  79
ENDBRANCH  50  73
BRANCH  62  83
ATOM     83  C   UNL A   1      43.013  34.917  32.613  1.00  0.00    -0.014 A 
ATOM     84  C   UNL A   1      42.831  35.245  33.969  1.00  0.00     0.010 A 
ATOM     85  C   UNL A   1      43.600  35.862  31.751  1.00  0.00     0.010 A 
ATOM     86  C   UNL A   1      43.169  36.517  34.437  1.00  0.00     0.020 A 
ATOM     87  C   UNL A   1      43.973  37.121  32.224  1.00  0.00     0.020 A 
ATOM     88  C   UNL A   1      43.729  37.450  33.560  1.00  0.00     0.054 A 
BRANCH  88  89
ATOM     89  S   UNL A   1      44.150  39.098  34.188  1.00  0.00     0.124 S 
ATOM     90  O   UNL A   1      43.066  39.914  33.646  1.00  0.00    -0.237 OA
ATOM     91  O   UNL A   1      44.127  38.904  35.636  1.00  0.00    -0.237 OA
ATOM     92  O   UNL A   1      45.470  39.359  33.621  1.00  0.00    -0.744 OA
ENDBRANCH  88  89
ENDBRANCH  62  83
ENDBRANCH  36  37
ENDBRANCH  28  31
ENDBRANCH  26  27
ENDBRANCH  25  26
ENDBRANCH   1  25
TORSDOF 17
ENDMDL
