MODEL 1
REMARK VINA RESULT:     -11.4      0.000      0.000
REMARK SMILES C/C(=N\[NH+]=C1\NC(=O)[C@H](CC(=O)NCCCNC(=O)c2ccc(-c3c4nc(c(-c5ccc(S(=O)(=O)[O-])cc5)c5ccc([nH]5)c(-c5ccc(S(=O)(=O)[O-])cc5)c5nc(c(-c6ccc(S(=O)(=O)[O-])cc6)c6ccc3[nH]6)C=C5)C=C4)cc2)S1)c1ccc([N+](=O)[O-])cc1
REMARK SMILES IDX 14 1 13 2 11 3 12 4 10 6 9 7 4 8 5 9 6 11 80 12 7 13 8 15
REMARK SMILES IDX 3 16 1 17 2 18 81 19 82 20 89 21 83 22 88 23 84 24 85 25
REMARK SMILES IDX 86 26 87 27 15 28 16 29 17 30 18 31 19 33 20 34 21 35 79 36
REMARK SMILES IDX 22 37 78 38 23 39 24 40 25 41 72 42 26 43 77 44 71 45 73 46
REMARK SMILES IDX 27 47 76 48 70 49 69 50 28 52 58 53 39 54 57 55 40 56 43 57
REMARK SMILES IDX 56 58 74 59 41 60 42 61 55 63 75 64 44 65 29 66 30 67 38 68
REMARK SMILES IDX 31 69 37 70 32 71 33 72 34 73 35 74 36 75 59 76 60 77 68 78
REMARK SMILES IDX 61 79 67 80 62 81 63 82 64 83 65 84 66 85 45 86 46 87 54 88
REMARK SMILES IDX 47 89 53 90 48 91 49 92 50 93 51 94 52 95
REMARK H PARENT 13 5 4 10 6 14 17 32 73 51 43 62
REMARK Flexibility Score: inf
ROOT
ATOM      1  C   UNL A   1      31.699  30.691  26.136  1.00  0.00     0.117 C 
ENDROOT
BRANCH   1   2
ATOM      2  N   UNL A   1      31.556  29.731  27.223  1.00  0.00    -0.356 N 
ATOM      3  C   UNL A   1      31.749  28.383  27.255  1.00  0.00     0.221 C 
ATOM      4  O   UNL A   1      31.549  27.772  28.305  1.00  0.00    -0.275 OA
ATOM      5  H   UNL A   1      31.273  30.123  28.080  1.00  0.00     0.163 HD
BRANCH   3   6
ATOM      6  C   UNL A   1      32.188  27.650  26.012  1.00  0.00     0.127 C 
BRANCH   6   7
ATOM      7  C   UNL A   1      31.047  26.830  25.436  1.00  0.00     0.183 C 
ATOM      8  N   UNL A   1      31.465  24.403  22.480  1.00  0.00    -0.142 N 
ATOM      9  C   UNL A   1      31.464  25.294  23.410  1.00  0.00     0.337 C 
ATOM     10  H   UNL A   1      31.491  24.648  21.528  1.00  0.00     0.343 HD
ATOM     11  N   UNL A   1      31.144  26.560  23.073  1.00  0.00    -0.202 N 
ATOM     12  S   UNL A   1      31.600  25.111  25.134  1.00  0.00    -0.020 SA
ATOM     13  C   UNL A   1      30.620  27.313  24.072  1.00  0.00     0.322 C 
ATOM     14  H   UNL A   1      31.281  26.913  22.165  1.00  0.00     0.316 HD
ATOM     15  O   UNL A   1      29.839  28.241  23.875  1.00  0.00    -0.246 OA
BRANCH   8  16
ATOM     16  N   UNL A   1      31.428  23.077  22.894  1.00  0.00    -0.090 NA
ATOM     17  C   UNL A   1      33.874  23.118  22.366  1.00  0.00     0.071 C 
ATOM     18  C   UNL A   1      32.599  22.495  22.928  1.00  0.00     0.088 C 
BRANCH  18  19
ATOM     19  C   UNL A   1      32.696  21.110  23.489  1.00  0.00    -0.000 A 
ATOM     20  C   UNL A   1      33.323  20.911  24.729  1.00  0.00     0.017 A 
ATOM     21  C   UNL A   1      32.213  20.000  22.781  1.00  0.00     0.017 A 
ATOM     22  C   UNL A   1      33.479  19.621  25.248  1.00  0.00     0.086 A 
ATOM     23  C   UNL A   1      32.371  18.707  23.288  1.00  0.00     0.086 A 
ATOM     24  C   UNL A   1      33.009  18.523  24.518  1.00  0.00     0.269 A 
BRANCH  24  25
ATOM     25  N   UNL A   1      33.194  17.163  25.039  1.00  0.00     0.062 N 
ATOM     26  O   UNL A   1      32.430  16.780  25.935  1.00  0.00    -0.258 OA
ATOM     27  O   UNL A   1      34.099  16.475  24.545  1.00  0.00    -0.258 OA
ENDBRANCH  24  25
ENDBRANCH  18  19
ENDBRANCH   8  16
ENDBRANCH   6   7
ENDBRANCH   3   6
ENDBRANCH   1   2
BRANCH   1  28
ATOM     28  C   UNL A   1      31.580  32.142  26.599  1.00  0.00     0.042 C 
BRANCH  28  29
ATOM     29  C   UNL A   1      32.828  32.687  27.275  1.00  0.00     0.118 C 
BRANCH  29  30
ATOM     30  N   UNL A   1      32.644  34.060  27.712  1.00  0.00    -0.352 N 
ATOM     31  C   UNL A   1      33.212  34.718  28.776  1.00  0.00     0.251 C 
ATOM     32  H   UNL A   1      32.022  34.596  27.167  1.00  0.00     0.163 HD
ATOM     33  O   UNL A   1      32.734  35.787  29.144  1.00  0.00    -0.269 OA
BRANCH  31  34
ATOM     34  C   UNL A   1      34.380  34.140  29.484  1.00  0.00     0.039 A 
ATOM     35  C   UNL A   1      34.157  33.291  30.572  1.00  0.00     0.014 A 
ATOM     36  C   UNL A   1      35.689  34.459  29.111  1.00  0.00     0.014 A 
ATOM     37  C   UNL A   1      35.243  32.730  31.251  1.00  0.00     0.010 A 
ATOM     38  C   UNL A   1      36.766  33.834  29.735  1.00  0.00     0.010 A 
ATOM     39  C   UNL A   1      36.558  32.974  30.823  1.00  0.00    -0.014 A 
BRANCH  39  40
ATOM     40  C   UNL A   1      37.723  32.361  31.516  1.00  0.00     0.031 A 
ATOM     41  C   UNL A   1      38.180  32.900  32.849  1.00  0.00     0.074 A 
ATOM     42  C   UNL A   1      38.394  31.346  30.935  1.00  0.00     0.049 A 
ATOM     43  N   UNL A   1      39.207  32.538  33.576  1.00  0.00    -0.248 NA
ATOM     44  C   UNL A   1      37.395  34.002  33.431  1.00  0.00     0.031 C 
ATOM     45  C   UNL A   1      38.075  30.751  29.635  1.00  0.00     0.029 A 
ATOM     46  N   UNL A   1      39.490  30.636  31.361  1.00  0.00    -0.354 N 
ATOM     47  C   UNL A   1      39.194  33.368  34.692  1.00  0.00     0.074 A 
ATOM     48  C   UNL A   1      38.093  34.289  34.521  1.00  0.00     0.031 C 
ATOM     49  C   UNL A   1      38.938  29.753  29.382  1.00  0.00     0.029 A 
ATOM     50  C   UNL A   1      39.898  29.662  30.478  1.00  0.00     0.049 A 
ATOM     51  H   UNL A   1      39.941  30.806  32.219  1.00  0.00     0.167 HD
ATOM     52  C   UNL A   1      40.006  33.348  35.776  1.00  0.00     0.031 A 
ATOM     53  C   UNL A   1      40.934  28.802  30.535  1.00  0.00     0.031 A 
ATOM     54  C   UNL A   1      41.093  32.422  35.955  1.00  0.00     0.049 A 
ATOM     55  C   UNL A   1      41.839  28.823  31.739  1.00  0.00     0.074 A 
ATOM     56  C   UNL A   1      41.951  32.305  37.034  1.00  0.00     0.029 A 
ATOM     57  N   UNL A   1      41.466  31.452  35.040  1.00  0.00    -0.354 N 
ATOM     58  N   UNL A   1      41.776  29.585  32.805  1.00  0.00    -0.248 NA
ATOM     59  C   UNL A   1      42.948  27.858  31.752  1.00  0.00     0.031 C 
ATOM     60  C   UNL A   1      42.873  31.293  36.752  1.00  0.00     0.029 A 
ATOM     61  C   UNL A   1      42.551  30.741  35.523  1.00  0.00     0.049 A 
ATOM     62  H   UNL A   1      41.025  31.291  34.175  1.00  0.00     0.167 HD
ATOM     63  C   UNL A   1      42.817  29.168  33.628  1.00  0.00     0.074 A 
ATOM     64  C   UNL A   1      43.480  28.076  32.946  1.00  0.00     0.031 C 
ATOM     65  C   UNL A   1      43.191  29.647  34.839  1.00  0.00     0.031 A 
BRANCH  52  66
ATOM     66  C   UNL A   1      39.743  34.350  36.870  1.00  0.00    -0.014 A 
ATOM     67  C   UNL A   1      38.987  33.997  38.003  1.00  0.00     0.010 A 
ATOM     68  C   UNL A   1      40.322  35.631  36.807  1.00  0.00     0.010 A 
ATOM     69  C   UNL A   1      38.796  34.911  39.041  1.00  0.00     0.020 A 
ATOM     70  C   UNL A   1      40.157  36.540  37.857  1.00  0.00     0.020 A 
ATOM     71  C   UNL A   1      39.387  36.176  38.963  1.00  0.00     0.054 A 
BRANCH  71  72
ATOM     72  S   UNL A   1      39.170  37.319  40.355  1.00  0.00     0.124 S 
ATOM     73  O   UNL A   1      38.245  38.302  39.797  1.00  0.00    -0.237 OA
ATOM     74  O   UNL A   1      38.617  36.455  41.394  1.00  0.00    -0.237 OA
ATOM     75  O   UNL A   1      40.520  37.814  40.613  1.00  0.00    -0.744 OA
ENDBRANCH  71  72
ENDBRANCH  52  66
BRANCH  53  76
ATOM     76  C   UNL A   1      41.186  27.849  29.417  1.00  0.00    -0.014 A 
ATOM     77  C   UNL A   1      40.478  26.637  29.332  1.00  0.00     0.010 A 
ATOM     78  C   UNL A   1      42.170  28.134  28.452  1.00  0.00     0.010 A 
ATOM     79  C   UNL A   1      40.779  25.709  28.329  1.00  0.00     0.020 A 
ATOM     80  C   UNL A   1      42.450  27.224  27.429  1.00  0.00     0.020 A 
ATOM     81  C   UNL A   1      41.768  26.007  27.388  1.00  0.00     0.054 A 
BRANCH  81  82
ATOM     82  S   UNL A   1      42.143  24.791  26.094  1.00  0.00     0.124 S 
ATOM     83  O   UNL A   1      41.006  23.882  26.195  1.00  0.00    -0.237 OA
ATOM     84  O   UNL A   1      42.190  25.616  24.889  1.00  0.00    -0.237 OA
ATOM     85  O   UNL A   1      43.428  24.237  26.510  1.00  0.00    -0.744 OA
ENDBRANCH  81  82
ENDBRANCH  53  76
BRANCH  65  86
ATOM     86  C   UNL A   1      44.341  28.964  35.534  1.00  0.00    -0.014 A 
ATOM     87  C   UNL A   1      45.667  29.389  35.343  1.00  0.00     0.010 A 
ATOM     88  C   UNL A   1      44.080  27.913  36.432  1.00  0.00     0.010 A 
ATOM     89  C   UNL A   1      46.715  28.753  36.013  1.00  0.00     0.020 A 
ATOM     90  C   UNL A   1      45.123  27.295  37.127  1.00  0.00     0.020 A 
ATOM     91  C   UNL A   1      46.436  27.709  36.901  1.00  0.00     0.054 A 
BRANCH  91  92
ATOM     92  S   UNL A   1      47.810  26.930  37.792  1.00  0.00     0.124 S 
ATOM     93  O   UNL A   1      48.928  27.149  36.878  1.00  0.00    -0.237 OA
ATOM     94  O   UNL A   1      47.859  27.693  39.036  1.00  0.00    -0.237 OA
ATOM     95  O   UNL A   1      47.387  25.539  37.937  1.00  0.00    -0.744 OA
ENDBRANCH  91  92
ENDBRANCH  65  86
ENDBRANCH  39  40
ENDBRANCH  31  34
ENDBRANCH  29  30
ENDBRANCH  28  29
ENDBRANCH   1  28
TORSDOF 17
ENDMDL
MODEL 2
REMARK VINA RESULT:     -11.2      0.423      8.091
REMARK SMILES C/C(=N\[NH+]=C1\NC(=O)[C@H](CC(=O)NCCCNC(=O)c2ccc(-c3c4nc(c(-c5ccc(S(=O)(=O)[O-])cc5)c5ccc([nH]5)c(-c5ccc(S(=O)(=O)[O-])cc5)c5nc(c(-c6ccc(S(=O)(=O)[O-])cc6)c6ccc3[nH]6)C=C5)C=C4)cc2)S1)c1ccc([N+](=O)[O-])cc1
REMARK SMILES IDX 14 1 13 2 11 3 12 4 10 6 9 7 4 8 5 9 6 11 80 12 7 13 8 15
REMARK SMILES IDX 3 16 1 17 2 18 81 19 82 20 89 21 83 22 88 23 84 24 85 25
REMARK SMILES IDX 86 26 87 27 15 28 16 29 17 30 18 31 19 33 20 34 21 35 79 36
REMARK SMILES IDX 22 37 78 38 23 39 24 40 25 41 72 42 26 43 77 44 71 45 73 46
REMARK SMILES IDX 27 47 76 48 70 49 69 50 28 52 58 53 39 54 57 55 40 56 43 57
REMARK SMILES IDX 56 58 74 59 41 60 42 61 55 63 75 64 44 65 29 66 30 67 38 68
REMARK SMILES IDX 31 69 37 70 32 71 33 72 34 73 35 74 36 75 59 76 60 77 68 78
REMARK SMILES IDX 61 79 67 80 62 81 63 82 64 83 65 84 66 85 45 86 46 87 54 88
REMARK SMILES IDX 47 89 53 90 48 91 49 92 50 93 51 94 52 95
REMARK H PARENT 13 5 4 10 6 14 17 32 73 51 43 62
REMARK Flexibility Score: inf
ROOT
ATOM      1  C   UNL A   1      31.690  30.653  26.123  1.00  0.00     0.117 C 
ENDROOT
BRANCH   1   2
ATOM      2  N   UNL A   1      31.493  29.710  27.216  1.00  0.00    -0.356 N 
ATOM      3  C   UNL A   1      31.717  28.369  27.290  1.00  0.00     0.221 C 
ATOM      4  O   UNL A   1      31.456  27.772  28.334  1.00  0.00    -0.275 OA
ATOM      5  H   UNL A   1      31.138  30.111  28.042  1.00  0.00     0.163 HD
BRANCH   3   6
ATOM      6  C   UNL A   1      32.264  27.625  26.096  1.00  0.00     0.127 C 
BRANCH   6   7
ATOM      7  C   UNL A   1      31.161  26.867  25.379  1.00  0.00     0.183 C 
ATOM      8  N   UNL A   1      31.792  24.548  22.375  1.00  0.00    -0.142 N 
ATOM      9  C   UNL A   1      31.727  25.401  23.338  1.00  0.00     0.337 C 
ATOM     10  H   UNL A   1      31.918  24.830  21.441  1.00  0.00     0.343 HD
ATOM     11  N   UNL A   1      31.479  26.689  23.027  1.00  0.00    -0.202 N 
ATOM     12  S   UNL A   1      31.689  25.144  25.058  1.00  0.00    -0.020 SA
ATOM     13  C   UNL A   1      30.883  27.419  24.002  1.00  0.00     0.322 C 
ATOM     14  H   UNL A   1      31.714  27.074  22.152  1.00  0.00     0.316 HD
ATOM     15  O   UNL A   1      30.152  28.380  23.771  1.00  0.00    -0.246 OA
BRANCH   8  16
ATOM     16  N   UNL A   1      31.675  23.208  22.726  1.00  0.00    -0.090 NA
ATOM     17  C   UNL A   1      34.175  23.230  22.600  1.00  0.00     0.071 C 
ATOM     18  C   UNL A   1      32.819  22.607  22.926  1.00  0.00     0.088 C 
BRANCH  18  19
ATOM     19  C   UNL A   1      32.811  21.201  23.441  1.00  0.00    -0.000 A 
ATOM     20  C   UNL A   1      33.500  20.897  24.625  1.00  0.00     0.017 A 
ATOM     21  C   UNL A   1      32.167  20.170  22.740  1.00  0.00     0.017 A 
ATOM     22  C   UNL A   1      33.557  19.581  25.097  1.00  0.00     0.086 A 
ATOM     23  C   UNL A   1      32.225  18.852  23.200  1.00  0.00     0.086 A 
ATOM     24  C   UNL A   1      32.925  18.562  24.374  1.00  0.00     0.269 A 
BRANCH  24  25
ATOM     25  N   UNL A   1      33.003  17.174  24.844  1.00  0.00     0.062 N 
ATOM     26  O   UNL A   1      32.793  16.958  26.045  1.00  0.00    -0.258 OA
ATOM     27  O   UNL A   1      33.267  16.297  24.008  1.00  0.00    -0.258 OA
ENDBRANCH  24  25
ENDBRANCH  18  19
ENDBRANCH   8  16
ENDBRANCH   6   7
ENDBRANCH   3   6
ENDBRANCH   1   2
BRANCH   1  28
ATOM     28  C   UNL A   1      31.582  32.112  26.563  1.00  0.00     0.042 C 
BRANCH  28  29
ATOM     29  C   UNL A   1      32.813  32.643  27.281  1.00  0.00     0.118 C 
BRANCH  29  30
ATOM     30  N   UNL A   1      32.641  34.028  27.683  1.00  0.00    -0.352 N 
ATOM     31  C   UNL A   1      33.206  34.703  28.739  1.00  0.00     0.251 C 
ATOM     32  H   UNL A   1      32.034  34.559  27.118  1.00  0.00     0.163 HD
ATOM     33  O   UNL A   1      32.738  35.787  29.076  1.00  0.00    -0.269 OA
BRANCH  31  34
ATOM     34  C   UNL A   1      34.357  34.126  29.475  1.00  0.00     0.039 A 
ATOM     35  C   UNL A   1      35.652  34.409  29.031  1.00  0.00     0.014 A 
ATOM     36  C   UNL A   1      34.169  33.280  30.572  1.00  0.00     0.014 A 
ATOM     37  C   UNL A   1      36.753  33.881  29.713  1.00  0.00     0.010 A 
ATOM     38  C   UNL A   1      35.267  32.823  31.298  1.00  0.00     0.010 A 
ATOM     39  C   UNL A   1      36.573  33.106  30.870  1.00  0.00    -0.014 A 
BRANCH  39  40
ATOM     40  C   UNL A   1      37.734  32.562  31.624  1.00  0.00     0.031 A 
ATOM     41  C   UNL A   1      38.506  31.386  31.079  1.00  0.00     0.074 A 
ATOM     42  C   UNL A   1      38.074  33.096  32.815  1.00  0.00     0.049 A 
ATOM     43  N   UNL A   1      39.507  30.737  31.618  1.00  0.00    -0.248 NA
ATOM     44  C   UNL A   1      38.089  30.859  29.769  1.00  0.00     0.031 C 
ATOM     45  C   UNL A   1      37.390  34.215  33.469  1.00  0.00     0.029 A 
ATOM     46  N   UNL A   1      39.078  32.767  33.691  1.00  0.00    -0.354 N 
ATOM     47  C   UNL A   1      39.832  29.726  30.720  1.00  0.00     0.074 A 
ATOM     48  C   UNL A   1      38.888  29.810  29.628  1.00  0.00     0.031 C 
ATOM     49  C   UNL A   1      38.010  34.493  34.628  1.00  0.00     0.029 A 
ATOM     50  C   UNL A   1      39.105  33.549  34.823  1.00  0.00     0.049 A 
ATOM     51  H   UNL A   1      39.720  32.040  33.526  1.00  0.00     0.167 HD
ATOM     52  C   UNL A   1      40.842  28.825  30.782  1.00  0.00     0.031 A 
ATOM     53  C   UNL A   1      39.911  33.506  35.902  1.00  0.00     0.031 A 
ATOM     54  C   UNL A   1      41.792  28.749  31.860  1.00  0.00     0.049 A 
ATOM     55  C   UNL A   1      41.007  32.474  35.958  1.00  0.00     0.074 A 
ATOM     56  C   UNL A   1      42.869  27.890  31.995  1.00  0.00     0.029 A 
ATOM     57  N   UNL A   1      41.786  29.563  32.981  1.00  0.00    -0.354 N 
ATOM     58  N   UNL A   1      41.325  31.560  35.072  1.00  0.00    -0.248 NA
ATOM     59  C   UNL A   1      41.862  32.477  37.155  1.00  0.00     0.031 C 
ATOM     60  C   UNL A   1      43.488  28.155  33.220  1.00  0.00     0.029 A 
ATOM     61  C   UNL A   1      42.831  29.218  33.820  1.00  0.00     0.049 A 
ATOM     62  H   UNL A   1      41.135  30.280  33.154  1.00  0.00     0.167 HD
ATOM     63  C   UNL A   1      42.436  30.902  35.591  1.00  0.00     0.074 A 
ATOM     64  C   UNL A   1      42.745  31.535  36.856  1.00  0.00     0.031 C 
ATOM     65  C   UNL A   1      43.136  29.866  35.069  1.00  0.00     0.031 A 
BRANCH  52  66
ATOM     66  C   UNL A   1      40.988  27.853  29.640  1.00  0.00    -0.014 A 
ATOM     67  C   UNL A   1      42.097  27.919  28.775  1.00  0.00     0.010 A 
ATOM     68  C   UNL A   1      40.055  26.813  29.476  1.00  0.00     0.010 A 
ATOM     69  C   UNL A   1      42.257  26.978  27.756  1.00  0.00     0.020 A 
ATOM     70  C   UNL A   1      40.226  25.853  28.474  1.00  0.00     0.020 A 
ATOM     71  C   UNL A   1      41.322  25.948  27.615  1.00  0.00     0.054 A 
BRANCH  71  72
ATOM     72  S   UNL A   1      41.591  24.708  26.318  1.00  0.00     0.124 S 
ATOM     73  O   UNL A   1      41.685  25.539  25.120  1.00  0.00    -0.237 OA
ATOM     74  O   UNL A   1      42.836  24.071  26.739  1.00  0.00    -0.237 OA
ATOM     75  O   UNL A   1      40.404  23.861  26.395  1.00  0.00    -0.744 OA
ENDBRANCH  71  72
ENDBRANCH  52  66
BRANCH  53  76
ATOM     76  C   UNL A   1      39.715  34.460  37.030  1.00  0.00    -0.014 A 
ATOM     77  C   UNL A   1      40.323  35.728  37.014  1.00  0.00     0.010 A 
ATOM     78  C   UNL A   1      38.948  34.086  38.149  1.00  0.00     0.010 A 
ATOM     79  C   UNL A   1      40.205  36.586  38.113  1.00  0.00     0.020 A 
ATOM     80  C   UNL A   1      38.799  34.953  39.234  1.00  0.00     0.020 A 
ATOM     81  C   UNL A   1      39.448  36.189  39.219  1.00  0.00     0.054 A 
BRANCH  81  82
ATOM     82  S   UNL A   1      39.304  37.316  40.634  1.00  0.00     0.124 S 
ATOM     83  O   UNL A   1      38.825  36.422  41.683  1.00  0.00    -0.237 OA
ATOM     84  O   UNL A   1      40.672  37.803  40.791  1.00  0.00    -0.237 OA
ATOM     85  O   UNL A   1      38.344  38.317  40.175  1.00  0.00    -0.744 OA
ENDBRANCH  81  82
ENDBRANCH  53  76
BRANCH  65  86
ATOM     86  C   UNL A   1      44.338  29.380  35.836  1.00  0.00    -0.014 A 
ATOM     87  C   UNL A   1      44.233  28.341  36.777  1.00  0.00     0.010 A 
ATOM     88  C   UNL A   1      45.602  29.939  35.569  1.00  0.00     0.010 A 
ATOM     89  C   UNL A   1      45.365  27.892  37.462  1.00  0.00     0.020 A 
ATOM     90  C   UNL A   1      46.740  29.473  36.230  1.00  0.00     0.020 A 
ATOM     91  C   UNL A   1      46.612  28.462  37.184  1.00  0.00     0.054 A 
BRANCH  91  92
ATOM     92  S   UNL A   1      48.073  27.832  38.054  1.00  0.00     0.124 S 
ATOM     93  O   UNL A   1      49.099  28.796  37.664  1.00  0.00    -0.237 OA
ATOM     94  O   UNL A   1      47.661  27.887  39.454  1.00  0.00    -0.237 OA
ATOM     95  O   UNL A   1      48.247  26.485  37.514  1.00  0.00    -0.744 OA
ENDBRANCH  91  92
ENDBRANCH  65  86
ENDBRANCH  39  40
ENDBRANCH  31  34
ENDBRANCH  29  30
ENDBRANCH  28  29
ENDBRANCH   1  28
TORSDOF 17
ENDMDL
MODEL 3
REMARK VINA RESULT:     -10.8      5.261      9.805
REMARK SMILES C/C(=N\[NH+]=C1\NC(=O)[C@H](CC(=O)NCCCNC(=O)c2ccc(-c3c4nc(c(-c5ccc(S(=O)(=O)[O-])cc5)c5ccc([nH]5)c(-c5ccc(S(=O)(=O)[O-])cc5)c5nc(c(-c6ccc(S(=O)(=O)[O-])cc6)c6ccc3[nH]6)C=C5)C=C4)cc2)S1)c1ccc([N+](=O)[O-])cc1
REMARK SMILES IDX 14 1 13 2 11 3 12 4 10 6 9 7 4 8 5 9 6 11 80 12 7 13 8 15
REMARK SMILES IDX 3 16 1 17 2 18 81 19 82 20 89 21 83 22 88 23 84 24 85 25
REMARK SMILES IDX 86 26 87 27 15 28 16 29 17 30 18 31 19 33 20 34 21 35 79 36
REMARK SMILES IDX 22 37 78 38 23 39 24 40 25 41 72 42 26 43 77 44 71 45 73 46
REMARK SMILES IDX 27 47 76 48 70 49 69 50 28 52 58 53 39 54 57 55 40 56 43 57
REMARK SMILES IDX 56 58 74 59 41 60 42 61 55 63 75 64 44 65 29 66 30 67 38 68
REMARK SMILES IDX 31 69 37 70 32 71 33 72 34 73 35 74 36 75 59 76 60 77 68 78
REMARK SMILES IDX 61 79 67 80 62 81 63 82 64 83 65 84 66 85 45 86 46 87 54 88
REMARK SMILES IDX 47 89 53 90 48 91 49 92 50 93 51 94 52 95
REMARK H PARENT 13 5 4 10 6 14 17 32 73 51 43 62
REMARK Flexibility Score: inf
ROOT
ATOM      1  C   UNL A   1      34.285  33.908  30.223  1.00  0.00     0.117 C 
ENDROOT
BRANCH   1   2
ATOM      2  N   UNL A   1      33.556  34.933  30.958  1.00  0.00    -0.356 N 
ATOM      3  C   UNL A   1      33.911  35.679  32.041  1.00  0.00     0.221 C 
ATOM      4  O   UNL A   1      33.107  36.488  32.504  1.00  0.00    -0.275 OA
ATOM      5  H   UNL A   1      32.653  35.118  30.613  1.00  0.00     0.163 HD
BRANCH   3   6
ATOM      6  C   UNL A   1      35.271  35.501  32.671  1.00  0.00     0.127 C 
BRANCH   6   7
ATOM      7  C   UNL A   1      35.197  34.561  33.861  1.00  0.00     0.183 C 
ATOM      8  N   UNL A   1      37.421  31.445  34.239  1.00  0.00    -0.142 N 
ATOM      9  C   UNL A   1      36.706  32.474  33.945  1.00  0.00     0.337 C 
ATOM     10  H   UNL A   1      37.275  30.572  33.808  1.00  0.00     0.343 HD
ATOM     11  N   UNL A   1      35.534  32.271  33.308  1.00  0.00    -0.202 N 
ATOM     12  S   UNL A   1      36.884  34.135  34.430  1.00  0.00    -0.020 SA
ATOM     13  C   UNL A   1      34.591  33.226  33.505  1.00  0.00     0.322 C 
ATOM     14  H   UNL A   1      35.374  31.483  32.741  1.00  0.00     0.316 HD
ATOM     15  O   UNL A   1      33.385  32.999  33.456  1.00  0.00    -0.246 OA
BRANCH   8  16
ATOM     16  N   UNL A   1      38.410  31.631  35.198  1.00  0.00    -0.090 NA
ATOM     17  C   UNL A   1      39.863  30.431  33.550  1.00  0.00     0.071 C 
ATOM     18  C   UNL A   1      39.597  31.230  34.824  1.00  0.00     0.088 C 
BRANCH  18  19
ATOM     19  C   UNL A   1      40.763  31.506  35.722  1.00  0.00    -0.000 A 
ATOM     20  C   UNL A   1      40.938  32.797  36.246  1.00  0.00     0.017 A 
ATOM     21  C   UNL A   1      41.711  30.515  36.014  1.00  0.00     0.017 A 
ATOM     22  C   UNL A   1      42.050  33.097  37.040  1.00  0.00     0.086 A 
ATOM     23  C   UNL A   1      42.829  30.808  36.800  1.00  0.00     0.086 A 
ATOM     24  C   UNL A   1      42.997  32.100  37.305  1.00  0.00     0.269 A 
BRANCH  24  25
ATOM     25  N   UNL A   1      44.183  32.412  38.112  1.00  0.00     0.062 N 
ATOM     26  O   UNL A   1      45.286  32.387  37.549  1.00  0.00    -0.258 OA
ATOM     27  O   UNL A   1      44.010  32.689  39.308  1.00  0.00    -0.258 OA
ENDBRANCH  24  25
ENDBRANCH  18  19
ENDBRANCH   8  16
ENDBRANCH   6   7
ENDBRANCH   3   6
ENDBRANCH   1   2
BRANCH   1  28
ATOM     28  C   UNL A   1      34.286  34.139  28.713  1.00  0.00     0.042 C 
BRANCH  28  29
ATOM     29  C   UNL A   1      34.913  33.013  27.907  1.00  0.00     0.118 C 
BRANCH  29  30
ATOM     30  N   UNL A   1      34.048  31.847  27.853  1.00  0.00    -0.352 N 
ATOM     31  C   UNL A   1      34.385  30.515  27.830  1.00  0.00     0.251 C 
ATOM     32  H   UNL A   1      33.082  32.040  27.831  1.00  0.00     0.163 HD
ATOM     33  O   UNL A   1      33.534  29.687  27.515  1.00  0.00    -0.269 OA
BRANCH  31  34
ATOM     34  C   UNL A   1      35.762  30.078  28.166  1.00  0.00     0.039 A 
ATOM     35  C   UNL A   1      36.745  30.123  27.174  1.00  0.00     0.014 A 
ATOM     36  C   UNL A   1      36.081  29.590  29.437  1.00  0.00     0.014 A 
ATOM     37  C   UNL A   1      38.052  29.722  27.470  1.00  0.00     0.010 A 
ATOM     38  C   UNL A   1      37.400  29.270  29.752  1.00  0.00     0.010 A 
ATOM     39  C   UNL A   1      38.399  29.317  28.768  1.00  0.00    -0.014 A 
BRANCH  39  40
ATOM     40  C   UNL A   1      39.791  28.916  29.107  1.00  0.00     0.031 A 
ATOM     41  C   UNL A   1      40.719  29.897  29.779  1.00  0.00     0.074 A 
ATOM     42  C   UNL A   1      40.236  27.686  28.779  1.00  0.00     0.049 A 
ATOM     43  N   UNL A   1      41.980  29.752  30.098  1.00  0.00    -0.248 NA
ATOM     44  C   UNL A   1      40.165  31.219  30.119  1.00  0.00     0.031 C 
ATOM     45  C   UNL A   1      39.451  26.653  28.099  1.00  0.00     0.029 A 
ATOM     46  N   UNL A   1      41.461  27.095  28.968  1.00  0.00    -0.354 N 
ATOM     47  C   UNL A   1      42.370  30.960  30.667  1.00  0.00     0.074 A 
ATOM     48  C   UNL A   1      41.229  31.846  30.600  1.00  0.00     0.031 C 
ATOM     49  C   UNL A   1      40.204  25.551  27.952  1.00  0.00     0.029 A 
ATOM     50  C   UNL A   1      41.538  25.809  28.486  1.00  0.00     0.049 A 
ATOM     51  H   UNL A   1      42.214  27.549  29.410  1.00  0.00     0.167 HD
ATOM     52  C   UNL A   1      43.559  31.295  31.223  1.00  0.00     0.031 A 
ATOM     53  C   UNL A   1      42.567  24.939  28.462  1.00  0.00     0.031 A 
ATOM     54  C   UNL A   1      44.690  30.409  31.305  1.00  0.00     0.049 A 
ATOM     55  C   UNL A   1      43.888  25.349  29.060  1.00  0.00     0.074 A 
ATOM     56  C   UNL A   1      45.927  30.648  31.878  1.00  0.00     0.029 A 
ATOM     57  N   UNL A   1      44.722  29.116  30.809  1.00  0.00    -0.354 N 
ATOM     58  N   UNL A   1      44.216  26.480  29.637  1.00  0.00    -0.248 NA
ATOM     59  C   UNL A   1      44.973  24.358  29.015  1.00  0.00     0.031 C 
ATOM     60  C   UNL A   1      46.723  29.515  31.688  1.00  0.00     0.029 A 
ATOM     61  C   UNL A   1      45.962  28.550  31.050  1.00  0.00     0.049 A 
ATOM     62  H   UNL A   1      43.974  28.667  30.354  1.00  0.00     0.167 HD
ATOM     63  C   UNL A   1      45.535  26.324  30.052  1.00  0.00     0.074 A 
ATOM     64  C   UNL A   1      45.936  24.984  29.677  1.00  0.00     0.031 C 
ATOM     65  C   UNL A   1      46.342  27.209  30.684  1.00  0.00     0.031 A 
BRANCH  52  66
ATOM     66  C   UNL A   1      43.699  32.677  31.805  1.00  0.00    -0.014 A 
ATOM     67  C   UNL A   1      43.365  32.929  33.149  1.00  0.00     0.010 A 
ATOM     68  C   UNL A   1      44.243  33.717  31.030  1.00  0.00     0.010 A 
ATOM     69  C   UNL A   1      43.554  34.198  33.700  1.00  0.00     0.020 A 
ATOM     70  C   UNL A   1      44.460  34.982  31.586  1.00  0.00     0.020 A 
ATOM     71  C   UNL A   1      44.104  35.216  32.915  1.00  0.00     0.054 A 
BRANCH  71  72
ATOM     72  S   UNL A   1      44.391  36.837  33.678  1.00  0.00     0.124 S 
ATOM     73  O   UNL A   1      43.473  36.803  34.814  1.00  0.00    -0.237 OA
ATOM     74  O   UNL A   1      45.810  36.783  34.017  1.00  0.00    -0.237 OA
ATOM     75  O   UNL A   1      44.039  37.784  32.624  1.00  0.00    -0.744 OA
ENDBRANCH  71  72
ENDBRANCH  52  66
BRANCH  53  76
ATOM     76  C   UNL A   1      42.404  23.593  27.844  1.00  0.00    -0.014 A 
ATOM     77  C   UNL A   1      42.138  22.464  28.640  1.00  0.00     0.010 A 
ATOM     78  C   UNL A   1      42.554  23.428  26.455  1.00  0.00     0.010 A 
ATOM     79  C   UNL A   1      42.071  21.191  28.064  1.00  0.00     0.020 A 
ATOM     80  C   UNL A   1      42.454  22.162  25.872  1.00  0.00     0.020 A 
ATOM     81  C   UNL A   1      42.235  21.048  26.684  1.00  0.00     0.054 A 
BRANCH  81  82
ATOM     82  S   UNL A   1      42.141  19.389  25.955  1.00  0.00     0.124 S 
ATOM     83  O   UNL A   1      43.024  19.517  24.800  1.00  0.00    -0.237 OA
ATOM     84  O   UNL A   1      42.632  18.540  27.037  1.00  0.00    -0.237 OA
ATOM     85  O   UNL A   1      40.722  19.233  25.645  1.00  0.00    -0.744 OA
ENDBRANCH  81  82
ENDBRANCH  53  76
BRANCH  65  86
ATOM     86  C   UNL A   1      47.726  26.747  31.059  1.00  0.00    -0.014 A 
ATOM     87  C   UNL A   1      48.829  26.987  30.221  1.00  0.00     0.010 A 
ATOM     88  C   UNL A   1      47.931  26.108  32.296  1.00  0.00     0.010 A 
ATOM     89  C   UNL A   1      50.106  26.567  30.598  1.00  0.00     0.020 A 
ATOM     90  C   UNL A   1      49.211  25.714  32.690  1.00  0.00     0.020 A 
ATOM     91  C   UNL A   1      50.290  25.932  31.831  1.00  0.00     0.054 A 
BRANCH  91  92
ATOM     92  S   UNL A   1      51.965  25.436  32.317  1.00  0.00     0.124 S 
ATOM     93  O   UNL A   1      52.096  26.059  33.632  1.00  0.00    -0.237 OA
ATOM     94  O   UNL A   1      51.879  23.978  32.320  1.00  0.00    -0.237 OA
ATOM     95  O   UNL A   1      52.813  26.003  31.272  1.00  0.00    -0.744 OA
ENDBRANCH  91  92
ENDBRANCH  65  86
ENDBRANCH  39  40
ENDBRANCH  31  34
ENDBRANCH  29  30
ENDBRANCH  28  29
ENDBRANCH   1  28
TORSDOF 17
ENDMDL
