MODEL 1
REMARK VINA RESULT:     -12.3      0.000      0.000
REMARK SMILES O=C(NCCCNC(=O)[C@@H](Cc1ccccc1)N1C(=O)/C(=C/c2ccncc2)SC1=S)c1ccc(-c2c3nc(c(-c4ccc(S(=O)(=O)[O-])cc4)c4ccc([nH]4)c(-c4ccc(S(=O)(=O)[O-])cc4)c4nc(c(-c5ccc(S(=O)(=O)[O-])cc5)c5ccc2[nH]5)C=C4)C=C3)cc1
REMARK SMILES IDX 4 1 3 2 1 3 2 4 32 6 33 7 91 8 34 9 90 10 35 11 36 12 37 13
REMARK SMILES IDX 84 14 38 15 89 16 83 17 85 18 39 19 88 20 82 21 81 22 40 24
REMARK SMILES IDX 70 25 51 26 69 27 52 28 55 29 68 30 86 31 53 32 54 33 67 35
REMARK SMILES IDX 87 36 56 37 41 38 42 39 50 40 43 41 49 42 44 43 45 44 46 45
REMARK SMILES IDX 47 46 48 47 71 48 72 49 80 50 73 51 79 52 74 53 75 54 76 55
REMARK SMILES IDX 77 56 78 57 57 58 58 59 66 60 59 61 65 62 60 63 61 64 62 65
REMARK SMILES IDX 63 66 64 67 5 68 6 69 7 70 8 71 9 73 10 74 11 75 12 76 13 77
REMARK SMILES IDX 17 78 14 79 16 80 15 81 18 82 19 83 30 84 20 85 21 86 29 87
REMARK SMILES IDX 31 88 22 89 23 90 24 91 28 92 25 93 27 94 26 95
REMARK H PARENT 3 5 85 23 55 34 7 72
REMARK Flexibility Score: inf
ROOT
ATOM      1  C   UNL A   1      34.042  28.799  25.906  1.00  0.00     0.118 C 
ENDROOT
BRANCH   1   2
ATOM      2  N   UNL A   1      33.868  29.965  26.759  1.00  0.00    -0.352 N 
ATOM      3  O   UNL A   1      34.131  31.500  28.346  1.00  0.00    -0.269 OA
ATOM      4  C   UNL A   1      34.640  30.558  27.733  1.00  0.00     0.251 C 
ATOM      5  H   UNL A   1      33.014  30.430  26.606  1.00  0.00     0.163 HD
BRANCH   4   6
ATOM      6  C   UNL A   1      36.017  30.119  28.100  1.00  0.00     0.039 A 
ATOM      7  C   UNL A   1      37.114  30.241  27.256  1.00  0.00     0.014 A 
ATOM      8  C   UNL A   1      36.242  29.625  29.398  1.00  0.00     0.014 A 
ATOM      9  C   UNL A   1      38.353  29.712  27.614  1.00  0.00     0.010 A 
ATOM     10  C   UNL A   1      37.525  29.227  29.813  1.00  0.00     0.010 A 
ATOM     11  C   UNL A   1      38.593  29.236  28.911  1.00  0.00    -0.014 A 
BRANCH  11  12
ATOM     12  C   UNL A   1      39.990  28.854  29.275  1.00  0.00     0.031 A 
ATOM     13  C   UNL A   1      40.592  27.539  28.856  1.00  0.00     0.074 A 
ATOM     14  C   UNL A   1      40.756  29.763  29.917  1.00  0.00     0.049 A 
ATOM     15  N   UNL A   1      41.833  27.133  28.977  1.00  0.00    -0.248 NA
ATOM     16  C   UNL A   1      39.700  26.548  28.238  1.00  0.00     0.031 C 
ATOM     17  C   UNL A   1      40.284  31.058  30.422  1.00  0.00     0.029 A 
ATOM     18  N   UNL A   1      42.099  29.774  30.201  1.00  0.00    -0.354 N 
ATOM     19  C   UNL A   1      41.866  25.838  28.473  1.00  0.00     0.074 A 
ATOM     20  C   UNL A   1      40.516  25.516  28.063  1.00  0.00     0.031 C 
ATOM     21  C   UNL A   1      41.332  31.776  30.848  1.00  0.00     0.029 A 
ATOM     22  C   UNL A   1      42.541  30.971  30.716  1.00  0.00     0.049 A 
ATOM     23  H   UNL A   1      42.689  29.000  30.051  1.00  0.00     0.167 HD
ATOM     24  C   UNL A   1      42.922  24.996  28.355  1.00  0.00     0.031 A 
ATOM     25  C   UNL A   1      43.779  31.391  31.041  1.00  0.00     0.031 A 
ATOM     26  C   UNL A   1      44.270  25.318  28.753  1.00  0.00     0.049 A 
ATOM     27  C   UNL A   1      44.938  30.459  30.850  1.00  0.00     0.074 A 
ATOM     28  C   UNL A   1      45.404  24.526  28.676  1.00  0.00     0.029 A 
ATOM     29  N   UNL A   1      44.670  26.532  29.290  1.00  0.00    -0.354 N 
ATOM     30  N   UNL A   1      44.939  29.241  30.365  1.00  0.00    -0.248 NA
ATOM     31  C   UNL A   1      46.260  30.956  31.253  1.00  0.00     0.031 C 
ATOM     32  C   UNL A   1      46.484  25.251  29.191  1.00  0.00     0.029 A 
ATOM     33  C   UNL A   1      46.030  26.509  29.553  1.00  0.00     0.049 A 
ATOM     34  H   UNL A   1      44.074  27.297  29.460  1.00  0.00     0.167 HD
ATOM     35  C   UNL A   1      46.261  28.818  30.422  1.00  0.00     0.074 A 
ATOM     36  C   UNL A   1      47.035  29.927  30.943  1.00  0.00     0.031 C 
ATOM     37  C   UNL A   1      46.782  27.612  30.091  1.00  0.00     0.031 A 
BRANCH  24  38
ATOM     38  C   UNL A   1      42.662  23.630  27.781  1.00  0.00    -0.014 A 
ATOM     39  C   UNL A   1      42.884  23.364  26.417  1.00  0.00     0.010 A 
ATOM     40  C   UNL A   1      42.244  22.583  28.622  1.00  0.00     0.010 A 
ATOM     41  C   UNL A   1      42.663  22.086  25.901  1.00  0.00     0.020 A 
ATOM     42  C   UNL A   1      42.041  21.297  28.113  1.00  0.00     0.020 A 
ATOM     43  C   UNL A   1      42.238  21.060  26.751  1.00  0.00     0.054 A 
BRANCH  43  44
ATOM     44  S   UNL A   1      41.983  19.401  26.060  1.00  0.00     0.124 S 
ATOM     45  O   UNL A   1      40.550  19.412  25.779  1.00  0.00    -0.237 OA
ATOM     46  O   UNL A   1      42.854  19.402  24.887  1.00  0.00    -0.237 OA
ATOM     47  O   UNL A   1      42.400  18.509  27.140  1.00  0.00    -0.744 OA
ENDBRANCH  43  44
ENDBRANCH  24  38
BRANCH  25  48
ATOM     48  C   UNL A   1      43.974  32.759  31.592  1.00  0.00    -0.014 A 
ATOM     49  C   UNL A   1      43.932  32.989  32.978  1.00  0.00     0.010 A 
ATOM     50  C   UNL A   1      44.234  33.836  30.725  1.00  0.00     0.010 A 
ATOM     51  C   UNL A   1      44.136  34.276  33.486  1.00  0.00     0.020 A 
ATOM     52  C   UNL A   1      44.467  35.116  31.231  1.00  0.00     0.020 A 
ATOM     53  C   UNL A   1      44.404  35.331  32.609  1.00  0.00     0.054 A 
BRANCH  53  54
ATOM     54  S   UNL A   1      44.738  36.982  33.282  1.00  0.00     0.124 S 
ATOM     55  O   UNL A   1      45.526  36.671  34.469  1.00  0.00    -0.237 OA
ATOM     56  O   UNL A   1      45.463  37.634  32.193  1.00  0.00    -0.237 OA
ATOM     57  O   UNL A   1      43.402  37.519  33.534  1.00  0.00    -0.744 OA
ENDBRANCH  53  54
ENDBRANCH  25  48
BRANCH  37  58
ATOM     58  C   UNL A   1      48.260  27.437  30.300  1.00  0.00    -0.014 A 
ATOM     59  C   UNL A   1      48.761  26.982  31.532  1.00  0.00     0.010 A 
ATOM     60  C   UNL A   1      49.155  27.727  29.256  1.00  0.00     0.010 A 
ATOM     61  C   UNL A   1      50.137  26.864  31.734  1.00  0.00     0.020 A 
ATOM     62  C   UNL A   1      50.532  27.590  29.447  1.00  0.00     0.020 A 
ATOM     63  C   UNL A   1      51.015  27.179  30.692  1.00  0.00     0.054 A 
BRANCH  63  64
ATOM     64  S   UNL A   1      52.800  27.014  30.970  1.00  0.00     0.124 S 
ATOM     65  O   UNL A   1      53.108  28.243  31.695  1.00  0.00    -0.237 OA
ATOM     66  O   UNL A   1      52.897  25.783  31.750  1.00  0.00    -0.237 OA
ATOM     67  O   UNL A   1      53.351  26.932  29.619  1.00  0.00    -0.744 OA
ENDBRANCH  63  64
ENDBRANCH  37  58
ENDBRANCH  11  12
ENDBRANCH   4   6
ENDBRANCH   1   2
BRANCH   1  68
ATOM     68  C   UNL A   1      33.410  27.537  26.468  1.00  0.00     0.042 C 
BRANCH  68  69
ATOM     69  C   UNL A   1      31.993  27.730  27.001  1.00  0.00     0.117 C 
BRANCH  69  70
ATOM     70  N   UNL A   1      31.336  26.443  27.100  1.00  0.00    -0.354 N 
ATOM     71  C   UNL A   1      30.821  25.603  26.171  1.00  0.00     0.243 C 
ATOM     72  H   UNL A   1      31.247  26.114  28.024  1.00  0.00     0.163 HD
ATOM     73  O   UNL A   1      29.992  24.785  26.593  1.00  0.00    -0.273 OA
BRANCH  71  74
ATOM     74  C   UNL A   1      31.112  25.662  24.649  1.00  0.00     0.185 C 
BRANCH  74  75
ATOM     75  C   UNL A   1      30.603  24.323  24.010  1.00  0.00     0.071 C 
BRANCH  75  76
ATOM     76  C   UNL A   1      31.324  22.983  24.036  1.00  0.00    -0.045 A 
ATOM     77  C   UNL A   1      31.466  22.136  25.141  1.00  0.00     0.004 A 
ATOM     78  C   UNL A   1      31.855  22.530  22.811  1.00  0.00     0.004 A 
ATOM     79  C   UNL A   1      32.138  20.911  25.044  1.00  0.00     0.000 A 
ATOM     80  C   UNL A   1      32.511  21.300  22.704  1.00  0.00     0.000 A 
ATOM     81  C   UNL A   1      32.660  20.493  23.825  1.00  0.00     0.000 A 
ENDBRANCH  75  76
ENDBRANCH  74  75
BRANCH  74  82
ATOM     82  N   UNL A   1      30.863  26.924  23.924  1.00  0.00    -0.280 N 
ATOM     83  C   UNL A   1      29.545  27.320  23.732  1.00  0.00     0.266 C 
ATOM     84  C   UNL A   1      31.703  27.480  22.978  1.00  0.00     0.149 C 
ATOM     85  O   UNL A   1      28.541  26.656  23.939  1.00  0.00    -0.268 OA
ATOM     86  C   UNL A   1      29.489  28.640  23.063  1.00  0.00     0.081 C 
ATOM     87  S   UNL A   1      31.006  28.982  22.360  1.00  0.00    -0.054 SA
ATOM     88  S   UNL A   1      33.164  26.934  22.380  1.00  0.00    -0.052 S 
ATOM     89  C   UNL A   1      28.371  29.373  23.060  1.00  0.00     0.029 C 
BRANCH  89  90
ATOM     90  C   UNL A   1      28.212  30.659  22.382  1.00  0.00    -0.021 A 
ATOM     91  C   UNL A   1      28.318  31.848  23.103  1.00  0.00     0.028 A 
ATOM     92  C   UNL A   1      27.973  30.711  21.011  1.00  0.00     0.028 A 
ATOM     93  C   UNL A   1      28.176  33.042  22.419  1.00  0.00     0.111 A 
ATOM     94  C   UNL A   1      27.845  31.957  20.419  1.00  0.00     0.111 A 
ATOM     95  N   UNL A   1      27.941  33.124  21.092  1.00  0.00    -0.265 NA
ENDBRANCH  89  90
ENDBRANCH  74  82
ENDBRANCH  71  74
ENDBRANCH  69  70
ENDBRANCH  68  69
ENDBRANCH   1  68
TORSDOF 17
ENDMDL
MODEL 2
REMARK VINA RESULT:     -12.0      2.725      3.430
REMARK SMILES O=C(NCCCNC(=O)[C@@H](Cc1ccccc1)N1C(=O)/C(=C/c2ccncc2)SC1=S)c1ccc(-c2c3nc(c(-c4ccc(S(=O)(=O)[O-])cc4)c4ccc([nH]4)c(-c4ccc(S(=O)(=O)[O-])cc4)c4nc(c(-c5ccc(S(=O)(=O)[O-])cc5)c5ccc2[nH]5)C=C4)C=C3)cc1
REMARK SMILES IDX 4 1 3 2 1 3 2 4 32 6 33 7 91 8 34 9 90 10 35 11 36 12 37 13
REMARK SMILES IDX 84 14 38 15 89 16 83 17 85 18 39 19 88 20 82 21 81 22 40 24
REMARK SMILES IDX 70 25 51 26 69 27 52 28 55 29 68 30 86 31 53 32 54 33 67 35
REMARK SMILES IDX 87 36 56 37 41 38 42 39 50 40 43 41 49 42 44 43 45 44 46 45
REMARK SMILES IDX 47 46 48 47 71 48 72 49 80 50 73 51 79 52 74 53 75 54 76 55
REMARK SMILES IDX 77 56 78 57 57 58 58 59 66 60 59 61 65 62 60 63 61 64 62 65
REMARK SMILES IDX 63 66 64 67 5 68 6 69 7 70 8 71 9 73 10 74 11 75 12 76 13 77
REMARK SMILES IDX 17 78 14 79 16 80 15 81 18 82 19 83 30 84 20 85 21 86 29 87
REMARK SMILES IDX 31 88 22 89 23 90 24 91 28 92 25 93 27 94 26 95
REMARK H PARENT 3 5 85 23 55 34 7 72
REMARK Flexibility Score: inf
ROOT
ATOM      1  C   UNL A   1      34.083  28.760  25.774  1.00  0.00     0.118 C 
ENDROOT
BRANCH   1   2
ATOM      2  N   UNL A   1      33.763  30.063  26.336  1.00  0.00    -0.352 N 
ATOM      3  O   UNL A   1      33.698  31.860  27.644  1.00  0.00    -0.269 OA
ATOM      4  C   UNL A   1      34.295  30.819  27.356  1.00  0.00     0.251 C 
ATOM      5  H   UNL A   1      32.999  30.498  25.890  1.00  0.00     0.163 HD
BRANCH   4   6
ATOM      6  C   UNL A   1      35.510  30.446  28.135  1.00  0.00     0.039 A 
ATOM      7  C   UNL A   1      35.497  29.553  29.200  1.00  0.00     0.014 A 
ATOM      8  C   UNL A   1      36.754  30.962  27.730  1.00  0.00     0.014 A 
ATOM      9  C   UNL A   1      36.645  29.329  29.959  1.00  0.00     0.010 A 
ATOM     10  C   UNL A   1      37.940  30.620  28.405  1.00  0.00     0.010 A 
ATOM     11  C   UNL A   1      37.893  29.821  29.552  1.00  0.00    -0.014 A 
BRANCH  11  12
ATOM     12  C   UNL A   1      39.103  29.391  30.313  1.00  0.00     0.031 A 
ATOM     13  C   UNL A   1      40.051  28.348  29.782  1.00  0.00     0.074 A 
ATOM     14  C   UNL A   1      39.397  30.033  31.465  1.00  0.00     0.049 A 
ATOM     15  N   UNL A   1      41.213  27.978  30.264  1.00  0.00    -0.248 NA
ATOM     16  C   UNL A   1      39.649  27.616  28.572  1.00  0.00     0.031 C 
ATOM     17  C   UNL A   1      38.542  31.032  32.116  1.00  0.00     0.029 A 
ATOM     18  N   UNL A   1      40.516  29.995  32.261  1.00  0.00    -0.354 N 
ATOM     19  C   UNL A   1      41.668  26.961  29.433  1.00  0.00     0.074 A 
ATOM     20  C   UNL A   1      40.648  26.755  28.428  1.00  0.00     0.031 C 
ATOM     21  C   UNL A   1      39.207  31.587  33.139  1.00  0.00     0.029 A 
ATOM     22  C   UNL A   1      40.507  30.937  33.263  1.00  0.00     0.049 A 
ATOM     23  H   UNL A   1      41.252  29.355  32.127  1.00  0.00     0.167 HD
ATOM     24  C   UNL A   1      42.831  26.266  29.496  1.00  0.00     0.031 A 
ATOM     25  C   UNL A   1      41.438  31.260  34.182  1.00  0.00     0.031 A 
ATOM     26  C   UNL A   1      43.853  26.475  30.490  1.00  0.00     0.049 A 
ATOM     27  C   UNL A   1      42.738  30.513  34.195  1.00  0.00     0.074 A 
ATOM     28  C   UNL A   1      45.062  25.814  30.636  1.00  0.00     0.029 A 
ATOM     29  N   UNL A   1      43.795  27.423  31.500  1.00  0.00    -0.354 N 
ATOM     30  N   UNL A   1      43.143  29.559  33.393  1.00  0.00    -0.248 NA
ATOM     31  C   UNL A   1      43.702  30.882  35.240  1.00  0.00     0.031 C 
ATOM     32  C   UNL A   1      45.723  26.345  31.750  1.00  0.00     0.029 A 
ATOM     33  C   UNL A   1      44.943  27.362  32.274  1.00  0.00     0.049 A 
ATOM     34  H   UNL A   1      43.048  28.048  31.645  1.00  0.00     0.167 HD
ATOM     35  C   UNL A   1      44.405  29.199  33.847  1.00  0.00     0.074 A 
ATOM     36  C   UNL A   1      44.714  30.071  34.964  1.00  0.00     0.031 C 
ATOM     37  C   UNL A   1      45.226  28.222  33.394  1.00  0.00     0.031 A 
BRANCH  24  38
ATOM     38  C   UNL A   1      43.059  25.196  28.463  1.00  0.00    -0.014 A 
ATOM     39  C   UNL A   1      42.650  23.870  28.693  1.00  0.00     0.010 A 
ATOM     40  C   UNL A   1      43.638  25.528  27.224  1.00  0.00     0.010 A 
ATOM     41  C   UNL A   1      42.845  22.890  27.716  1.00  0.00     0.020 A 
ATOM     42  C   UNL A   1      43.815  24.555  26.237  1.00  0.00     0.020 A 
ATOM     43  C   UNL A   1      43.431  23.238  26.495  1.00  0.00     0.054 A 
BRANCH  43  44
ATOM     44  S   UNL A   1      43.649  21.952  25.232  1.00  0.00     0.124 S 
ATOM     45  O   UNL A   1      43.474  22.713  23.998  1.00  0.00    -0.237 OA
ATOM     46  O   UNL A   1      45.005  21.474  25.488  1.00  0.00    -0.237 OA
ATOM     47  O   UNL A   1      42.587  20.993  25.529  1.00  0.00    -0.744 OA
ENDBRANCH  43  44
ENDBRANCH  24  38
BRANCH  25  48
ATOM     48  C   UNL A   1      41.160  32.337  35.169  1.00  0.00    -0.014 A 
ATOM     49  C   UNL A   1      41.530  33.668  34.907  1.00  0.00     0.010 A 
ATOM     50  C   UNL A   1      40.493  32.035  36.371  1.00  0.00     0.010 A 
ATOM     51  C   UNL A   1      41.246  34.675  35.835  1.00  0.00     0.020 A 
ATOM     52  C   UNL A   1      40.183  33.043  37.286  1.00  0.00     0.020 A 
ATOM     53  C   UNL A   1      40.573  34.356  37.017  1.00  0.00     0.054 A 
BRANCH  53  54
ATOM     54  S   UNL A   1      40.146  35.681  38.181  1.00  0.00     0.124 S 
ATOM     55  O   UNL A   1      41.395  35.851  38.916  1.00  0.00    -0.237 OA
ATOM     56  O   UNL A   1      39.777  36.782  37.295  1.00  0.00    -0.237 OA
ATOM     57  O   UNL A   1      39.037  35.112  38.945  1.00  0.00    -0.744 OA
ENDBRANCH  53  54
ENDBRANCH  25  48
BRANCH  37  58
ATOM     58  C   UNL A   1      46.529  28.044  34.121  1.00  0.00    -0.014 A 
ATOM     59  C   UNL A   1      47.669  28.772  33.737  1.00  0.00     0.010 A 
ATOM     60  C   UNL A   1      46.615  27.145  35.197  1.00  0.00     0.010 A 
ATOM     61  C   UNL A   1      48.887  28.569  34.387  1.00  0.00     0.020 A 
ATOM     62  C   UNL A   1      47.827  26.954  35.865  1.00  0.00     0.020 A 
ATOM     63  C   UNL A   1      48.961  27.653  35.441  1.00  0.00     0.054 A 
BRANCH  63  64
ATOM     64  S   UNL A   1      50.551  27.406  36.279  1.00  0.00     0.124 S 
ATOM     65  O   UNL A   1      51.502  27.620  35.192  1.00  0.00    -0.237 OA
ATOM     66  O   UNL A   1      50.537  28.437  37.314  1.00  0.00    -0.237 OA
ATOM     67  O   UNL A   1      50.468  26.034  36.775  1.00  0.00    -0.744 OA
ENDBRANCH  63  64
ENDBRANCH  37  58
ENDBRANCH  11  12
ENDBRANCH   4   6
ENDBRANCH   1   2
BRANCH   1  68
ATOM     68  C   UNL A   1      33.494  27.600  26.557  1.00  0.00     0.042 C 
BRANCH  68  69
ATOM     69  C   UNL A   1      32.038  27.796  26.968  1.00  0.00     0.117 C 
BRANCH  69  70
ATOM     70  N   UNL A   1      31.392  26.506  27.088  1.00  0.00    -0.354 N 
ATOM     71  C   UNL A   1      30.860  25.659  26.174  1.00  0.00     0.243 C 
ATOM     72  H   UNL A   1      31.329  26.179  28.015  1.00  0.00     0.163 HD
ATOM     73  O   UNL A   1      30.047  24.837  26.619  1.00  0.00    -0.273 OA
BRANCH  71  74
ATOM     74  C   UNL A   1      31.113  25.714  24.646  1.00  0.00     0.185 C 
BRANCH  74  75
ATOM     75  C   UNL A   1      30.556  24.390  24.018  1.00  0.00     0.071 C 
BRANCH  75  76
ATOM     76  C   UNL A   1      31.293  23.061  23.919  1.00  0.00    -0.045 A 
ATOM     77  C   UNL A   1      31.878  22.519  22.769  1.00  0.00     0.004 A 
ATOM     78  C   UNL A   1      31.443  22.334  25.117  1.00  0.00     0.004 A 
ATOM     79  C   UNL A   1      32.550  21.290  22.799  1.00  0.00     0.000 A 
ATOM     80  C   UNL A   1      32.129  21.116  25.156  1.00  0.00     0.000 A 
ATOM     81  C   UNL A   1      32.675  20.589  23.993  1.00  0.00     0.000 A 
ENDBRANCH  75  76
ENDBRANCH  74  75
BRANCH  74  82
ATOM     82  N   UNL A   1      30.874  26.984  23.929  1.00  0.00    -0.280 N 
ATOM     83  C   UNL A   1      29.560  27.366  23.694  1.00  0.00     0.266 C 
ATOM     84  C   UNL A   1      31.743  27.564  23.023  1.00  0.00     0.149 C 
ATOM     85  O   UNL A   1      28.557  26.687  23.854  1.00  0.00    -0.268 OA
ATOM     86  C   UNL A   1      29.512  28.695  23.041  1.00  0.00     0.081 C 
ATOM     87  S   UNL A   1      31.050  29.066  22.400  1.00  0.00    -0.054 SA
ATOM     88  S   UNL A   1      33.231  27.044  22.473  1.00  0.00    -0.052 S 
ATOM     89  C   UNL A   1      28.386  29.414  23.008  1.00  0.00     0.029 C 
BRANCH  89  90
ATOM     90  C   UNL A   1      28.235  30.708  22.342  1.00  0.00    -0.021 A 
ATOM     91  C   UNL A   1      27.986  30.764  20.971  1.00  0.00     0.028 A 
ATOM     92  C   UNL A   1      28.319  31.892  23.070  1.00  0.00     0.028 A 
ATOM     93  C   UNL A   1      27.836  32.007  20.384  1.00  0.00     0.111 A 
ATOM     94  C   UNL A   1      28.154  33.088  22.388  1.00  0.00     0.111 A 
ATOM     95  N   UNL A   1      27.915  33.173  21.062  1.00  0.00    -0.265 NA
ENDBRANCH  89  90
ENDBRANCH  74  82
ENDBRANCH  71  74
ENDBRANCH  69  70
ENDBRANCH  68  69
ENDBRANCH   1  68
TORSDOF 17
ENDMDL
MODEL 3
REMARK VINA RESULT:     -11.7      2.869      8.223
REMARK SMILES O=C(NCCCNC(=O)[C@@H](Cc1ccccc1)N1C(=O)/C(=C/c2ccncc2)SC1=S)c1ccc(-c2c3nc(c(-c4ccc(S(=O)(=O)[O-])cc4)c4ccc([nH]4)c(-c4ccc(S(=O)(=O)[O-])cc4)c4nc(c(-c5ccc(S(=O)(=O)[O-])cc5)c5ccc2[nH]5)C=C4)C=C3)cc1
REMARK SMILES IDX 4 1 3 2 1 3 2 4 32 6 33 7 91 8 34 9 90 10 35 11 36 12 37 13
REMARK SMILES IDX 84 14 38 15 89 16 83 17 85 18 39 19 88 20 82 21 81 22 40 24
REMARK SMILES IDX 70 25 51 26 69 27 52 28 55 29 68 30 86 31 53 32 54 33 67 35
REMARK SMILES IDX 87 36 56 37 41 38 42 39 50 40 43 41 49 42 44 43 45 44 46 45
REMARK SMILES IDX 47 46 48 47 71 48 72 49 80 50 73 51 79 52 74 53 75 54 76 55
REMARK SMILES IDX 77 56 78 57 57 58 58 59 66 60 59 61 65 62 60 63 61 64 62 65
REMARK SMILES IDX 63 66 64 67 5 68 6 69 7 70 8 71 9 73 10 74 11 75 12 76 13 77
REMARK SMILES IDX 17 78 14 79 16 80 15 81 18 82 19 83 30 84 20 85 21 86 29 87
REMARK SMILES IDX 31 88 22 89 23 90 24 91 28 92 25 93 27 94 26 95
REMARK H PARENT 3 5 85 23 55 34 7 72
REMARK Flexibility Score: inf
ROOT
ATOM      1  C   UNL A   1      33.715  29.333  26.277  1.00  0.00     0.118 C 
ENDROOT
BRANCH   1   2
ATOM      2  N   UNL A   1      33.518  30.684  26.781  1.00  0.00    -0.352 N 
ATOM      3  O   UNL A   1      33.699  32.569  27.945  1.00  0.00    -0.269 OA
ATOM      4  C   UNL A   1      34.218  31.489  27.651  1.00  0.00     0.251 C 
ATOM      5  H   UNL A   1      32.708  31.114  26.422  1.00  0.00     0.163 HD
BRANCH   4   6
ATOM      6  C   UNL A   1      35.527  31.127  28.267  1.00  0.00     0.039 A 
ATOM      7  C   UNL A   1      36.657  31.934  28.204  1.00  0.00     0.014 A 
ATOM      8  C   UNL A   1      35.611  29.942  29.019  1.00  0.00     0.014 A 
ATOM      9  C   UNL A   1      37.880  31.491  28.703  1.00  0.00     0.010 A 
ATOM     10  C   UNL A   1      36.810  29.564  29.651  1.00  0.00     0.010 A 
ATOM     11  C   UNL A   1      37.971  30.322  29.472  1.00  0.00    -0.014 A 
BRANCH  11  12
ATOM     12  C   UNL A   1      39.276  30.006  30.125  1.00  0.00     0.031 A 
ATOM     13  C   UNL A   1      39.688  30.637  31.430  1.00  0.00     0.074 A 
ATOM     14  C   UNL A   1      40.057  29.055  29.569  1.00  0.00     0.049 A 
ATOM     15  N   UNL A   1      40.724  30.353  32.183  1.00  0.00    -0.248 NA
ATOM     16  C   UNL A   1      38.852  31.726  31.954  1.00  0.00     0.031 C 
ATOM     17  C   UNL A   1      39.799  28.397  28.283  1.00  0.00     0.029 A 
ATOM     18  N   UNL A   1      41.187  28.428  30.033  1.00  0.00    -0.354 N 
ATOM     19  C   UNL A   1      40.676  31.239  33.252  1.00  0.00     0.074 A 
ATOM     20  C   UNL A   1      39.521  32.086  33.041  1.00  0.00     0.031 C 
ATOM     21  C   UNL A   1      40.671  27.393  28.116  1.00  0.00     0.029 A 
ATOM     22  C   UNL A   1      41.594  27.377  29.244  1.00  0.00     0.049 A 
ATOM     23  H   UNL A   1      41.661  28.704  30.852  1.00  0.00     0.167 HD
ATOM     24  C   UNL A   1      41.511  31.336  34.316  1.00  0.00     0.031 A 
ATOM     25  C   UNL A   1      42.592  26.487  29.403  1.00  0.00     0.031 A 
ATOM     26  C   UNL A   1      42.656  30.489  34.534  1.00  0.00     0.049 A 
ATOM     27  C   UNL A   1      43.468  26.582  30.616  1.00  0.00     0.074 A 
ATOM     28  C   UNL A   1      43.563  30.517  35.581  1.00  0.00     0.029 A 
ATOM     29  N   UNL A   1      43.046  29.452  33.700  1.00  0.00    -0.354 N 
ATOM     30  N   UNL A   1      43.395  27.428  31.615  1.00  0.00    -0.248 NA
ATOM     31  C   UNL A   1      44.562  25.608  30.720  1.00  0.00     0.031 C 
ATOM     32  C   UNL A   1      44.516  29.515  35.366  1.00  0.00     0.029 A 
ATOM     33  C   UNL A   1      44.180  28.838  34.205  1.00  0.00     0.049 A 
ATOM     34  H   UNL A   1      42.583  29.192  32.870  1.00  0.00     0.167 HD
ATOM     35  C   UNL A   1      44.446  27.099  32.461  1.00  0.00     0.074 A 
ATOM     36  C   UNL A   1      45.109  25.949  31.879  1.00  0.00     0.031 C 
ATOM     37  C   UNL A   1      44.839  27.708  33.604  1.00  0.00     0.031 A 
BRANCH  24  38
ATOM     38  C   UNL A   1      41.226  32.413  35.329  1.00  0.00    -0.014 A 
ATOM     39  C   UNL A   1      40.302  32.201  36.369  1.00  0.00     0.010 A 
ATOM     40  C   UNL A   1      41.928  33.631  35.275  1.00  0.00     0.010 A 
ATOM     41  C   UNL A   1      40.064  33.198  37.317  1.00  0.00     0.020 A 
ATOM     42  C   UNL A   1      41.708  34.623  36.234  1.00  0.00     0.020 A 
ATOM     43  C   UNL A   1      40.765  34.406  37.242  1.00  0.00     0.054 A 
BRANCH  43  44
ATOM     44  S   UNL A   1      40.457  35.676  38.502  1.00  0.00     0.124 S 
ATOM     45  O   UNL A   1      39.709  34.925  39.506  1.00  0.00    -0.237 OA
ATOM     46  O   UNL A   1      41.806  36.077  38.893  1.00  0.00    -0.237 OA
ATOM     47  O   UNL A   1      39.691  36.694  37.786  1.00  0.00    -0.744 OA
ENDBRANCH  43  44
ENDBRANCH  24  38
BRANCH  25  48
ATOM     48  C   UNL A   1      42.817  25.436  28.373  1.00  0.00    -0.014 A 
ATOM     49  C   UNL A   1      43.704  25.653  27.305  1.00  0.00     0.010 A 
ATOM     50  C   UNL A   1      42.158  24.197  28.478  1.00  0.00     0.010 A 
ATOM     51  C   UNL A   1      43.922  24.651  26.354  1.00  0.00     0.020 A 
ATOM     52  C   UNL A   1      42.395  23.185  27.545  1.00  0.00     0.020 A 
ATOM     53  C   UNL A   1      43.266  23.423  26.481  1.00  0.00     0.054 A 
BRANCH  53  54
ATOM     54  S   UNL A   1      43.609  22.105  25.283  1.00  0.00     0.124 S 
ATOM     55  O   UNL A   1      44.974  21.728  25.631  1.00  0.00    -0.237 OA
ATOM     56  O   UNL A   1      42.580  21.113  25.591  1.00  0.00    -0.237 OA
ATOM     57  O   UNL A   1      43.447  22.773  23.993  1.00  0.00    -0.744 OA
ENDBRANCH  53  54
ENDBRANCH  25  48
BRANCH  37  58
ATOM     58  C   UNL A   1      46.051  27.140  34.288  1.00  0.00    -0.014 A 
ATOM     59  C   UNL A   1      47.341  27.576  33.939  1.00  0.00     0.010 A 
ATOM     60  C   UNL A   1      45.900  26.165  35.289  1.00  0.00     0.010 A 
ATOM     61  C   UNL A   1      48.465  27.012  34.546  1.00  0.00     0.020 A 
ATOM     62  C   UNL A   1      47.020  25.613  35.914  1.00  0.00     0.020 A 
ATOM     63  C   UNL A   1      48.298  26.026  35.524  1.00  0.00     0.054 A 
BRANCH  63  64
ATOM     64  S   UNL A   1      49.768  25.309  36.307  1.00  0.00     0.124 S 
ATOM     65  O   UNL A   1      50.406  24.626  35.185  1.00  0.00    -0.237 OA
ATOM     66  O   UNL A   1      50.474  26.483  36.812  1.00  0.00    -0.237 OA
ATOM     67  O   UNL A   1      49.215  24.432  37.337  1.00  0.00    -0.744 OA
ENDBRANCH  63  64
ENDBRANCH  37  58
ENDBRANCH  11  12
ENDBRANCH   4   6
ENDBRANCH   1   2
BRANCH   1  68
ATOM     68  C   UNL A   1      32.767  28.314  26.884  1.00  0.00     0.042 C 
BRANCH  68  69
ATOM     69  C   UNL A   1      33.219  26.865  26.726  1.00  0.00     0.117 C 
BRANCH  69  70
ATOM     70  N   UNL A   1      32.074  25.987  26.848  1.00  0.00    -0.354 N 
ATOM     71  C   UNL A   1      31.156  25.548  25.953  1.00  0.00     0.243 C 
ATOM     72  H   UNL A   1      31.936  25.640  27.759  1.00  0.00     0.163 HD
ATOM     73  O   UNL A   1      30.095  25.132  26.438  1.00  0.00    -0.273 OA
BRANCH  71  74
ATOM     74  C   UNL A   1      31.300  25.624  24.411  1.00  0.00     0.185 C 
BRANCH  74  75
ATOM     75  C   UNL A   1      30.699  24.307  23.807  1.00  0.00     0.071 C 
BRANCH  75  76
ATOM     76  C   UNL A   1      31.325  22.920  23.872  1.00  0.00    -0.045 A 
ATOM     77  C   UNL A   1      31.545  22.162  25.028  1.00  0.00     0.004 A 
ATOM     78  C   UNL A   1      31.666  22.325  22.641  1.00  0.00     0.004 A 
ATOM     79  C   UNL A   1      32.115  20.884  24.966  1.00  0.00     0.000 A 
ATOM     80  C   UNL A   1      32.218  21.042  22.573  1.00  0.00     0.000 A 
ATOM     81  C   UNL A   1      32.451  20.324  23.739  1.00  0.00     0.000 A 
ENDBRANCH  75  76
ENDBRANCH  74  75
BRANCH  74  82
ATOM     82  N   UNL A   1      31.010  26.903  23.730  1.00  0.00    -0.280 N 
ATOM     83  C   UNL A   1      29.682  27.281  23.584  1.00  0.00     0.266 C 
ATOM     84  C   UNL A   1      31.817  27.500  22.779  1.00  0.00     0.149 C 
ATOM     85  O   UNL A   1      28.694  26.594  23.798  1.00  0.00    -0.268 OA
ATOM     86  C   UNL A   1      29.587  28.619  22.957  1.00  0.00     0.081 C 
ATOM     87  S   UNL A   1      31.079  29.008  22.225  1.00  0.00    -0.054 SA
ATOM     88  S   UNL A   1      33.270  26.996  22.128  1.00  0.00    -0.052 S 
ATOM     89  C   UNL A   1      28.458  29.333  23.005  1.00  0.00     0.029 C 
BRANCH  89  90
ATOM     90  C   UNL A   1      28.260  30.635  22.370  1.00  0.00    -0.021 A 
ATOM     91  C   UNL A   1      28.375  31.805  23.121  1.00  0.00     0.028 A 
ATOM     92  C   UNL A   1      27.975  30.723  21.009  1.00  0.00     0.028 A 
ATOM     93  C   UNL A   1      28.195  33.016  22.477  1.00  0.00     0.111 A 
ATOM     94  C   UNL A   1      27.811  31.984  20.459  1.00  0.00     0.111 A 
ATOM     95  N   UNL A   1      27.915  33.132  21.161  1.00  0.00    -0.265 NA
ENDBRANCH  89  90
ENDBRANCH  74  82
ENDBRANCH  71  74
ENDBRANCH  69  70
ENDBRANCH  68  69
ENDBRANCH   1  68
TORSDOF 17
ENDMDL
