MODEL 1
REMARK VINA RESULT:     -14.1      0.000      0.000
REMARK SMILES Cc1c(C(=O)Nc2ccc(C(=O)Nc3ccccc3C(=O)NCCCNC(=O)c3ccc(-c4c5nc(c(-c6ccc(S(=O)(=O)[O-])cc6)c6ccc([nH]6)c(-c6ccc(S(=O)(=O)[O-])cc6)c6nc(c(-c7ccc(S(=O)(=O)[O-])cc7)c7ccc4[nH]7)C=C6)C=C5)cc3)cc2)cccc1[N+](=O)[O-]
REMARK SMILES IDX 23 1 22 2 20 3 21 4 19 6 14 7 15 8 16 9 18 10 17 11 13 12
REMARK SMILES IDX 11 13 12 14 10 16 7 17 8 18 90 19 9 20 89 21 6 22 4 23 5 24
REMARK SMILES IDX 3 26 1 27 2 28 94 29 91 30 93 31 92 32 95 33 96 34 97 35
REMARK SMILES IDX 24 36 25 37 26 38 27 39 28 41 29 42 30 43 88 44 31 45 87 46
REMARK SMILES IDX 32 47 33 48 34 49 81 50 35 51 86 52 80 53 82 54 36 55 85 56
REMARK SMILES IDX 79 57 78 58 37 60 67 61 48 62 66 63 49 64 52 65 65 66 83 67
REMARK SMILES IDX 50 68 51 69 64 71 84 72 53 73 38 74 39 75 47 76 40 77 46 78
REMARK SMILES IDX 41 79 42 80 43 81 44 82 45 83 68 84 69 85 77 86 70 87 76 88
REMARK SMILES IDX 71 89 72 90 73 91 74 92 75 93 54 94 55 95 63 96 56 97 62 98
REMARK SMILES IDX 57 99 58 100 59 101 60 102 61 103
REMARK H PARENT 22 5 13 15 6 25 26 40 82 59 52 70
REMARK Flexibility Score: inf
ROOT
ATOM      1  C   UNL A   1      32.524  30.447  26.867  1.00  0.00     0.118 C 
ENDROOT
BRANCH   1   2
ATOM      2  N   UNL A   1      31.863  29.277  27.451  1.00  0.00    -0.352 N 
ATOM      3  C   UNL A   1      31.444  28.040  27.013  1.00  0.00     0.253 C 
ATOM      4  O   UNL A   1      31.212  27.202  27.888  1.00  0.00    -0.269 OA
ATOM      5  H   UNL A   1      31.668  29.410  28.407  1.00  0.00     0.163 HD
BRANCH   3   6
ATOM      6  C   UNL A   1      31.187  27.668  25.585  1.00  0.00     0.063 A 
ATOM      7  C   UNL A   1      30.745  26.361  25.230  1.00  0.00     0.054 A 
ATOM      8  C   UNL A   1      30.553  26.032  23.871  1.00  0.00     0.027 A 
ATOM      9  C   UNL A   1      30.688  26.992  22.874  1.00  0.00     0.002 A 
ATOM     10  C   UNL A   1      31.403  28.582  24.543  1.00  0.00     0.016 A 
ATOM     11  C   UNL A   1      31.113  28.266  23.212  1.00  0.00     0.001 A 
BRANCH   7  12
ATOM     12  N   UNL A   1      30.354  25.321  26.105  1.00  0.00    -0.321 N 
ATOM     13  C   UNL A   1      31.043  24.255  26.654  1.00  0.00     0.255 C 
ATOM     14  O   UNL A   1      30.410  23.452  27.343  1.00  0.00    -0.269 OA
ATOM     15  H   UNL A   1      29.409  25.364  26.375  1.00  0.00     0.170 HD
BRANCH  13  16
ATOM     16  C   UNL A   1      32.532  24.146  26.621  1.00  0.00     0.040 A 
ATOM     17  C   UNL A   1      35.284  23.735  26.207  1.00  0.00     0.041 A 
ATOM     18  C   UNL A   1      34.577  22.927  27.074  1.00  0.00     0.027 A 
ATOM     19  C   UNL A   1      34.663  24.872  25.679  1.00  0.00     0.027 A 
ATOM     20  C   UNL A   1      33.206  23.065  27.179  1.00  0.00     0.016 A 
ATOM     21  C   UNL A   1      33.286  25.074  25.888  1.00  0.00     0.016 A 
BRANCH  17  22
ATOM     22  N   UNL A   1      36.543  23.340  25.731  1.00  0.00    -0.322 N 
ATOM     23  C   UNL A   1      36.947  22.138  25.164  1.00  0.00     0.256 C 
ATOM     24  O   UNL A   1      38.149  21.953  24.965  1.00  0.00    -0.269 OA
ATOM     25  H   UNL A   1      37.249  24.022  25.810  1.00  0.00     0.170 HD
BRANCH  23  26
ATOM     26  C   UNL A   1      35.999  21.033  24.771  1.00  0.00     0.049 A 
ATOM     27  C   UNL A   1      34.366  22.483  23.460  1.00  0.00     0.053 C 
ATOM     28  C   UNL A   1      34.727  21.200  24.164  1.00  0.00     0.039 A 
ATOM     29  C   UNL A   1      33.851  20.086  24.169  1.00  0.00     0.273 A 
ATOM     30  C   UNL A   1      36.455  19.729  25.050  1.00  0.00     0.014 A 
ATOM     31  C   UNL A   1      34.320  18.796  24.460  1.00  0.00     0.086 A 
ATOM     32  C   UNL A   1      35.644  18.614  24.839  1.00  0.00     0.008 A 
BRANCH  29  33
ATOM     33  N   UNL A   1      32.394  20.236  23.983  1.00  0.00     0.063 N 
ATOM     34  O   UNL A   1      31.904  19.817  22.923  1.00  0.00    -0.258 OA
ATOM     35  O   UNL A   1      31.729  20.704  24.916  1.00  0.00    -0.258 OA
ENDBRANCH  29  33
ENDBRANCH  23  26
ENDBRANCH  17  22
ENDBRANCH  13  16
ENDBRANCH   7  12
ENDBRANCH   3   6
ENDBRANCH   1   2
BRANCH   1  36
ATOM     36  C   UNL A   1      33.755  30.938  27.612  1.00  0.00     0.042 C 
BRANCH  36  37
ATOM     37  C   UNL A   1      34.930  29.983  27.500  1.00  0.00     0.118 C 
BRANCH  37  38
ATOM     38  N   UNL A   1      36.139  30.715  27.150  1.00  0.00    -0.352 N 
ATOM     39  C   UNL A   1      37.230  30.832  28.005  1.00  0.00     0.251 C 
ATOM     40  H   UNL A   1      36.186  31.146  26.267  1.00  0.00     0.163 HD
ATOM     41  O   UNL A   1      37.476  31.781  28.700  1.00  0.00    -0.269 OA
BRANCH  39  42
ATOM     42  C   UNL A   1      37.969  29.562  28.133  1.00  0.00     0.039 A 
ATOM     43  C   UNL A   1      37.878  28.829  29.320  1.00  0.00     0.014 A 
ATOM     44  C   UNL A   1      39.037  29.433  27.248  1.00  0.00     0.014 A 
ATOM     45  C   UNL A   1      38.977  28.091  29.724  1.00  0.00     0.010 A 
ATOM     46  C   UNL A   1      40.169  28.833  27.714  1.00  0.00     0.010 A 
ATOM     47  C   UNL A   1      40.135  28.198  28.961  1.00  0.00    -0.014 A 
BRANCH  47  48
ATOM     48  C   UNL A   1      41.391  27.581  29.304  1.00  0.00     0.031 A 
ATOM     49  C   UNL A   1      41.532  26.176  28.906  1.00  0.00     0.074 A 
ATOM     50  C   UNL A   1      42.374  28.389  29.747  1.00  0.00     0.049 A 
ATOM     51  N   UNL A   1      42.395  25.362  29.388  1.00  0.00    -0.248 NA
ATOM     52  C   UNL A   1      40.625  25.545  27.941  1.00  0.00     0.031 C 
ATOM     53  C   UNL A   1      43.805  28.146  29.843  1.00  0.00     0.029 A 
ATOM     54  N   UNL A   1      42.182  29.592  30.430  1.00  0.00    -0.354 N 
ATOM     55  C   UNL A   1      42.407  24.267  28.551  1.00  0.00     0.074 A 
ATOM     56  C   UNL A   1      41.196  24.351  27.780  1.00  0.00     0.031 C 
ATOM     57  C   UNL A   1      44.318  28.980  30.769  1.00  0.00     0.029 A 
ATOM     58  C   UNL A   1      43.195  29.667  31.398  1.00  0.00     0.049 A 
ATOM     59  H   UNL A   1      41.476  30.258  30.265  1.00  0.00     0.167 HD
ATOM     60  C   UNL A   1      43.554  23.542  28.466  1.00  0.00     0.031 A 
ATOM     61  C   UNL A   1      42.846  29.524  32.714  1.00  0.00     0.031 A 
ATOM     62  C   UNL A   1      44.522  24.033  29.450  1.00  0.00     0.049 A 
ATOM     63  C   UNL A   1      43.380  28.232  33.301  1.00  0.00     0.074 A 
ATOM     64  C   UNL A   1      45.598  24.898  29.347  1.00  0.00     0.029 A 
ATOM     65  N   UNL A   1      44.179  23.988  30.798  1.00  0.00    -0.354 N 
ATOM     66  N   UNL A   1      43.654  27.155  32.611  1.00  0.00    -0.248 NA
ATOM     67  C   UNL A   1      43.729  28.095  34.710  1.00  0.00     0.031 C 
ATOM     68  C   UNL A   1      45.836  25.449  30.640  1.00  0.00     0.029 A 
ATOM     69  C   UNL A   1      44.923  24.898  31.525  1.00  0.00     0.049 A 
ATOM     70  H   UNL A   1      43.498  23.390  31.182  1.00  0.00     0.167 HD
ATOM     71  C   UNL A   1      44.257  26.226  33.423  1.00  0.00     0.074 A 
ATOM     72  C   UNL A   1      44.273  26.867  34.729  1.00  0.00     0.031 C 
ATOM     73  C   UNL A   1      44.720  25.019  32.967  1.00  0.00     0.031 A 
BRANCH  60  74
ATOM     74  C   UNL A   1      43.908  22.640  27.306  1.00  0.00    -0.014 A 
ATOM     75  C   UNL A   1      43.035  21.581  26.983  1.00  0.00     0.010 A 
ATOM     76  C   UNL A   1      45.085  22.726  26.534  1.00  0.00     0.010 A 
ATOM     77  C   UNL A   1      43.337  20.639  25.990  1.00  0.00     0.020 A 
ATOM     78  C   UNL A   1      45.410  21.781  25.548  1.00  0.00     0.020 A 
ATOM     79  C   UNL A   1      44.531  20.740  25.283  1.00  0.00     0.054 A 
BRANCH  79  80
ATOM     80  S   UNL A   1      44.899  19.514  24.002  1.00  0.00     0.124 S 
ATOM     81  O   UNL A   1      44.111  18.362  24.435  1.00  0.00    -0.237 OA
ATOM     82  O   UNL A   1      44.430  20.180  22.790  1.00  0.00    -0.237 OA
ATOM     83  O   UNL A   1      46.347  19.340  24.092  1.00  0.00    -0.744 OA
ENDBRANCH  79  80
ENDBRANCH  60  74
BRANCH  61  84
ATOM     84  C   UNL A   1      41.540  30.188  33.045  1.00  0.00    -0.014 A 
ATOM     85  C   UNL A   1      40.462  29.341  33.404  1.00  0.00     0.010 A 
ATOM     86  C   UNL A   1      41.470  31.542  33.415  1.00  0.00     0.010 A 
ATOM     87  C   UNL A   1      39.442  29.787  34.250  1.00  0.00     0.020 A 
ATOM     88  C   UNL A   1      40.431  31.999  34.250  1.00  0.00     0.020 A 
ATOM     89  C   UNL A   1      39.458  31.103  34.707  1.00  0.00     0.054 A 
BRANCH  89  90
ATOM     90  S   UNL A   1      38.337  31.545  36.069  1.00  0.00     0.124 S 
ATOM     91  O   UNL A   1      38.108  30.262  36.722  1.00  0.00    -0.237 OA
ATOM     92  O   UNL A   1      39.143  32.508  36.826  1.00  0.00    -0.237 OA
ATOM     93  O   UNL A   1      37.183  32.129  35.396  1.00  0.00    -0.744 OA
ENDBRANCH  89  90
ENDBRANCH  61  84
BRANCH  73  94
ATOM     94  C   UNL A   1      45.100  23.822  33.823  1.00  0.00    -0.014 A 
ATOM     95  C   UNL A   1      44.244  22.760  34.138  1.00  0.00     0.010 A 
ATOM     96  C   UNL A   1      46.449  23.682  34.250  1.00  0.00     0.010 A 
ATOM     97  C   UNL A   1      44.684  21.658  34.883  1.00  0.00     0.020 A 
ATOM     98  C   UNL A   1      46.918  22.558  34.931  1.00  0.00     0.020 A 
ATOM     99  C   UNL A   1      46.019  21.561  35.270  1.00  0.00     0.054 A 
BRANCH  99 100
ATOM    100  S   UNL A   1      46.566  20.102  36.180  1.00  0.00     0.124 S 
ATOM    101  O   UNL A   1      48.011  20.307  36.235  1.00  0.00    -0.237 OA
ATOM    102  O   UNL A   1      45.865  20.241  37.455  1.00  0.00    -0.237 OA
ATOM    103  O   UNL A   1      46.122  18.986  35.350  1.00  0.00    -0.744 OA
ENDBRANCH  99 100
ENDBRANCH  73  94
ENDBRANCH  47  48
ENDBRANCH  39  42
ENDBRANCH  37  38
ENDBRANCH  36  37
ENDBRANCH   1  36
TORSDOF 18
ENDMDL
MODEL 2
REMARK VINA RESULT:     -14.1      1.197      2.260
REMARK SMILES Cc1c(C(=O)Nc2ccc(C(=O)Nc3ccccc3C(=O)NCCCNC(=O)c3ccc(-c4c5nc(c(-c6ccc(S(=O)(=O)[O-])cc6)c6ccc([nH]6)c(-c6ccc(S(=O)(=O)[O-])cc6)c6nc(c(-c7ccc(S(=O)(=O)[O-])cc7)c7ccc4[nH]7)C=C6)C=C5)cc3)cc2)cccc1[N+](=O)[O-]
REMARK SMILES IDX 23 1 22 2 20 3 21 4 19 6 14 7 15 8 16 9 18 10 17 11 13 12
REMARK SMILES IDX 11 13 12 14 10 16 7 17 8 18 90 19 9 20 89 21 6 22 4 23 5 24
REMARK SMILES IDX 3 26 1 27 2 28 94 29 91 30 93 31 92 32 95 33 96 34 97 35
REMARK SMILES IDX 24 36 25 37 26 38 27 39 28 41 29 42 30 43 88 44 31 45 87 46
REMARK SMILES IDX 32 47 33 48 34 49 81 50 35 51 86 52 80 53 82 54 36 55 85 56
REMARK SMILES IDX 79 57 78 58 37 60 67 61 48 62 66 63 49 64 52 65 65 66 83 67
REMARK SMILES IDX 50 68 51 69 64 71 84 72 53 73 38 74 39 75 47 76 40 77 46 78
REMARK SMILES IDX 41 79 42 80 43 81 44 82 45 83 68 84 69 85 77 86 70 87 76 88
REMARK SMILES IDX 71 89 72 90 73 91 74 92 75 93 54 94 55 95 63 96 56 97 62 98
REMARK SMILES IDX 57 99 58 100 59 101 60 102 61 103
REMARK H PARENT 22 5 13 15 6 25 26 40 82 59 52 70
REMARK Flexibility Score: inf
ROOT
ATOM      1  C   UNL A   1      32.343  30.245  26.851  1.00  0.00     0.118 C 
ENDROOT
BRANCH   1   2
ATOM      2  N   UNL A   1      32.187  28.789  26.895  1.00  0.00    -0.352 N 
ATOM      3  C   UNL A   1      32.552  27.717  26.109  1.00  0.00     0.253 C 
ATOM      4  O   UNL A   1      32.514  26.609  26.648  1.00  0.00    -0.269 OA
ATOM      5  H   UNL A   1      31.693  28.500  27.697  1.00  0.00     0.163 HD
BRANCH   3   6
ATOM      6  C   UNL A   1      32.916  27.792  24.658  1.00  0.00     0.063 A 
ATOM      7  C   UNL A   1      31.987  27.421  23.643  1.00  0.00     0.054 A 
ATOM      8  C   UNL A   1      32.377  27.464  22.288  1.00  0.00     0.027 A 
ATOM      9  C   UNL A   1      33.621  27.961  21.914  1.00  0.00     0.002 A 
ATOM     10  C   UNL A   1      34.193  28.199  24.247  1.00  0.00     0.016 A 
ATOM     11  C   UNL A   1      34.528  28.328  22.895  1.00  0.00     0.001 A 
BRANCH   7  12
ATOM     12  N   UNL A   1      30.622  27.094  23.809  1.00  0.00    -0.321 N 
ATOM     13  C   UNL A   1      29.974  25.904  24.088  1.00  0.00     0.255 C 
ATOM     14  O   UNL A   1      28.741  25.909  24.105  1.00  0.00    -0.269 OA
ATOM     15  H   UNL A   1      30.014  27.862  23.706  1.00  0.00     0.170 HD
BRANCH  13  16
ATOM     16  C   UNL A   1      30.688  24.682  24.561  1.00  0.00     0.040 A 
ATOM     17  C   UNL A   1      31.694  22.175  25.348  1.00  0.00     0.041 A 
ATOM     18  C   UNL A   1      31.185  23.052  26.284  1.00  0.00     0.027 A 
ATOM     19  C   UNL A   1      31.876  22.616  24.033  1.00  0.00     0.027 A 
ATOM     20  C   UNL A   1      30.588  24.229  25.872  1.00  0.00     0.016 A 
ATOM     21  C   UNL A   1      31.372  23.870  23.642  1.00  0.00     0.016 A 
BRANCH  17  22
ATOM     22  N   UNL A   1      31.872  20.820  25.663  1.00  0.00    -0.322 N 
ATOM     23  C   UNL A   1      33.033  20.060  25.716  1.00  0.00     0.256 C 
ATOM     24  O   UNL A   1      32.935  18.840  25.860  1.00  0.00    -0.269 OA
ATOM     25  H   UNL A   1      31.045  20.333  25.882  1.00  0.00     0.170 HD
BRANCH  23  26
ATOM     26  C   UNL A   1      34.422  20.638  25.609  1.00  0.00     0.049 A 
ATOM     27  C   UNL A   1      34.140  22.443  27.384  1.00  0.00     0.053 C 
ATOM     28  C   UNL A   1      34.877  21.836  26.218  1.00  0.00     0.039 A 
ATOM     29  C   UNL A   1      36.095  22.386  25.745  1.00  0.00     0.273 A 
ATOM     30  C   UNL A   1      35.320  19.889  24.822  1.00  0.00     0.014 A 
ATOM     31  C   UNL A   1      36.973  21.629  24.953  1.00  0.00     0.086 A 
ATOM     32  C   UNL A   1      36.606  20.353  24.548  1.00  0.00     0.008 A 
BRANCH  29  33
ATOM     33  N   UNL A   1      36.450  23.802  25.961  1.00  0.00     0.063 N 
ATOM     34  O   UNL A   1      37.545  24.046  26.491  1.00  0.00    -0.258 OA
ATOM     35  O   UNL A   1      35.674  24.671  25.542  1.00  0.00    -0.258 OA
ENDBRANCH  29  33
ENDBRANCH  23  26
ENDBRANCH  17  22
ENDBRANCH  13  16
ENDBRANCH   7  12
ENDBRANCH   3   6
ENDBRANCH   1   2
BRANCH   1  36
ATOM     36  C   UNL A   1      33.520  30.796  27.638  1.00  0.00     0.042 C 
BRANCH  36  37
ATOM     37  C   UNL A   1      34.736  29.888  27.591  1.00  0.00     0.118 C 
BRANCH  37  38
ATOM     38  N   UNL A   1      35.899  30.630  27.129  1.00  0.00    -0.352 N 
ATOM     39  C   UNL A   1      37.047  30.801  27.896  1.00  0.00     0.251 C 
ATOM     40  H   UNL A   1      35.873  31.030  26.230  1.00  0.00     0.163 HD
ATOM     41  O   UNL A   1      37.321  31.779  28.538  1.00  0.00    -0.269 OA
BRANCH  39  42
ATOM     42  C   UNL A   1      37.821  29.551  28.015  1.00  0.00     0.039 A 
ATOM     43  C   UNL A   1      37.738  28.798  29.190  1.00  0.00     0.014 A 
ATOM     44  C   UNL A   1      38.903  29.466  27.141  1.00  0.00     0.014 A 
ATOM     45  C   UNL A   1      38.855  28.087  29.596  1.00  0.00     0.010 A 
ATOM     46  C   UNL A   1      40.047  28.894  27.612  1.00  0.00     0.010 A 
ATOM     47  C   UNL A   1      40.018  28.239  28.848  1.00  0.00    -0.014 A 
BRANCH  47  48
ATOM     48  C   UNL A   1      41.287  27.654  29.198  1.00  0.00     0.031 A 
ATOM     49  C   UNL A   1      41.452  26.244  28.831  1.00  0.00     0.074 A 
ATOM     50  C   UNL A   1      42.257  28.491  29.614  1.00  0.00     0.049 A 
ATOM     51  N   UNL A   1      42.334  25.458  29.326  1.00  0.00    -0.248 NA
ATOM     52  C   UNL A   1      40.552  25.573  27.888  1.00  0.00     0.031 C 
ATOM     53  C   UNL A   1      43.693  28.278  29.707  1.00  0.00     0.029 A 
ATOM     54  N   UNL A   1      42.047  29.706  30.271  1.00  0.00    -0.354 N 
ATOM     55  C   UNL A   1      42.361  24.344  28.515  1.00  0.00     0.074 A 
ATOM     56  C   UNL A   1      41.145  24.387  27.751  1.00  0.00     0.031 C 
ATOM     57  C   UNL A   1      44.196  29.143  30.609  1.00  0.00     0.029 A 
ATOM     58  C   UNL A   1      43.065  29.823  31.230  1.00  0.00     0.049 A 
ATOM     59  H   UNL A   1      41.327  30.354  30.095  1.00  0.00     0.167 HD
ATOM     60  C   UNL A   1      43.522  23.639  28.440  1.00  0.00     0.031 A 
ATOM     61  C   UNL A   1      42.727  29.705  32.551  1.00  0.00     0.031 A 
ATOM     62  C   UNL A   1      44.486  24.171  29.405  1.00  0.00     0.049 A 
ATOM     63  C   UNL A   1      43.289  28.437  33.164  1.00  0.00     0.074 A 
ATOM     64  C   UNL A   1      45.545  25.054  29.275  1.00  0.00     0.029 A 
ATOM     65  N   UNL A   1      44.153  24.152  30.756  1.00  0.00    -0.354 N 
ATOM     66  N   UNL A   1      43.579  27.349  32.498  1.00  0.00    -0.248 NA
ATOM     67  C   UNL A   1      43.649  28.340  34.574  1.00  0.00     0.031 C 
ATOM     68  C   UNL A   1      45.781  25.639  30.553  1.00  0.00     0.029 A 
ATOM     69  C   UNL A   1      44.884  25.092  31.457  1.00  0.00     0.049 A 
ATOM     70  H   UNL A   1      43.486  23.549  31.158  1.00  0.00     0.167 HD
ATOM     71  C   UNL A   1      44.205  26.451  33.327  1.00  0.00     0.074 A 
ATOM     72  C   UNL A   1      44.217  27.123  34.618  1.00  0.00     0.031 C 
ATOM     73  C   UNL A   1      44.688  25.243  32.896  1.00  0.00     0.031 A 
BRANCH  60  74
ATOM     74  C   UNL A   1      43.885  22.717  27.299  1.00  0.00    -0.014 A 
ATOM     75  C   UNL A   1      42.993  21.681  26.956  1.00  0.00     0.010 A 
ATOM     76  C   UNL A   1      45.088  22.762  26.564  1.00  0.00     0.010 A 
ATOM     77  C   UNL A   1      43.298  20.722  25.981  1.00  0.00     0.020 A 
ATOM     78  C   UNL A   1      45.417  21.798  25.596  1.00  0.00     0.020 A 
ATOM     79  C   UNL A   1      44.516  20.781  25.311  1.00  0.00     0.054 A 
BRANCH  79  80
ATOM     80  S   UNL A   1      44.888  19.534  24.052  1.00  0.00     0.124 S 
ATOM     81  O   UNL A   1      46.343  19.432  24.132  1.00  0.00    -0.237 OA
ATOM     82  O   UNL A   1      44.146  18.373  24.536  1.00  0.00    -0.237 OA
ATOM     83  O   UNL A   1      44.378  20.124  22.816  1.00  0.00    -0.744 OA
ENDBRANCH  79  80
ENDBRANCH  60  74
BRANCH  61  84
ATOM     84  C   UNL A   1      41.410  30.351  32.875  1.00  0.00    -0.014 A 
ATOM     85  C   UNL A   1      40.361  29.496  33.295  1.00  0.00     0.010 A 
ATOM     86  C   UNL A   1      41.312  31.720  33.181  1.00  0.00     0.010 A 
ATOM     87  C   UNL A   1      39.346  29.958  34.139  1.00  0.00     0.020 A 
ATOM     88  C   UNL A   1      40.278  32.190  34.014  1.00  0.00     0.020 A 
ATOM     89  C   UNL A   1      39.337  31.294  34.532  1.00  0.00     0.054 A 
BRANCH  89  90
ATOM     90  S   UNL A   1      38.229  31.773  35.892  1.00  0.00     0.124 S 
ATOM     91  O   UNL A   1      39.003  32.793  36.589  1.00  0.00    -0.237 OA
ATOM     92  O   UNL A   1      37.050  32.256  35.168  1.00  0.00    -0.237 OA
ATOM     93  O   UNL A   1      38.015  30.530  36.624  1.00  0.00    -0.744 OA
ENDBRANCH  89  90
ENDBRANCH  61  84
BRANCH  73  94
ATOM     94  C   UNL A   1      45.097  24.074  33.778  1.00  0.00    -0.014 A 
ATOM     95  C   UNL A   1      44.226  23.081  34.243  1.00  0.00     0.010 A 
ATOM     96  C   UNL A   1      46.475  23.880  34.068  1.00  0.00     0.010 A 
ATOM     97  C   UNL A   1      44.687  21.997  35.003  1.00  0.00     0.020 A 
ATOM     98  C   UNL A   1      46.956  22.770  34.762  1.00  0.00     0.020 A 
ATOM     99  C   UNL A   1      46.049  21.845  35.252  1.00  0.00     0.054 A 
BRANCH  99 100
ATOM    100  S   UNL A   1      46.615  20.408  36.185  1.00  0.00     0.124 S 
ATOM    101  O   UNL A   1      45.625  20.339  37.257  1.00  0.00    -0.237 OA
ATOM    102  O   UNL A   1      46.542  19.336  35.195  1.00  0.00    -0.237 OA
ATOM    103  O   UNL A   1      47.966  20.772  36.602  1.00  0.00    -0.744 OA
ENDBRANCH  99 100
ENDBRANCH  73  94
ENDBRANCH  47  48
ENDBRANCH  39  42
ENDBRANCH  37  38
ENDBRANCH  36  37
ENDBRANCH   1  36
TORSDOF 18
ENDMDL
MODEL 3
REMARK VINA RESULT:     -13.1      1.498      2.732
REMARK SMILES Cc1c(C(=O)Nc2ccc(C(=O)Nc3ccccc3C(=O)NCCCNC(=O)c3ccc(-c4c5nc(c(-c6ccc(S(=O)(=O)[O-])cc6)c6ccc([nH]6)c(-c6ccc(S(=O)(=O)[O-])cc6)c6nc(c(-c7ccc(S(=O)(=O)[O-])cc7)c7ccc4[nH]7)C=C6)C=C5)cc3)cc2)cccc1[N+](=O)[O-]
REMARK SMILES IDX 23 1 22 2 20 3 21 4 19 6 14 7 15 8 16 9 18 10 17 11 13 12
REMARK SMILES IDX 11 13 12 14 10 16 7 17 8 18 90 19 9 20 89 21 6 22 4 23 5 24
REMARK SMILES IDX 3 26 1 27 2 28 94 29 91 30 93 31 92 32 95 33 96 34 97 35
REMARK SMILES IDX 24 36 25 37 26 38 27 39 28 41 29 42 30 43 88 44 31 45 87 46
REMARK SMILES IDX 32 47 33 48 34 49 81 50 35 51 86 52 80 53 82 54 36 55 85 56
REMARK SMILES IDX 79 57 78 58 37 60 67 61 48 62 66 63 49 64 52 65 65 66 83 67
REMARK SMILES IDX 50 68 51 69 64 71 84 72 53 73 38 74 39 75 47 76 40 77 46 78
REMARK SMILES IDX 41 79 42 80 43 81 44 82 45 83 68 84 69 85 77 86 70 87 76 88
REMARK SMILES IDX 71 89 72 90 73 91 74 92 75 93 54 94 55 95 63 96 56 97 62 98
REMARK SMILES IDX 57 99 58 100 59 101 60 102 61 103
REMARK H PARENT 22 5 13 15 6 25 26 40 82 59 52 70
REMARK Flexibility Score: inf
ROOT
ATOM      1  C   UNL A   1      33.918  29.587  25.456  1.00  0.00     0.118 C 
ENDROOT
BRANCH   1   2
ATOM      2  N   UNL A   1      33.979  28.767  24.244  1.00  0.00    -0.352 N 
ATOM      3  C   UNL A   1      33.215  28.592  23.110  1.00  0.00     0.253 C 
ATOM      4  O   UNL A   1      33.769  28.035  22.160  1.00  0.00    -0.269 OA
ATOM      5  H   UNL A   1      34.777  28.188  24.236  1.00  0.00     0.163 HD
BRANCH   3   6
ATOM      6  C   UNL A   1      31.769  28.961  22.977  1.00  0.00     0.063 A 
ATOM      7  C   UNL A   1      30.846  28.728  24.037  1.00  0.00     0.054 A 
ATOM      8  C   UNL A   1      29.483  29.049  23.862  1.00  0.00     0.027 A 
ATOM      9  C   UNL A   1      29.038  29.684  22.708  1.00  0.00     0.002 A 
ATOM     10  C   UNL A   1      31.265  29.518  21.792  1.00  0.00     0.016 A 
ATOM     11  C   UNL A   1      29.930  29.918  21.674  1.00  0.00     0.001 A 
BRANCH   7  12
ATOM     12  N   UNL A   1      31.141  28.290  25.349  1.00  0.00    -0.321 N 
ATOM     13  C   UNL A   1      30.994  27.068  25.979  1.00  0.00     0.255 C 
ATOM     14  O   UNL A   1      31.279  26.999  27.178  1.00  0.00    -0.269 OA
ATOM     15  H   UNL A   1      31.524  28.990  25.924  1.00  0.00     0.170 HD
BRANCH  13  16
ATOM     16  C   UNL A   1      30.708  25.802  25.242  1.00  0.00     0.040 A 
ATOM     17  C   UNL A   1      30.570  23.407  23.772  1.00  0.00     0.041 A 
ATOM     18  C   UNL A   1      30.229  24.609  23.187  1.00  0.00     0.027 A 
ATOM     19  C   UNL A   1      30.805  23.365  25.150  1.00  0.00     0.027 A 
ATOM     20  C   UNL A   1      30.413  25.790  23.882  1.00  0.00     0.016 A 
ATOM     21  C   UNL A   1      30.874  24.565  25.882  1.00  0.00     0.016 A 
BRANCH  17  22
ATOM     22  N   UNL A   1      30.839  22.280  22.981  1.00  0.00    -0.322 N 
ATOM     23  C   UNL A   1      32.053  21.732  22.590  1.00  0.00     0.256 C 
ATOM     24  O   UNL A   1      32.052  20.826  21.754  1.00  0.00    -0.269 OA
ATOM     25  H   UNL A   1      30.042  21.804  22.653  1.00  0.00     0.170 HD
BRANCH  23  26
ATOM     26  C   UNL A   1      33.389  22.177  23.129  1.00  0.00     0.049 A 
ATOM     27  C   UNL A   1      33.830  20.133  24.584  1.00  0.00     0.053 C 
ATOM     28  C   UNL A   1      34.116  21.556  24.177  1.00  0.00     0.039 A 
ATOM     29  C   UNL A   1      35.177  22.293  24.762  1.00  0.00     0.273 A 
ATOM     30  C   UNL A   1      33.931  23.320  22.507  1.00  0.00     0.014 A 
ATOM     31  C   UNL A   1      35.697  23.436  24.135  1.00  0.00     0.086 A 
ATOM     32  C   UNL A   1      35.109  23.908  22.969  1.00  0.00     0.008 A 
BRANCH  29  33
ATOM     33  N   UNL A   1      35.708  21.971  26.101  1.00  0.00     0.063 N 
ATOM     34  O   UNL A   1      36.846  21.480  26.165  1.00  0.00    -0.258 OA
ATOM     35  O   UNL A   1      35.026  22.270  27.090  1.00  0.00    -0.258 OA
ENDBRANCH  29  33
ENDBRANCH  23  26
ENDBRANCH  17  22
ENDBRANCH  13  16
ENDBRANCH   7  12
ENDBRANCH   3   6
ENDBRANCH   1   2
BRANCH   1  36
ATOM     36  C   UNL A   1      34.286  28.871  26.745  1.00  0.00     0.042 C 
BRANCH  36  37
ATOM     37  C   UNL A   1      34.841  29.809  27.801  1.00  0.00     0.118 C 
BRANCH  37  38
ATOM     38  N   UNL A   1      35.979  30.546  27.270  1.00  0.00    -0.352 N 
ATOM     39  C   UNL A   1      37.169  30.716  27.970  1.00  0.00     0.251 C 
ATOM     40  H   UNL A   1      35.903  30.942  26.372  1.00  0.00     0.163 HD
ATOM     41  O   UNL A   1      37.482  31.696  28.591  1.00  0.00    -0.269 OA
BRANCH  39  42
ATOM     42  C   UNL A   1      37.945  29.464  28.049  1.00  0.00     0.039 A 
ATOM     43  C   UNL A   1      37.828  28.651  29.181  1.00  0.00     0.014 A 
ATOM     44  C   UNL A   1      39.054  29.428  27.207  1.00  0.00     0.014 A 
ATOM     45  C   UNL A   1      38.934  27.924  29.586  1.00  0.00     0.010 A 
ATOM     46  C   UNL A   1      40.185  28.835  27.685  1.00  0.00     0.010 A 
ATOM     47  C   UNL A   1      40.120  28.118  28.885  1.00  0.00    -0.014 A 
BRANCH  47  48
ATOM     48  C   UNL A   1      41.380  27.520  29.245  1.00  0.00     0.031 A 
ATOM     49  C   UNL A   1      41.548  26.118  28.846  1.00  0.00     0.074 A 
ATOM     50  C   UNL A   1      42.343  28.342  29.703  1.00  0.00     0.049 A 
ATOM     51  N   UNL A   1      42.417  25.317  29.338  1.00  0.00    -0.248 NA
ATOM     52  C   UNL A   1      40.665  25.475  27.867  1.00  0.00     0.031 C 
ATOM     53  C   UNL A   1      43.777  28.121  29.818  1.00  0.00     0.029 A 
ATOM     54  N   UNL A   1      42.124  29.541  30.385  1.00  0.00    -0.354 N 
ATOM     55  C   UNL A   1      42.457  24.224  28.500  1.00  0.00     0.074 A 
ATOM     56  C   UNL A   1      41.257  24.291  27.713  1.00  0.00     0.031 C 
ATOM     57  C   UNL A   1      44.264  28.962  30.753  1.00  0.00     0.029 A 
ATOM     58  C   UNL A   1      43.122  29.629  31.368  1.00  0.00     0.049 A 
ATOM     59  H   UNL A   1      41.409  30.195  30.212  1.00  0.00     0.167 HD
ATOM     60  C   UNL A   1      43.617  23.517  28.430  1.00  0.00     0.031 A 
ATOM     61  C   UNL A   1      42.757  29.478  32.678  1.00  0.00     0.031 A 
ATOM     62  C   UNL A   1      44.563  24.021  29.428  1.00  0.00     0.049 A 
ATOM     63  C   UNL A   1      43.303  28.193  33.270  1.00  0.00     0.074 A 
ATOM     64  C   UNL A   1      45.627  24.903  29.342  1.00  0.00     0.029 A 
ATOM     65  N   UNL A   1      44.203  23.968  30.771  1.00  0.00    -0.354 N 
ATOM     66  N   UNL A   1      43.604  27.122  32.582  1.00  0.00    -0.248 NA
ATOM     67  C   UNL A   1      43.634  28.060  34.684  1.00  0.00     0.031 C 
ATOM     68  C   UNL A   1      45.839  25.454  30.639  1.00  0.00     0.029 A 
ATOM     69  C   UNL A   1      44.922  24.888  31.510  1.00  0.00     0.049 A 
ATOM     70  H   UNL A   1      43.526  23.358  31.144  1.00  0.00     0.167 HD
ATOM     71  C   UNL A   1      44.209  26.201  33.400  1.00  0.00     0.074 A 
ATOM     72  C   UNL A   1      44.197  26.840  34.708  1.00  0.00     0.031 C 
ATOM     73  C   UNL A   1      44.698  25.003  32.949  1.00  0.00     0.031 A 
BRANCH  60  74
ATOM     74  C   UNL A   1      44.001  22.623  27.273  1.00  0.00    -0.014 A 
ATOM     75  C   UNL A   1      43.076  21.656  26.830  1.00  0.00     0.010 A 
ATOM     76  C   UNL A   1      45.249  22.628  26.617  1.00  0.00     0.010 A 
ATOM     77  C   UNL A   1      43.389  20.722  25.833  1.00  0.00     0.020 A 
ATOM     78  C   UNL A   1      45.585  21.688  25.629  1.00  0.00     0.020 A 
ATOM     79  C   UNL A   1      44.649  20.737  25.243  1.00  0.00     0.054 A 
BRANCH  79  80
ATOM     80  S   UNL A   1      45.030  19.523  23.955  1.00  0.00     0.124 S 
ATOM     81  O   UNL A   1      46.485  19.427  24.037  1.00  0.00    -0.237 OA
ATOM     82  O   UNL A   1      44.293  18.347  24.407  1.00  0.00    -0.237 OA
ATOM     83  O   UNL A   1      44.521  20.141  22.733  1.00  0.00    -0.744 OA
ENDBRANCH  79  80
ENDBRANCH  60  74
BRANCH  61  84
ATOM     84  C   UNL A   1      41.436  30.121  32.992  1.00  0.00    -0.014 A 
ATOM     85  C   UNL A   1      41.468  31.323  33.742  1.00  0.00     0.010 A 
ATOM     86  C   UNL A   1      40.277  29.836  32.248  1.00  0.00     0.010 A 
ATOM     87  C   UNL A   1      40.460  32.283  33.613  1.00  0.00     0.020 A 
ATOM     88  C   UNL A   1      39.251  30.793  32.135  1.00  0.00     0.020 A 
ATOM     89  C   UNL A   1      39.378  32.032  32.772  1.00  0.00     0.054 A 
BRANCH  89  90
ATOM     90  S   UNL A   1      38.284  33.423  32.356  1.00  0.00     0.124 S 
ATOM     91  O   UNL A   1      36.964  32.902  32.693  1.00  0.00    -0.237 OA
ATOM     92  O   UNL A   1      38.792  34.482  33.234  1.00  0.00    -0.237 OA
ATOM     93  O   UNL A   1      38.532  33.651  30.937  1.00  0.00    -0.744 OA
ENDBRANCH  89  90
ENDBRANCH  61  84
BRANCH  73  94
ATOM     94  C   UNL A   1      45.085  23.810  33.808  1.00  0.00    -0.014 A 
ATOM     95  C   UNL A   1      44.218  22.773  34.175  1.00  0.00     0.010 A 
ATOM     96  C   UNL A   1      46.446  23.644  34.182  1.00  0.00     0.010 A 
ATOM     97  C   UNL A   1      44.662  21.673  34.919  1.00  0.00     0.020 A 
ATOM     98  C   UNL A   1      46.916  22.520  34.861  1.00  0.00     0.020 A 
ATOM     99  C   UNL A   1      46.009  21.550  35.252  1.00  0.00     0.054 A 
BRANCH  99 100
ATOM    100  S   UNL A   1      46.558  20.092  36.163  1.00  0.00     0.124 S 
ATOM    101  O   UNL A   1      47.969  20.019  35.789  1.00  0.00    -0.237 OA
ATOM    102  O   UNL A   1      46.297  20.466  37.551  1.00  0.00    -0.237 OA
ATOM    103  O   UNL A   1      45.716  19.018  35.645  1.00  0.00    -0.744 OA
ENDBRANCH  99 100
ENDBRANCH  73  94
ENDBRANCH  47  48
ENDBRANCH  39  42
ENDBRANCH  37  38
ENDBRANCH  36  37
ENDBRANCH   1  36
TORSDOF 18
ENDMDL
