MODEL 1
REMARK VINA RESULT:     -10.5      0.000      0.000
REMARK SMILES CC(C)C[C@H](NS(=O)(=O)N1C[C@@H](C)C[C@H](C)C1)C(=O)NCCCNC(=O)c1ccc(-c2c3nc(c(-c4ccc(S(=O)(=O)[O-])cc4)c4ccc([nH]4)c(-c4ccc(S(=O)(=O)[O-])cc4)c4nc(c(-c5ccc(S(=O)(=O)[O-])cc5)c5ccc2[nH]5)C=C4)C=C3)cc1
REMARK SMILES IDX 22 1 21 2 20 3 18 4 19 5 5 7 4 8 2 9 1 10 3 11 6 12 7 14
REMARK SMILES IDX 8 15 9 16 10 17 11 18 17 19 12 20 15 21 13 22 14 23 16 24
REMARK SMILES IDX 23 25 24 26 25 27 26 29 27 30 28 31 86 32 29 33 85 34 30 35
REMARK SMILES IDX 31 36 32 37 79 38 33 39 84 40 78 41 80 42 34 43 83 44 77 45
REMARK SMILES IDX 76 46 35 48 65 49 46 50 64 51 47 52 50 53 63 54 81 55 48 56
REMARK SMILES IDX 49 57 62 59 82 60 51 61 36 62 37 63 45 64 38 65 44 66 39 67
REMARK SMILES IDX 40 68 41 69 42 70 43 71 66 72 67 73 75 74 68 75 74 76 69 77
REMARK SMILES IDX 70 78 71 79 72 80 73 81 52 82 53 83 61 84 54 85 60 86 55 87
REMARK SMILES IDX 56 88 57 89 58 90 59 91
REMARK H PARENT 20 6 6 13 24 28 80 47 50 58
REMARK Flexibility Score: inf
ROOT
ATOM      1  C   UNL A   1      33.068  27.268  25.989  1.00  0.00     0.042 C 
ENDROOT
BRANCH   1   2
ATOM      2  C   UNL A   1      31.662  27.620  26.472  1.00  0.00     0.117 C 
BRANCH   2   3
ATOM      3  N   UNL A   1      30.972  26.409  26.858  1.00  0.00    -0.355 N 
ATOM      4  C   UNL A   1      30.221  25.556  26.118  1.00  0.00     0.238 C 
ATOM      5  O   UNL A   1      29.414  24.861  26.753  1.00  0.00    -0.273 OA
ATOM      6  H   UNL A   1      31.061  26.166  27.809  1.00  0.00     0.163 HD
BRANCH   4   7
ATOM      7  C   UNL A   1      30.395  25.323  24.612  1.00  0.00     0.160 C 
BRANCH   7   8
ATOM      8  C   UNL A   1      29.634  26.224  23.636  1.00  0.00     0.033 C 
BRANCH   8   9
ATOM      9  C   UNL A   1      30.484  27.035  22.633  1.00  0.00    -0.015 C 
ATOM     10  C   UNL A   1      30.328  28.552  22.771  1.00  0.00     0.007 C 
ATOM     11  C   UNL A   1      31.957  26.658  22.817  1.00  0.00     0.007 C 
ENDBRANCH   8   9
ENDBRANCH   7   8
BRANCH   7  12
ATOM     12  N   UNL A   1      30.570  23.968  24.038  1.00  0.00    -0.190 NA
ATOM     13  H   UNL A   1      30.698  24.113  23.037  1.00  0.00     0.143 HD
BRANCH  12  14
ATOM     14  S   UNL A   1      31.743  22.874  24.476  1.00  0.00     0.280 S 
ATOM     15  O   UNL A   1      31.147  22.201  25.609  1.00  0.00    -0.195 OA
ATOM     16  O   UNL A   1      32.086  22.147  23.291  1.00  0.00    -0.195 OA
BRANCH  14  17
ATOM     17  N   UNL A   1      33.020  23.841  25.004  1.00  0.00    -0.188 NA
ATOM     18  C   UNL A   1      33.399  23.771  26.443  1.00  0.00     0.106 C 
ATOM     19  C   UNL A   1      34.233  24.014  24.168  1.00  0.00     0.106 C 
ATOM     20  C   UNL A   1      34.526  22.746  26.742  1.00  0.00     0.001 C 
ATOM     21  C   UNL A   1      35.169  22.819  24.294  1.00  0.00     0.001 C 
ATOM     22  C   UNL A   1      34.021  21.308  26.865  1.00  0.00     0.009 C 
ATOM     23  C   UNL A   1      35.689  22.798  25.732  1.00  0.00     0.009 C 
ATOM     24  C   UNL A   1      36.312  22.893  23.286  1.00  0.00     0.009 C 
ENDBRANCH  14  17
ENDBRANCH  12  14
ENDBRANCH   7  12
ENDBRANCH   4   7
ENDBRANCH   2   3
ENDBRANCH   1   2
BRANCH   1  25
ATOM     25  C   UNL A   1      34.165  28.273  26.258  1.00  0.00     0.118 C 
BRANCH  25  26
ATOM     26  N   UNL A   1      33.760  29.485  26.951  1.00  0.00    -0.352 N 
ATOM     27  C   UNL A   1      34.459  30.385  27.725  1.00  0.00     0.251 C 
ATOM     28  H   UNL A   1      32.806  29.704  26.847  1.00  0.00     0.163 HD
ATOM     29  O   UNL A   1      33.850  31.369  28.145  1.00  0.00    -0.269 OA
BRANCH  27  30
ATOM     30  C   UNL A   1      35.873  30.171  28.134  1.00  0.00     0.039 A 
ATOM     31  C   UNL A   1      36.124  29.639  29.407  1.00  0.00     0.014 A 
ATOM     32  C   UNL A   1      36.957  30.433  27.300  1.00  0.00     0.014 A 
ATOM     33  C   UNL A   1      37.423  29.284  29.784  1.00  0.00     0.010 A 
ATOM     34  C   UNL A   1      38.221  29.943  27.611  1.00  0.00     0.010 A 
ATOM     35  C   UNL A   1      38.478  29.384  28.866  1.00  0.00    -0.014 A 
BRANCH  35  36
ATOM     36  C   UNL A   1      39.863  28.965  29.207  1.00  0.00     0.031 A 
ATOM     37  C   UNL A   1      40.793  29.940  29.885  1.00  0.00     0.074 A 
ATOM     38  C   UNL A   1      40.307  27.742  28.853  1.00  0.00     0.049 A 
ATOM     39  N   UNL A   1      42.052  29.791  30.212  1.00  0.00    -0.248 NA
ATOM     40  C   UNL A   1      40.250  31.271  30.209  1.00  0.00     0.031 C 
ATOM     41  C   UNL A   1      39.526  26.724  28.147  1.00  0.00     0.029 A 
ATOM     42  N   UNL A   1      41.532  27.147  29.036  1.00  0.00    -0.354 N 
ATOM     43  C   UNL A   1      42.449  31.008  30.755  1.00  0.00     0.074 A 
ATOM     44  C   UNL A   1      41.323  31.907  30.649  1.00  0.00     0.031 C 
ATOM     45  C   UNL A   1      40.275  25.621  27.991  1.00  0.00     0.029 A 
ATOM     46  C   UNL A   1      41.604  25.864  28.542  1.00  0.00     0.049 A 
ATOM     47  H   UNL A   1      42.287  27.596  29.479  1.00  0.00     0.167 HD
ATOM     48  C   UNL A   1      43.632  31.342  31.320  1.00  0.00     0.031 A 
ATOM     49  C   UNL A   1      42.625  24.986  28.531  1.00  0.00     0.031 A 
ATOM     50  C   UNL A   1      44.745  30.440  31.440  1.00  0.00     0.049 A 
ATOM     51  C   UNL A   1      43.935  25.382  29.159  1.00  0.00     0.074 A 
ATOM     52  C   UNL A   1      45.967  30.659  32.049  1.00  0.00     0.029 A 
ATOM     53  N   UNL A   1      44.772  29.147  30.938  1.00  0.00    -0.354 N 
ATOM     54  N   UNL A   1      44.264  26.514  29.737  1.00  0.00    -0.248 NA
ATOM     55  C   UNL A   1      45.007  24.377  29.146  1.00  0.00     0.031 C 
ATOM     56  C   UNL A   1      46.756  29.521  31.862  1.00  0.00     0.029 A 
ATOM     57  C   UNL A   1      46.000  28.566  31.200  1.00  0.00     0.049 A 
ATOM     58  H   UNL A   1      44.028  28.709  30.466  1.00  0.00     0.167 HD
ATOM     59  C   UNL A   1      45.571  26.343  30.185  1.00  0.00     0.074 A 
ATOM     60  C   UNL A   1      45.962  24.995  29.826  1.00  0.00     0.031 C 
ATOM     61  C   UNL A   1      46.374  27.222  30.835  1.00  0.00     0.031 A 
BRANCH  48  62
ATOM     62  C   UNL A   1      43.778  32.745  31.853  1.00  0.00    -0.014 A 
ATOM     63  C   UNL A   1      43.436  33.060  33.180  1.00  0.00     0.010 A 
ATOM     64  C   UNL A   1      44.295  33.758  31.024  1.00  0.00     0.010 A 
ATOM     65  C   UNL A   1      43.564  34.368  33.655  1.00  0.00     0.020 A 
ATOM     66  C   UNL A   1      44.458  35.059  31.505  1.00  0.00     0.020 A 
ATOM     67  C   UNL A   1      44.075  35.360  32.813  1.00  0.00     0.054 A 
BRANCH  67  68
ATOM     68  S   UNL A   1      44.257  37.041  33.468  1.00  0.00     0.124 S 
ATOM     69  O   UNL A   1      44.267  37.841  32.246  1.00  0.00    -0.237 OA
ATOM     70  O   UNL A   1      43.069  37.188  34.304  1.00  0.00    -0.237 OA
ATOM     71  O   UNL A   1      45.526  36.997  34.192  1.00  0.00    -0.744 OA
ENDBRANCH  67  68
ENDBRANCH  48  62
BRANCH  49  72
ATOM     72  C   UNL A   1      42.444  23.634  27.928  1.00  0.00    -0.014 A 
ATOM     73  C   UNL A   1      42.686  23.423  26.559  1.00  0.00     0.010 A 
ATOM     74  C   UNL A   1      42.033  22.548  28.722  1.00  0.00     0.010 A 
ATOM     75  C   UNL A   1      42.499  22.160  25.991  1.00  0.00     0.020 A 
ATOM     76  C   UNL A   1      41.876  21.275  28.165  1.00  0.00     0.020 A 
ATOM     77  C   UNL A   1      42.098  21.092  26.799  1.00  0.00     0.054 A 
BRANCH  77  78
ATOM     78  S   UNL A   1      41.909  19.452  26.047  1.00  0.00     0.124 S 
ATOM     79  O   UNL A   1      42.751  19.561  24.860  1.00  0.00    -0.237 OA
ATOM     80  O   UNL A   1      42.407  18.566  27.097  1.00  0.00    -0.237 OA
ATOM     81  O   UNL A   1      40.473  19.355  25.791  1.00  0.00    -0.744 OA
ENDBRANCH  77  78
ENDBRANCH  49  72
BRANCH  61  82
ATOM     82  C   UNL A   1      47.743  26.742  31.241  1.00  0.00    -0.014 A 
ATOM     83  C   UNL A   1      47.973  26.157  32.499  1.00  0.00     0.010 A 
ATOM     84  C   UNL A   1      48.806  26.834  30.323  1.00  0.00     0.010 A 
ATOM     85  C   UNL A   1      49.251  25.713  32.847  1.00  0.00     0.020 A 
ATOM     86  C   UNL A   1      50.076  26.359  30.655  1.00  0.00     0.020 A 
ATOM     87  C   UNL A   1      50.296  25.818  31.922  1.00  0.00     0.054 A 
BRANCH  87  88
ATOM     88  S   UNL A   1      51.938  25.205  32.389  1.00  0.00     0.124 S 
ATOM     89  O   UNL A   1      52.092  25.744  33.737  1.00  0.00    -0.237 OA
ATOM     90  O   UNL A   1      51.774  23.756  32.305  1.00  0.00    -0.237 OA
ATOM     91  O   UNL A   1      52.823  25.786  31.381  1.00  0.00    -0.744 OA
ENDBRANCH  87  88
ENDBRANCH  61  82
ENDBRANCH  35  36
ENDBRANCH  27  30
ENDBRANCH  25  26
ENDBRANCH   1  25
TORSDOF 18
ENDMDL
MODEL 2
REMARK VINA RESULT:     -10.4      4.517     10.311
REMARK SMILES CC(C)C[C@H](NS(=O)(=O)N1C[C@@H](C)C[C@H](C)C1)C(=O)NCCCNC(=O)c1ccc(-c2c3nc(c(-c4ccc(S(=O)(=O)[O-])cc4)c4ccc([nH]4)c(-c4ccc(S(=O)(=O)[O-])cc4)c4nc(c(-c5ccc(S(=O)(=O)[O-])cc5)c5ccc2[nH]5)C=C4)C=C3)cc1
REMARK SMILES IDX 22 1 21 2 20 3 18 4 19 5 5 7 4 8 2 9 1 10 3 11 6 12 7 14
REMARK SMILES IDX 8 15 9 16 10 17 11 18 17 19 12 20 15 21 13 22 14 23 16 24
REMARK SMILES IDX 23 25 24 26 25 27 26 29 27 30 28 31 86 32 29 33 85 34 30 35
REMARK SMILES IDX 31 36 32 37 79 38 33 39 84 40 78 41 80 42 34 43 83 44 77 45
REMARK SMILES IDX 76 46 35 48 65 49 46 50 64 51 47 52 50 53 63 54 81 55 48 56
REMARK SMILES IDX 49 57 62 59 82 60 51 61 36 62 37 63 45 64 38 65 44 66 39 67
REMARK SMILES IDX 40 68 41 69 42 70 43 71 66 72 67 73 75 74 68 75 74 76 69 77
REMARK SMILES IDX 70 78 71 79 72 80 73 81 52 82 53 83 61 84 54 85 60 86 55 87
REMARK SMILES IDX 56 88 57 89 58 90 59 91
REMARK H PARENT 20 6 6 13 24 28 80 47 50 58
REMARK Flexibility Score: inf
ROOT
ATOM      1  C   UNL A   1      37.289  23.798  25.886  1.00  0.00     0.042 C 
ENDROOT
BRANCH   1   2
ATOM      2  C   UNL A   1      36.889  22.371  25.517  1.00  0.00     0.117 C 
BRANCH   2   3
ATOM      3  N   UNL A   1      35.973  21.858  26.512  1.00  0.00    -0.355 N 
ATOM      4  C   UNL A   1      34.625  21.707  26.464  1.00  0.00     0.238 C 
ATOM      5  O   UNL A   1      34.052  21.657  27.563  1.00  0.00    -0.273 OA
ATOM      6  H   UNL A   1      36.394  21.575  27.356  1.00  0.00     0.163 HD
BRANCH   4   7
ATOM      7  C   UNL A   1      33.818  21.480  25.180  1.00  0.00     0.160 C 
BRANCH   7   8
ATOM      8  C   UNL A   1      33.956  20.140  24.453  1.00  0.00     0.033 C 
BRANCH   8   9
ATOM      9  C   UNL A   1      32.730  19.202  24.489  1.00  0.00    -0.015 C 
ATOM     10  C   UNL A   1      32.636  18.255  23.289  1.00  0.00     0.007 C 
ATOM     11  C   UNL A   1      32.775  18.380  25.780  1.00  0.00     0.007 C 
ENDBRANCH   8   9
ENDBRANCH   7   8
BRANCH   7  12
ATOM     12  N   UNL A   1      33.553  22.570  24.213  1.00  0.00    -0.190 NA
ATOM     13  H   UNL A   1      32.859  22.195  23.566  1.00  0.00     0.143 HD
BRANCH  12  14
ATOM     14  S   UNL A   1      33.015  24.096  24.595  1.00  0.00     0.280 S 
ATOM     15  O   UNL A   1      31.916  23.832  25.497  1.00  0.00    -0.195 OA
ATOM     16  O   UNL A   1      34.160  24.835  25.035  1.00  0.00    -0.195 OA
BRANCH  14  17
ATOM     17  N   UNL A   1      32.414  24.690  23.136  1.00  0.00    -0.188 NA
ATOM     18  C   UNL A   1      30.950  24.954  23.039  1.00  0.00     0.106 C 
ATOM     19  C   UNL A   1      33.165  25.714  22.370  1.00  0.00     0.106 C 
ATOM     20  C   UNL A   1      30.557  26.416  23.381  1.00  0.00     0.001 C 
ATOM     21  C   UNL A   1      32.954  27.106  22.950  1.00  0.00     0.001 C 
ATOM     22  C   UNL A   1      30.446  26.679  24.883  1.00  0.00     0.009 C 
ATOM     23  C   UNL A   1      31.483  27.468  22.741  1.00  0.00     0.009 C 
ATOM     24  C   UNL A   1      33.880  28.130  22.301  1.00  0.00     0.009 C 
ENDBRANCH  14  17
ENDBRANCH  12  14
ENDBRANCH   7  12
ENDBRANCH   4   7
ENDBRANCH   2   3
ENDBRANCH   1   2
BRANCH   1  25
ATOM     25  C   UNL A   1      38.590  23.981  26.636  1.00  0.00     0.118 C 
BRANCH  25  26
ATOM     26  N   UNL A   1      39.704  24.495  25.857  1.00  0.00    -0.352 N 
ATOM     27  C   UNL A   1      40.684  25.421  26.143  1.00  0.00     0.251 C 
ATOM     28  H   UNL A   1      39.772  24.109  24.954  1.00  0.00     0.163 HD
ATOM     29  O   UNL A   1      41.548  25.618  25.289  1.00  0.00    -0.269 OA
BRANCH  27  30
ATOM     30  C   UNL A   1      40.686  26.234  27.389  1.00  0.00     0.039 A 
ATOM     31  C   UNL A   1      41.569  27.322  27.470  1.00  0.00     0.014 A 
ATOM     32  C   UNL A   1      39.828  25.996  28.458  1.00  0.00     0.014 A 
ATOM     33  C   UNL A   1      41.510  28.203  28.555  1.00  0.00     0.010 A 
ATOM     34  C   UNL A   1      39.664  26.950  29.457  1.00  0.00     0.010 A 
ATOM     35  C   UNL A   1      40.518  28.054  29.534  1.00  0.00    -0.014 A 
BRANCH  35  36
ATOM     36  C   UNL A   1      40.385  29.001  30.673  1.00  0.00     0.031 A 
ATOM     37  C   UNL A   1      41.258  28.833  31.891  1.00  0.00     0.074 A 
ATOM     38  C   UNL A   1      39.442  29.964  30.645  1.00  0.00     0.049 A 
ATOM     39  N   UNL A   1      41.257  29.512  33.009  1.00  0.00    -0.248 NA
ATOM     40  C   UNL A   1      42.241  27.735  31.865  1.00  0.00     0.031 C 
ATOM     41  C   UNL A   1      38.497  30.200  29.551  1.00  0.00     0.029 A 
ATOM     42  N   UNL A   1      39.118  30.926  31.571  1.00  0.00    -0.354 N 
ATOM     43  C   UNL A   1      42.216  28.912  33.818  1.00  0.00     0.074 A 
ATOM     44  C   UNL A   1      42.728  27.772  33.094  1.00  0.00     0.031 C 
ATOM     45  C   UNL A   1      37.729  31.260  29.851  1.00  0.00     0.029 A 
ATOM     46  C   UNL A   1      38.091  31.752  31.176  1.00  0.00     0.049 A 
ATOM     47  H   UNL A   1      39.578  31.016  32.436  1.00  0.00     0.167 HD
ATOM     48  C   UNL A   1      42.656  29.291  35.040  1.00  0.00     0.031 A 
ATOM     49  C   UNL A   1      37.504  32.785  31.810  1.00  0.00     0.031 A 
ATOM     50  C   UNL A   1      42.157  30.436  35.750  1.00  0.00     0.049 A 
ATOM     51  C   UNL A   1      38.005  33.184  33.173  1.00  0.00     0.074 A 
ATOM     52  C   UNL A   1      42.577  30.942  36.968  1.00  0.00     0.029 A 
ATOM     53  N   UNL A   1      41.126  31.252  35.310  1.00  0.00    -0.354 N 
ATOM     54  N   UNL A   1      38.967  32.649  33.888  1.00  0.00    -0.248 NA
ATOM     55  C   UNL A   1      37.350  34.336  33.808  1.00  0.00     0.031 C 
ATOM     56  C   UNL A   1      41.758  32.028  37.292  1.00  0.00     0.029 A 
ATOM     57  C   UNL A   1      40.877  32.243  36.244  1.00  0.00     0.049 A 
ATOM     58  H   UNL A   1      40.644  31.143  34.459  1.00  0.00     0.167 HD
ATOM     59  C   UNL A   1      39.054  33.421  35.042  1.00  0.00     0.074 A 
ATOM     60  C   UNL A   1      38.059  34.468  34.921  1.00  0.00     0.031 C 
ATOM     61  C   UNL A   1      39.882  33.277  36.107  1.00  0.00     0.031 A 
BRANCH  48  62
ATOM     62  C   UNL A   1      43.735  28.455  35.682  1.00  0.00    -0.014 A 
ATOM     63  C   UNL A   1      43.415  27.387  36.540  1.00  0.00     0.010 A 
ATOM     64  C   UNL A   1      45.087  28.721  35.400  1.00  0.00     0.010 A 
ATOM     65  C   UNL A   1      44.425  26.630  37.138  1.00  0.00     0.020 A 
ATOM     66  C   UNL A   1      46.100  27.944  35.969  1.00  0.00     0.020 A 
ATOM     67  C   UNL A   1      45.763  26.914  36.848  1.00  0.00     0.054 A 
BRANCH  67  68
ATOM     68  S   UNL A   1      47.050  25.895  37.617  1.00  0.00     0.124 S 
ATOM     69  O   UNL A   1      46.332  24.652  37.885  1.00  0.00    -0.237 OA
ATOM     70  O   UNL A   1      48.066  25.819  36.571  1.00  0.00    -0.237 OA
ATOM     71  O   UNL A   1      47.435  26.658  38.803  1.00  0.00    -0.744 OA
ENDBRANCH  67  68
ENDBRANCH  48  62
BRANCH  49  72
ATOM     72  C   UNL A   1      36.393  33.534  31.155  1.00  0.00    -0.014 A 
ATOM     73  C   UNL A   1      36.520  33.988  29.830  1.00  0.00     0.010 A 
ATOM     74  C   UNL A   1      35.199  33.793  31.852  1.00  0.00     0.010 A 
ATOM     75  C   UNL A   1      35.485  34.706  29.223  1.00  0.00     0.020 A 
ATOM     76  C   UNL A   1      34.148  34.483  31.237  1.00  0.00     0.020 A 
ATOM     77  C   UNL A   1      34.304  34.946  29.929  1.00  0.00     0.054 A 
BRANCH  77  78
ATOM     78  S   UNL A   1      32.957  35.837  29.103  1.00  0.00     0.124 S 
ATOM     79  O   UNL A   1      32.376  34.797  28.259  1.00  0.00    -0.237 OA
ATOM     80  O   UNL A   1      32.133  36.273  30.227  1.00  0.00    -0.237 OA
ATOM     81  O   UNL A   1      33.644  36.911  28.389  1.00  0.00    -0.744 OA
ENDBRANCH  77  78
ENDBRANCH  49  72
BRANCH  61  82
ATOM     82  C   UNL A   1      39.780  34.300  37.209  1.00  0.00    -0.014 A 
ATOM     83  C   UNL A   1      40.405  35.555  37.105  1.00  0.00     0.010 A 
ATOM     84  C   UNL A   1      39.001  34.014  38.346  1.00  0.00     0.010 A 
ATOM     85  C   UNL A   1      40.288  36.489  38.138  1.00  0.00     0.020 A 
ATOM     86  C   UNL A   1      38.854  34.958  39.364  1.00  0.00     0.020 A 
ATOM     87  C   UNL A   1      39.513  36.183  39.262  1.00  0.00     0.054 A 
BRANCH  87  88
ATOM     88  S   UNL A   1      39.353  37.425  40.574  1.00  0.00     0.124 S 
ATOM     89  O   UNL A   1      38.330  38.313  40.030  1.00  0.00    -0.237 OA
ATOM     90  O   UNL A   1      38.943  36.623  41.725  1.00  0.00    -0.237 OA
ATOM     91  O   UNL A   1      40.692  38.002  40.670  1.00  0.00    -0.744 OA
ENDBRANCH  87  88
ENDBRANCH  61  82
ENDBRANCH  35  36
ENDBRANCH  27  30
ENDBRANCH  25  26
ENDBRANCH   1  25
TORSDOF 18
ENDMDL
MODEL 3
REMARK VINA RESULT:     -10.4      3.576      6.726
REMARK SMILES CC(C)C[C@H](NS(=O)(=O)N1C[C@@H](C)C[C@H](C)C1)C(=O)NCCCNC(=O)c1ccc(-c2c3nc(c(-c4ccc(S(=O)(=O)[O-])cc4)c4ccc([nH]4)c(-c4ccc(S(=O)(=O)[O-])cc4)c4nc(c(-c5ccc(S(=O)(=O)[O-])cc5)c5ccc2[nH]5)C=C4)C=C3)cc1
REMARK SMILES IDX 22 1 21 2 20 3 18 4 19 5 5 7 4 8 2 9 1 10 3 11 6 12 7 14
REMARK SMILES IDX 8 15 9 16 10 17 11 18 17 19 12 20 15 21 13 22 14 23 16 24
REMARK SMILES IDX 23 25 24 26 25 27 26 29 27 30 28 31 86 32 29 33 85 34 30 35
REMARK SMILES IDX 31 36 32 37 79 38 33 39 84 40 78 41 80 42 34 43 83 44 77 45
REMARK SMILES IDX 76 46 35 48 65 49 46 50 64 51 47 52 50 53 63 54 81 55 48 56
REMARK SMILES IDX 49 57 62 59 82 60 51 61 36 62 37 63 45 64 38 65 44 66 39 67
REMARK SMILES IDX 40 68 41 69 42 70 43 71 66 72 67 73 75 74 68 75 74 76 69 77
REMARK SMILES IDX 70 78 71 79 72 80 73 81 52 82 53 83 61 84 54 85 60 86 55 87
REMARK SMILES IDX 56 88 57 89 58 90 59 91
REMARK H PARENT 20 6 6 13 24 28 80 47 50 58
REMARK Flexibility Score: inf
ROOT
ATOM      1  C   UNL A   1      33.854  33.590  28.090  1.00  0.00     0.042 C 
ENDROOT
BRANCH   1   2
ATOM      2  C   UNL A   1      34.508  34.835  28.686  1.00  0.00     0.117 C 
BRANCH   2   3
ATOM      3  N   UNL A   1      33.938  35.097  29.989  1.00  0.00    -0.355 N 
ATOM      4  C   UNL A   1      34.363  34.719  31.222  1.00  0.00     0.238 C 
ATOM      5  O   UNL A   1      33.494  34.702  32.107  1.00  0.00    -0.273 OA
ATOM      6  H   UNL A   1      33.112  35.633  29.981  1.00  0.00     0.163 HD
BRANCH   4   7
ATOM      7  C   UNL A   1      35.825  34.443  31.593  1.00  0.00     0.160 C 
BRANCH   7   8
ATOM      8  C   UNL A   1      36.502  33.190  31.033  1.00  0.00     0.033 C 
BRANCH   8   9
ATOM      9  C   UNL A   1      37.760  33.411  30.166  1.00  0.00    -0.015 C 
ATOM     10  C   UNL A   1      37.624  32.898  28.729  1.00  0.00     0.007 C 
ATOM     11  C   UNL A   1      38.086  34.907  30.140  1.00  0.00     0.007 C 
ENDBRANCH   8   9
ENDBRANCH   7   8
BRANCH   7  12
ATOM     12  N   UNL A   1      36.375  34.777  32.928  1.00  0.00    -0.190 NA
ATOM     13  H   UNL A   1      36.161  35.764  33.069  1.00  0.00     0.143 HD
BRANCH  12  14
ATOM     14  S   UNL A   1      35.970  34.032  34.358  1.00  0.00     0.280 S 
ATOM     15  O   UNL A   1      35.196  35.045  35.039  1.00  0.00    -0.195 OA
ATOM     16  O   UNL A   1      35.383  32.773  34.010  1.00  0.00    -0.195 OA
BRANCH  14  17
ATOM     17  N   UNL A   1      37.450  33.833  35.142  1.00  0.00    -0.188 NA
ATOM     18  C   UNL A   1      37.791  32.476  35.654  1.00  0.00     0.106 C 
ATOM     19  C   UNL A   1      38.671  34.505  34.635  1.00  0.00     0.106 C 
ATOM     20  C   UNL A   1      38.616  31.622  34.654  1.00  0.00     0.001 C 
ATOM     21  C   UNL A   1      39.268  33.752  33.453  1.00  0.00     0.001 C 
ATOM     22  C   UNL A   1      37.758  30.940  33.587  1.00  0.00     0.009 C 
ATOM     23  C   UNL A   1      39.758  32.401  33.975  1.00  0.00     0.009 C 
ATOM     24  C   UNL A   1      40.397  34.543  32.798  1.00  0.00     0.009 C 
ENDBRANCH  14  17
ENDBRANCH  12  14
ENDBRANCH   7  12
ENDBRANCH   4   7
ENDBRANCH   2   3
ENDBRANCH   1   2
BRANCH   1  25
ATOM     25  C   UNL A   1      34.106  32.273  28.787  1.00  0.00     0.118 C 
BRANCH  25  26
ATOM     26  N   UNL A   1      33.779  31.079  28.026  1.00  0.00    -0.352 N 
ATOM     27  C   UNL A   1      34.492  29.932  27.752  1.00  0.00     0.251 C 
ATOM     28  H   UNL A   1      32.877  31.091  27.631  1.00  0.00     0.163 HD
ATOM     29  O   UNL A   1      33.924  29.047  27.112  1.00  0.00    -0.269 OA
BRANCH  27  30
ATOM     30  C   UNL A   1      35.923  29.763  28.122  1.00  0.00     0.039 A 
ATOM     31  C   UNL A   1      36.230  29.409  29.444  1.00  0.00     0.014 A 
ATOM     32  C   UNL A   1      36.968  29.898  27.212  1.00  0.00     0.014 A 
ATOM     33  C   UNL A   1      37.544  29.097  29.807  1.00  0.00     0.010 A 
ATOM     34  C   UNL A   1      38.243  29.443  27.530  1.00  0.00     0.010 A 
ATOM     35  C   UNL A   1      38.557  29.060  28.838  1.00  0.00    -0.014 A 
BRANCH  35  36
ATOM     36  C   UNL A   1      39.955  28.679  29.170  1.00  0.00     0.031 A 
ATOM     37  C   UNL A   1      40.857  29.674  29.856  1.00  0.00     0.074 A 
ATOM     38  C   UNL A   1      40.434  27.474  28.801  1.00  0.00     0.049 A 
ATOM     39  N   UNL A   1      42.121  29.559  30.178  1.00  0.00    -0.248 NA
ATOM     40  C   UNL A   1      40.275  30.984  30.197  1.00  0.00     0.031 C 
ATOM     41  C   UNL A   1      39.681  26.442  28.085  1.00  0.00     0.029 A 
ATOM     42  N   UNL A   1      41.676  26.914  28.974  1.00  0.00    -0.354 N 
ATOM     43  C   UNL A   1      42.482  30.781  30.733  1.00  0.00     0.074 A 
ATOM     44  C   UNL A   1      41.330  31.647  30.641  1.00  0.00     0.031 C 
ATOM     45  C   UNL A   1      40.463  25.363  27.914  1.00  0.00     0.029 A 
ATOM     46  C   UNL A   1      41.785  25.640  28.465  1.00  0.00     0.049 A 
ATOM     47  H   UNL A   1      42.419  27.381  29.420  1.00  0.00     0.167 HD
ATOM     48  C   UNL A   1      43.657  31.144  31.300  1.00  0.00     0.031 A 
ATOM     49  C   UNL A   1      42.833  24.793  28.441  1.00  0.00     0.031 A 
ATOM     50  C   UNL A   1      44.796  30.275  31.406  1.00  0.00     0.049 A 
ATOM     51  C   UNL A   1      44.132  25.221  29.070  1.00  0.00     0.074 A 
ATOM     52  C   UNL A   1      46.013  30.524  32.015  1.00  0.00     0.029 A 
ATOM     53  N   UNL A   1      44.861  28.990  30.889  1.00  0.00    -0.354 N 
ATOM     54  N   UNL A   1      44.429  26.356  29.660  1.00  0.00    -0.248 NA
ATOM     55  C   UNL A   1      45.233  24.249  29.043  1.00  0.00     0.031 C 
ATOM     56  C   UNL A   1      46.836  29.412  31.812  1.00  0.00     0.029 A 
ATOM     57  C   UNL A   1      46.106  28.442  31.142  1.00  0.00     0.049 A 
ATOM     58  H   UNL A   1      44.129  28.534  30.415  1.00  0.00     0.167 HD
ATOM     59  C   UNL A   1      45.741  26.220  30.102  1.00  0.00     0.074 A 
ATOM     60  C   UNL A   1      46.172  24.888  29.728  1.00  0.00     0.031 C 
ATOM     61  C   UNL A   1      46.520  27.115  30.761  1.00  0.00     0.031 A 
BRANCH  48  62
ATOM     62  C   UNL A   1      43.762  32.545  31.848  1.00  0.00    -0.014 A 
ATOM     63  C   UNL A   1      43.628  32.801  33.225  1.00  0.00     0.010 A 
ATOM     64  C   UNL A   1      44.031  33.618  30.978  1.00  0.00     0.010 A 
ATOM     65  C   UNL A   1      43.715  34.107  33.716  1.00  0.00     0.020 A 
ATOM     66  C   UNL A   1      44.153  34.921  31.469  1.00  0.00     0.020 A 
ATOM     67  C   UNL A   1      43.978  35.158  32.834  1.00  0.00     0.054 A 
BRANCH  67  68
ATOM     68  S   UNL A   1      44.113  36.837  33.505  1.00  0.00     0.124 S 
ATOM     69  O   UNL A   1      45.302  36.730  34.348  1.00  0.00    -0.237 OA
ATOM     70  O   UNL A   1      44.269  37.651  32.303  1.00  0.00    -0.237 OA
ATOM     71  O   UNL A   1      42.856  37.027  34.226  1.00  0.00    -0.744 OA
ENDBRANCH  67  68
ENDBRANCH  48  62
BRANCH  49  72
ATOM     72  C   UNL A   1      42.691  23.443  27.823  1.00  0.00    -0.014 A 
ATOM     73  C   UNL A   1      43.204  23.187  26.540  1.00  0.00     0.010 A 
ATOM     74  C   UNL A   1      42.045  22.405  28.519  1.00  0.00     0.010 A 
ATOM     75  C   UNL A   1      43.054  21.926  25.954  1.00  0.00     0.020 A 
ATOM     76  C   UNL A   1      41.921  21.133  27.950  1.00  0.00     0.020 A 
ATOM     77  C   UNL A   1      42.417  20.905  26.665  1.00  0.00     0.054 A 
BRANCH  77  78
ATOM     78  S   UNL A   1      42.278  19.265  25.902  1.00  0.00     0.124 S 
ATOM     79  O   UNL A   1      40.842  19.161  25.663  1.00  0.00    -0.237 OA
ATOM     80  O   UNL A   1      43.110  19.402  24.710  1.00  0.00    -0.237 OA
ATOM     81  O   UNL A   1      42.810  18.366  26.924  1.00  0.00    -0.744 OA
ENDBRANCH  77  78
ENDBRANCH  49  72
BRANCH  61  82
ATOM     82  C   UNL A   1      47.904  26.671  31.157  1.00  0.00    -0.014 A 
ATOM     83  C   UNL A   1      49.005  26.846  30.301  1.00  0.00     0.010 A 
ATOM     84  C   UNL A   1      48.110  26.114  32.434  1.00  0.00     0.010 A 
ATOM     85  C   UNL A   1      50.279  26.432  30.697  1.00  0.00     0.020 A 
ATOM     86  C   UNL A   1      49.388  25.733  32.846  1.00  0.00     0.020 A 
ATOM     87  C   UNL A   1      50.462  25.877  31.968  1.00  0.00     0.054 A 
BRANCH  87  88
ATOM     88  S   UNL A   1      52.132  25.377  32.468  1.00  0.00     0.124 S 
ATOM     89  O   UNL A   1      52.076  23.927  32.309  1.00  0.00    -0.237 OA
ATOM     90  O   UNL A   1      52.978  26.084  31.510  1.00  0.00    -0.237 OA
ATOM     91  O   UNL A   1      52.236  25.848  33.847  1.00  0.00    -0.744 OA
ENDBRANCH  87  88
ENDBRANCH  61  82
ENDBRANCH  35  36
ENDBRANCH  27  30
ENDBRANCH  25  26
ENDBRANCH   1  25
TORSDOF 18
ENDMDL
