MODEL 1
REMARK VINA RESULT:     -11.1      0.000      0.000
REMARK SMILES Cc1cc(C)cc(C2(C(=O)NCCCNC(=O)c3ccc(-c4c5nc(c(-c6ccc(S(=O)(=O)[O-])cc6)c6ccc([nH]6)c(-c6ccc(S(=O)(=O)[O-])cc6)c6nc(c(-c7ccc(S(=O)(=O)[O-])cc7)c7ccc4[nH]7)C=C6)C=C5)cc3)CCOCC2)c1
REMARK SMILES IDX 14 1 13 2 12 3 11 4 9 5 10 6 8 8 78 9 82 10 79 11 81 12
REMARK SMILES IDX 80 13 7 14 1 15 2 16 3 17 83 18 4 19 5 20 6 21 15 22 16 23
REMARK SMILES IDX 17 25 18 26 19 27 77 28 20 29 76 30 21 31 22 32 23 33 70 34
REMARK SMILES IDX 24 35 75 36 69 37 71 38 25 39 74 40 68 41 67 42 26 44 56 45
REMARK SMILES IDX 37 46 55 47 38 48 41 49 54 50 72 51 39 52 40 53 53 55 73 56
REMARK SMILES IDX 42 57 27 58 28 59 36 60 29 61 35 62 30 63 31 64 32 65 33 66
REMARK SMILES IDX 34 67 57 68 58 69 66 70 59 71 65 72 60 73 61 74 62 75 63 76
REMARK SMILES IDX 64 77 43 78 44 79 52 80 45 81 51 82 46 83 47 84 48 85 49 86
REMARK SMILES IDX 50 87
REMARK H PARENT 11 7 15 24 71 43 41 54
REMARK Flexibility Score: inf
ROOT
ATOM      1  C   UNL A   1      34.230  29.022  26.101  1.00  0.00     0.118 C 
ENDROOT
BRANCH   1   2
ATOM      2  C   UNL A   1      33.485  27.956  26.877  1.00  0.00     0.042 C 
BRANCH   2   3
ATOM      3  C   UNL A   1      32.005  27.987  26.579  1.00  0.00     0.117 C 
BRANCH   3   4
ATOM      4  N   UNL A   1      31.715  28.254  25.188  1.00  0.00    -0.355 N 
ATOM      5  C   UNL A   1      31.235  27.313  24.325  1.00  0.00     0.230 C 
ATOM      6  O   UNL A   1      30.075  27.509  23.940  1.00  0.00    -0.274 OA
ATOM      7  H   UNL A   1      31.872  29.163  24.844  1.00  0.00     0.163 HD
BRANCH   5   8
ATOM      8  C   UNL A   1      32.081  26.074  23.856  1.00  0.00     0.078 C 
ATOM      9  C   UNL A   1      31.525  25.350  22.601  1.00  0.00     0.050 C 
ATOM     10  C   UNL A   1      33.524  26.603  23.643  1.00  0.00     0.050 C 
ATOM     11  C   UNL A   1      32.036  25.831  21.250  1.00  0.00     0.161 C 
ATOM     12  C   UNL A   1      33.799  27.128  22.248  1.00  0.00     0.161 C 
ATOM     13  O   UNL A   1      33.409  26.193  21.254  1.00  0.00    -0.381 OA
BRANCH   8  14
ATOM     14  C   UNL A   1      32.101  24.976  24.989  1.00  0.00    -0.032 A 
ATOM     15  C   UNL A   1      34.736  22.960  26.909  1.00  0.00     0.044 C 
ATOM     16  C   UNL A   1      33.409  23.490  26.456  1.00  0.00    -0.051 A 
ATOM     17  C   UNL A   1      32.230  23.019  27.036  1.00  0.00     0.006 A 
ATOM     18  C   UNL A   1      33.333  24.462  25.450  1.00  0.00     0.008 A 
ATOM     19  C   UNL A   1      30.989  23.479  26.589  1.00  0.00    -0.051 A 
ATOM     20  C   UNL A   1      29.730  22.977  27.237  1.00  0.00     0.044 C 
ATOM     21  C   UNL A   1      30.935  24.422  25.550  1.00  0.00     0.008 A 
ENDBRANCH   8  14
ENDBRANCH   5   8
ENDBRANCH   3   4
ENDBRANCH   2   3
ENDBRANCH   1   2
BRANCH   1  22
ATOM     22  N   UNL A   1      33.851  30.369  26.525  1.00  0.00    -0.352 N 
ATOM     23  C   UNL A   1      34.297  31.117  27.586  1.00  0.00     0.251 C 
ATOM     24  H   UNL A   1      33.172  30.808  25.963  1.00  0.00     0.163 HD
ATOM     25  O   UNL A   1      33.668  32.113  27.940  1.00  0.00    -0.269 OA
BRANCH  23  26
ATOM     26  C   UNL A   1      35.524  30.713  28.299  1.00  0.00     0.039 A 
ATOM     27  C   UNL A   1      35.467  29.733  29.290  1.00  0.00     0.014 A 
ATOM     28  C   UNL A   1      36.741  31.312  27.975  1.00  0.00     0.014 A 
ATOM     29  C   UNL A   1      36.646  29.327  29.916  1.00  0.00     0.010 A 
ATOM     30  C   UNL A   1      37.921  30.790  28.471  1.00  0.00     0.010 A 
ATOM     31  C   UNL A   1      37.886  29.833  29.489  1.00  0.00    -0.014 A 
BRANCH  31  32
ATOM     32  C   UNL A   1      39.156  29.444  30.148  1.00  0.00     0.031 A 
ATOM     33  C   UNL A   1      39.584  30.149  31.412  1.00  0.00     0.074 A 
ATOM     34  C   UNL A   1      39.936  28.499  29.588  1.00  0.00     0.049 A 
ATOM     35  N   UNL A   1      40.663  29.973  32.128  1.00  0.00    -0.248 NA
ATOM     36  C   UNL A   1      38.708  31.225  31.916  1.00  0.00     0.031 C 
ATOM     37  C   UNL A   1      39.657  27.800  28.330  1.00  0.00     0.029 A 
ATOM     38  N   UNL A   1      41.119  27.955  30.013  1.00  0.00    -0.354 N 
ATOM     39  C   UNL A   1      40.602  30.925  33.141  1.00  0.00     0.074 A 
ATOM     40  C   UNL A   1      39.431  31.733  32.900  1.00  0.00     0.031 C 
ATOM     41  C   UNL A   1      40.610  26.878  28.119  1.00  0.00     0.029 A 
ATOM     42  C   UNL A   1      41.586  26.950  29.198  1.00  0.00     0.049 A 
ATOM     43  H   UNL A   1      41.590  28.254  30.824  1.00  0.00     0.167 HD
ATOM     44  C   UNL A   1      41.422  31.087  34.205  1.00  0.00     0.031 A 
ATOM     45  C   UNL A   1      42.674  26.167  29.322  1.00  0.00     0.031 A 
ATOM     46  C   UNL A   1      42.566  30.256  34.456  1.00  0.00     0.049 A 
ATOM     47  C   UNL A   1      43.557  26.346  30.526  1.00  0.00     0.074 A 
ATOM     48  C   UNL A   1      43.435  30.285  35.531  1.00  0.00     0.029 A 
ATOM     49  N   UNL A   1      42.992  29.234  33.620  1.00  0.00    -0.354 N 
ATOM     50  N   UNL A   1      43.445  27.207  31.512  1.00  0.00    -0.248 NA
ATOM     51  C   UNL A   1      44.697  25.430  30.649  1.00  0.00     0.031 C 
ATOM     52  C   UNL A   1      44.421  29.316  35.316  1.00  0.00     0.029 A 
ATOM     53  C   UNL A   1      44.124  28.637  34.145  1.00  0.00     0.049 A 
ATOM     54  H   UNL A   1      42.556  28.973  32.777  1.00  0.00     0.167 HD
ATOM     55  C   UNL A   1      44.482  26.913  32.390  1.00  0.00     0.074 A 
ATOM     56  C   UNL A   1      45.194  25.783  31.826  1.00  0.00     0.031 C 
ATOM     57  C   UNL A   1      44.816  27.517  33.558  1.00  0.00     0.031 A 
BRANCH  44  58
ATOM     58  C   UNL A   1      41.099  32.198  35.172  1.00  0.00    -0.014 A 
ATOM     59  C   UNL A   1      40.275  31.976  36.292  1.00  0.00     0.010 A 
ATOM     60  C   UNL A   1      41.641  33.480  34.970  1.00  0.00     0.010 A 
ATOM     61  C   UNL A   1      39.961  33.023  37.163  1.00  0.00     0.020 A 
ATOM     62  C   UNL A   1      41.359  34.522  35.860  1.00  0.00     0.020 A 
ATOM     63  C   UNL A   1      40.507  34.291  36.941  1.00  0.00     0.054 A 
BRANCH  63  64
ATOM     64  S   UNL A   1      40.107  35.622  38.105  1.00  0.00     0.124 S 
ATOM     65  O   UNL A   1      38.955  35.067  38.813  1.00  0.00    -0.237 OA
ATOM     66  O   UNL A   1      41.332  35.737  38.891  1.00  0.00    -0.237 OA
ATOM     67  O   UNL A   1      39.814  36.763  37.240  1.00  0.00    -0.744 OA
ENDBRANCH  63  64
ENDBRANCH  44  58
BRANCH  45  68
ATOM     68  C   UNL A   1      42.960  25.120  28.301  1.00  0.00    -0.014 A 
ATOM     69  C   UNL A   1      43.751  25.414  27.175  1.00  0.00     0.010 A 
ATOM     70  C   UNL A   1      42.453  23.818  28.455  1.00  0.00     0.010 A 
ATOM     71  C   UNL A   1      44.005  24.434  26.211  1.00  0.00     0.020 A 
ATOM     72  C   UNL A   1      42.731  22.826  27.510  1.00  0.00     0.020 A 
ATOM     73  C   UNL A   1      43.494  23.145  26.386  1.00  0.00     0.054 A 
BRANCH  73  74
ATOM     74  S   UNL A   1      43.869  21.879  25.142  1.00  0.00     0.124 S 
ATOM     75  O   UNL A   1      45.228  21.491  25.505  1.00  0.00    -0.237 OA
ATOM     76  O   UNL A   1      42.836  20.876  25.391  1.00  0.00    -0.237 OA
ATOM     77  O   UNL A   1      43.740  22.595  23.875  1.00  0.00    -0.744 OA
ENDBRANCH  73  74
ENDBRANCH  45  68
BRANCH  57  78
ATOM     78  C   UNL A   1      45.974  26.933  34.324  1.00  0.00    -0.014 A 
ATOM     79  C   UNL A   1      45.789  25.909  35.270  1.00  0.00     0.010 A 
ATOM     80  C   UNL A   1      47.274  27.412  34.074  1.00  0.00     0.010 A 
ATOM     81  C   UNL A   1      46.876  25.421  35.999  1.00  0.00     0.020 A 
ATOM     82  C   UNL A   1      48.367  26.900  34.774  1.00  0.00     0.020 A 
ATOM     83  C   UNL A   1      48.157  25.925  35.751  1.00  0.00     0.054 A 
BRANCH  83  84
ATOM     84  S   UNL A   1      49.550  25.278  36.711  1.00  0.00     0.124 S 
ATOM     85  O   UNL A   1      49.010  24.019  37.217  1.00  0.00    -0.237 OA
ATOM     86  O   UNL A   1      50.602  25.152  35.706  1.00  0.00    -0.237 OA
ATOM     87  O   UNL A   1      49.782  26.307  37.722  1.00  0.00    -0.744 OA
ENDBRANCH  83  84
ENDBRANCH  57  78
ENDBRANCH  31  32
ENDBRANCH  23  26
ENDBRANCH   1  22
TORSDOF 14
ENDMDL
MODEL 2
REMARK VINA RESULT:     -11.1      1.367      2.583
REMARK SMILES Cc1cc(C)cc(C2(C(=O)NCCCNC(=O)c3ccc(-c4c5nc(c(-c6ccc(S(=O)(=O)[O-])cc6)c6ccc([nH]6)c(-c6ccc(S(=O)(=O)[O-])cc6)c6nc(c(-c7ccc(S(=O)(=O)[O-])cc7)c7ccc4[nH]7)C=C6)C=C5)cc3)CCOCC2)c1
REMARK SMILES IDX 14 1 13 2 12 3 11 4 9 5 10 6 8 8 78 9 82 10 79 11 81 12
REMARK SMILES IDX 80 13 7 14 1 15 2 16 3 17 83 18 4 19 5 20 6 21 15 22 16 23
REMARK SMILES IDX 17 25 18 26 19 27 77 28 20 29 76 30 21 31 22 32 23 33 70 34
REMARK SMILES IDX 24 35 75 36 69 37 71 38 25 39 74 40 68 41 67 42 26 44 56 45
REMARK SMILES IDX 37 46 55 47 38 48 41 49 54 50 72 51 39 52 40 53 53 55 73 56
REMARK SMILES IDX 42 57 27 58 28 59 36 60 29 61 35 62 30 63 31 64 32 65 33 66
REMARK SMILES IDX 34 67 57 68 58 69 66 70 59 71 65 72 60 73 61 74 62 75 63 76
REMARK SMILES IDX 64 77 43 78 44 79 52 80 45 81 51 82 46 83 47 84 48 85 49 86
REMARK SMILES IDX 50 87
REMARK H PARENT 11 7 15 24 71 43 41 54
REMARK Flexibility Score: inf
ROOT
ATOM      1  C   UNL A   1      34.152  28.861  26.004  1.00  0.00     0.118 C 
ENDROOT
BRANCH   1   2
ATOM      2  C   UNL A   1      33.225  27.778  26.514  1.00  0.00     0.042 C 
BRANCH   2   3
ATOM      3  C   UNL A   1      32.925  26.757  25.443  1.00  0.00     0.117 C 
BRANCH   3   4
ATOM      4  N   UNL A   1      34.116  26.238  24.809  1.00  0.00    -0.355 N 
ATOM      5  C   UNL A   1      34.183  25.007  24.225  1.00  0.00     0.230 C 
ATOM      6  O   UNL A   1      34.311  25.025  22.995  1.00  0.00    -0.274 OA
ATOM      7  H   UNL A   1      34.923  26.802  24.798  1.00  0.00     0.163 HD
BRANCH   5   8
ATOM      8  C   UNL A   1      34.099  23.668  25.044  1.00  0.00     0.078 C 
ATOM      9  C   UNL A   1      33.514  23.819  26.473  1.00  0.00     0.050 C 
ATOM     10  C   UNL A   1      33.275  22.687  24.168  1.00  0.00     0.050 C 
ATOM     11  C   UNL A   1      32.008  23.652  26.618  1.00  0.00     0.161 C 
ATOM     12  C   UNL A   1      31.778  22.746  24.401  1.00  0.00     0.161 C 
ATOM     13  O   UNL A   1      31.462  22.643  25.781  1.00  0.00    -0.381 OA
BRANCH   8  14
ATOM     14  C   UNL A   1      35.546  23.074  25.252  1.00  0.00    -0.032 A 
ATOM     15  C   UNL A   1      38.930  24.299  26.571  1.00  0.00     0.044 C 
ATOM     16  C   UNL A   1      37.869  23.405  26.004  1.00  0.00    -0.051 A 
ATOM     17  C   UNL A   1      38.167  22.081  25.679  1.00  0.00     0.006 A 
ATOM     18  C   UNL A   1      36.568  23.882  25.795  1.00  0.00     0.008 A 
ATOM     19  C   UNL A   1      37.193  21.255  25.112  1.00  0.00    -0.051 A 
ATOM     20  C   UNL A   1      37.524  19.827  24.786  1.00  0.00     0.044 C 
ATOM     21  C   UNL A   1      35.907  21.768  24.871  1.00  0.00     0.008 A 
ENDBRANCH   8  14
ENDBRANCH   5   8
ENDBRANCH   3   4
ENDBRANCH   2   3
ENDBRANCH   1   2
BRANCH   1  22
ATOM     22  N   UNL A   1      33.767  30.184  26.494  1.00  0.00    -0.352 N 
ATOM     23  C   UNL A   1      34.268  30.916  27.541  1.00  0.00     0.251 C 
ATOM     24  H   UNL A   1      33.036  30.616  25.996  1.00  0.00     0.163 HD
ATOM     25  O   UNL A   1      33.638  31.882  27.969  1.00  0.00    -0.269 OA
BRANCH  23  26
ATOM     26  C   UNL A   1      35.556  30.531  28.150  1.00  0.00     0.039 A 
ATOM     27  C   UNL A   1      36.733  31.166  27.754  1.00  0.00     0.014 A 
ATOM     28  C   UNL A   1      35.591  29.533  29.123  1.00  0.00     0.014 A 
ATOM     29  C   UNL A   1      37.934  30.825  28.378  1.00  0.00     0.010 A 
ATOM     30  C   UNL A   1      36.745  29.322  29.855  1.00  0.00     0.010 A 
ATOM     31  C   UNL A   1      37.942  29.920  29.454  1.00  0.00    -0.014 A 
BRANCH  31  32
ATOM     32  C   UNL A   1      39.201  29.516  30.124  1.00  0.00     0.031 A 
ATOM     33  C   UNL A   1      39.628  30.217  31.390  1.00  0.00     0.074 A 
ATOM     34  C   UNL A   1      39.974  28.560  29.572  1.00  0.00     0.049 A 
ATOM     35  N   UNL A   1      40.698  30.029  32.117  1.00  0.00    -0.248 NA
ATOM     36  C   UNL A   1      38.762  31.305  31.885  1.00  0.00     0.031 C 
ATOM     37  C   UNL A   1      39.696  27.862  28.313  1.00  0.00     0.029 A 
ATOM     38  N   UNL A   1      41.146  28.001  30.009  1.00  0.00    -0.354 N 
ATOM     39  C   UNL A   1      40.641  30.983  33.128  1.00  0.00     0.074 A 
ATOM     40  C   UNL A   1      39.483  31.805  32.874  1.00  0.00     0.031 C 
ATOM     41  C   UNL A   1      40.639  26.927  28.112  1.00  0.00     0.029 A 
ATOM     42  C   UNL A   1      41.607  26.988  29.200  1.00  0.00     0.049 A 
ATOM     43  H   UNL A   1      41.613  28.295  30.823  1.00  0.00     0.167 HD
ATOM     44  C   UNL A   1      41.454  31.136  34.198  1.00  0.00     0.031 A 
ATOM     45  C   UNL A   1      42.684  26.191  29.334  1.00  0.00     0.031 A 
ATOM     46  C   UNL A   1      42.585  30.290  34.460  1.00  0.00     0.049 A 
ATOM     47  C   UNL A   1      43.558  26.361  30.546  1.00  0.00     0.074 A 
ATOM     48  C   UNL A   1      43.445  30.311  35.542  1.00  0.00     0.029 A 
ATOM     49  N   UNL A   1      43.005  29.261  33.629  1.00  0.00    -0.354 N 
ATOM     50  N   UNL A   1      43.449  27.225  31.529  1.00  0.00    -0.248 NA
ATOM     51  C   UNL A   1      44.685  25.430  30.680  1.00  0.00     0.031 C 
ATOM     52  C   UNL A   1      44.420  29.328  35.337  1.00  0.00     0.029 A 
ATOM     53  C   UNL A   1      44.124  28.651  34.165  1.00  0.00     0.049 A 
ATOM     54  H   UNL A   1      42.572  29.005  32.783  1.00  0.00     0.167 HD
ATOM     55  C   UNL A   1      44.474  26.919  32.416  1.00  0.00     0.074 A 
ATOM     56  C   UNL A   1      45.177  25.779  31.861  1.00  0.00     0.031 C 
ATOM     57  C   UNL A   1      44.807  27.521  33.587  1.00  0.00     0.031 A 
BRANCH  44  58
ATOM     58  C   UNL A   1      41.137  32.253  35.160  1.00  0.00    -0.014 A 
ATOM     59  C   UNL A   1      41.774  33.506  35.061  1.00  0.00     0.010 A 
ATOM     60  C   UNL A   1      40.177  32.056  36.168  1.00  0.00     0.010 A 
ATOM     61  C   UNL A   1      41.491  34.521  35.979  1.00  0.00     0.020 A 
ATOM     62  C   UNL A   1      39.864  33.082  37.066  1.00  0.00     0.020 A 
ATOM     63  C   UNL A   1      40.537  34.302  36.977  1.00  0.00     0.054 A 
BRANCH  63  64
ATOM     64  S   UNL A   1      40.169  35.649  38.133  1.00  0.00     0.124 S 
ATOM     65  O   UNL A   1      41.468  35.867  38.766  1.00  0.00    -0.237 OA
ATOM     66  O   UNL A   1      39.714  36.716  37.247  1.00  0.00    -0.237 OA
ATOM     67  O   UNL A   1      39.140  35.085  39.006  1.00  0.00    -0.744 OA
ENDBRANCH  63  64
ENDBRANCH  44  58
BRANCH  45  68
ATOM     68  C   UNL A   1      42.965  25.139  28.318  1.00  0.00    -0.014 A 
ATOM     69  C   UNL A   1      43.827  25.398  27.237  1.00  0.00     0.010 A 
ATOM     70  C   UNL A   1      42.379  23.865  28.431  1.00  0.00     0.010 A 
ATOM     71  C   UNL A   1      44.077  24.414  26.276  1.00  0.00     0.020 A 
ATOM     72  C   UNL A   1      42.652  22.868  27.490  1.00  0.00     0.020 A 
ATOM     73  C   UNL A   1      43.488  23.154  26.410  1.00  0.00     0.054 A 
BRANCH  73  74
ATOM     74  S   UNL A   1      43.858  21.879  25.173  1.00  0.00     0.124 S 
ATOM     75  O   UNL A   1      45.216  21.489  25.536  1.00  0.00    -0.237 OA
ATOM     76  O   UNL A   1      42.821  20.882  25.428  1.00  0.00    -0.237 OA
ATOM     77  O   UNL A   1      43.729  22.589  23.902  1.00  0.00    -0.744 OA
ENDBRANCH  73  74
ENDBRANCH  45  68
BRANCH  57  78
ATOM     78  C   UNL A   1      45.950  26.923  34.363  1.00  0.00    -0.014 A 
ATOM     79  C   UNL A   1      47.275  27.353  34.171  1.00  0.00     0.010 A 
ATOM     80  C   UNL A   1      45.683  25.923  35.317  1.00  0.00     0.010 A 
ATOM     81  C   UNL A   1      48.320  26.747  34.872  1.00  0.00     0.020 A 
ATOM     82  C   UNL A   1      46.721  25.342  36.047  1.00  0.00     0.020 A 
ATOM     83  C   UNL A   1      48.036  25.740  35.800  1.00  0.00     0.054 A 
BRANCH  83  84
ATOM     84  S   UNL A   1      49.409  24.967  36.695  1.00  0.00     0.124 S 
ATOM     85  O   UNL A   1      48.791  24.650  37.980  1.00  0.00    -0.237 OA
ATOM     86  O   UNL A   1      49.734  23.819  35.853  1.00  0.00    -0.237 OA
ATOM     87  O   UNL A   1      50.429  26.012  36.735  1.00  0.00    -0.744 OA
ENDBRANCH  83  84
ENDBRANCH  57  78
ENDBRANCH  31  32
ENDBRANCH  23  26
ENDBRANCH   1  22
TORSDOF 14
ENDMDL
MODEL 3
REMARK VINA RESULT:     -11.1      3.529      9.315
REMARK SMILES Cc1cc(C)cc(C2(C(=O)NCCCNC(=O)c3ccc(-c4c5nc(c(-c6ccc(S(=O)(=O)[O-])cc6)c6ccc([nH]6)c(-c6ccc(S(=O)(=O)[O-])cc6)c6nc(c(-c7ccc(S(=O)(=O)[O-])cc7)c7ccc4[nH]7)C=C6)C=C5)cc3)CCOCC2)c1
REMARK SMILES IDX 14 1 13 2 12 3 11 4 9 5 10 6 8 8 78 9 82 10 79 11 81 12
REMARK SMILES IDX 80 13 7 14 1 15 2 16 3 17 83 18 4 19 5 20 6 21 15 22 16 23
REMARK SMILES IDX 17 25 18 26 19 27 77 28 20 29 76 30 21 31 22 32 23 33 70 34
REMARK SMILES IDX 24 35 75 36 69 37 71 38 25 39 74 40 68 41 67 42 26 44 56 45
REMARK SMILES IDX 37 46 55 47 38 48 41 49 54 50 72 51 39 52 40 53 53 55 73 56
REMARK SMILES IDX 42 57 27 58 28 59 36 60 29 61 35 62 30 63 31 64 32 65 33 66
REMARK SMILES IDX 34 67 57 68 58 69 66 70 59 71 65 72 60 73 61 74 62 75 63 76
REMARK SMILES IDX 64 77 43 78 44 79 52 80 45 81 51 82 46 83 47 84 48 85 49 86
REMARK SMILES IDX 50 87
REMARK H PARENT 11 7 15 24 71 43 41 54
REMARK Flexibility Score: inf
ROOT
ATOM      1  C   UNL A   1      36.615  23.846  25.238  1.00  0.00     0.118 C 
ENDROOT
BRANCH   1   2
ATOM      2  C   UNL A   1      35.939  23.675  23.893  1.00  0.00     0.042 C 
BRANCH   2   3
ATOM      3  C   UNL A   1      34.702  24.535  23.782  1.00  0.00     0.117 C 
BRANCH   3   4
ATOM      4  N   UNL A   1      33.477  23.769  23.841  1.00  0.00    -0.355 N 
ATOM      5  C   UNL A   1      32.265  24.313  24.153  1.00  0.00     0.230 C 
ATOM      6  O   UNL A   1      31.453  24.333  23.220  1.00  0.00    -0.274 OA
ATOM      7  H   UNL A   1      33.518  22.805  23.646  1.00  0.00     0.163 HD
BRANCH   5   8
ATOM      8  C   UNL A   1      31.922  24.873  25.581  1.00  0.00     0.078 C 
ATOM      9  C   UNL A   1      30.444  24.684  26.012  1.00  0.00     0.050 C 
ATOM     10  C   UNL A   1      32.914  24.183  26.555  1.00  0.00     0.050 C 
ATOM     11  C   UNL A   1      30.105  23.404  26.762  1.00  0.00     0.161 C 
ATOM     12  C   UNL A   1      32.422  22.864  27.120  1.00  0.00     0.161 C 
ATOM     13  O   UNL A   1      31.118  22.986  27.666  1.00  0.00    -0.381 OA
BRANCH   8  14
ATOM     14  C   UNL A   1      32.168  26.431  25.621  1.00  0.00    -0.032 A 
ATOM     15  C   UNL A   1      30.581  29.571  24.100  1.00  0.00     0.044 C 
ATOM     16  C   UNL A   1      31.493  28.687  24.896  1.00  0.00    -0.051 A 
ATOM     17  C   UNL A   1      32.525  29.243  25.653  1.00  0.00     0.006 A 
ATOM     18  C   UNL A   1      31.322  27.297  24.894  1.00  0.00     0.008 A 
ATOM     19  C   UNL A   1      33.403  28.421  26.364  1.00  0.00    -0.051 A 
ATOM     20  C   UNL A   1      34.497  29.036  27.189  1.00  0.00     0.044 C 
ATOM     21  C   UNL A   1      33.240  27.027  26.312  1.00  0.00     0.008 A 
ENDBRANCH   8  14
ENDBRANCH   5   8
ENDBRANCH   3   4
ENDBRANCH   2   3
ENDBRANCH   1   2
BRANCH   1  22
ATOM     22  N   UNL A   1      37.514  22.734  25.541  1.00  0.00    -0.352 N 
ATOM     23  C   UNL A   1      38.777  22.744  26.080  1.00  0.00     0.251 C 
ATOM     24  H   UNL A   1      37.161  21.841  25.325  1.00  0.00     0.163 HD
ATOM     25  O   UNL A   1      39.481  21.738  26.008  1.00  0.00    -0.269 OA
BRANCH  23  26
ATOM     26  C   UNL A   1      39.280  23.966  26.736  1.00  0.00     0.039 A 
ATOM     27  C   UNL A   1      39.994  24.912  25.999  1.00  0.00     0.014 A 
ATOM     28  C   UNL A   1      39.037  24.174  28.093  1.00  0.00     0.014 A 
ATOM     29  C   UNL A   1      40.417  26.085  26.624  1.00  0.00     0.010 A 
ATOM     30  C   UNL A   1      39.306  25.405  28.662  1.00  0.00     0.010 A 
ATOM     31  C   UNL A   1      40.049  26.353  27.954  1.00  0.00    -0.014 A 
BRANCH  31  32
ATOM     32  C   UNL A   1      40.501  27.576  28.658  1.00  0.00     0.031 A 
ATOM     33  C   UNL A   1      41.902  27.637  29.218  1.00  0.00     0.074 A 
ATOM     34  C   UNL A   1      39.645  28.602  28.831  1.00  0.00     0.049 A 
ATOM     35  N   UNL A   1      42.483  28.602  29.881  1.00  0.00    -0.248 NA
ATOM     36  C   UNL A   1      42.749  26.441  29.051  1.00  0.00     0.031 C 
ATOM     37  C   UNL A   1      38.246  28.626  28.394  1.00  0.00     0.029 A 
ATOM     38  N   UNL A   1      39.832  29.829  29.411  1.00  0.00    -0.354 N 
ATOM     39  C   UNL A   1      43.742  28.119  30.224  1.00  0.00     0.074 A 
ATOM     40  C   UNL A   1      43.810  26.749  29.777  1.00  0.00     0.031 C 
ATOM     41  C   UNL A   1      37.721  29.831  28.668  1.00  0.00     0.029 A 
ATOM     42  C   UNL A   1      38.728  30.646  29.335  1.00  0.00     0.049 A 
ATOM     43  H   UNL A   1      40.674  30.100  29.841  1.00  0.00     0.167 HD
ATOM     44  C   UNL A   1      44.768  28.768  30.819  1.00  0.00     0.031 A 
ATOM     45  C   UNL A   1      38.558  31.917  29.748  1.00  0.00     0.031 A 
ATOM     46  C   UNL A   1      44.702  30.144  31.230  1.00  0.00     0.049 A 
ATOM     47  C   UNL A   1      39.721  32.629  30.381  1.00  0.00     0.074 A 
ATOM     48  C   UNL A   1      45.696  30.926  31.787  1.00  0.00     0.029 A 
ATOM     49  N   UNL A   1      43.575  30.944  31.114  1.00  0.00    -0.354 N 
ATOM     50  N   UNL A   1      40.927  32.177  30.636  1.00  0.00    -0.248 NA
ATOM     51  C   UNL A   1      39.507  34.031  30.760  1.00  0.00     0.031 C 
ATOM     52  C   UNL A   1      45.152  32.186  32.061  1.00  0.00     0.029 A 
ATOM     53  C   UNL A   1      43.842  32.208  31.608  1.00  0.00     0.049 A 
ATOM     54  H   UNL A   1      42.712  30.655  30.739  1.00  0.00     0.167 HD
ATOM     55  C   UNL A   1      41.628  33.251  31.173  1.00  0.00     0.074 A 
ATOM     56  C   UNL A   1      40.714  34.377  31.187  1.00  0.00     0.031 C 
ATOM     57  C   UNL A   1      42.910  33.308  31.614  1.00  0.00     0.031 A 
BRANCH  44  58
ATOM     58  C   UNL A   1      46.043  27.997  31.049  1.00  0.00    -0.014 A 
ATOM     59  C   UNL A   1      46.248  27.259  32.231  1.00  0.00     0.010 A 
ATOM     60  C   UNL A   1      47.046  27.994  30.063  1.00  0.00     0.010 A 
ATOM     61  C   UNL A   1      47.447  26.573  32.442  1.00  0.00     0.020 A 
ATOM     62  C   UNL A   1      48.232  27.279  30.255  1.00  0.00     0.020 A 
ATOM     63  C   UNL A   1      48.433  26.588  31.451  1.00  0.00     0.054 A 
BRANCH  63  64
ATOM     64  S   UNL A   1      49.965  25.663  31.740  1.00  0.00     0.124 S 
ATOM     65  O   UNL A   1      50.896  26.729  32.104  1.00  0.00    -0.237 OA
ATOM     66  O   UNL A   1      49.593  24.757  32.823  1.00  0.00    -0.237 OA
ATOM     67  O   UNL A   1      50.230  25.019  30.455  1.00  0.00    -0.744 OA
ENDBRANCH  63  64
ENDBRANCH  44  58
BRANCH  45  68
ATOM     68  C   UNL A   1      37.254  32.603  29.533  1.00  0.00    -0.014 A 
ATOM     69  C   UNL A   1      36.295  32.658  30.560  1.00  0.00     0.010 A 
ATOM     70  C   UNL A   1      36.967  33.217  28.300  1.00  0.00     0.010 A 
ATOM     71  C   UNL A   1      35.064  33.289  30.351  1.00  0.00     0.020 A 
ATOM     72  C   UNL A   1      35.751  33.877  28.097  1.00  0.00     0.020 A 
ATOM     73  C   UNL A   1      34.801  33.896  29.120  1.00  0.00     0.054 A 
BRANCH  73  74
ATOM     74  S   UNL A   1      33.215  34.744  28.884  1.00  0.00     0.124 S 
ATOM     75  O   UNL A   1      33.639  36.046  28.380  1.00  0.00    -0.237 OA
ATOM     76  O   UNL A   1      32.537  33.881  27.920  1.00  0.00    -0.237 OA
ATOM     77  O   UNL A   1      32.629  34.751  30.222  1.00  0.00    -0.744 OA
ENDBRANCH  73  74
ENDBRANCH  45  68
BRANCH  57  78
ATOM     78  C   UNL A   1      43.409  34.642  32.100  1.00  0.00    -0.014 A 
ATOM     79  C   UNL A   1      43.271  35.036  33.443  1.00  0.00     0.010 A 
ATOM     80  C   UNL A   1      44.045  35.510  31.192  1.00  0.00     0.010 A 
ATOM     81  C   UNL A   1      43.701  36.300  33.853  1.00  0.00     0.020 A 
ATOM     82  C   UNL A   1      44.511  36.758  31.608  1.00  0.00     0.020 A 
ATOM     83  C   UNL A   1      44.312  37.155  32.931  1.00  0.00     0.054 A 
BRANCH  83  84
ATOM     84  S   UNL A   1      44.859  38.790  33.487  1.00  0.00     0.124 S 
ATOM     85  O   UNL A   1      44.926  39.530  32.229  1.00  0.00    -0.237 OA
ATOM     86  O   UNL A   1      43.791  39.193  34.398  1.00  0.00    -0.237 OA
ATOM     87  O   UNL A   1      46.147  38.527  34.124  1.00  0.00    -0.744 OA
ENDBRANCH  83  84
ENDBRANCH  57  78
ENDBRANCH  31  32
ENDBRANCH  23  26
ENDBRANCH   1  22
TORSDOF 14
ENDMDL
