MODEL 1
REMARK VINA RESULT:     -11.3      0.000      0.000
REMARK SMILES O=C(NCCCNC(=O)c1cncc(C(=O)c2ccsc2)c1)c1ccc(-c2c3nc(c(-c4ccc(S(=O)(=O)[O-])cc4)c4ccc([nH]4)c(-c4ccc(S(=O)(=O)[O-])cc4)c4nc(c(-c5ccc(S(=O)(=O)[O-])cc5)c5ccc2[nH]5)C=C4)C=C3)cc1
REMARK SMILES IDX 4 1 3 2 1 3 2 4 23 6 24 7 82 8 25 9 81 10 26 11 27 12 28 13
REMARK SMILES IDX 75 14 29 15 80 16 74 17 76 18 30 19 79 20 73 21 72 22 31 24
REMARK SMILES IDX 61 25 42 26 60 27 43 28 46 29 59 30 77 31 44 32 45 33 58 35
REMARK SMILES IDX 78 36 47 37 32 38 33 39 41 40 34 41 40 42 35 43 36 44 37 45
REMARK SMILES IDX 38 46 39 47 62 48 63 49 71 50 64 51 70 52 65 53 66 54 67 55
REMARK SMILES IDX 68 56 69 57 48 58 49 59 57 60 50 61 56 62 51 63 52 64 53 65
REMARK SMILES IDX 54 66 55 67 5 68 6 69 7 70 8 71 9 73 10 74 11 75 22 76 12 77
REMARK SMILES IDX 14 78 13 79 15 80 16 81 17 82 18 83 21 84 19 85 20 86
REMARK H PARENT 3 5 76 23 46 34 7 72
REMARK Flexibility Score: inf
ROOT
ATOM      1  C   UNL A   1      33.597  28.334  27.231  1.00  0.00     0.118 C 
ENDROOT
BRANCH   1   2
ATOM      2  N   UNL A   1      33.516  29.764  27.498  1.00  0.00    -0.352 N 
ATOM      3  O   UNL A   1      34.076  31.732  28.427  1.00  0.00    -0.269 OA
ATOM      4  C   UNL A   1      34.425  30.602  28.097  1.00  0.00     0.251 C 
ATOM      5  H   UNL A   1      32.684  30.197  27.201  1.00  0.00     0.163 HD
BRANCH   4   6
ATOM      6  C   UNL A   1      35.808  30.144  28.351  1.00  0.00     0.039 A 
ATOM      7  C   UNL A   1      36.780  30.232  27.353  1.00  0.00     0.014 A 
ATOM      8  C   UNL A   1      36.152  29.667  29.620  1.00  0.00     0.014 A 
ATOM      9  C   UNL A   1      38.051  29.717  27.572  1.00  0.00     0.010 A 
ATOM     10  C   UNL A   1      37.461  29.243  29.873  1.00  0.00     0.010 A 
ATOM     11  C   UNL A   1      38.416  29.253  28.845  1.00  0.00    -0.014 A 
BRANCH  11  12
ATOM     12  C   UNL A   1      39.837  28.914  29.098  1.00  0.00     0.031 A 
ATOM     13  C   UNL A   1      40.419  27.594  28.679  1.00  0.00     0.074 A 
ATOM     14  C   UNL A   1      40.606  29.841  29.704  1.00  0.00     0.049 A 
ATOM     15  N   UNL A   1      41.648  27.167  28.813  1.00  0.00    -0.248 NA
ATOM     16  C   UNL A   1      39.515  26.629  28.033  1.00  0.00     0.031 C 
ATOM     17  C   UNL A   1      40.137  31.149  30.174  1.00  0.00     0.029 A 
ATOM     18  N   UNL A   1      41.941  29.839  30.018  1.00  0.00    -0.354 N 
ATOM     19  C   UNL A   1      41.664  25.878  28.294  1.00  0.00     0.074 A 
ATOM     20  C   UNL A   1      40.318  25.587  27.848  1.00  0.00     0.031 C 
ATOM     21  C   UNL A   1      41.173  31.839  30.672  1.00  0.00     0.029 A 
ATOM     22  C   UNL A   1      42.362  30.999  30.624  1.00  0.00     0.049 A 
ATOM     23  H   UNL A   1      42.539  29.081  29.827  1.00  0.00     0.167 HD
ATOM     24  C   UNL A   1      42.709  25.021  28.203  1.00  0.00     0.031 A 
ATOM     25  C   UNL A   1      43.566  31.344  31.115  1.00  0.00     0.031 A 
ATOM     26  C   UNL A   1      44.046  25.327  28.638  1.00  0.00     0.049 A 
ATOM     27  C   UNL A   1      44.695  30.363  31.015  1.00  0.00     0.074 A 
ATOM     28  C   UNL A   1      45.185  24.546  28.527  1.00  0.00     0.029 A 
ATOM     29  N   UNL A   1      44.427  26.498  29.276  1.00  0.00    -0.354 N 
ATOM     30  N   UNL A   1      44.701  29.173  30.464  1.00  0.00    -0.248 NA
ATOM     31  C   UNL A   1      45.975  30.764  31.611  1.00  0.00     0.031 C 
ATOM     32  C   UNL A   1      46.241  25.222  29.147  1.00  0.00     0.029 A 
ATOM     33  C   UNL A   1      45.772  26.444  29.600  1.00  0.00     0.049 A 
ATOM     34  H   UNL A   1      43.829  27.255  29.470  1.00  0.00     0.167 HD
ATOM     35  C   UNL A   1      45.987  28.683  30.646  1.00  0.00     0.074 A 
ATOM     36  C   UNL A   1      46.738  29.716  31.329  1.00  0.00     0.031 C 
ATOM     37  C   UNL A   1      46.497  27.478  30.291  1.00  0.00     0.031 A 
BRANCH  24  38
ATOM     38  C   UNL A   1      42.459  23.651  27.629  1.00  0.00    -0.014 A 
ATOM     39  C   UNL A   1      42.741  23.363  26.284  1.00  0.00     0.010 A 
ATOM     40  C   UNL A   1      42.039  22.612  28.481  1.00  0.00     0.010 A 
ATOM     41  C   UNL A   1      42.601  22.059  25.797  1.00  0.00     0.020 A 
ATOM     42  C   UNL A   1      41.915  21.304  28.003  1.00  0.00     0.020 A 
ATOM     43  C   UNL A   1      42.192  21.037  26.661  1.00  0.00     0.054 A 
BRANCH  43  44
ATOM     44  S   UNL A   1      42.083  19.343  26.018  1.00  0.00     0.124 S 
ATOM     45  O   UNL A   1      42.602  18.563  27.138  1.00  0.00    -0.237 OA
ATOM     46  O   UNL A   1      40.653  19.192  25.756  1.00  0.00    -0.237 OA
ATOM     47  O   UNL A   1      42.932  19.367  24.829  1.00  0.00    -0.744 OA
ENDBRANCH  43  44
ENDBRANCH  24  38
BRANCH  25  48
ATOM     48  C   UNL A   1      43.743  32.655  31.793  1.00  0.00    -0.014 A 
ATOM     49  C   UNL A   1      44.126  33.797  31.070  1.00  0.00     0.010 A 
ATOM     50  C   UNL A   1      43.521  32.764  33.179  1.00  0.00     0.010 A 
ATOM     51  C   UNL A   1      44.309  35.018  31.724  1.00  0.00     0.020 A 
ATOM     52  C   UNL A   1      43.673  33.989  33.831  1.00  0.00     0.020 A 
ATOM     53  C   UNL A   1      44.085  35.105  33.102  1.00  0.00     0.054 A 
BRANCH  53  54
ATOM     54  S   UNL A   1      44.298  36.703  33.933  1.00  0.00     0.124 S 
ATOM     55  O   UNL A   1      44.550  36.295  35.310  1.00  0.00    -0.237 OA
ATOM     56  O   UNL A   1      45.438  37.282  33.224  1.00  0.00    -0.237 OA
ATOM     57  O   UNL A   1      43.023  37.378  33.699  1.00  0.00    -0.744 OA
ENDBRANCH  53  54
ENDBRANCH  25  48
BRANCH  37  58
ATOM     58  C   UNL A   1      47.936  27.222  30.637  1.00  0.00    -0.014 A 
ATOM     59  C   UNL A   1      48.963  27.569  29.740  1.00  0.00     0.010 A 
ATOM     60  C   UNL A   1      48.268  26.662  31.882  1.00  0.00     0.010 A 
ATOM     61  C   UNL A   1      50.297  27.330  30.072  1.00  0.00     0.020 A 
ATOM     62  C   UNL A   1      49.604  26.444  32.227  1.00  0.00     0.020 A 
ATOM     63  C   UNL A   1      50.609  26.766  31.313  1.00  0.00     0.054 A 
BRANCH  63  64
ATOM     64  S   UNL A   1      52.352  26.500  31.737  1.00  0.00     0.124 S 
ATOM     65  O   UNL A   1      52.431  25.042  31.794  1.00  0.00    -0.237 OA
ATOM     66  O   UNL A   1      53.056  27.125  30.620  1.00  0.00    -0.237 OA
ATOM     67  O   UNL A   1      52.503  27.183  33.021  1.00  0.00    -0.744 OA
ENDBRANCH  63  64
ENDBRANCH  37  58
ENDBRANCH  11  12
ENDBRANCH   4   6
ENDBRANCH   1   2
BRANCH   1  68
ATOM     68  C   UNL A   1      32.835  27.940  25.978  1.00  0.00     0.042 C 
BRANCH  68  69
ATOM     69  C   UNL A   1      32.804  29.033  24.925  1.00  0.00     0.118 C 
BRANCH  69  70
ATOM     70  N   UNL A   1      33.167  28.539  23.598  1.00  0.00    -0.352 N 
ATOM     71  C   UNL A   1      32.488  27.690  22.759  1.00  0.00     0.252 C 
ATOM     72  H   UNL A   1      34.030  28.865  23.254  1.00  0.00     0.163 HD
ATOM     73  O   UNL A   1      33.033  27.225  21.763  1.00  0.00    -0.269 OA
BRANCH  71  74
ATOM     74  C   UNL A   1      31.090  27.343  23.046  1.00  0.00     0.058 A 
ATOM     75  C   UNL A   1      30.783  26.147  23.672  1.00  0.00     0.124 A 
ATOM     76  C   UNL A   1      30.052  28.214  22.716  1.00  0.00     0.029 A 
ATOM     77  N   UNL A   1      29.524  25.816  24.048  1.00  0.00    -0.263 NA
ATOM     78  C   UNL A   1      28.756  27.939  23.146  1.00  0.00     0.042 A 
ATOM     79  C   UNL A   1      28.546  26.731  23.802  1.00  0.00     0.123 A 
BRANCH  78  80
ATOM     80  C   UNL A   1      27.646  28.926  23.052  1.00  0.00     0.195 C 
ATOM     81  O   UNL A   1      26.509  28.582  23.358  1.00  0.00    -0.289 OA
BRANCH  80  82
ATOM     82  C   UNL A   1      27.955  30.313  22.707  1.00  0.00     0.033 A 
ATOM     83  C   UNL A   1      28.332  31.372  23.603  1.00  0.00     0.024 A 
ATOM     84  C   UNL A   1      27.927  30.768  21.400  1.00  0.00     0.077 A 
ATOM     85  C   UNL A   1      28.499  32.578  22.957  1.00  0.00     0.065 A 
ATOM     86  S   UNL A   1      28.254  32.441  21.272  1.00  0.00    -0.152 S 
ENDBRANCH  80  82
ENDBRANCH  78  80
ENDBRANCH  71  74
ENDBRANCH  69  70
ENDBRANCH  68  69
ENDBRANCH   1  68
TORSDOF 15
ENDMDL
MODEL 2
REMARK VINA RESULT:     -11.0      0.445      8.407
REMARK SMILES O=C(NCCCNC(=O)c1cncc(C(=O)c2ccsc2)c1)c1ccc(-c2c3nc(c(-c4ccc(S(=O)(=O)[O-])cc4)c4ccc([nH]4)c(-c4ccc(S(=O)(=O)[O-])cc4)c4nc(c(-c5ccc(S(=O)(=O)[O-])cc5)c5ccc2[nH]5)C=C4)C=C3)cc1
REMARK SMILES IDX 4 1 3 2 1 3 2 4 23 6 24 7 82 8 25 9 81 10 26 11 27 12 28 13
REMARK SMILES IDX 75 14 29 15 80 16 74 17 76 18 30 19 79 20 73 21 72 22 31 24
REMARK SMILES IDX 61 25 42 26 60 27 43 28 46 29 59 30 77 31 44 32 45 33 58 35
REMARK SMILES IDX 78 36 47 37 32 38 33 39 41 40 34 41 40 42 35 43 36 44 37 45
REMARK SMILES IDX 38 46 39 47 62 48 63 49 71 50 64 51 70 52 65 53 66 54 67 55
REMARK SMILES IDX 68 56 69 57 48 58 49 59 57 60 50 61 56 62 51 63 52 64 53 65
REMARK SMILES IDX 54 66 55 67 5 68 6 69 7 70 8 71 9 73 10 74 11 75 22 76 12 77
REMARK SMILES IDX 14 78 13 79 15 80 16 81 17 82 18 83 21 84 19 85 20 86
REMARK H PARENT 3 5 76 23 46 34 7 72
REMARK Flexibility Score: inf
ROOT
ATOM      1  C   UNL A   1      33.805  28.307  27.058  1.00  0.00     0.118 C 
ENDROOT
BRANCH   1   2
ATOM      2  N   UNL A   1      33.644  29.717  27.390  1.00  0.00    -0.352 N 
ATOM      3  O   UNL A   1      34.066  31.658  28.439  1.00  0.00    -0.269 OA
ATOM      4  C   UNL A   1      34.484  30.564  28.072  1.00  0.00     0.251 C 
ATOM      5  H   UNL A   1      32.805  30.125  27.076  1.00  0.00     0.163 HD
BRANCH   4   6
ATOM      6  C   UNL A   1      35.874  30.157  28.367  1.00  0.00     0.039 A 
ATOM      7  C   UNL A   1      36.874  30.291  27.403  1.00  0.00     0.014 A 
ATOM      8  C   UNL A   1      36.195  29.682  29.643  1.00  0.00     0.014 A 
ATOM      9  C   UNL A   1      38.156  29.823  27.660  1.00  0.00     0.010 A 
ATOM     10  C   UNL A   1      37.510  29.307  29.936  1.00  0.00     0.010 A 
ATOM     11  C   UNL A   1      38.497  29.363  28.941  1.00  0.00    -0.014 A 
BRANCH  11  12
ATOM     12  C   UNL A   1      39.921  29.076  29.238  1.00  0.00     0.031 A 
ATOM     13  C   UNL A   1      40.809  30.092  29.897  1.00  0.00     0.074 A 
ATOM     14  C   UNL A   1      40.397  27.856  28.915  1.00  0.00     0.049 A 
ATOM     15  N   UNL A   1      42.067  29.976  30.238  1.00  0.00    -0.248 NA
ATOM     16  C   UNL A   1      40.221  31.405  30.208  1.00  0.00     0.031 C 
ATOM     17  C   UNL A   1      39.626  26.798  28.252  1.00  0.00     0.029 A 
ATOM     18  N   UNL A   1      41.630  27.289  29.111  1.00  0.00    -0.354 N 
ATOM     19  C   UNL A   1      42.431  31.202  30.781  1.00  0.00     0.074 A 
ATOM     20  C   UNL A   1      41.262  32.054  30.717  1.00  0.00     0.031 C 
ATOM     21  C   UNL A   1      40.387  25.701  28.137  1.00  0.00     0.029 A 
ATOM     22  C   UNL A   1      41.717  25.996  28.651  1.00  0.00     0.049 A 
ATOM     23  H   UNL A   1      42.380  27.762  29.539  1.00  0.00     0.167 HD
ATOM     24  C   UNL A   1      43.631  31.576  31.284  1.00  0.00     0.031 A 
ATOM     25  C   UNL A   1      42.759  25.146  28.619  1.00  0.00     0.031 A 
ATOM     26  C   UNL A   1      44.783  30.714  31.354  1.00  0.00     0.049 A 
ATOM     27  C   UNL A   1      44.079  25.600  29.166  1.00  0.00     0.074 A 
ATOM     28  C   UNL A   1      46.024  30.983  31.905  1.00  0.00     0.029 A 
ATOM     29  N   UNL A   1      44.842  29.423  30.850  1.00  0.00    -0.354 N 
ATOM     30  N   UNL A   1      44.383  26.744  29.731  1.00  0.00    -0.248 NA
ATOM     31  C   UNL A   1      45.199  24.657  29.061  1.00  0.00     0.031 C 
ATOM     32  C   UNL A   1      46.850  29.876  31.685  1.00  0.00     0.029 A 
ATOM     33  C   UNL A   1      46.109  28.899  31.041  1.00  0.00     0.049 A 
ATOM     34  H   UNL A   1      44.094  28.950  30.419  1.00  0.00     0.167 HD
ATOM     35  C   UNL A   1      45.731  26.656  30.051  1.00  0.00     0.074 A 
ATOM     36  C   UNL A   1      46.175  25.338  29.646  1.00  0.00     0.031 C 
ATOM     37  C   UNL A   1      46.534  27.589  30.619  1.00  0.00     0.031 A 
BRANCH  24  38
ATOM     38  C   UNL A   1      43.786  32.987  31.784  1.00  0.00    -0.014 A 
ATOM     39  C   UNL A   1      44.023  34.052  30.899  1.00  0.00     0.010 A 
ATOM     40  C   UNL A   1      43.580  33.263  33.149  1.00  0.00     0.010 A 
ATOM     41  C   UNL A   1      44.060  35.368  31.371  1.00  0.00     0.020 A 
ATOM     42  C   UNL A   1      43.598  34.578  33.623  1.00  0.00     0.020 A 
ATOM     43  C   UNL A   1      43.843  35.623  32.730  1.00  0.00     0.054 A 
BRANCH  43  44
ATOM     44  S   UNL A   1      43.830  37.345  33.303  1.00  0.00     0.124 S 
ATOM     45  O   UNL A   1      45.071  37.417  34.070  1.00  0.00    -0.237 OA
ATOM     46  O   UNL A   1      43.821  38.098  32.051  1.00  0.00    -0.237 OA
ATOM     47  O   UNL A   1      42.604  37.439  34.092  1.00  0.00    -0.744 OA
ENDBRANCH  43  44
ENDBRANCH  24  38
BRANCH  25  48
ATOM     48  C   UNL A   1      42.604  23.805  27.997  1.00  0.00    -0.014 A 
ATOM     49  C   UNL A   1      42.231  22.691  28.767  1.00  0.00     0.010 A 
ATOM     50  C   UNL A   1      42.825  23.641  26.617  1.00  0.00     0.010 A 
ATOM     51  C   UNL A   1      42.109  21.431  28.172  1.00  0.00     0.020 A 
ATOM     52  C   UNL A   1      42.675  22.392  26.014  1.00  0.00     0.020 A 
ATOM     53  C   UNL A   1      42.336  21.290  26.800  1.00  0.00     0.054 A 
BRANCH  53  54
ATOM     54  S   UNL A   1      42.145  19.655  26.037  1.00  0.00     0.124 S 
ATOM     55  O   UNL A   1      42.546  18.768  27.123  1.00  0.00    -0.237 OA
ATOM     56  O   UNL A   1      40.726  19.630  25.689  1.00  0.00    -0.237 OA
ATOM     57  O   UNL A   1      43.057  19.705  24.895  1.00  0.00    -0.744 OA
ENDBRANCH  53  54
ENDBRANCH  25  48
BRANCH  37  58
ATOM     58  C   UNL A   1      47.971  27.209  30.833  1.00  0.00    -0.014 A 
ATOM     59  C   UNL A   1      48.366  26.521  31.995  1.00  0.00     0.010 A 
ATOM     60  C   UNL A   1      48.929  27.511  29.850  1.00  0.00     0.010 A 
ATOM     61  C   UNL A   1      49.703  26.169  32.183  1.00  0.00     0.020 A 
ATOM     62  C   UNL A   1      50.263  27.138  30.025  1.00  0.00     0.020 A 
ATOM     63  C   UNL A   1      50.644  26.483  31.198  1.00  0.00     0.054 A 
BRANCH  63  64
ATOM     64  S   UNL A   1      52.369  25.981  31.447  1.00  0.00     0.124 S 
ATOM     65  O   UNL A   1      52.845  26.993  32.388  1.00  0.00    -0.237 OA
ATOM     66  O   UNL A   1      52.238  24.631  31.989  1.00  0.00    -0.237 OA
ATOM     67  O   UNL A   1      52.947  26.055  30.107  1.00  0.00    -0.744 OA
ENDBRANCH  63  64
ENDBRANCH  37  58
ENDBRANCH  11  12
ENDBRANCH   4   6
ENDBRANCH   1   2
BRANCH   1  68
ATOM     68  C   UNL A   1      32.938  27.891  25.883  1.00  0.00     0.042 C 
BRANCH  68  69
ATOM     69  C   UNL A   1      32.841  28.954  24.803  1.00  0.00     0.118 C 
BRANCH  69  70
ATOM     70  N   UNL A   1      33.161  28.431  23.476  1.00  0.00    -0.352 N 
ATOM     71  C   UNL A   1      32.447  27.578  22.670  1.00  0.00     0.252 C 
ATOM     72  H   UNL A   1      34.019  28.737  23.104  1.00  0.00     0.163 HD
ATOM     73  O   UNL A   1      32.960  27.087  21.669  1.00  0.00    -0.269 OA
BRANCH  71  74
ATOM     74  C   UNL A   1      31.053  27.258  22.999  1.00  0.00     0.058 A 
ATOM     75  C   UNL A   1      30.743  26.073  23.644  1.00  0.00     0.124 A 
ATOM     76  C   UNL A   1      30.021  28.144  22.690  1.00  0.00     0.029 A 
ATOM     77  N   UNL A   1      29.488  25.768  24.058  1.00  0.00    -0.263 NA
ATOM     78  C   UNL A   1      28.733  27.896  23.159  1.00  0.00     0.042 A 
ATOM     79  C   UNL A   1      28.520  26.698  23.832  1.00  0.00     0.123 A 
BRANCH  78  80
ATOM     80  C   UNL A   1      27.638  28.902  23.087  1.00  0.00     0.195 C 
ATOM     81  O   UNL A   1      26.507  28.584  23.437  1.00  0.00    -0.289 OA
BRANCH  80  82
ATOM     82  C   UNL A   1      27.960  30.277  22.708  1.00  0.00     0.033 A 
ATOM     83  C   UNL A   1      28.350  31.353  23.578  1.00  0.00     0.024 A 
ATOM     84  C   UNL A   1      27.931  30.701  21.391  1.00  0.00     0.077 A 
ATOM     85  C   UNL A   1      28.526  32.542  22.904  1.00  0.00     0.065 A 
ATOM     86  S   UNL A   1      28.274  32.369  21.223  1.00  0.00    -0.152 S 
ENDBRANCH  80  82
ENDBRANCH  78  80
ENDBRANCH  71  74
ENDBRANCH  69  70
ENDBRANCH  68  69
ENDBRANCH   1  68
TORSDOF 15
ENDMDL
MODEL 3
REMARK VINA RESULT:     -11.0      2.868      4.266
REMARK SMILES O=C(NCCCNC(=O)c1cncc(C(=O)c2ccsc2)c1)c1ccc(-c2c3nc(c(-c4ccc(S(=O)(=O)[O-])cc4)c4ccc([nH]4)c(-c4ccc(S(=O)(=O)[O-])cc4)c4nc(c(-c5ccc(S(=O)(=O)[O-])cc5)c5ccc2[nH]5)C=C4)C=C3)cc1
REMARK SMILES IDX 4 1 3 2 1 3 2 4 23 6 24 7 82 8 25 9 81 10 26 11 27 12 28 13
REMARK SMILES IDX 75 14 29 15 80 16 74 17 76 18 30 19 79 20 73 21 72 22 31 24
REMARK SMILES IDX 61 25 42 26 60 27 43 28 46 29 59 30 77 31 44 32 45 33 58 35
REMARK SMILES IDX 78 36 47 37 32 38 33 39 41 40 34 41 40 42 35 43 36 44 37 45
REMARK SMILES IDX 38 46 39 47 62 48 63 49 71 50 64 51 70 52 65 53 66 54 67 55
REMARK SMILES IDX 68 56 69 57 48 58 49 59 57 60 50 61 56 62 51 63 52 64 53 65
REMARK SMILES IDX 54 66 55 67 5 68 6 69 7 70 8 71 9 73 10 74 11 75 22 76 12 77
REMARK SMILES IDX 14 78 13 79 15 80 16 81 17 82 18 83 21 84 19 85 20 86
REMARK H PARENT 3 5 76 23 46 34 7 72
REMARK Flexibility Score: inf
ROOT
ATOM      1  C   UNL A   1      33.538  28.248  27.237  1.00  0.00     0.118 C 
ENDROOT
BRANCH   1   2
ATOM      2  N   UNL A   1      33.459  29.683  27.478  1.00  0.00    -0.352 N 
ATOM      3  O   UNL A   1      34.028  31.668  28.366  1.00  0.00    -0.269 OA
ATOM      4  C   UNL A   1      34.374  30.532  28.054  1.00  0.00     0.251 C 
ATOM      5  H   UNL A   1      32.624  30.110  27.182  1.00  0.00     0.163 HD
BRANCH   4   6
ATOM      6  C   UNL A   1      35.759  30.079  28.302  1.00  0.00     0.039 A 
ATOM      7  C   UNL A   1      36.733  30.195  27.309  1.00  0.00     0.014 A 
ATOM      8  C   UNL A   1      36.103  29.577  29.562  1.00  0.00     0.014 A 
ATOM      9  C   UNL A   1      38.007  29.685  27.522  1.00  0.00     0.010 A 
ATOM     10  C   UNL A   1      37.414  29.158  29.810  1.00  0.00     0.010 A 
ATOM     11  C   UNL A   1      38.372  29.197  28.786  1.00  0.00    -0.014 A 
BRANCH  11  12
ATOM     12  C   UNL A   1      39.795  28.863  29.036  1.00  0.00     0.031 A 
ATOM     13  C   UNL A   1      40.379  27.543  28.623  1.00  0.00     0.074 A 
ATOM     14  C   UNL A   1      40.563  29.795  29.635  1.00  0.00     0.049 A 
ATOM     15  N   UNL A   1      41.610  27.119  28.756  1.00  0.00    -0.248 NA
ATOM     16  C   UNL A   1      39.476  26.571  27.985  1.00  0.00     0.031 C 
ATOM     17  C   UNL A   1      40.092  31.106  30.099  1.00  0.00     0.029 A 
ATOM     18  N   UNL A   1      41.899  29.799  29.945  1.00  0.00    -0.354 N 
ATOM     19  C   UNL A   1      41.627  25.828  28.244  1.00  0.00     0.074 A 
ATOM     20  C   UNL A   1      40.281  25.531  27.804  1.00  0.00     0.031 C 
ATOM     21  C   UNL A   1      41.128  31.800  30.590  1.00  0.00     0.029 A 
ATOM     22  C   UNL A   1      42.319  30.964  30.543  1.00  0.00     0.049 A 
ATOM     23  H   UNL A   1      42.499  29.042  29.756  1.00  0.00     0.167 HD
ATOM     24  C   UNL A   1      42.674  24.973  28.155  1.00  0.00     0.031 A 
ATOM     25  C   UNL A   1      43.524  31.314  31.028  1.00  0.00     0.031 A 
ATOM     26  C   UNL A   1      44.012  25.285  28.584  1.00  0.00     0.049 A 
ATOM     27  C   UNL A   1      44.655  30.336  30.930  1.00  0.00     0.074 A 
ATOM     28  C   UNL A   1      45.153  24.506  28.474  1.00  0.00     0.029 A 
ATOM     29  N   UNL A   1      44.391  26.461  29.214  1.00  0.00    -0.354 N 
ATOM     30  N   UNL A   1      44.662  29.143  30.386  1.00  0.00    -0.248 NA
ATOM     31  C   UNL A   1      45.935  30.743  31.521  1.00  0.00     0.031 C 
ATOM     32  C   UNL A   1      46.209  25.188  29.087  1.00  0.00     0.029 A 
ATOM     33  C   UNL A   1      45.738  26.412  29.534  1.00  0.00     0.049 A 
ATOM     34  H   UNL A   1      43.792  27.217  29.406  1.00  0.00     0.167 HD
ATOM     35  C   UNL A   1      45.950  28.657  30.567  1.00  0.00     0.074 A 
ATOM     36  C   UNL A   1      46.700  29.696  31.242  1.00  0.00     0.031 C 
ATOM     37  C   UNL A   1      46.463  27.452  30.218  1.00  0.00     0.031 A 
BRANCH  24  38
ATOM     38  C   UNL A   1      42.426  23.599  27.589  1.00  0.00    -0.014 A 
ATOM     39  C   UNL A   1      42.704  23.304  26.245  1.00  0.00     0.010 A 
ATOM     40  C   UNL A   1      42.013  22.563  28.448  1.00  0.00     0.010 A 
ATOM     41  C   UNL A   1      42.566  21.997  25.766  1.00  0.00     0.020 A 
ATOM     42  C   UNL A   1      41.891  21.253  27.978  1.00  0.00     0.020 A 
ATOM     43  C   UNL A   1      42.163  20.979  26.637  1.00  0.00     0.054 A 
BRANCH  43  44
ATOM     44  S   UNL A   1      42.057  19.281  26.004  1.00  0.00     0.124 S 
ATOM     45  O   UNL A   1      42.898  19.351  24.811  1.00  0.00    -0.237 OA
ATOM     46  O   UNL A   1      42.600  18.494  27.109  1.00  0.00    -0.237 OA
ATOM     47  O   UNL A   1      40.631  19.093  25.751  1.00  0.00    -0.744 OA
ENDBRANCH  43  44
ENDBRANCH  24  38
BRANCH  25  48
ATOM     48  C   UNL A   1      43.699  32.630  31.699  1.00  0.00    -0.014 A 
ATOM     49  C   UNL A   1      43.501  32.767  33.083  1.00  0.00     0.010 A 
ATOM     50  C   UNL A   1      44.073  33.758  30.944  1.00  0.00     0.010 A 
ATOM     51  C   UNL A   1      43.649  34.014  33.696  1.00  0.00     0.020 A 
ATOM     52  C   UNL A   1      44.251  34.999  31.558  1.00  0.00     0.020 A 
ATOM     53  C   UNL A   1      44.018  35.123  32.928  1.00  0.00     0.054 A 
BRANCH  53  54
ATOM     54  S   UNL A   1      44.235  36.729  33.743  1.00  0.00     0.124 S 
ATOM     55  O   UNL A   1      45.515  36.553  34.420  1.00  0.00    -0.237 OA
ATOM     56  O   UNL A   1      44.237  37.661  32.617  1.00  0.00    -0.237 OA
ATOM     57  O   UNL A   1      43.068  36.825  34.618  1.00  0.00    -0.744 OA
ENDBRANCH  53  54
ENDBRANCH  25  48
BRANCH  37  58
ATOM     58  C   UNL A   1      47.903  27.202  30.560  1.00  0.00    -0.014 A 
ATOM     59  C   UNL A   1      48.929  27.588  29.678  1.00  0.00     0.010 A 
ATOM     60  C   UNL A   1      48.238  26.607  31.789  1.00  0.00     0.010 A 
ATOM     61  C   UNL A   1      50.265  27.354  30.008  1.00  0.00     0.020 A 
ATOM     62  C   UNL A   1      49.574  26.393  32.131  1.00  0.00     0.020 A 
ATOM     63  C   UNL A   1      50.579  26.755  31.231  1.00  0.00     0.054 A 
BRANCH  63  64
ATOM     64  S   UNL A   1      52.324  26.496  31.654  1.00  0.00     0.124 S 
ATOM     65  O   UNL A   1      52.966  26.572  30.344  1.00  0.00    -0.237 OA
ATOM     66  O   UNL A   1      52.606  27.608  32.557  1.00  0.00    -0.237 OA
ATOM     67  O   UNL A   1      52.335  25.175  32.278  1.00  0.00    -0.744 OA
ENDBRANCH  63  64
ENDBRANCH  37  58
ENDBRANCH  11  12
ENDBRANCH   4   6
ENDBRANCH   1   2
BRANCH   1  68
ATOM     68  C   UNL A   1      32.449  27.764  26.297  1.00  0.00     0.042 C 
BRANCH  68  69
ATOM     69  C   UNL A   1      32.552  26.284  25.970  1.00  0.00     0.118 C 
BRANCH  69  70
ATOM     70  N   UNL A   1      31.610  25.476  26.742  1.00  0.00    -0.352 N 
ATOM     71  C   UNL A   1      31.135  24.210  26.505  1.00  0.00     0.252 C 
ATOM     72  H   UNL A   1      31.263  25.907  27.556  1.00  0.00     0.163 HD
ATOM     73  O   UNL A   1      30.196  23.761  27.154  1.00  0.00    -0.269 OA
BRANCH  71  74
ATOM     74  C   UNL A   1      31.764  23.376  25.472  1.00  0.00     0.058 A 
ATOM     75  C   UNL A   1      31.346  23.463  24.156  1.00  0.00     0.124 A 
ATOM     76  C   UNL A   1      32.802  22.501  25.791  1.00  0.00     0.029 A 
ATOM     77  N   UNL A   1      31.951  22.791  23.146  1.00  0.00    -0.263 NA
ATOM     78  C   UNL A   1      33.491  21.847  24.772  1.00  0.00     0.042 A 
ATOM     79  C   UNL A   1      33.026  22.022  23.473  1.00  0.00     0.123 A 
BRANCH  78  80
ATOM     80  C   UNL A   1      34.756  21.097  25.003  1.00  0.00     0.195 C 
ATOM     81  O   UNL A   1      34.781  19.887  24.805  1.00  0.00    -0.289 OA
BRANCH  80  82
ATOM     82  C   UNL A   1      35.968  21.837  25.351  1.00  0.00     0.033 A 
ATOM     83  C   UNL A   1      36.080  23.239  25.645  1.00  0.00     0.024 A 
ATOM     84  C   UNL A   1      37.202  21.218  25.451  1.00  0.00     0.077 A 
ATOM     85  C   UNL A   1      37.380  23.629  25.880  1.00  0.00     0.065 A 
ATOM     86  S   UNL A   1      38.468  22.315  25.797  1.00  0.00    -0.152 S 
ENDBRANCH  80  82
ENDBRANCH  78  80
ENDBRANCH  71  74
ENDBRANCH  69  70
ENDBRANCH  68  69
ENDBRANCH   1  68
TORSDOF 15
ENDMDL
