MODEL 1
REMARK VINA RESULT:     -13.2      0.000      0.000
REMARK SMILES COc1ccc(-c2ccc3n(c2=O)C[C@H]2C[C@@H]3CN(C(=O)CCCC(=O)NCCCNC(=O)c3ccc(-c4c5nc(c(-c6ccc(S(=O)(=O)[O-])cc6)c6ccc([nH]6)c(-c6ccc(S(=O)(=O)[O-])cc6)c6nc(c(-c7ccc(S(=O)(=O)[O-])cc7)c7ccc4[nH]7)C=C6)C=C5)cc3)C2)cc1
REMARK SMILES IDX 25 1 26 2 27 3 24 5 23 6 22 7 20 8 21 9 19 10 7 11 8 12
REMARK SMILES IDX 12 13 9 14 11 15 13 16 10 17 14 18 17 19 15 20 16 21 18 22
REMARK SMILES IDX 94 23 6 24 3 25 4 26 96 27 5 28 95 29 2 30 1 31 28 32 29 33
REMARK SMILES IDX 30 34 31 35 32 36 33 38 34 39 35 40 93 41 36 42 92 43 37 44
REMARK SMILES IDX 38 45 39 46 86 47 40 48 91 49 85 50 87 51 41 52 90 53 84 54
REMARK SMILES IDX 83 55 42 57 72 58 53 59 71 60 54 61 57 62 70 63 88 64 55 65
REMARK SMILES IDX 56 66 69 68 89 69 58 70 43 71 44 72 52 73 45 74 51 75 46 76
REMARK SMILES IDX 47 77 48 78 49 79 50 80 73 81 74 82 82 83 75 84 81 85 76 86
REMARK SMILES IDX 77 87 78 88 79 89 80 90 59 91 60 92 68 93 61 94 67 95 62 96
REMARK SMILES IDX 63 97 64 98 65 99 66 100
REMARK H PARENT 27 4 31 37 87 56 57 67
REMARK Flexibility Score: inf
ROOT
ATOM      1  C   UNL A   1      36.657  22.802  23.947  1.00  0.00     0.220 C 
ATOM      2  O   UNL A   1      36.649  22.965  22.721  1.00  0.00    -0.275 OA
ATOM      3  N   UNL A   1      37.821  22.337  24.465  1.00  0.00    -0.356 N 
ATOM      4  H   UNL A   1      38.450  21.994  23.789  1.00  0.00     0.163 HD
ENDROOT
BRANCH   1   5
ATOM      5  C   UNL A   1      35.428  23.214  24.760  1.00  0.00     0.100 C 
BRANCH   5   6
ATOM      6  C   UNL A   1      34.892  24.639  24.729  1.00  0.00     0.020 C 
BRANCH   6   7
ATOM      7  C   UNL A   1      34.114  25.250  25.893  1.00  0.00     0.101 C 
BRANCH   7   8
ATOM      8  C   UNL A   1      33.433  26.623  25.815  1.00  0.00     0.222 C 
ATOM      9  O   UNL A   1      34.075  27.584  26.261  1.00  0.00    -0.275 OA
BRANCH   8  10
ATOM     10  N   UNL A   1      32.235  26.845  25.140  1.00  0.00    -0.342 N 
ATOM     11  C   UNL A   1      32.053  21.923  24.567  1.00  0.00     0.047 A 
ATOM     12  C   UNL A   1      31.390  22.207  25.699  1.00  0.00     0.016 A 
ATOM     13  C   UNL A   1      32.072  22.940  23.461  1.00  0.00     0.258 A 
ATOM     14  C   UNL A   1      30.689  23.449  25.862  1.00  0.00     0.023 A 
ATOM     15  N   UNL A   1      31.377  24.133  23.699  1.00  0.00    -0.311 N 
ATOM     16  O   UNL A   1      32.658  22.707  22.403  1.00  0.00    -0.269 OA
ATOM     17  C   UNL A   1      30.685  24.374  24.889  1.00  0.00     0.026 A 
ATOM     18  C   UNL A   1      31.367  25.100  22.606  1.00  0.00     0.131 C 
ATOM     19  C   UNL A   1      30.019  25.720  25.119  1.00  0.00     0.056 C 
ATOM     20  C   UNL A   1      30.921  26.513  22.986  1.00  0.00     0.029 C 
ATOM     21  C   UNL A   1      29.646  26.405  23.805  1.00  0.00     0.019 C 
ATOM     22  C   UNL A   1      30.993  26.630  25.890  1.00  0.00     0.129 C 
ATOM     23  C   UNL A   1      32.003  27.287  23.766  1.00  0.00     0.125 C 
BRANCH  11  24
ATOM     24  C   UNL A   1      32.711  20.618  24.412  1.00  0.00    -0.013 A 
ATOM     25  C   UNL A   1      33.975  18.145  24.016  1.00  0.00     0.118 A 
ATOM     26  C   UNL A   1      34.574  19.120  24.814  1.00  0.00     0.047 A 
ATOM     27  C   UNL A   1      32.725  18.389  23.447  1.00  0.00     0.047 A 
ATOM     28  C   UNL A   1      33.951  20.357  25.004  1.00  0.00     0.013 A 
ATOM     29  C   UNL A   1      32.099  19.620  23.642  1.00  0.00     0.013 A 
BRANCH  25  30
ATOM     30  O   UNL A   1      34.669  16.973  23.880  1.00  0.00    -0.497 OA
ATOM     31  C   UNL A   1      34.598  16.111  25.012  1.00  0.00     0.278 C 
ENDBRANCH  25  30
ENDBRANCH  11  24
ENDBRANCH   8  10
ENDBRANCH   7   8
ENDBRANCH   6   7
ENDBRANCH   5   6
ENDBRANCH   1   5
BRANCH   3  32
ATOM     32  C   UNL A   1      38.311  22.252  25.815  1.00  0.00     0.117 C 
BRANCH  32  33
ATOM     33  C   UNL A   1      38.577  23.585  26.478  1.00  0.00     0.042 C 
BRANCH  33  34
ATOM     34  C   UNL A   1      39.988  23.670  27.015  1.00  0.00     0.118 C 
BRANCH  34  35
ATOM     35  N   UNL A   1      40.924  24.280  26.070  1.00  0.00    -0.352 N 
ATOM     36  C   UNL A   1      41.374  25.579  26.001  1.00  0.00     0.251 C 
ATOM     37  H   UNL A   1      41.285  23.673  25.383  1.00  0.00     0.163 HD
ATOM     38  O   UNL A   1      42.075  25.933  25.055  1.00  0.00    -0.269 OA
BRANCH  36  39
ATOM     39  C   UNL A   1      40.969  26.546  27.043  1.00  0.00     0.039 A 
ATOM     40  C   UNL A   1      40.107  26.136  28.062  1.00  0.00     0.014 A 
ATOM     41  C   UNL A   1      41.508  27.832  27.054  1.00  0.00     0.014 A 
ATOM     42  C   UNL A   1      39.865  26.993  29.138  1.00  0.00     0.010 A 
ATOM     43  C   UNL A   1      41.388  28.614  28.191  1.00  0.00     0.010 A 
ATOM     44  C   UNL A   1      40.548  28.217  29.237  1.00  0.00    -0.014 A 
BRANCH  44  45
ATOM     45  C   UNL A   1      40.395  29.098  30.420  1.00  0.00     0.031 A 
ATOM     46  C   UNL A   1      41.265  28.892  31.634  1.00  0.00     0.074 A 
ATOM     47  C   UNL A   1      39.419  30.027  30.436  1.00  0.00     0.049 A 
ATOM     48  N   UNL A   1      41.264  29.544  32.768  1.00  0.00    -0.248 NA
ATOM     49  C   UNL A   1      42.227  27.778  31.587  1.00  0.00     0.031 C 
ATOM     50  C   UNL A   1      38.444  30.252  29.365  1.00  0.00     0.029 A 
ATOM     51  N   UNL A   1      39.082  30.953  31.389  1.00  0.00    -0.354 N 
ATOM     52  C   UNL A   1      42.198  28.900  33.573  1.00  0.00     0.074 A 
ATOM     53  C   UNL A   1      42.685  27.763  32.828  1.00  0.00     0.031 C 
ATOM     54  C   UNL A   1      37.649  31.279  29.701  1.00  0.00     0.029 A 
ATOM     55  C   UNL A   1      38.033  31.763  31.024  1.00  0.00     0.049 A 
ATOM     56  H   UNL A   1      39.547  31.032  32.253  1.00  0.00     0.167 HD
ATOM     57  C   UNL A   1      42.637  29.240  34.808  1.00  0.00     0.031 A 
ATOM     58  C   UNL A   1      37.448  32.786  31.675  1.00  0.00     0.031 A 
ATOM     59  C   UNL A   1      42.160  30.386  35.533  1.00  0.00     0.049 A 
ATOM     60  C   UNL A   1      37.989  33.194  33.015  1.00  0.00     0.074 A 
ATOM     61  C   UNL A   1      42.596  30.882  36.748  1.00  0.00     0.029 A 
ATOM     62  N   UNL A   1      41.132  31.216  35.105  1.00  0.00    -0.354 N 
ATOM     63  N   UNL A   1      38.952  32.641  33.716  1.00  0.00    -0.248 NA
ATOM     64  C   UNL A   1      37.383  34.373  33.642  1.00  0.00     0.031 C 
ATOM     65  C   UNL A   1      41.792  31.979  37.082  1.00  0.00     0.029 A 
ATOM     66  C   UNL A   1      40.897  32.202  36.047  1.00  0.00     0.049 A 
ATOM     67  H   UNL A   1      40.641  31.116  34.259  1.00  0.00     0.167 HD
ATOM     68  C   UNL A   1      39.072  33.409  34.866  1.00  0.00     0.074 A 
ATOM     69  C   UNL A   1      38.105  34.484  34.750  1.00  0.00     0.031 C 
ATOM     70  C   UNL A   1      39.905  33.242  35.925  1.00  0.00     0.031 A 
BRANCH  57  71
ATOM     71  C   UNL A   1      43.673  28.345  35.440  1.00  0.00    -0.014 A 
ATOM     72  C   UNL A   1      43.303  27.250  36.245  1.00  0.00     0.010 A 
ATOM     73  C   UNL A   1      45.040  28.618  35.252  1.00  0.00     0.010 A 
ATOM     74  C   UNL A   1      44.273  26.497  36.910  1.00  0.00     0.020 A 
ATOM     75  C   UNL A   1      46.015  27.844  35.887  1.00  0.00     0.020 A 
ATOM     76  C   UNL A   1      45.624  26.806  36.736  1.00  0.00     0.054 A 
BRANCH  76  77
ATOM     77  S   UNL A   1      46.863  25.829  37.631  1.00  0.00     0.124 S 
ATOM     78  O   UNL A   1      46.139  24.585  37.881  1.00  0.00    -0.237 OA
ATOM     79  O   UNL A   1      47.956  25.736  36.667  1.00  0.00    -0.237 OA
ATOM     80  O   UNL A   1      47.148  26.634  38.817  1.00  0.00    -0.744 OA
ENDBRANCH  76  77
ENDBRANCH  57  71
BRANCH  58  81
ATOM     81  C   UNL A   1      36.315  33.506  31.033  1.00  0.00    -0.014 A 
ATOM     82  C   UNL A   1      35.183  33.873  31.781  1.00  0.00     0.010 A 
ATOM     83  C   UNL A   1      36.401  33.901  29.685  1.00  0.00     0.010 A 
ATOM     84  C   UNL A   1      34.161  34.627  31.195  1.00  0.00     0.020 A 
ATOM     85  C   UNL A   1      35.394  34.677  29.103  1.00  0.00     0.020 A 
ATOM     86  C   UNL A   1      34.279  35.035  29.863  1.00  0.00     0.054 A 
BRANCH  86  87
ATOM     87  S   UNL A   1      32.994  36.105  29.158  1.00  0.00     0.124 S 
ATOM     88  O   UNL A   1      32.261  36.526  30.348  1.00  0.00    -0.237 OA
ATOM     89  O   UNL A   1      33.779  37.146  28.498  1.00  0.00    -0.237 OA
ATOM     90  O   UNL A   1      32.268  35.217  28.253  1.00  0.00    -0.744 OA
ENDBRANCH  86  87
ENDBRANCH  58  81
BRANCH  70  91
ATOM     91  C   UNL A   1      39.797  34.246  37.042  1.00  0.00    -0.014 A 
ATOM     92  C   UNL A   1      40.469  35.480  36.977  1.00  0.00     0.010 A 
ATOM     93  C   UNL A   1      38.992  33.960  38.160  1.00  0.00     0.010 A 
ATOM     94  C   UNL A   1      40.380  36.388  38.034  1.00  0.00     0.020 A 
ATOM     95  C   UNL A   1      38.875  34.880  39.205  1.00  0.00     0.020 A 
ATOM     96  C   UNL A   1      39.588  36.079  39.144  1.00  0.00     0.054 A 
BRANCH  96  97
ATOM     97  S   UNL A   1      39.483  37.277  40.501  1.00  0.00     0.124 S 
ATOM     98  O   UNL A   1      38.682  38.341  39.903  1.00  0.00    -0.237 OA
ATOM     99  O   UNL A   1      38.825  36.511  41.556  1.00  0.00    -0.237 OA
ATOM    100  O   UNL A   1      40.879  37.620  40.767  1.00  0.00    -0.744 OA
ENDBRANCH  96  97
ENDBRANCH  70  91
ENDBRANCH  44  45
ENDBRANCH  36  39
ENDBRANCH  34  35
ENDBRANCH  33  34
ENDBRANCH  32  33
ENDBRANCH   3  32
TORSDOF 19
ENDMDL
MODEL 2
REMARK VINA RESULT:     -13.0      6.142     11.927
REMARK SMILES COc1ccc(-c2ccc3n(c2=O)C[C@H]2C[C@@H]3CN(C(=O)CCCC(=O)NCCCNC(=O)c3ccc(-c4c5nc(c(-c6ccc(S(=O)(=O)[O-])cc6)c6ccc([nH]6)c(-c6ccc(S(=O)(=O)[O-])cc6)c6nc(c(-c7ccc(S(=O)(=O)[O-])cc7)c7ccc4[nH]7)C=C6)C=C5)cc3)C2)cc1
REMARK SMILES IDX 25 1 26 2 27 3 24 5 23 6 22 7 20 8 21 9 19 10 7 11 8 12
REMARK SMILES IDX 12 13 9 14 11 15 13 16 10 17 14 18 17 19 15 20 16 21 18 22
REMARK SMILES IDX 94 23 6 24 3 25 4 26 96 27 5 28 95 29 2 30 1 31 28 32 29 33
REMARK SMILES IDX 30 34 31 35 32 36 33 38 34 39 35 40 93 41 36 42 92 43 37 44
REMARK SMILES IDX 38 45 39 46 86 47 40 48 91 49 85 50 87 51 41 52 90 53 84 54
REMARK SMILES IDX 83 55 42 57 72 58 53 59 71 60 54 61 57 62 70 63 88 64 55 65
REMARK SMILES IDX 56 66 69 68 89 69 58 70 43 71 44 72 52 73 45 74 51 75 46 76
REMARK SMILES IDX 47 77 48 78 49 79 50 80 73 81 74 82 82 83 75 84 81 85 76 86
REMARK SMILES IDX 77 87 78 88 79 89 80 90 59 91 60 92 68 93 61 94 67 95 62 96
REMARK SMILES IDX 63 97 64 98 65 99 66 100
REMARK H PARENT 27 4 31 37 87 56 57 67
REMARK Flexibility Score: inf
ROOT
ATOM      1  C   UNL A   1      32.861  28.962  26.638  1.00  0.00     0.220 C 
ATOM      2  O   UNL A   1      31.805  28.446  27.025  1.00  0.00    -0.275 OA
ATOM      3  N   UNL A   1      33.486  29.758  27.541  1.00  0.00    -0.356 N 
ATOM      4  H   UNL A   1      32.928  29.993  28.318  1.00  0.00     0.163 HD
ENDROOT
BRANCH   1   5
ATOM      5  C   UNL A   1      33.404  28.596  25.254  1.00  0.00     0.100 C 
BRANCH   5   6
ATOM      6  C   UNL A   1      33.580  27.146  24.825  1.00  0.00     0.020 C 
BRANCH   6   7
ATOM      7  C   UNL A   1      33.948  26.036  25.808  1.00  0.00     0.101 C 
BRANCH   7   8
ATOM      8  C   UNL A   1      34.647  24.739  25.381  1.00  0.00     0.222 C 
ATOM      9  O   UNL A   1      35.879  24.706  25.513  1.00  0.00    -0.275 OA
BRANCH   8  10
ATOM     10  N   UNL A   1      33.959  23.583  25.018  1.00  0.00    -0.342 N 
ATOM     11  C   UNL A   1      30.501  26.636  23.201  1.00  0.00     0.047 A 
ATOM     12  C   UNL A   1      31.348  26.367  22.195  1.00  0.00     0.016 A 
ATOM     13  C   UNL A   1      30.290  25.603  24.271  1.00  0.00     0.258 A 
ATOM     14  C   UNL A   1      32.038  25.110  22.116  1.00  0.00     0.023 A 
ATOM     15  N   UNL A   1      31.009  24.408  24.133  1.00  0.00    -0.311 N 
ATOM     16  O   UNL A   1      29.509  25.810  25.200  1.00  0.00    -0.269 OA
ATOM     17  C   UNL A   1      31.866  24.168  23.056  1.00  0.00     0.026 A 
ATOM     18  C   UNL A   1      30.772  23.393  25.155  1.00  0.00     0.131 C 
ATOM     19  C   UNL A   1      32.679  22.885  23.006  1.00  0.00     0.056 C 
ATOM     20  C   UNL A   1      31.795  22.257  25.200  1.00  0.00     0.029 C 
ATOM     21  C   UNL A   1      32.008  21.753  23.784  1.00  0.00     0.019 C 
ATOM     22  C   UNL A   1      34.065  23.151  23.620  1.00  0.00     0.129 C 
ATOM     23  C   UNL A   1      33.135  22.691  25.830  1.00  0.00     0.125 C 
BRANCH  11  24
ATOM     24  C   UNL A   1      29.767  27.910  23.219  1.00  0.00    -0.013 A 
ATOM     25  C   UNL A   1      28.317  30.309  23.336  1.00  0.00     0.118 A 
ATOM     26  C   UNL A   1      29.705  30.319  23.474  1.00  0.00     0.047 A 
ATOM     27  C   UNL A   1      27.655  29.104  23.101  1.00  0.00     0.047 A 
ATOM     28  C   UNL A   1      30.429  29.124  23.426  1.00  0.00     0.013 A 
ATOM     29  C   UNL A   1      28.376  27.911  23.046  1.00  0.00     0.013 A 
BRANCH  25  30
ATOM     30  O   UNL A   1      27.699  31.527  23.412  1.00  0.00    -0.497 OA
ATOM     31  C   UNL A   1      28.489  32.619  22.949  1.00  0.00     0.278 C 
ENDBRANCH  25  30
ENDBRANCH  11  24
ENDBRANCH   8  10
ENDBRANCH   7   8
ENDBRANCH   6   7
ENDBRANCH   5   6
ENDBRANCH   1   5
BRANCH   3  32
ATOM     32  C   UNL A   1      34.808  30.322  27.578  1.00  0.00     0.117 C 
BRANCH  32  33
ATOM     33  C   UNL A   1      34.858  31.801  27.891  1.00  0.00     0.042 C 
BRANCH  33  34
ATOM     34  C   UNL A   1      35.891  32.113  28.950  1.00  0.00     0.118 C 
BRANCH  34  35
ATOM     35  N   UNL A   1      35.698  31.344  30.180  1.00  0.00    -0.352 N 
ATOM     36  C   UNL A   1      36.569  30.495  30.826  1.00  0.00     0.251 C 
ATOM     37  H   UNL A   1      34.818  31.450  30.609  1.00  0.00     0.163 HD
ATOM     38  O   UNL A   1      36.180  29.843  31.793  1.00  0.00    -0.269 OA
BRANCH  36  39
ATOM     39  C   UNL A   1      37.948  30.343  30.318  1.00  0.00     0.039 A 
ATOM     40  C   UNL A   1      39.018  30.376  31.214  1.00  0.00     0.014 A 
ATOM     41  C   UNL A   1      38.172  30.087  28.966  1.00  0.00     0.014 A 
ATOM     42  C   UNL A   1      40.299  30.058  30.760  1.00  0.00     0.010 A 
ATOM     43  C   UNL A   1      39.412  29.625  28.553  1.00  0.00     0.010 A 
ATOM     44  C   UNL A   1      40.496  29.626  29.437  1.00  0.00    -0.014 A 
BRANCH  44  45
ATOM     45  C   UNL A   1      41.826  29.178  28.956  1.00  0.00     0.031 A 
ATOM     46  C   UNL A   1      42.962  30.162  28.847  1.00  0.00     0.074 A 
ATOM     47  C   UNL A   1      41.987  27.907  28.536  1.00  0.00     0.049 A 
ATOM     48  N   UNL A   1      44.186  29.965  28.429  1.00  0.00    -0.248 NA
ATOM     49  C   UNL A   1      42.674  31.560  29.210  1.00  0.00     0.031 C 
ATOM     50  C   UNL A   1      40.936  26.887  28.492  1.00  0.00     0.029 A 
ATOM     51  N   UNL A   1      43.098  27.257  28.063  1.00  0.00    -0.354 N 
ATOM     52  C   UNL A   1      44.796  31.214  28.449  1.00  0.00     0.074 A 
ATOM     53  C   UNL A   1      43.788  32.171  28.844  1.00  0.00     0.031 C 
ATOM     54  C   UNL A   1      41.461  25.730  28.061  1.00  0.00     0.029 A 
ATOM     55  C   UNL A   1      42.876  25.933  27.765  1.00  0.00     0.049 A 
ATOM     56  H   UNL A   1      43.972  27.695  27.948  1.00  0.00     0.167 HD
ATOM     57  C   UNL A   1      46.086  31.537  28.194  1.00  0.00     0.031 A 
ATOM     58  C   UNL A   1      43.717  24.985  27.310  1.00  0.00     0.031 A 
ATOM     59  C   UNL A   1      47.086  30.574  27.822  1.00  0.00     0.049 A 
ATOM     60  C   UNL A   1      45.160  25.341  27.096  1.00  0.00     0.074 A 
ATOM     61  C   UNL A   1      48.442  30.767  27.629  1.00  0.00     0.029 A 
ATOM     62  N   UNL A   1      46.834  29.229  27.580  1.00  0.00    -0.354 N 
ATOM     63  N   UNL A   1      45.748  26.508  27.229  1.00  0.00    -0.248 NA
ATOM     64  C   UNL A   1      46.057  24.252  26.693  1.00  0.00     0.031 C 
ATOM     65  C   UNL A   1      49.000  29.551  27.217  1.00  0.00     0.029 A 
ATOM     66  C   UNL A   1      48.003  28.587  27.211  1.00  0.00     0.049 A 
ATOM     67  H   UNL A   1      45.954  28.798  27.659  1.00  0.00     0.167 HD
ATOM     68  C   UNL A   1      47.087  26.293  26.931  1.00  0.00     0.074 A 
ATOM     69  C   UNL A   1      47.226  24.878  26.644  1.00  0.00     0.031 C 
ATOM     70  C   UNL A   1      48.111  27.183  26.896  1.00  0.00     0.031 A 
BRANCH  57  71
ATOM     71  C   UNL A   1      46.466  32.992  28.303  1.00  0.00    -0.014 A 
ATOM     72  C   UNL A   1      46.421  33.846  27.184  1.00  0.00     0.010 A 
ATOM     73  C   UNL A   1      46.904  33.509  29.535  1.00  0.00     0.010 A 
ATOM     74  C   UNL A   1      46.879  35.163  27.276  1.00  0.00     0.020 A 
ATOM     75  C   UNL A   1      47.328  34.837  29.640  1.00  0.00     0.020 A 
ATOM     76  C   UNL A   1      47.341  35.647  28.502  1.00  0.00     0.054 A 
BRANCH  76  77
ATOM     77  S   UNL A   1      47.953  37.352  28.590  1.00  0.00     0.124 S 
ATOM     78  O   UNL A   1      49.265  37.167  29.204  1.00  0.00    -0.237 OA
ATOM     79  O   UNL A   1      47.969  37.760  27.187  1.00  0.00    -0.237 OA
ATOM     80  O   UNL A   1      46.965  38.032  29.423  1.00  0.00    -0.744 OA
ENDBRANCH  76  77
ENDBRANCH  57  71
BRANCH  58  81
ATOM     81  C   UNL A   1      43.204  23.608  27.075  1.00  0.00    -0.014 A 
ATOM     82  C   UNL A   1      42.794  23.206  25.792  1.00  0.00     0.010 A 
ATOM     83  C   UNL A   1      43.201  22.666  28.121  1.00  0.00     0.010 A 
ATOM     84  C   UNL A   1      42.398  21.885  25.558  1.00  0.00     0.020 A 
ATOM     85  C   UNL A   1      42.829  21.340  27.885  1.00  0.00     0.020 A 
ATOM     86  C   UNL A   1      42.430  20.957  26.603  1.00  0.00     0.054 A 
BRANCH  86  87
ATOM     87  S   UNL A   1      42.017  19.225  26.249  1.00  0.00     0.124 S 
ATOM     88  O   UNL A   1      42.992  18.883  25.220  1.00  0.00    -0.237 OA
ATOM     89  O   UNL A   1      42.215  18.584  27.547  1.00  0.00    -0.237 OA
ATOM     90  O   UNL A   1      40.627  19.290  25.802  1.00  0.00    -0.744 OA
ENDBRANCH  86  87
ENDBRANCH  58  81
BRANCH  70  91
ATOM     91  C   UNL A   1      49.468  26.647  26.528  1.00  0.00    -0.014 A 
ATOM     92  C   UNL A   1      50.331  26.123  27.506  1.00  0.00     0.010 A 
ATOM     93  C   UNL A   1      49.875  26.647  25.181  1.00  0.00     0.010 A 
ATOM     94  C   UNL A   1      51.598  25.655  27.151  1.00  0.00     0.020 A 
ATOM     95  C   UNL A   1      51.129  26.150  24.819  1.00  0.00     0.020 A 
ATOM     96  C   UNL A   1      51.991  25.677  25.810  1.00  0.00     0.054 A 
BRANCH  96  97
ATOM     97  S   UNL A   1      53.638  25.058  25.373  1.00  0.00     0.124 S 
ATOM     98  O   UNL A   1      53.386  23.632  25.187  1.00  0.00    -0.237 OA
ATOM     99  O   UNL A   1      53.951  25.806  24.158  1.00  0.00    -0.237 OA
ATOM    100  O   UNL A   1      54.455  25.400  26.536  1.00  0.00    -0.744 OA
ENDBRANCH  96  97
ENDBRANCH  70  91
ENDBRANCH  44  45
ENDBRANCH  36  39
ENDBRANCH  34  35
ENDBRANCH  33  34
ENDBRANCH  32  33
ENDBRANCH   3  32
TORSDOF 19
ENDMDL
MODEL 3
REMARK VINA RESULT:     -12.6      5.850      7.843
REMARK SMILES COc1ccc(-c2ccc3n(c2=O)C[C@H]2C[C@@H]3CN(C(=O)CCCC(=O)NCCCNC(=O)c3ccc(-c4c5nc(c(-c6ccc(S(=O)(=O)[O-])cc6)c6ccc([nH]6)c(-c6ccc(S(=O)(=O)[O-])cc6)c6nc(c(-c7ccc(S(=O)(=O)[O-])cc7)c7ccc4[nH]7)C=C6)C=C5)cc3)C2)cc1
REMARK SMILES IDX 25 1 26 2 27 3 24 5 23 6 22 7 20 8 21 9 19 10 7 11 8 12
REMARK SMILES IDX 12 13 9 14 11 15 13 16 10 17 14 18 17 19 15 20 16 21 18 22
REMARK SMILES IDX 94 23 6 24 3 25 4 26 96 27 5 28 95 29 2 30 1 31 28 32 29 33
REMARK SMILES IDX 30 34 31 35 32 36 33 38 34 39 35 40 93 41 36 42 92 43 37 44
REMARK SMILES IDX 38 45 39 46 86 47 40 48 91 49 85 50 87 51 41 52 90 53 84 54
REMARK SMILES IDX 83 55 42 57 72 58 53 59 71 60 54 61 57 62 70 63 88 64 55 65
REMARK SMILES IDX 56 66 69 68 89 69 58 70 43 71 44 72 52 73 45 74 51 75 46 76
REMARK SMILES IDX 47 77 48 78 49 79 50 80 73 81 74 82 82 83 75 84 81 85 76 86
REMARK SMILES IDX 77 87 78 88 79 89 80 90 59 91 60 92 68 93 61 94 67 95 62 96
REMARK SMILES IDX 63 97 64 98 65 99 66 100
REMARK H PARENT 27 4 31 37 87 56 57 67
REMARK Flexibility Score: inf
ROOT
ATOM      1  C   UNL A   1      36.621  23.102  24.445  1.00  0.00     0.220 C 
ATOM      2  O   UNL A   1      36.270  23.451  23.312  1.00  0.00    -0.275 OA
ATOM      3  N   UNL A   1      37.543  22.109  24.489  1.00  0.00    -0.356 N 
ATOM      4  H   UNL A   1      37.672  21.646  23.630  1.00  0.00     0.163 HD
ENDROOT
BRANCH   1   5
ATOM      5  C   UNL A   1      36.076  23.860  25.659  1.00  0.00     0.100 C 
BRANCH   5   6
ATOM      6  C   UNL A   1      34.688  24.485  25.651  1.00  0.00     0.020 C 
BRANCH   6   7
ATOM      7  C   UNL A   1      34.417  25.878  25.084  1.00  0.00     0.101 C 
BRANCH   7   8
ATOM      8  C   UNL A   1      33.373  26.833  25.677  1.00  0.00     0.222 C 
ATOM      9  O   UNL A   1      33.777  27.624  26.542  1.00  0.00    -0.275 OA
BRANCH   8  10
ATOM     10  N   UNL A   1      32.076  26.951  25.183  1.00  0.00    -0.342 N 
ATOM     11  C   UNL A   1      32.127  22.004  24.858  1.00  0.00     0.047 A 
ATOM     12  C   UNL A   1      31.623  22.309  26.064  1.00  0.00     0.016 A 
ATOM     13  C   UNL A   1      31.915  22.960  23.719  1.00  0.00     0.258 A 
ATOM     14  C   UNL A   1      30.876  23.515  26.278  1.00  0.00     0.023 A 
ATOM     15  N   UNL A   1      31.188  24.123  24.008  1.00  0.00    -0.311 N 
ATOM     16  O   UNL A   1      32.350  22.706  22.595  1.00  0.00    -0.269 OA
ATOM     17  C   UNL A   1      30.668  24.386  25.278  1.00  0.00     0.026 A 
ATOM     18  C   UNL A   1      30.953  25.030  22.889  1.00  0.00     0.131 C 
ATOM     19  C   UNL A   1      29.959  25.702  25.549  1.00  0.00     0.056 C 
ATOM     20  C   UNL A   1      30.479  26.432  23.271  1.00  0.00     0.029 C 
ATOM     21  C   UNL A   1      29.350  26.295  24.278  1.00  0.00     0.019 C 
ATOM     22  C   UNL A   1      30.976  26.705  26.122  1.00  0.00     0.129 C 
ATOM     23  C   UNL A   1      31.614  27.307  23.843  1.00  0.00     0.125 C 
BRANCH  11  24
ATOM     24  C   UNL A   1      32.837  20.732  24.661  1.00  0.00    -0.013 A 
ATOM     25  C   UNL A   1      34.208  18.299  24.386  1.00  0.00     0.118 A 
ATOM     26  C   UNL A   1      32.865  18.395  24.020  1.00  0.00     0.047 A 
ATOM     27  C   UNL A   1      34.879  19.429  24.854  1.00  0.00     0.047 A 
ATOM     28  C   UNL A   1      32.177  19.603  24.166  1.00  0.00     0.013 A 
ATOM     29  C   UNL A   1      34.196  20.638  24.993  1.00  0.00     0.013 A 
BRANCH  25  30
ATOM     30  O   UNL A   1      34.789  17.072  24.219  1.00  0.00    -0.497 OA
ATOM     31  C   UNL A   1      34.096  16.001  24.855  1.00  0.00     0.278 C 
ENDBRANCH  25  30
ENDBRANCH  11  24
ENDBRANCH   8  10
ENDBRANCH   7   8
ENDBRANCH   6   7
ENDBRANCH   5   6
ENDBRANCH   1   5
BRANCH   3  32
ATOM     32  C   UNL A   1      38.368  21.605  25.555  1.00  0.00     0.117 C 
BRANCH  32  33
ATOM     33  C   UNL A   1      38.969  20.240  25.300  1.00  0.00     0.042 C 
BRANCH  33  34
ATOM     34  C   UNL A   1      39.852  19.796  26.444  1.00  0.00     0.118 C 
BRANCH  34  35
ATOM     35  N   UNL A   1      41.100  19.177  25.996  1.00  0.00    -0.352 N 
ATOM     36  C   UNL A   1      42.347  19.738  25.839  1.00  0.00     0.251 C 
ATOM     37  H   UNL A   1      41.038  18.219  25.775  1.00  0.00     0.163 HD
ATOM     38  O   UNL A   1      43.253  19.078  25.335  1.00  0.00    -0.269 OA
BRANCH  36  39
ATOM     39  C   UNL A   1      42.568  21.144  26.236  1.00  0.00     0.039 A 
ATOM     40  C   UNL A   1      42.896  21.440  27.560  1.00  0.00     0.014 A 
ATOM     41  C   UNL A   1      42.528  22.157  25.279  1.00  0.00     0.014 A 
ATOM     42  C   UNL A   1      43.275  22.742  27.895  1.00  0.00     0.010 A 
ATOM     43  C   UNL A   1      43.049  23.405  25.581  1.00  0.00     0.010 A 
ATOM     44  C   UNL A   1      43.408  23.721  26.897  1.00  0.00    -0.014 A 
BRANCH  44  45
ATOM     45  C   UNL A   1      43.912  25.081  27.204  1.00  0.00     0.031 A 
ATOM     46  C   UNL A   1      45.357  25.427  26.951  1.00  0.00     0.074 A 
ATOM     47  C   UNL A   1      43.094  25.978  27.790  1.00  0.00     0.049 A 
ATOM     48  N   UNL A   1      45.987  26.552  27.175  1.00  0.00    -0.248 NA
ATOM     49  C   UNL A   1      46.219  24.357  26.422  1.00  0.00     0.031 C 
ATOM     50  C   UNL A   1      41.704  25.728  28.183  1.00  0.00     0.029 A 
ATOM     51  N   UNL A   1      43.313  27.279  28.161  1.00  0.00    -0.354 N 
ATOM     52  C   UNL A   1      47.316  26.311  26.845  1.00  0.00     0.074 A 
ATOM     53  C   UNL A   1      47.416  24.917  26.482  1.00  0.00     0.031 C 
ATOM     54  C   UNL A   1      41.183  26.852  28.698  1.00  0.00     0.029 A 
ATOM     55  C   UNL A   1      42.208  27.891  28.705  1.00  0.00     0.049 A 
ATOM     56  H   UNL A   1      44.179  27.734  28.048  1.00  0.00     0.167 HD
ATOM     57  C   UNL A   1      48.356  27.177  26.814  1.00  0.00     0.031 A 
ATOM     58  C   UNL A   1      42.035  29.149  29.154  1.00  0.00     0.031 A 
ATOM     59  C   UNL A   1      48.242  28.568  27.157  1.00  0.00     0.049 A 
ATOM     60  C   UNL A   1      43.179  30.116  29.051  1.00  0.00     0.074 A 
ATOM     61  C   UNL A   1      49.203  29.560  27.075  1.00  0.00     0.029 A 
ATOM     62  N   UNL A   1      47.090  29.165  27.655  1.00  0.00    -0.354 N 
ATOM     63  N   UNL A   1      44.403  29.900  28.629  1.00  0.00    -0.248 NA
ATOM     64  C   UNL A   1      42.914  31.499  29.462  1.00  0.00     0.031 C 
ATOM     65  C   UNL A   1      48.648  30.744  27.576  1.00  0.00     0.029 A 
ATOM     66  C   UNL A   1      47.324  30.504  27.913  1.00  0.00     0.049 A 
ATOM     67  H   UNL A   1      46.235  28.703  27.803  1.00  0.00     0.167 HD
ATOM     68  C   UNL A   1      45.056  31.123  28.719  1.00  0.00     0.074 A 
ATOM     69  C   UNL A   1      44.078  32.079  29.204  1.00  0.00     0.031 C 
ATOM     70  C   UNL A   1      46.345  31.430  28.428  1.00  0.00     0.031 A 
BRANCH  57  71
ATOM     71  C   UNL A   1      49.699  26.626  26.405  1.00  0.00    -0.014 A 
ATOM     72  C   UNL A   1      50.582  26.070  27.352  1.00  0.00     0.010 A 
ATOM     73  C   UNL A   1      50.100  26.689  25.059  1.00  0.00     0.010 A 
ATOM     74  C   UNL A   1      51.863  25.662  26.975  1.00  0.00     0.020 A 
ATOM     75  C   UNL A   1      51.368  26.248  24.670  1.00  0.00     0.020 A 
ATOM     76  C   UNL A   1      52.253  25.765  25.637  1.00  0.00     0.054 A 
BRANCH  76  77
ATOM     77  S   UNL A   1      53.931  25.253  25.178  1.00  0.00     0.124 S 
ATOM     78  O   UNL A   1      54.686  25.588  26.383  1.00  0.00    -0.237 OA
ATOM     79  O   UNL A   1      53.771  23.825  24.914  1.00  0.00    -0.237 OA
ATOM     80  O   UNL A   1      54.234  26.070  24.005  1.00  0.00    -0.744 OA
ENDBRANCH  76  77
ENDBRANCH  57  71
BRANCH  58  81
ATOM     81  C   UNL A   1      40.710  29.553  29.696  1.00  0.00    -0.014 A 
ATOM     82  C   UNL A   1      40.518  29.704  31.081  1.00  0.00     0.010 A 
ATOM     83  C   UNL A   1      39.654  29.869  28.821  1.00  0.00     0.010 A 
ATOM     84  C   UNL A   1      39.298  30.170  31.579  1.00  0.00     0.020 A 
ATOM     85  C   UNL A   1      38.441  30.359  29.314  1.00  0.00     0.020 A 
ATOM     86  C   UNL A   1      38.271  30.507  30.691  1.00  0.00     0.054 A 
BRANCH  86  87
ATOM     87  S   UNL A   1      36.736  31.213  31.355  1.00  0.00     0.124 S 
ATOM     88  O   UNL A   1      36.457  30.331  32.484  1.00  0.00    -0.237 OA
ATOM     89  O   UNL A   1      37.141  32.574  31.701  1.00  0.00    -0.237 OA
ATOM     90  O   UNL A   1      35.803  31.116  30.235  1.00  0.00    -0.744 OA
ENDBRANCH  86  87
ENDBRANCH  58  81
BRANCH  70  91
ATOM     91  C   UNL A   1      46.769  32.859  28.636  1.00  0.00    -0.014 A 
ATOM     92  C   UNL A   1      47.629  33.216  29.689  1.00  0.00     0.010 A 
ATOM     93  C   UNL A   1      46.318  33.855  27.749  1.00  0.00     0.010 A 
ATOM     94  C   UNL A   1      47.990  34.551  29.884  1.00  0.00     0.020 A 
ATOM     95  C   UNL A   1      46.703  35.187  27.923  1.00  0.00     0.020 A 
ATOM     96  C   UNL A   1      47.519  35.529  29.003  1.00  0.00     0.054 A 
BRANCH  96  97
ATOM     97  S   UNL A   1      48.007  37.254  29.272  1.00  0.00     0.124 S 
ATOM     98  O   UNL A   1      49.368  37.107  29.781  1.00  0.00    -0.237 OA
ATOM     99  O   UNL A   1      47.893  37.833  27.937  1.00  0.00    -0.237 OA
ATOM    100  O   UNL A   1      47.028  37.741  30.242  1.00  0.00    -0.744 OA
ENDBRANCH  96  97
ENDBRANCH  70  91
ENDBRANCH  44  45
ENDBRANCH  36  39
ENDBRANCH  34  35
ENDBRANCH  33  34
ENDBRANCH  32  33
ENDBRANCH   3  32
TORSDOF 19
ENDMDL
