MODEL 1
REMARK VINA RESULT:     -11.6      0.000      0.000
REMARK SMILES Cc1cc(Br)cc2c1O[C@H](C(F)(F)F)C(C(=O)NCCCNC(=O)c1ccc(-c3c4nc(c(-c5ccc(S(=O)(=O)[O-])cc5)c5ccc([nH]5)c(-c5ccc(S(=O)(=O)[O-])cc5)c5nc(c(-c6ccc(S(=O)(=O)[O-])cc6)c6ccc3[nH]6)C=C5)C=C4)cc1)=C2
REMARK SMILES IDX 21 1 20 2 19 3 18 4 16 5 17 6 15 8 1 9 2 10 3 11 8 12 4 13
REMARK SMILES IDX 7 14 9 15 5 16 6 17 85 18 10 19 11 20 12 21 13 22 14 23
REMARK SMILES IDX 22 24 23 25 24 27 25 28 26 29 84 30 27 31 83 32 28 33 29 34
REMARK SMILES IDX 30 35 77 36 31 37 82 38 76 39 78 40 32 41 81 42 75 43 74 44
REMARK SMILES IDX 33 46 63 47 44 48 62 49 45 50 48 51 61 52 79 53 46 54 47 55
REMARK SMILES IDX 60 57 80 58 49 59 34 60 35 61 43 62 36 63 42 64 37 65 38 66
REMARK SMILES IDX 39 67 40 68 41 69 64 70 65 71 73 72 66 73 72 74 67 75 68 76
REMARK SMILES IDX 69 77 70 78 71 79 50 80 51 81 59 82 52 83 58 84 53 85 54 86
REMARK SMILES IDX 55 87 56 88 57 89
REMARK H PARENT 18 7 22 26 78 45 48 56
REMARK Flexibility Score: inf
ROOT
ATOM      1  C   UNL A   1      33.594  28.197  26.904  1.00  0.00     0.118 C 
ENDROOT
BRANCH   1   2
ATOM      2  C   UNL A   1      33.899  27.920  25.439  1.00  0.00     0.042 C 
BRANCH   2   3
ATOM      3  C   UNL A   1      32.669  27.448  24.678  1.00  0.00     0.118 C 
BRANCH   3   4
ATOM      4  N   UNL A   1      31.710  26.785  25.547  1.00  0.00    -0.352 N 
ATOM      5  C   UNL A   1      31.508  25.538  26.032  1.00  0.00     0.251 C 
ATOM      6  O   UNL A   1      30.541  25.416  26.792  1.00  0.00    -0.270 OA
ATOM      7  H   UNL A   1      31.024  27.412  25.871  1.00  0.00     0.163 HD
BRANCH   5   8
ATOM      8  C   UNL A   1      32.353  24.351  25.717  1.00  0.00     0.067 C 
ATOM      9  C   UNL A   1      34.148  19.671  24.677  1.00  0.00     0.048 C 
ATOM     10  C   UNL A   1      34.768  20.966  25.117  1.00  0.00    -0.007 A 
ATOM     11  C   UNL A   1      36.151  21.073  25.302  1.00  0.00     0.023 A 
ATOM     12  C   UNL A   1      33.967  22.087  25.373  1.00  0.00     0.130 A 
ATOM     13  C   UNL A   1      36.708  22.278  25.731  1.00  0.00     0.019 A 
ATOM     14  C   UNL A   1      34.522  23.295  25.808  1.00  0.00     0.019 A 
ATOM     15  O   UNL A   1      32.617  21.928  25.223  1.00  0.00    -0.475 OA
ATOM     16  Br  UNL A   1      38.580  22.405  25.977  1.00  0.00    -0.051 Br
ATOM     17  C   UNL A   1      35.904  23.390  25.988  1.00  0.00     0.027 A 
ATOM     18  C   UNL A   1      33.641  24.420  26.104  1.00  0.00     0.025 C 
ATOM     19  C   UNL A   1      31.854  23.138  24.989  1.00  0.00     0.314 C 
BRANCH  19  20
ATOM     20  C   UNL A   1      31.721  23.376  23.472  1.00  0.00     0.429 C 
ATOM     21  F   UNL A   1      32.528  24.391  23.076  1.00  0.00    -0.167 F 
ATOM     22  F   UNL A   1      32.080  22.293  22.740  1.00  0.00    -0.167 F 
ATOM     23  F   UNL A   1      30.460  23.692  23.100  1.00  0.00    -0.167 F 
ENDBRANCH  19  20
ENDBRANCH   5   8
ENDBRANCH   3   4
ENDBRANCH   2   3
ENDBRANCH   1   2
BRANCH   1  24
ATOM     24  N   UNL A   1      33.507  29.630  27.177  1.00  0.00    -0.352 N 
ATOM     25  C   UNL A   1      34.366  30.454  27.857  1.00  0.00     0.251 C 
ATOM     26  H   UNL A   1      32.704  30.073  26.817  1.00  0.00     0.163 HD
ATOM     27  O   UNL A   1      33.978  31.559  28.234  1.00  0.00    -0.269 OA
BRANCH  25  28
ATOM     28  C   UNL A   1      35.746  30.014  28.133  1.00  0.00     0.039 A 
ATOM     29  C   UNL A   1      36.711  30.095  27.126  1.00  0.00     0.014 A 
ATOM     30  C   UNL A   1      36.077  29.494  29.386  1.00  0.00     0.014 A 
ATOM     31  C   UNL A   1      38.024  29.713  27.402  1.00  0.00     0.010 A 
ATOM     32  C   UNL A   1      37.402  29.213  29.689  1.00  0.00     0.010 A 
ATOM     33  C   UNL A   1      38.385  29.302  28.695  1.00  0.00    -0.014 A 
BRANCH  33  34
ATOM     34  C   UNL A   1      39.778  28.919  29.028  1.00  0.00     0.031 A 
ATOM     35  C   UNL A   1      40.679  29.913  29.710  1.00  0.00     0.074 A 
ATOM     36  C   UNL A   1      40.240  27.706  28.669  1.00  0.00     0.049 A 
ATOM     37  N   UNL A   1      41.941  29.795  30.027  1.00  0.00    -0.248 NA
ATOM     38  C   UNL A   1      40.094  31.220  30.057  1.00  0.00     0.031 C 
ATOM     39  C   UNL A   1      39.465  26.675  27.975  1.00  0.00     0.029 A 
ATOM     40  N   UNL A   1      41.474  27.134  28.841  1.00  0.00    -0.354 N 
ATOM     41  C   UNL A   1      42.301  31.010  30.598  1.00  0.00     0.074 A 
ATOM     42  C   UNL A   1      41.145  31.875  30.524  1.00  0.00     0.031 C 
ATOM     43  C   UNL A   1      40.229  25.581  27.819  1.00  0.00     0.029 A 
ATOM     44  C   UNL A   1      41.558  25.848  28.360  1.00  0.00     0.049 A 
ATOM     45  H   UNL A   1      42.229  27.600  29.269  1.00  0.00     0.167 HD
ATOM     46  C   UNL A   1      43.478  31.364  31.165  1.00  0.00     0.031 A 
ATOM     47  C   UNL A   1      42.590  24.984  28.356  1.00  0.00     0.031 A 
ATOM     48  C   UNL A   1      44.617  30.492  31.250  1.00  0.00     0.049 A 
ATOM     49  C   UNL A   1      43.898  25.410  28.963  1.00  0.00     0.074 A 
ATOM     50  C   UNL A   1      45.844  30.737  31.838  1.00  0.00     0.029 A 
ATOM     51  N   UNL A   1      44.666  29.204  30.738  1.00  0.00    -0.354 N 
ATOM     52  N   UNL A   1      44.205  26.549  29.540  1.00  0.00    -0.248 NA
ATOM     53  C   UNL A   1      44.997  24.437  28.927  1.00  0.00     0.031 C 
ATOM     54  C   UNL A   1      46.654  29.617  31.635  1.00  0.00     0.029 A 
ATOM     55  C   UNL A   1      45.911  28.650  30.975  1.00  0.00     0.049 A 
ATOM     56  H   UNL A   1      43.925  28.752  30.274  1.00  0.00     0.167 HD
ATOM     57  C   UNL A   1      45.526  26.420  29.953  1.00  0.00     0.074 A 
ATOM     58  C   UNL A   1      45.954  25.088  29.577  1.00  0.00     0.031 C 
ATOM     59  C   UNL A   1      46.315  27.322  30.587  1.00  0.00     0.031 A 
BRANCH  46  60
ATOM     60  C   UNL A   1      43.584  32.748  31.749  1.00  0.00    -0.014 A 
ATOM     61  C   UNL A   1      44.042  33.826  30.971  1.00  0.00     0.010 A 
ATOM     62  C   UNL A   1      43.178  32.985  33.075  1.00  0.00     0.010 A 
ATOM     63  C   UNL A   1      44.123  35.109  31.515  1.00  0.00     0.020 A 
ATOM     64  C   UNL A   1      43.228  34.274  33.614  1.00  0.00     0.020 A 
ATOM     65  C   UNL A   1      43.713  35.325  32.834  1.00  0.00     0.054 A 
BRANCH  65  66
ATOM     66  S   UNL A   1      43.793  37.011  33.498  1.00  0.00     0.124 S 
ATOM     67  O   UNL A   1      43.777  37.815  32.278  1.00  0.00    -0.237 OA
ATOM     68  O   UNL A   1      42.586  37.088  34.316  1.00  0.00    -0.237 OA
ATOM     69  O   UNL A   1      45.050  37.034  34.241  1.00  0.00    -0.744 OA
ENDBRANCH  65  66
ENDBRANCH  46  60
BRANCH  47  70
ATOM     70  C   UNL A   1      42.415  23.621  27.784  1.00  0.00    -0.014 A 
ATOM     71  C   UNL A   1      42.738  23.370  26.438  1.00  0.00     0.010 A 
ATOM     72  C   UNL A   1      41.954  22.559  28.585  1.00  0.00     0.010 A 
ATOM     73  C   UNL A   1      42.593  22.087  25.901  1.00  0.00     0.020 A 
ATOM     74  C   UNL A   1      41.834  21.270  28.059  1.00  0.00     0.020 A 
ATOM     75  C   UNL A   1      42.148  21.043  26.717  1.00  0.00     0.054 A 
BRANCH  75  76
ATOM     76  S   UNL A   1      42.025  19.377  26.010  1.00  0.00     0.124 S 
ATOM     77  O   UNL A   1      42.546  18.548  27.092  1.00  0.00    -0.237 OA
ATOM     78  O   UNL A   1      40.594  19.253  25.748  1.00  0.00    -0.237 OA
ATOM     79  O   UNL A   1      42.866  19.448  24.816  1.00  0.00    -0.744 OA
ENDBRANCH  75  76
ENDBRANCH  47  70
BRANCH  59  80
ATOM     80  C   UNL A   1      47.718  26.901  30.929  1.00  0.00    -0.014 A 
ATOM     81  C   UNL A   1      48.785  27.159  30.051  1.00  0.00     0.010 A 
ATOM     82  C   UNL A   1      47.983  26.316  32.181  1.00  0.00     0.010 A 
ATOM     83  C   UNL A   1      50.092  26.822  30.413  1.00  0.00     0.020 A 
ATOM     84  C   UNL A   1      49.291  26.005  32.558  1.00  0.00     0.020 A 
ATOM     85  C   UNL A   1      50.337  26.252  31.666  1.00  0.00     0.054 A 
BRANCH  85  86
ATOM     86  S   UNL A   1      52.049  25.881  32.131  1.00  0.00     0.124 S 
ATOM     87  O   UNL A   1      52.016  24.429  32.285  1.00  0.00    -0.237 OA
ATOM     88  O   UNL A   1      52.805  26.374  30.982  1.00  0.00    -0.237 OA
ATOM     89  O   UNL A   1      52.246  26.634  33.368  1.00  0.00    -0.744 OA
ENDBRANCH  85  86
ENDBRANCH  59  80
ENDBRANCH  33  34
ENDBRANCH  25  28
ENDBRANCH   1  24
TORSDOF 14
ENDMDL
MODEL 2
REMARK VINA RESULT:     -11.6      2.838      9.232
REMARK SMILES Cc1cc(Br)cc2c1O[C@H](C(F)(F)F)C(C(=O)NCCCNC(=O)c1ccc(-c3c4nc(c(-c5ccc(S(=O)(=O)[O-])cc5)c5ccc([nH]5)c(-c5ccc(S(=O)(=O)[O-])cc5)c5nc(c(-c6ccc(S(=O)(=O)[O-])cc6)c6ccc3[nH]6)C=C5)C=C4)cc1)=C2
REMARK SMILES IDX 21 1 20 2 19 3 18 4 16 5 17 6 15 8 1 9 2 10 3 11 8 12 4 13
REMARK SMILES IDX 7 14 9 15 5 16 6 17 85 18 10 19 11 20 12 21 13 22 14 23
REMARK SMILES IDX 22 24 23 25 24 27 25 28 26 29 84 30 27 31 83 32 28 33 29 34
REMARK SMILES IDX 30 35 77 36 31 37 82 38 76 39 78 40 32 41 81 42 75 43 74 44
REMARK SMILES IDX 33 46 63 47 44 48 62 49 45 50 48 51 61 52 79 53 46 54 47 55
REMARK SMILES IDX 60 57 80 58 49 59 34 60 35 61 43 62 36 63 42 64 37 65 38 66
REMARK SMILES IDX 39 67 40 68 41 69 64 70 65 71 73 72 66 73 72 74 67 75 68 76
REMARK SMILES IDX 69 77 70 78 71 79 50 80 51 81 59 82 52 83 58 84 53 85 54 86
REMARK SMILES IDX 55 87 56 88 57 89
REMARK H PARENT 18 7 22 26 78 45 48 56
REMARK Flexibility Score: inf
ROOT
ATOM      1  C   UNL A   1      36.666  23.715  25.228  1.00  0.00     0.118 C 
ENDROOT
BRANCH   1   2
ATOM      2  C   UNL A   1      35.432  23.646  26.116  1.00  0.00     0.042 C 
BRANCH   2   3
ATOM      3  C   UNL A   1      34.293  22.887  25.453  1.00  0.00     0.118 C 
BRANCH   3   4
ATOM      4  N   UNL A   1      34.275  23.077  24.011  1.00  0.00    -0.352 N 
ATOM      5  C   UNL A   1      33.856  24.024  23.140  1.00  0.00     0.251 C 
ATOM      6  O   UNL A   1      34.068  23.778  21.949  1.00  0.00    -0.270 OA
ATOM      7  H   UNL A   1      34.678  22.311  23.542  1.00  0.00     0.163 HD
BRANCH   5   8
ATOM      8  C   UNL A   1      33.182  25.297  23.522  1.00  0.00     0.067 C 
ATOM      9  C   UNL A   1      30.240  29.481  23.755  1.00  0.00     0.048 C 
ATOM     10  C   UNL A   1      31.490  29.029  24.453  1.00  0.00    -0.007 A 
ATOM     11  C   UNL A   1      32.089  29.823  25.438  1.00  0.00     0.023 A 
ATOM     12  C   UNL A   1      32.094  27.811  24.113  1.00  0.00     0.130 A 
ATOM     13  C   UNL A   1      33.262  29.397  26.063  1.00  0.00     0.019 A 
ATOM     14  C   UNL A   1      33.273  27.384  24.734  1.00  0.00     0.019 A 
ATOM     15  O   UNL A   1      31.503  27.087  23.115  1.00  0.00    -0.475 OA
ATOM     16  Br  UNL A   1      34.058  30.483  27.392  1.00  0.00    -0.051 Br
ATOM     17  C   UNL A   1      33.860  28.184  25.716  1.00  0.00     0.027 A 
ATOM     18  C   UNL A   1      33.887  26.129  24.313  1.00  0.00     0.025 C 
ATOM     19  C   UNL A   1      31.789  25.666  23.102  1.00  0.00     0.314 C 
BRANCH  19  20
ATOM     20  C   UNL A   1      30.712  24.918  23.913  1.00  0.00     0.429 C 
ATOM     21  F   UNL A   1      30.307  23.805  23.253  1.00  0.00    -0.167 F 
ATOM     22  F   UNL A   1      31.162  24.504  25.122  1.00  0.00    -0.167 F 
ATOM     23  F   UNL A   1      29.615  25.671  24.147  1.00  0.00    -0.167 F 
ENDBRANCH  19  20
ENDBRANCH   5   8
ENDBRANCH   3   4
ENDBRANCH   2   3
ENDBRANCH   1   2
BRANCH   1  24
ATOM     24  N   UNL A   1      37.664  22.718  25.610  1.00  0.00    -0.352 N 
ATOM     25  C   UNL A   1      38.902  22.879  26.175  1.00  0.00     0.251 C 
ATOM     26  H   UNL A   1      37.407  21.785  25.432  1.00  0.00     0.163 HD
ATOM     27  O   UNL A   1      39.709  21.950  26.147  1.00  0.00    -0.269 OA
BRANCH  25  28
ATOM     28  C   UNL A   1      39.262  24.160  26.811  1.00  0.00     0.039 A 
ATOM     29  C   UNL A   1      38.876  24.408  28.130  1.00  0.00     0.014 A 
ATOM     30  C   UNL A   1      39.960  25.129  26.088  1.00  0.00     0.014 A 
ATOM     31  C   UNL A   1      39.250  25.605  28.742  1.00  0.00     0.010 A 
ATOM     32  C   UNL A   1      40.419  26.272  26.727  1.00  0.00     0.010 A 
ATOM     33  C   UNL A   1      40.053  26.530  28.055  1.00  0.00    -0.014 A 
BRANCH  33  34
ATOM     34  C   UNL A   1      40.493  27.797  28.686  1.00  0.00     0.031 A 
ATOM     35  C   UNL A   1      41.893  27.912  29.224  1.00  0.00     0.074 A 
ATOM     36  C   UNL A   1      39.619  28.813  28.822  1.00  0.00     0.049 A 
ATOM     37  N   UNL A   1      42.448  28.906  29.865  1.00  0.00    -0.248 NA
ATOM     38  C   UNL A   1      42.779  26.748  29.043  1.00  0.00     0.031 C 
ATOM     39  C   UNL A   1      38.227  28.800  28.367  1.00  0.00     0.029 A 
ATOM     40  N   UNL A   1      39.775  30.056  29.379  1.00  0.00    -0.354 N 
ATOM     41  C   UNL A   1      43.738  28.486  30.170  1.00  0.00     0.074 A 
ATOM     42  C   UNL A   1      43.862  27.123  29.705  1.00  0.00     0.031 C 
ATOM     43  C   UNL A   1      37.669  29.994  28.626  1.00  0.00     0.029 A 
ATOM     44  C   UNL A   1      38.647  30.839  29.303  1.00  0.00     0.049 A 
ATOM     45  H   UNL A   1      40.614  30.358  29.795  1.00  0.00     0.167 HD
ATOM     46  C   UNL A   1      44.740  29.182  30.755  1.00  0.00     0.031 A 
ATOM     47  C   UNL A   1      38.428  32.097  29.731  1.00  0.00     0.031 A 
ATOM     48  C   UNL A   1      44.613  30.543  31.199  1.00  0.00     0.049 A 
ATOM     49  C   UNL A   1      39.547  32.840  30.407  1.00  0.00     0.074 A 
ATOM     50  C   UNL A   1      45.577  31.354  31.768  1.00  0.00     0.029 A 
ATOM     51  N   UNL A   1      43.451  31.296  31.117  1.00  0.00    -0.354 N 
ATOM     52  N   UNL A   1      40.774  32.440  30.646  1.00  0.00    -0.248 NA
ATOM     53  C   UNL A   1      39.257  34.205  30.865  1.00  0.00     0.031 C 
ATOM     54  C   UNL A   1      44.984  32.580  32.079  1.00  0.00     0.029 A 
ATOM     55  C   UNL A   1      43.667  32.555  31.647  1.00  0.00     0.049 A 
ATOM     56  H   UNL A   1      42.599  30.980  30.738  1.00  0.00     0.167 HD
ATOM     57  C   UNL A   1      41.408  33.512  31.262  1.00  0.00     0.074 A 
ATOM     58  C   UNL A   1      40.436  34.583  31.344  1.00  0.00     0.031 C 
ATOM     59  C   UNL A   1      42.681  33.603  31.721  1.00  0.00     0.031 A 
BRANCH  46  60
ATOM     60  C   UNL A   1      46.063  28.486  30.932  1.00  0.00    -0.014 A 
ATOM     61  C   UNL A   1      46.335  27.738  32.092  1.00  0.00     0.010 A 
ATOM     62  C   UNL A   1      47.029  28.540  29.910  1.00  0.00     0.010 A 
ATOM     63  C   UNL A   1      47.559  27.083  32.242  1.00  0.00     0.020 A 
ATOM     64  C   UNL A   1      48.243  27.860  30.044  1.00  0.00     0.020 A 
ATOM     65  C   UNL A   1      48.505  27.147  31.215  1.00  0.00     0.054 A 
BRANCH  65  66
ATOM     66  S   UNL A   1      50.068  26.252  31.424  1.00  0.00     0.124 S 
ATOM     67  O   UNL A   1      49.972  25.798  32.810  1.00  0.00    -0.237 OA
ATOM     68  O   UNL A   1      49.973  25.203  30.413  1.00  0.00    -0.237 OA
ATOM     69  O   UNL A   1      51.088  27.267  31.173  1.00  0.00    -0.744 OA
ENDBRANCH  65  66
ENDBRANCH  46  60
BRANCH  47  70
ATOM     70  C   UNL A   1      37.104  32.738  29.505  1.00  0.00    -0.014 A 
ATOM     71  C   UNL A   1      36.137  32.749  30.527  1.00  0.00     0.010 A 
ATOM     72  C   UNL A   1      36.810  33.367  28.281  1.00  0.00     0.010 A 
ATOM     73  C   UNL A   1      34.899  33.366  30.326  1.00  0.00     0.020 A 
ATOM     74  C   UNL A   1      35.584  34.009  28.086  1.00  0.00     0.020 A 
ATOM     75  C   UNL A   1      34.632  33.998  29.109  1.00  0.00     0.054 A 
BRANCH  75  76
ATOM     76  S   UNL A   1      33.041  34.842  28.896  1.00  0.00     0.124 S 
ATOM     77  O   UNL A   1      32.366  33.981  27.930  1.00  0.00    -0.237 OA
ATOM     78  O   UNL A   1      32.495  34.827  30.250  1.00  0.00    -0.237 OA
ATOM     79  O   UNL A   1      33.418  36.165  28.399  1.00  0.00    -0.744 OA
ENDBRANCH  75  76
ENDBRANCH  47  70
BRANCH  59  80
ATOM     80  C   UNL A   1      43.106  34.907  32.342  1.00  0.00    -0.014 A 
ATOM     81  C   UNL A   1      43.704  35.916  31.568  1.00  0.00     0.010 A 
ATOM     82  C   UNL A   1      42.825  35.155  33.698  1.00  0.00     0.010 A 
ATOM     83  C   UNL A   1      44.030  37.145  32.144  1.00  0.00     0.020 A 
ATOM     84  C   UNL A   1      43.123  36.393  34.270  1.00  0.00     0.020 A 
ATOM     85  C   UNL A   1      43.733  37.378  33.491  1.00  0.00     0.054 A 
BRANCH  85  86
ATOM     86  S   UNL A   1      44.114  39.004  34.195  1.00  0.00     0.124 S 
ATOM     87  O   UNL A   1      44.170  38.712  35.625  1.00  0.00    -0.237 OA
ATOM     88  O   UNL A   1      45.393  39.330  33.570  1.00  0.00    -0.237 OA
ATOM     89  O   UNL A   1      42.991  39.838  33.774  1.00  0.00    -0.744 OA
ENDBRANCH  85  86
ENDBRANCH  59  80
ENDBRANCH  33  34
ENDBRANCH  25  28
ENDBRANCH   1  24
TORSDOF 14
ENDMDL
MODEL 3
REMARK VINA RESULT:     -11.2      4.632     10.239
REMARK SMILES Cc1cc(Br)cc2c1O[C@H](C(F)(F)F)C(C(=O)NCCCNC(=O)c1ccc(-c3c4nc(c(-c5ccc(S(=O)(=O)[O-])cc5)c5ccc([nH]5)c(-c5ccc(S(=O)(=O)[O-])cc5)c5nc(c(-c6ccc(S(=O)(=O)[O-])cc6)c6ccc3[nH]6)C=C5)C=C4)cc1)=C2
REMARK SMILES IDX 21 1 20 2 19 3 18 4 16 5 17 6 15 8 1 9 2 10 3 11 8 12 4 13
REMARK SMILES IDX 7 14 9 15 5 16 6 17 85 18 10 19 11 20 12 21 13 22 14 23
REMARK SMILES IDX 22 24 23 25 24 27 25 28 26 29 84 30 27 31 83 32 28 33 29 34
REMARK SMILES IDX 30 35 77 36 31 37 82 38 76 39 78 40 32 41 81 42 75 43 74 44
REMARK SMILES IDX 33 46 63 47 44 48 62 49 45 50 48 51 61 52 79 53 46 54 47 55
REMARK SMILES IDX 60 57 80 58 49 59 34 60 35 61 43 62 36 63 42 64 37 65 38 66
REMARK SMILES IDX 39 67 40 68 41 69 64 70 65 71 73 72 66 73 72 74 67 75 68 76
REMARK SMILES IDX 69 77 70 78 71 79 50 80 51 81 59 82 52 83 58 84 53 85 54 86
REMARK SMILES IDX 55 87 56 88 57 89
REMARK H PARENT 18 7 22 26 78 45 48 56
REMARK Flexibility Score: inf
ROOT
ATOM      1  C   UNL A   1      40.423  23.368  27.195  1.00  0.00     0.118 C 
ENDROOT
BRANCH   1   2
ATOM      2  C   UNL A   1      39.253  22.647  26.542  1.00  0.00     0.042 C 
BRANCH   2   3
ATOM      3  C   UNL A   1      38.145  23.606  26.135  1.00  0.00     0.118 C 
BRANCH   3   4
ATOM      4  N   UNL A   1      37.655  23.336  24.791  1.00  0.00    -0.352 N 
ATOM      5  C   UNL A   1      36.466  23.355  24.146  1.00  0.00     0.251 C 
ATOM      6  O   UNL A   1      36.510  23.066  22.946  1.00  0.00    -0.270 OA
ATOM      7  H   UNL A   1      38.387  23.069  24.189  1.00  0.00     0.163 HD
BRANCH   5   8
ATOM      8  C   UNL A   1      35.158  23.693  24.776  1.00  0.00     0.067 C 
ATOM      9  C   UNL A   1      30.320  23.745  26.449  1.00  0.00     0.048 C 
ATOM     10  C   UNL A   1      31.397  24.780  26.302  1.00  0.00    -0.007 A 
ATOM     11  C   UNL A   1      31.178  26.105  26.696  1.00  0.00     0.023 A 
ATOM     12  C   UNL A   1      32.638  24.442  25.744  1.00  0.00     0.130 A 
ATOM     13  C   UNL A   1      32.183  27.059  26.533  1.00  0.00     0.019 A 
ATOM     14  C   UNL A   1      33.645  25.397  25.575  1.00  0.00     0.019 A 
ATOM     15  O   UNL A   1      32.796  23.148  25.331  1.00  0.00    -0.475 OA
ATOM     16  Br  UNL A   1      31.869  28.846  27.071  1.00  0.00    -0.051 Br
ATOM     17  C   UNL A   1      33.415  26.715  25.973  1.00  0.00     0.027 A 
ATOM     18  C   UNL A   1      34.903  25.005  24.948  1.00  0.00     0.025 C 
ATOM     19  C   UNL A   1      34.161  22.671  25.236  1.00  0.00     0.314 C 
BRANCH  19  20
ATOM     20  C   UNL A   1      34.568  22.010  26.568  1.00  0.00     0.429 C 
ATOM     21  F   UNL A   1      33.575  21.207  27.025  1.00  0.00    -0.167 F 
ATOM     22  F   UNL A   1      35.668  21.228  26.449  1.00  0.00    -0.167 F 
ATOM     23  F   UNL A   1      34.839  22.910  27.539  1.00  0.00    -0.167 F 
ENDBRANCH  19  20
ENDBRANCH   5   8
ENDBRANCH   3   4
ENDBRANCH   2   3
ENDBRANCH   1   2
BRANCH   1  24
ATOM     24  N   UNL A   1      41.247  24.066  26.210  1.00  0.00    -0.352 N 
ATOM     25  C   UNL A   1      41.519  25.402  26.074  1.00  0.00     0.251 C 
ATOM     26  H   UNL A   1      41.673  23.485  25.539  1.00  0.00     0.163 HD
ATOM     27  O   UNL A   1      41.987  25.823  25.016  1.00  0.00    -0.269 OA
BRANCH  25  28
ATOM     28  C   UNL A   1      41.250  26.328  27.191  1.00  0.00     0.039 A 
ATOM     29  C   UNL A   1      40.216  26.047  28.085  1.00  0.00     0.014 A 
ATOM     30  C   UNL A   1      42.010  27.490  27.334  1.00  0.00     0.014 A 
ATOM     31  C   UNL A   1      39.988  26.905  29.162  1.00  0.00     0.010 A 
ATOM     32  C   UNL A   1      41.851  28.286  28.460  1.00  0.00     0.010 A 
ATOM     33  C   UNL A   1      40.826  28.011  29.375  1.00  0.00    -0.014 A 
BRANCH  33  34
ATOM     34  C   UNL A   1      40.630  28.924  30.526  1.00  0.00     0.031 A 
ATOM     35  C   UNL A   1      41.497  28.777  31.747  1.00  0.00     0.074 A 
ATOM     36  C   UNL A   1      39.644  29.840  30.491  1.00  0.00     0.049 A 
ATOM     37  N   UNL A   1      41.442  29.430  32.878  1.00  0.00    -0.248 NA
ATOM     38  C   UNL A   1      42.544  27.741  31.706  1.00  0.00     0.031 C 
ATOM     39  C   UNL A   1      38.722  30.050  29.371  1.00  0.00     0.029 A 
ATOM     40  N   UNL A   1      39.253  30.769  31.421  1.00  0.00    -0.354 N 
ATOM     41  C   UNL A   1      42.436  28.881  33.680  1.00  0.00     0.074 A 
ATOM     42  C   UNL A   1      43.034  27.796  32.934  1.00  0.00     0.031 C 
ATOM     43  C   UNL A   1      37.902  31.073  29.664  1.00  0.00     0.029 A 
ATOM     44  C   UNL A   1      38.209  31.560  31.005  1.00  0.00     0.049 A 
ATOM     45  H   UNL A   1      39.681  30.860  32.303  1.00  0.00     0.167 HD
ATOM     46  C   UNL A   1      42.838  29.265  34.914  1.00  0.00     0.031 A 
ATOM     47  C   UNL A   1      37.571  32.565  31.635  1.00  0.00     0.031 A 
ATOM     48  C   UNL A   1      42.250  30.356  35.641  1.00  0.00     0.049 A 
ATOM     49  C   UNL A   1      38.015  32.955  33.018  1.00  0.00     0.074 A 
ATOM     50  C   UNL A   1      42.607  30.854  36.880  1.00  0.00     0.029 A 
ATOM     51  N   UNL A   1      41.184  31.122  35.191  1.00  0.00    -0.354 N 
ATOM     52  N   UNL A   1      38.987  32.452  33.742  1.00  0.00    -0.248 NA
ATOM     53  C   UNL A   1      37.282  34.049  33.668  1.00  0.00     0.031 C 
ATOM     54  C   UNL A   1      41.725  31.887  37.204  1.00  0.00     0.029 A 
ATOM     55  C   UNL A   1      40.856  32.074  36.140  1.00  0.00     0.049 A 
ATOM     56  H   UNL A   1      40.730  31.006  34.326  1.00  0.00     0.167 HD
ATOM     57  C   UNL A   1      38.997  33.183  34.923  1.00  0.00     0.074 A 
ATOM     58  C   UNL A   1      37.946  34.174  34.810  1.00  0.00     0.031 C 
ATOM     59  C   UNL A   1      39.802  33.048  36.006  1.00  0.00     0.031 A 
BRANCH  46  60
ATOM     60  C   UNL A   1      43.978  28.510  35.544  1.00  0.00    -0.014 A 
ATOM     61  C   UNL A   1      45.305  28.952  35.397  1.00  0.00     0.010 A 
ATOM     62  C   UNL A   1      43.718  27.373  36.330  1.00  0.00     0.010 A 
ATOM     63  C   UNL A   1      46.355  28.255  35.998  1.00  0.00     0.020 A 
ATOM     64  C   UNL A   1      44.764  26.689  36.958  1.00  0.00     0.020 A 
ATOM     65  C   UNL A   1      46.077  27.128  36.777  1.00  0.00     0.054 A 
BRANCH  65  66
ATOM     66  S   UNL A   1      47.459  26.268  37.575  1.00  0.00     0.124 S 
ATOM     67  O   UNL A   1      46.763  25.343  38.467  1.00  0.00    -0.237 OA
ATOM     68  O   UNL A   1      48.146  25.650  36.444  1.00  0.00    -0.237 OA
ATOM     69  O   UNL A   1      48.197  27.338  38.242  1.00  0.00    -0.744 OA
ENDBRANCH  65  66
ENDBRANCH  46  60
BRANCH  47  70
ATOM     70  C   UNL A   1      36.466  33.289  30.948  1.00  0.00    -0.014 A 
ATOM     71  C   UNL A   1      35.184  33.339  31.525  1.00  0.00     0.010 A 
ATOM     72  C   UNL A   1      36.692  33.957  29.730  1.00  0.00     0.010 A 
ATOM     73  C   UNL A   1      34.148  34.034  30.894  1.00  0.00     0.020 A 
ATOM     74  C   UNL A   1      35.666  34.676  29.110  1.00  0.00     0.020 A 
ATOM     75  C   UNL A   1      34.398  34.703  29.693  1.00  0.00     0.054 A 
BRANCH  75  76
ATOM     76  S   UNL A   1      33.051  35.646  28.925  1.00  0.00     0.124 S 
ATOM     77  O   UNL A   1      32.320  36.137  30.089  1.00  0.00    -0.237 OA
ATOM     78  O   UNL A   1      33.774  36.656  28.157  1.00  0.00    -0.237 OA
ATOM     79  O   UNL A   1      32.349  34.647  28.121  1.00  0.00    -0.744 OA
ENDBRANCH  75  76
ENDBRANCH  47  70
BRANCH  59  80
ATOM     80  C   UNL A   1      39.593  33.999  37.153  1.00  0.00    -0.014 A 
ATOM     81  C   UNL A   1      38.807  33.636  38.260  1.00  0.00     0.010 A 
ATOM     82  C   UNL A   1      40.260  35.238  37.159  1.00  0.00     0.010 A 
ATOM     83  C   UNL A   1      38.678  34.504  39.347  1.00  0.00     0.020 A 
ATOM     84  C   UNL A   1      40.157  36.095  38.256  1.00  0.00     0.020 A 
ATOM     85  C   UNL A   1      39.358  35.726  39.340  1.00  0.00     0.054 A 
BRANCH  85  86
ATOM     86  S   UNL A   1      39.218  36.805  40.790  1.00  0.00     0.124 S 
ATOM     87  O   UNL A   1      40.615  37.135  41.060  1.00  0.00    -0.237 OA
ATOM     88  O   UNL A   1      38.399  37.906  40.290  1.00  0.00    -0.237 OA
ATOM     89  O   UNL A   1      38.573  35.960  41.792  1.00  0.00    -0.744 OA
ENDBRANCH  85  86
ENDBRANCH  59  80
ENDBRANCH  33  34
ENDBRANCH  25  28
ENDBRANCH   1  24
TORSDOF 14
ENDMDL
