MODEL 1
REMARK VINA RESULT:     -11.4      0.000      0.000
REMARK SMILES Cc1cccc(Nc2ccccc2C(=O)NCCCNC(=O)c2ccc(-c3c4nc(c(-c5ccc(S(=O)(=O)[O-])cc5)c5ccc([nH]5)c(-c5ccc(S(=O)(=O)[O-])cc5)c5nc(c(-c6ccc(S(=O)(=O)[O-])cc6)c6ccc3[nH]6)C=C5)C=C4)cc2)c1C
REMARK SMILES IDX 18 1 17 2 16 3 14 4 15 5 13 7 8 8 9 9 10 10 12 11 11 12 7 13
REMARK SMILES IDX 6 15 1 16 2 17 3 18 83 19 4 20 84 21 5 22 19 23 20 24 21 25
REMARK SMILES IDX 22 27 23 28 24 29 82 30 25 31 81 32 26 33 27 34 28 35 75 36
REMARK SMILES IDX 29 37 80 38 74 39 76 40 30 41 79 42 73 43 72 44 31 46 61 47
REMARK SMILES IDX 42 48 60 49 43 50 46 51 59 52 77 53 44 54 45 55 58 57 78 58
REMARK SMILES IDX 47 59 32 60 33 61 41 62 34 63 40 64 35 65 36 66 37 67 38 68
REMARK SMILES IDX 39 69 62 70 63 71 71 72 64 73 70 74 65 75 66 76 67 77 68 78
REMARK SMILES IDX 69 79 48 80 49 81 57 82 50 83 56 84 51 85 52 86 53 87 54 88
REMARK SMILES IDX 55 89
REMARK H PARENT 16 6 7 14 20 26 76 45 46 56
REMARK Flexibility Score: inf
ROOT
ATOM      1  C   UNL A   1      32.325  27.854  26.865  1.00  0.00     0.042 C 
ENDROOT
BRANCH   1   2
ATOM      2  C   UNL A   1      32.348  26.397  26.470  1.00  0.00     0.118 C 
BRANCH   2   3
ATOM      3  N   UNL A   1      31.211  25.603  26.842  1.00  0.00    -0.352 N 
ATOM      4  C   UNL A   1      30.992  24.271  26.575  1.00  0.00     0.253 C 
ATOM      5  O   UNL A   1      30.124  23.704  27.245  1.00  0.00    -0.269 OA
ATOM      6  H   UNL A   1      30.504  26.065  27.348  1.00  0.00     0.163 HD
BRANCH   4   7
ATOM      7  C   UNL A   1      31.612  23.525  25.427  1.00  0.00     0.063 A 
ATOM      8  C   UNL A   1      31.420  23.668  24.034  1.00  0.00     0.051 A 
ATOM      9  C   UNL A   1      32.049  22.723  23.180  1.00  0.00     0.027 A 
ATOM     10  C   UNL A   1      32.897  21.725  23.657  1.00  0.00     0.002 A 
ATOM     11  C   UNL A   1      32.499  22.516  25.883  1.00  0.00     0.016 A 
ATOM     12  C   UNL A   1      33.144  21.636  25.013  1.00  0.00     0.001 A 
BRANCH   8  13
ATOM     13  N   UNL A   1      30.758  24.700  23.331  1.00  0.00    -0.355 N 
ATOM     14  H   UNL A   1      29.987  24.368  22.817  1.00  0.00     0.167 HD
BRANCH  13  15
ATOM     15  C   UNL A   1      30.935  26.092  23.190  1.00  0.00     0.042 A 
ATOM     16  C   UNL A   1      33.573  28.845  22.849  1.00  0.00     0.044 C 
ATOM     17  C   UNL A   1      32.263  28.132  23.052  1.00  0.00    -0.046 A 
ATOM     18  C   UNL A   1      31.139  28.889  23.418  1.00  0.00     0.004 A 
ATOM     19  C   UNL A   1      32.154  26.726  22.886  1.00  0.00    -0.025 A 
ATOM     20  C   UNL A   1      29.912  28.276  23.618  1.00  0.00     0.002 A 
ATOM     21  C   UNL A   1      33.336  25.955  22.356  1.00  0.00     0.047 C 
ATOM     22  C   UNL A   1      29.813  26.893  23.504  1.00  0.00     0.026 A 
ENDBRANCH  13  15
ENDBRANCH   8  13
ENDBRANCH   4   7
ENDBRANCH   2   3
ENDBRANCH   1   2
BRANCH   1  23
ATOM     23  C   UNL A   1      33.697  28.508  26.950  1.00  0.00     0.118 C 
BRANCH  23  24
ATOM     24  N   UNL A   1      33.707  29.838  27.565  1.00  0.00    -0.352 N 
ATOM     25  C   UNL A   1      34.688  30.538  28.239  1.00  0.00     0.251 C 
ATOM     26  H   UNL A   1      32.855  30.325  27.481  1.00  0.00     0.163 HD
ATOM     27  O   UNL A   1      34.427  31.617  28.750  1.00  0.00    -0.269 OA
BRANCH  25  28
ATOM     28  C   UNL A   1      36.047  29.964  28.387  1.00  0.00     0.039 A 
ATOM     29  C   UNL A   1      36.967  30.091  27.342  1.00  0.00     0.014 A 
ATOM     30  C   UNL A   1      36.425  29.331  29.566  1.00  0.00     0.014 A 
ATOM     31  C   UNL A   1      38.293  29.686  27.532  1.00  0.00     0.010 A 
ATOM     32  C   UNL A   1      37.765  29.072  29.807  1.00  0.00     0.010 A 
ATOM     33  C   UNL A   1      38.716  29.229  28.789  1.00  0.00    -0.014 A 
BRANCH  33  34
ATOM     34  C   UNL A   1      40.126  28.863  29.080  1.00  0.00     0.031 A 
ATOM     35  C   UNL A   1      41.060  29.908  29.636  1.00  0.00     0.074 A 
ATOM     36  C   UNL A   1      40.594  27.646  28.739  1.00  0.00     0.049 A 
ATOM     37  N   UNL A   1      42.357  29.861  29.792  1.00  0.00    -0.248 NA
ATOM     38  C   UNL A   1      40.458  31.200  30.012  1.00  0.00     0.031 C 
ATOM     39  C   UNL A   1      39.809  26.569  28.130  1.00  0.00     0.029 A 
ATOM     40  N   UNL A   1      41.856  27.116  28.838  1.00  0.00    -0.354 N 
ATOM     41  C   UNL A   1      42.726  31.127  30.237  1.00  0.00     0.074 A 
ATOM     42  C   UNL A   1      41.530  31.937  30.252  1.00  0.00     0.031 C 
ATOM     43  C   UNL A   1      40.599  25.500  27.937  1.00  0.00     0.029 A 
ATOM     44  C   UNL A   1      41.955  25.829  28.363  1.00  0.00     0.049 A 
ATOM     45  H   UNL A   1      42.620  27.611  29.214  1.00  0.00     0.167 HD
ATOM     46  C   UNL A   1      43.942  31.569  30.632  1.00  0.00     0.031 A 
ATOM     47  C   UNL A   1      43.020  25.009  28.274  1.00  0.00     0.031 A 
ATOM     48  C   UNL A   1      45.118  30.742  30.655  1.00  0.00     0.049 A 
ATOM     49  C   UNL A   1      44.355  25.497  28.764  1.00  0.00     0.074 A 
ATOM     50  C   UNL A   1      46.390  31.061  31.096  1.00  0.00     0.029 A 
ATOM     51  N   UNL A   1      45.159  29.421  30.232  1.00  0.00    -0.354 N 
ATOM     52  N   UNL A   1      44.676  26.681  29.231  1.00  0.00    -0.248 NA
ATOM     53  C   UNL A   1      45.465  24.536  28.736  1.00  0.00     0.031 C 
ATOM     54  C   UNL A   1      47.207  29.942  30.906  1.00  0.00     0.029 A 
ATOM     55  C   UNL A   1      46.433  28.910  30.397  1.00  0.00     0.049 A 
ATOM     56  H   UNL A   1      44.392  28.922  29.867  1.00  0.00     0.167 HD
ATOM     57  C   UNL A   1      46.020  26.602  29.574  1.00  0.00     0.074 A 
ATOM     58  C   UNL A   1      46.446  25.248  29.276  1.00  0.00     0.031 C 
ATOM     59  C   UNL A   1      46.831  27.559  30.091  1.00  0.00     0.031 A 
BRANCH  46  60
ATOM     60  C   UNL A   1      44.043  33.005  31.079  1.00  0.00    -0.014 A 
ATOM     61  C   UNL A   1      43.929  33.352  32.440  1.00  0.00     0.010 A 
ATOM     62  C   UNL A   1      44.237  34.025  30.131  1.00  0.00     0.010 A 
ATOM     63  C   UNL A   1      43.936  34.691  32.835  1.00  0.00     0.020 A 
ATOM     64  C   UNL A   1      44.281  35.366  30.527  1.00  0.00     0.020 A 
ATOM     65  C   UNL A   1      44.103  35.691  31.873  1.00  0.00     0.054 A 
BRANCH  65  66
ATOM     66  S   UNL A   1      44.100  37.422  32.413  1.00  0.00     0.124 S 
ATOM     67  O   UNL A   1      45.451  37.573  32.946  1.00  0.00    -0.237 OA
ATOM     68  O   UNL A   1      43.832  38.146  31.172  1.00  0.00    -0.237 OA
ATOM     69  O   UNL A   1      43.028  37.474  33.404  1.00  0.00    -0.744 OA
ENDBRANCH  65  66
ENDBRANCH  46  60
BRANCH  47  70
ATOM     70  C   UNL A   1      42.849  23.634  27.727  1.00  0.00    -0.014 A 
ATOM     71  C   UNL A   1      42.421  22.585  28.559  1.00  0.00     0.010 A 
ATOM     72  C   UNL A   1      43.065  23.376  26.361  1.00  0.00     0.010 A 
ATOM     73  C   UNL A   1      42.216  21.303  28.038  1.00  0.00     0.020 A 
ATOM     74  C   UNL A   1      42.836  22.103  25.830  1.00  0.00     0.020 A 
ATOM     75  C   UNL A   1      42.418  21.071  26.674  1.00  0.00     0.054 A 
BRANCH  75  76
ATOM     76  S   UNL A   1      42.067  19.421  26.005  1.00  0.00     0.124 S 
ATOM     77  O   UNL A   1      42.482  18.553  27.102  1.00  0.00    -0.237 OA
ATOM     78  O   UNL A   1      40.629  19.483  25.753  1.00  0.00    -0.237 OA
ATOM     79  O   UNL A   1      42.898  19.355  24.804  1.00  0.00    -0.744 OA
ENDBRANCH  75  76
ENDBRANCH  47  70
BRANCH  59  80
ATOM     80  C   UNL A   1      48.250  27.169  30.398  1.00  0.00    -0.014 A 
ATOM     81  C   UNL A   1      49.283  27.389  29.471  1.00  0.00     0.010 A 
ATOM     82  C   UNL A   1      48.559  26.630  31.661  1.00  0.00     0.010 A 
ATOM     83  C   UNL A   1      50.599  27.047  29.791  1.00  0.00     0.020 A 
ATOM     84  C   UNL A   1      49.878  26.313  31.994  1.00  0.00     0.020 A 
ATOM     85  C   UNL A   1      50.888  26.511  31.051  1.00  0.00     0.054 A 
BRANCH  85  86
ATOM     86  S   UNL A   1      52.610  26.115  31.457  1.00  0.00     0.124 S 
ATOM     87  O   UNL A   1      52.475  24.826  32.128  1.00  0.00    -0.237 OA
ATOM     88  O   UNL A   1      53.250  26.079  30.144  1.00  0.00    -0.237 OA
ATOM     89  O   UNL A   1      53.026  27.224  32.314  1.00  0.00    -0.744 OA
ENDBRANCH  85  86
ENDBRANCH  59  80
ENDBRANCH  33  34
ENDBRANCH  25  28
ENDBRANCH  23  24
ENDBRANCH   1  23
TORSDOF 15
ENDMDL
MODEL 2
REMARK VINA RESULT:     -11.2      3.797      6.796
REMARK SMILES Cc1cccc(Nc2ccccc2C(=O)NCCCNC(=O)c2ccc(-c3c4nc(c(-c5ccc(S(=O)(=O)[O-])cc5)c5ccc([nH]5)c(-c5ccc(S(=O)(=O)[O-])cc5)c5nc(c(-c6ccc(S(=O)(=O)[O-])cc6)c6ccc3[nH]6)C=C5)C=C4)cc2)c1C
REMARK SMILES IDX 18 1 17 2 16 3 14 4 15 5 13 7 8 8 9 9 10 10 12 11 11 12 7 13
REMARK SMILES IDX 6 15 1 16 2 17 3 18 83 19 4 20 84 21 5 22 19 23 20 24 21 25
REMARK SMILES IDX 22 27 23 28 24 29 82 30 25 31 81 32 26 33 27 34 28 35 75 36
REMARK SMILES IDX 29 37 80 38 74 39 76 40 30 41 79 42 73 43 72 44 31 46 61 47
REMARK SMILES IDX 42 48 60 49 43 50 46 51 59 52 77 53 44 54 45 55 58 57 78 58
REMARK SMILES IDX 47 59 32 60 33 61 41 62 34 63 40 64 35 65 36 66 37 67 38 68
REMARK SMILES IDX 39 69 62 70 63 71 71 72 64 73 70 74 65 75 66 76 67 77 68 78
REMARK SMILES IDX 69 79 48 80 49 81 57 82 50 83 56 84 51 85 52 86 53 87 54 88
REMARK SMILES IDX 55 89
REMARK H PARENT 16 6 7 14 20 26 76 45 46 56
REMARK Flexibility Score: inf
ROOT
ATOM      1  C   UNL A   1      35.011  33.425  29.970  1.00  0.00     0.042 C 
ENDROOT
BRANCH   1   2
ATOM      2  C   UNL A   1      35.118  32.214  30.865  1.00  0.00     0.118 C 
BRANCH   2   3
ATOM      3  N   UNL A   1      34.786  32.396  32.251  1.00  0.00    -0.352 N 
ATOM      4  C   UNL A   1      35.512  33.068  33.208  1.00  0.00     0.253 C 
ATOM      5  O   UNL A   1      34.913  33.384  34.240  1.00  0.00    -0.269 OA
ATOM      6  H   UNL A   1      33.939  31.993  32.552  1.00  0.00     0.163 HD
BRANCH   4   7
ATOM      7  C   UNL A   1      36.998  33.286  33.145  1.00  0.00     0.063 A 
ATOM      8  C   UNL A   1      38.058  32.510  33.664  1.00  0.00     0.051 A 
ATOM      9  C   UNL A   1      39.373  33.037  33.566  1.00  0.00     0.027 A 
ATOM     10  C   UNL A   1      39.656  34.237  32.916  1.00  0.00     0.002 A 
ATOM     11  C   UNL A   1      37.316  34.492  32.468  1.00  0.00     0.016 A 
ATOM     12  C   UNL A   1      38.626  34.956  32.342  1.00  0.00     0.001 A 
BRANCH   8  13
ATOM     13  N   UNL A   1      38.020  31.200  34.195  1.00  0.00    -0.355 N 
ATOM     14  H   UNL A   1      37.444  31.135  34.990  1.00  0.00     0.167 HD
BRANCH  13  15
ATOM     15  C   UNL A   1      38.610  29.963  33.858  1.00  0.00     0.042 A 
ATOM     16  C   UNL A   1      41.930  28.063  33.732  1.00  0.00     0.044 C 
ATOM     17  C   UNL A   1      40.489  28.446  33.528  1.00  0.00    -0.046 A 
ATOM     18  C   UNL A   1      39.697  27.649  32.686  1.00  0.00     0.004 A 
ATOM     19  C   UNL A   1      39.930  29.586  34.164  1.00  0.00    -0.025 A 
ATOM     20  C   UNL A   1      38.365  27.964  32.466  1.00  0.00     0.002 A 
ATOM     21  C   UNL A   1      40.756  30.343  35.173  1.00  0.00     0.047 C 
ATOM     22  C   UNL A   1      37.829  29.108  33.048  1.00  0.00     0.026 A 
ENDBRANCH  13  15
ENDBRANCH   8  13
ENDBRANCH   4   7
ENDBRANCH   2   3
ENDBRANCH   1   2
BRANCH   1  23
ATOM     23  C   UNL A   1      35.329  33.159  28.505  1.00  0.00     0.118 C 
BRANCH  23  24
ATOM     24  N   UNL A   1      34.455  32.180  27.855  1.00  0.00    -0.352 N 
ATOM     25  C   UNL A   1      34.644  30.855  27.511  1.00  0.00     0.251 C 
ATOM     26  H   UNL A   1      33.566  32.532  27.617  1.00  0.00     0.163 HD
ATOM     27  O   UNL A   1      33.783  30.259  26.881  1.00  0.00    -0.269 OA
BRANCH  25  28
ATOM     28  C   UNL A   1      35.907  30.165  27.864  1.00  0.00     0.039 A 
ATOM     29  C   UNL A   1      36.998  30.234  26.991  1.00  0.00     0.014 A 
ATOM     30  C   UNL A   1      36.028  29.479  29.067  1.00  0.00     0.014 A 
ATOM     31  C   UNL A   1      38.235  29.715  27.387  1.00  0.00     0.010 A 
ATOM     32  C   UNL A   1      37.283  29.103  29.520  1.00  0.00     0.010 A 
ATOM     33  C   UNL A   1      38.402  29.199  28.681  1.00  0.00    -0.014 A 
BRANCH  33  34
ATOM     34  C   UNL A   1      39.709  28.709  29.190  1.00  0.00     0.031 A 
ATOM     35  C   UNL A   1      40.582  29.638  29.995  1.00  0.00     0.074 A 
ATOM     36  C   UNL A   1      40.160  27.489  28.836  1.00  0.00     0.049 A 
ATOM     37  N   UNL A   1      41.822  29.484  30.379  1.00  0.00    -0.248 NA
ATOM     38  C   UNL A   1      39.998  30.940  30.365  1.00  0.00     0.031 C 
ATOM     39  C   UNL A   1      39.440  26.521  28.004  1.00  0.00     0.029 A 
ATOM     40  N   UNL A   1      41.348  26.862  29.117  1.00  0.00    -0.354 N 
ATOM     41  C   UNL A   1      42.175  30.683  30.991  1.00  0.00     0.074 A 
ATOM     42  C   UNL A   1      41.047  31.576  30.858  1.00  0.00     0.031 C 
ATOM     43  C   UNL A   1      40.188  25.414  27.867  1.00  0.00     0.029 A 
ATOM     44  C   UNL A   1      41.457  25.610  28.558  1.00  0.00     0.049 A 
ATOM     45  H   UNL A   1      42.056  27.270  29.666  1.00  0.00     0.167 HD
ATOM     46  C   UNL A   1      43.320  31.003  31.638  1.00  0.00     0.031 A 
ATOM     47  C   UNL A   1      42.470  24.721  28.594  1.00  0.00     0.031 A 
ATOM     48  C   UNL A   1      44.420  30.093  31.802  1.00  0.00     0.049 A 
ATOM     49  C   UNL A   1      43.716  25.073  29.359  1.00  0.00     0.074 A 
ATOM     50  C   UNL A   1      45.603  30.283  32.493  1.00  0.00     0.029 A 
ATOM     51  N   UNL A   1      44.461  28.807  31.281  1.00  0.00    -0.354 N 
ATOM     52  N   UNL A   1      44.013  26.192  29.977  1.00  0.00    -0.248 NA
ATOM     53  C   UNL A   1      44.754  24.037  29.450  1.00  0.00     0.031 C 
ATOM     54  C   UNL A   1      46.375  29.124  32.359  1.00  0.00     0.029 A 
ATOM     55  C   UNL A   1      45.650  28.193  31.630  1.00  0.00     0.049 A 
ATOM     56  H   UNL A   1      43.748  28.394  30.741  1.00  0.00     0.167 HD
ATOM     57  C   UNL A   1      45.263  25.988  30.550  1.00  0.00     0.074 A 
ATOM     58  C   UNL A   1      45.657  24.632  30.218  1.00  0.00     0.031 C 
ATOM     59  C   UNL A   1      46.017  26.842  31.286  1.00  0.00     0.031 A 
BRANCH  46  60
ATOM     60  C   UNL A   1      43.420  32.391  32.218  1.00  0.00    -0.014 A 
ATOM     61  C   UNL A   1      43.847  33.478  31.430  1.00  0.00     0.010 A 
ATOM     62  C   UNL A   1      43.100  32.614  33.569  1.00  0.00     0.010 A 
ATOM     63  C   UNL A   1      44.020  34.742  31.998  1.00  0.00     0.020 A 
ATOM     64  C   UNL A   1      43.237  33.887  34.132  1.00  0.00     0.020 A 
ATOM     65  C   UNL A   1      43.722  34.936  33.349  1.00  0.00     0.054 A 
BRANCH  65  66
ATOM     66  S   UNL A   1      43.963  36.586  34.062  1.00  0.00     0.124 S 
ATOM     67  O   UNL A   1      44.226  36.271  35.464  1.00  0.00    -0.237 OA
ATOM     68  O   UNL A   1      45.107  37.097  33.310  1.00  0.00    -0.237 OA
ATOM     69  O   UNL A   1      42.697  37.265  33.801  1.00  0.00    -0.744 OA
ENDBRANCH  65  66
ENDBRANCH  46  60
BRANCH  47  70
ATOM     70  C   UNL A   1      42.324  23.407  27.908  1.00  0.00    -0.014 A 
ATOM     71  C   UNL A   1      43.027  23.142  26.720  1.00  0.00     0.010 A 
ATOM     72  C   UNL A   1      41.521  22.395  28.466  1.00  0.00     0.010 A 
ATOM     73  C   UNL A   1      42.927  21.893  26.099  1.00  0.00     0.020 A 
ATOM     74  C   UNL A   1      41.438  21.137  27.863  1.00  0.00     0.020 A 
ATOM     75  C   UNL A   1      42.138  20.895  26.678  1.00  0.00     0.054 A 
BRANCH  75  76
ATOM     76  S   UNL A   1      42.087  19.256  25.899  1.00  0.00     0.124 S 
ATOM     77  O   UNL A   1      42.909  19.459  24.710  1.00  0.00    -0.237 OA
ATOM     78  O   UNL A   1      42.665  18.399  26.931  1.00  0.00    -0.237 OA
ATOM     79  O   UNL A   1      40.663  19.040  25.648  1.00  0.00    -0.744 OA
ENDBRANCH  75  76
ENDBRANCH  47  70
BRANCH  59  80
ATOM     80  C   UNL A   1      47.328  26.326  31.811  1.00  0.00    -0.014 A 
ATOM     81  C   UNL A   1      47.397  25.601  33.013  1.00  0.00     0.010 A 
ATOM     82  C   UNL A   1      48.499  26.521  31.055  1.00  0.00     0.010 A 
ATOM     83  C   UNL A   1      48.622  25.104  33.466  1.00  0.00     0.020 A 
ATOM     84  C   UNL A   1      49.720  26.002  31.491  1.00  0.00     0.020 A 
ATOM     85  C   UNL A   1      49.776  25.309  32.702  1.00  0.00     0.054 A 
BRANCH  85  86
ATOM     86  S   UNL A   1      51.345  24.618  33.290  1.00  0.00     0.124 S 
ATOM     87  O   UNL A   1      52.230  25.778  33.229  1.00  0.00    -0.237 OA
ATOM     88  O   UNL A   1      51.008  24.153  34.633  1.00  0.00    -0.237 OA
ATOM     89  O   UNL A   1      51.639  23.558  32.328  1.00  0.00    -0.744 OA
ENDBRANCH  85  86
ENDBRANCH  59  80
ENDBRANCH  33  34
ENDBRANCH  25  28
ENDBRANCH  23  24
ENDBRANCH   1  23
TORSDOF 15
ENDMDL
MODEL 3
REMARK VINA RESULT:     -11.1      2.476      3.018
REMARK SMILES Cc1cccc(Nc2ccccc2C(=O)NCCCNC(=O)c2ccc(-c3c4nc(c(-c5ccc(S(=O)(=O)[O-])cc5)c5ccc([nH]5)c(-c5ccc(S(=O)(=O)[O-])cc5)c5nc(c(-c6ccc(S(=O)(=O)[O-])cc6)c6ccc3[nH]6)C=C5)C=C4)cc2)c1C
REMARK SMILES IDX 18 1 17 2 16 3 14 4 15 5 13 7 8 8 9 9 10 10 12 11 11 12 7 13
REMARK SMILES IDX 6 15 1 16 2 17 3 18 83 19 4 20 84 21 5 22 19 23 20 24 21 25
REMARK SMILES IDX 22 27 23 28 24 29 82 30 25 31 81 32 26 33 27 34 28 35 75 36
REMARK SMILES IDX 29 37 80 38 74 39 76 40 30 41 79 42 73 43 72 44 31 46 61 47
REMARK SMILES IDX 42 48 60 49 43 50 46 51 59 52 77 53 44 54 45 55 58 57 78 58
REMARK SMILES IDX 47 59 32 60 33 61 41 62 34 63 40 64 35 65 36 66 37 67 38 68
REMARK SMILES IDX 39 69 62 70 63 71 71 72 64 73 70 74 65 75 66 76 67 77 68 78
REMARK SMILES IDX 69 79 48 80 49 81 57 82 50 83 56 84 51 85 52 86 53 87 54 88
REMARK SMILES IDX 55 89
REMARK H PARENT 16 6 7 14 20 26 76 45 46 56
REMARK Flexibility Score: inf
ROOT
ATOM      1  C   UNL A   1      32.339  27.798  26.696  1.00  0.00     0.042 C 
ENDROOT
BRANCH   1   2
ATOM      2  C   UNL A   1      32.341  26.332  26.334  1.00  0.00     0.118 C 
BRANCH   2   3
ATOM      3  N   UNL A   1      31.203  25.558  26.743  1.00  0.00    -0.352 N 
ATOM      4  C   UNL A   1      30.961  24.225  26.501  1.00  0.00     0.253 C 
ATOM      5  O   UNL A   1      30.102  23.679  27.199  1.00  0.00    -0.269 OA
ATOM      6  H   UNL A   1      30.513  26.037  27.257  1.00  0.00     0.163 HD
BRANCH   4   7
ATOM      7  C   UNL A   1      31.547  23.454  25.351  1.00  0.00     0.063 A 
ATOM      8  C   UNL A   1      31.356  23.604  23.959  1.00  0.00     0.051 A 
ATOM      9  C   UNL A   1      31.943  22.635  23.103  1.00  0.00     0.027 A 
ATOM     10  C   UNL A   1      32.751  21.603  23.577  1.00  0.00     0.002 A 
ATOM     11  C   UNL A   1      32.394  22.410  25.805  1.00  0.00     0.016 A 
ATOM     12  C   UNL A   1      32.999  21.504  24.932  1.00  0.00     0.001 A 
BRANCH   8  13
ATOM     13  N   UNL A   1      30.734  24.662  23.258  1.00  0.00    -0.355 N 
ATOM     14  H   UNL A   1      29.947  24.362  22.748  1.00  0.00     0.167 HD
BRANCH  13  15
ATOM     15  C   UNL A   1      30.968  26.046  23.113  1.00  0.00     0.042 A 
ATOM     16  C   UNL A   1      33.708  28.675  22.634  1.00  0.00     0.044 C 
ATOM     17  C   UNL A   1      32.380  28.022  22.909  1.00  0.00    -0.046 A 
ATOM     18  C   UNL A   1      31.316  28.828  23.343  1.00  0.00     0.004 A 
ATOM     19  C   UNL A   1      32.196  26.624  22.742  1.00  0.00    -0.025 A 
ATOM     20  C   UNL A   1      30.075  28.271  23.611  1.00  0.00     0.002 A 
ATOM     21  C   UNL A   1      33.307  25.803  22.141  1.00  0.00     0.047 C 
ATOM     22  C   UNL A   1      29.904  26.895  23.496  1.00  0.00     0.026 A 
ENDBRANCH  13  15
ENDBRANCH   8  13
ENDBRANCH   4   7
ENDBRANCH   2   3
ENDBRANCH   1   2
BRANCH   1  23
ATOM     23  C   UNL A   1      33.643  28.525  26.400  1.00  0.00     0.118 C 
BRANCH  23  24
ATOM     24  N   UNL A   1      33.647  29.948  26.748  1.00  0.00    -0.352 N 
ATOM     25  C   UNL A   1      34.532  30.720  27.476  1.00  0.00     0.251 C 
ATOM     26  H   UNL A   1      32.875  30.448  26.398  1.00  0.00     0.163 HD
ATOM     27  O   UNL A   1      34.270  31.889  27.713  1.00  0.00    -0.269 OA
BRANCH  25  28
ATOM     28  C   UNL A   1      35.779  30.122  28.010  1.00  0.00     0.039 A 
ATOM     29  C   UNL A   1      36.957  30.197  27.260  1.00  0.00     0.014 A 
ATOM     30  C   UNL A   1      35.795  29.518  29.262  1.00  0.00     0.014 A 
ATOM     31  C   UNL A   1      38.165  29.771  27.823  1.00  0.00     0.010 A 
ATOM     32  C   UNL A   1      37.007  29.238  29.874  1.00  0.00     0.010 A 
ATOM     33  C   UNL A   1      38.208  29.345  29.159  1.00  0.00    -0.014 A 
BRANCH  33  34
ATOM     34  C   UNL A   1      39.470  28.958  29.840  1.00  0.00     0.031 A 
ATOM     35  C   UNL A   1      39.940  29.754  31.031  1.00  0.00     0.074 A 
ATOM     36  C   UNL A   1      40.246  27.982  29.327  1.00  0.00     0.049 A 
ATOM     37  N   UNL A   1      41.086  29.710  31.659  1.00  0.00    -0.248 NA
ATOM     38  C   UNL A   1      39.015  30.781  31.546  1.00  0.00     0.031 C 
ATOM     39  C   UNL A   1      39.937  27.182  28.139  1.00  0.00     0.029 A 
ATOM     40  N   UNL A   1      41.469  27.510  29.732  1.00  0.00    -0.354 N 
ATOM     41  C   UNL A   1      41.034  30.728  32.605  1.00  0.00     0.074 A 
ATOM     42  C   UNL A   1      39.779  31.419  32.417  1.00  0.00     0.031 C 
ATOM     43  C   UNL A   1      40.930  26.301  27.929  1.00  0.00     0.029 A 
ATOM     44  C   UNL A   1      41.965  26.504  28.936  1.00  0.00     0.049 A 
ATOM     45  H   UNL A   1      41.948  27.859  30.518  1.00  0.00     0.167 HD
ATOM     46  C   UNL A   1      41.931  31.040  33.569  1.00  0.00     0.031 A 
ATOM     47  C   UNL A   1      43.128  25.826  29.005  1.00  0.00     0.031 A 
ATOM     48  C   UNL A   1      43.157  30.319  33.775  1.00  0.00     0.049 A 
ATOM     49  C   UNL A   1      44.092  26.151  30.112  1.00  0.00     0.074 A 
ATOM     50  C   UNL A   1      44.112  30.504  34.759  1.00  0.00     0.029 A 
ATOM     51  N   UNL A   1      43.588  29.260  32.990  1.00  0.00    -0.354 N 
ATOM     52  N   UNL A   1      44.003  27.083  31.032  1.00  0.00    -0.248 NA
ATOM     53  C   UNL A   1      45.301  25.322  30.205  1.00  0.00     0.031 C 
ATOM     54  C   UNL A   1      45.138  29.577  34.546  1.00  0.00     0.029 A 
ATOM     55  C   UNL A   1      44.796  28.781  33.462  1.00  0.00     0.049 A 
ATOM     56  H   UNL A   1      43.104  28.902  32.210  1.00  0.00     0.167 HD
ATOM     57  C   UNL A   1      45.134  26.939  31.828  1.00  0.00     0.074 A 
ATOM     58  C   UNL A   1      45.881  25.819  31.290  1.00  0.00     0.031 C 
ATOM     59  C   UNL A   1      45.520  27.664  32.907  1.00  0.00     0.031 A 
BRANCH  46  60
ATOM     60  C   UNL A   1      41.601  32.204  34.468  1.00  0.00    -0.014 A 
ATOM     61  C   UNL A   1      40.843  32.022  35.642  1.00  0.00     0.010 A 
ATOM     62  C   UNL A   1      42.035  33.499  34.133  1.00  0.00     0.010 A 
ATOM     63  C   UNL A   1      40.467  33.117  36.422  1.00  0.00     0.020 A 
ATOM     64  C   UNL A   1      41.692  34.594  34.933  1.00  0.00     0.020 A 
ATOM     65  C   UNL A   1      40.888  34.398  36.057  1.00  0.00     0.054 A 
BRANCH  65  66
ATOM     66  S   UNL A   1      40.378  35.804  37.084  1.00  0.00     0.124 S 
ATOM     67  O   UNL A   1      39.449  35.173  38.018  1.00  0.00    -0.237 OA
ATOM     68  O   UNL A   1      41.642  36.252  37.665  1.00  0.00    -0.237 OA
ATOM     69  O   UNL A   1      39.773  36.729  36.130  1.00  0.00    -0.744 OA
ENDBRANCH  65  66
ENDBRANCH  46  60
BRANCH  47  70
ATOM     70  C   UNL A   1      43.417  24.754  28.013  1.00  0.00    -0.014 A 
ATOM     71  C   UNL A   1      44.238  25.016  26.902  1.00  0.00     0.010 A 
ATOM     72  C   UNL A   1      42.916  23.452  28.199  1.00  0.00     0.010 A 
ATOM     73  C   UNL A   1      44.548  23.999  25.993  1.00  0.00     0.020 A 
ATOM     74  C   UNL A   1      43.245  22.427  27.307  1.00  0.00     0.020 A 
ATOM     75  C   UNL A   1      44.055  22.709  26.204  1.00  0.00     0.054 A 
BRANCH  75  76
ATOM     76  S   UNL A   1      44.538  21.387  25.058  1.00  0.00     0.124 S 
ATOM     77  O   UNL A   1      45.903  21.098  25.484  1.00  0.00    -0.237 OA
ATOM     78  O   UNL A   1      43.551  20.348  25.341  1.00  0.00    -0.237 OA
ATOM     79  O   UNL A   1      44.410  22.013  23.742  1.00  0.00    -0.744 OA
ENDBRANCH  75  76
ENDBRANCH  47  70
BRANCH  59  80
ATOM     80  C   UNL A   1      46.789  27.250  33.598  1.00  0.00    -0.014 A 
ATOM     81  C   UNL A   1      46.786  26.255  34.592  1.00  0.00     0.010 A 
ATOM     82  C   UNL A   1      48.010  27.824  33.201  1.00  0.00     0.010 A 
ATOM     83  C   UNL A   1      47.982  25.864  35.198  1.00  0.00     0.020 A 
ATOM     84  C   UNL A   1      49.211  27.416  33.786  1.00  0.00     0.020 A 
ATOM     85  C   UNL A   1      49.187  26.448  34.792  1.00  0.00     0.054 A 
BRANCH  85  86
ATOM     86  S   UNL A   1      50.730  25.892  35.565  1.00  0.00     0.124 S 
ATOM     87  O   UNL A   1      50.264  25.416  36.864  1.00  0.00    -0.237 OA
ATOM     88  O   UNL A   1      51.196  24.857  34.645  1.00  0.00    -0.237 OA
ATOM     89  O   UNL A   1      51.553  27.099  35.601  1.00  0.00    -0.744 OA
ENDBRANCH  85  86
ENDBRANCH  59  80
ENDBRANCH  33  34
ENDBRANCH  25  28
ENDBRANCH  23  24
ENDBRANCH   1  23
TORSDOF 15
ENDMDL
