MODEL 1
REMARK VINA RESULT:     -11.7      0.000      0.000
REMARK SMILES O=C(NCCCNC(=O)[C@H]1SC=C[C@@H]1S(=O)(=O)NCCC1=c2ccccc2=NC1)c1ccc(-c2c3nc(c(-c4ccc(S(=O)(=O)[O-])cc4)c4ccc([nH]4)c(-c4ccc(S(=O)(=O)[O-])cc4)c4nc(c(-c5ccc(S(=O)(=O)[O-])cc5)c5ccc2[nH]5)C=C4)C=C3)cc1
REMARK SMILES IDX 6 1 5 2 4 3 3 4 1 5 2 6 30 8 31 9 89 10 32 11 88 12 33 13
REMARK SMILES IDX 34 14 35 15 82 16 36 17 87 18 81 19 83 20 37 21 86 22 80 23
REMARK SMILES IDX 79 24 38 26 68 27 49 28 67 29 50 30 53 31 66 32 84 33 51 34
REMARK SMILES IDX 52 35 65 37 85 38 54 39 39 40 40 41 48 42 41 43 47 44 42 45
REMARK SMILES IDX 43 46 44 47 45 48 46 49 69 50 70 51 78 52 71 53 77 54 72 55
REMARK SMILES IDX 73 56 74 57 75 58 76 59 55 60 56 61 64 62 57 63 63 64 58 65
REMARK SMILES IDX 59 66 60 67 61 68 62 69 7 70 8 71 9 73 10 74 11 75 14 76
REMARK SMILES IDX 12 77 13 78 15 79 16 80 17 81 18 82 19 84 20 85 21 86 22 87
REMARK SMILES IDX 29 88 23 89 27 90 28 91 24 92 26 93 25 94
REMARK H PARENT 3 7 83 25 53 36 7 72 18 83
REMARK Flexibility Score: inf
ROOT
ATOM      1  C   UNL A   1      33.346  30.219  27.186  1.00  0.00     0.117 C 
ENDROOT
BRANCH   1   2
ATOM      2  C   UNL A   1      34.817  29.919  27.425  1.00  0.00     0.042 C 
BRANCH   2   3
ATOM      3  C   UNL A   1      35.538  31.065  28.113  1.00  0.00     0.118 C 
BRANCH   3   4
ATOM      4  N   UNL A   1      35.497  30.923  29.563  1.00  0.00    -0.352 N 
ATOM      5  O   UNL A   1      36.046  30.015  31.539  1.00  0.00    -0.269 OA
ATOM      6  C   UNL A   1      36.412  30.369  30.422  1.00  0.00     0.251 C 
ATOM      7  H   UNL A   1      34.687  31.280  29.993  1.00  0.00     0.163 HD
BRANCH   6   8
ATOM      8  C   UNL A   1      37.829  30.233  30.024  1.00  0.00     0.039 A 
ATOM      9  C   UNL A   1      38.151  30.088  28.670  1.00  0.00     0.014 A 
ATOM     10  C   UNL A   1      38.830  30.129  30.992  1.00  0.00     0.014 A 
ATOM     11  C   UNL A   1      39.472  29.833  28.294  1.00  0.00     0.010 A 
ATOM     12  C   UNL A   1      40.156  29.985  30.613  1.00  0.00     0.010 A 
ATOM     13  C   UNL A   1      40.481  29.774  29.266  1.00  0.00    -0.014 A 
BRANCH  13  14
ATOM     14  C   UNL A   1      41.862  29.341  28.950  1.00  0.00     0.031 A 
ATOM     15  C   UNL A   1      42.952  30.383  28.941  1.00  0.00     0.074 A 
ATOM     16  C   UNL A   1      42.126  28.066  28.613  1.00  0.00     0.049 A 
ATOM     17  N   UNL A   1      44.180  30.284  28.509  1.00  0.00    -0.248 NA
ATOM     18  C   UNL A   1      42.606  31.723  29.454  1.00  0.00     0.031 C 
ATOM     19  C   UNL A   1      41.151  26.976  28.602  1.00  0.00     0.029 A 
ATOM     20  N   UNL A   1      43.295  27.474  28.200  1.00  0.00    -0.354 N 
ATOM     21  C   UNL A   1      44.738  31.546  28.672  1.00  0.00     0.074 A 
ATOM     22  C   UNL A   1      43.707  32.412  29.191  1.00  0.00     0.031 C 
ATOM     23  C   UNL A   1      41.764  25.846  28.211  1.00  0.00     0.029 A 
ATOM     24  C   UNL A   1      43.158  26.142  27.885  1.00  0.00     0.049 A 
ATOM     25  H   UNL A   1      44.150  27.958  28.135  1.00  0.00     0.167 HD
ATOM     26  C   UNL A   1      46.009  31.937  28.439  1.00  0.00     0.031 A 
ATOM     27  C   UNL A   1      44.046  25.266  27.369  1.00  0.00     0.031 A 
ATOM     28  C   UNL A   1      47.041  31.046  27.985  1.00  0.00     0.049 A 
ATOM     29  C   UNL A   1      45.452  25.734  27.093  1.00  0.00     0.074 A 
ATOM     30  C   UNL A   1      48.376  31.334  27.772  1.00  0.00     0.029 A 
ATOM     31  N   UNL A   1      46.863  29.702  27.698  1.00  0.00    -0.354 N 
ATOM     32  N   UNL A   1      45.973  26.922  27.284  1.00  0.00    -0.248 NA
ATOM     33  C   UNL A   1      46.395  24.749  26.541  1.00  0.00     0.031 C 
ATOM     34  C   UNL A   1      48.990  30.183  27.282  1.00  0.00     0.029 A 
ATOM     35  C   UNL A   1      48.061  29.154  27.281  1.00  0.00     0.049 A 
ATOM     36  H   UNL A   1      46.014  29.212  27.780  1.00  0.00     0.167 HD
ATOM     37  C   UNL A   1      47.308  26.820  26.907  1.00  0.00     0.074 A 
ATOM     38  C   UNL A   1      47.520  25.452  26.487  1.00  0.00     0.031 C 
ATOM     39  C   UNL A   1      48.266  27.776  26.904  1.00  0.00     0.031 A 
BRANCH  26  40
ATOM     40  C   UNL A   1      46.399  33.366  28.705  1.00  0.00    -0.014 A 
ATOM     41  C   UNL A   1      46.777  33.752  30.006  1.00  0.00     0.010 A 
ATOM     42  C   UNL A   1      46.205  34.357  27.726  1.00  0.00     0.010 A 
ATOM     43  C   UNL A   1      46.881  35.102  30.342  1.00  0.00     0.020 A 
ATOM     44  C   UNL A   1      46.343  35.709  28.050  1.00  0.00     0.020 A 
ATOM     45  C   UNL A   1      46.641  36.072  29.366  1.00  0.00     0.054 A 
BRANCH  45  46
ATOM     46  S   UNL A   1      46.669  37.820  29.849  1.00  0.00     0.124 S 
ATOM     47  O   UNL A   1      46.099  38.473  28.676  1.00  0.00    -0.237 OA
ATOM     48  O   UNL A   1      45.834  37.830  31.048  1.00  0.00    -0.237 OA
ATOM     49  O   UNL A   1      48.087  38.089  30.086  1.00  0.00    -0.744 OA
ENDBRANCH  45  46
ENDBRANCH  26  40
BRANCH  27  50
ATOM     50  C   UNL A   1      43.618  23.865  27.093  1.00  0.00    -0.014 A 
ATOM     51  C   UNL A   1      43.236  23.479  25.794  1.00  0.00     0.010 A 
ATOM     52  C   UNL A   1      43.526  22.923  28.133  1.00  0.00     0.010 A 
ATOM     53  C   UNL A   1      42.723  22.202  25.550  1.00  0.00     0.020 A 
ATOM     54  C   UNL A   1      43.050  21.631  27.887  1.00  0.00     0.020 A 
ATOM     55  C   UNL A   1      42.624  21.289  26.601  1.00  0.00     0.054 A 
BRANCH  55  56
ATOM     56  S   UNL A   1      41.923  19.650  26.265  1.00  0.00     0.124 S 
ATOM     57  O   UNL A   1      42.630  19.268  25.045  1.00  0.00    -0.237 OA
ATOM     58  O   UNL A   1      42.284  18.897  27.462  1.00  0.00    -0.237 OA
ATOM     59  O   UNL A   1      40.495  19.914  26.104  1.00  0.00    -0.744 OA
ENDBRANCH  55  56
ENDBRANCH  27  50
BRANCH  39  60
ATOM     60  C   UNL A   1      49.662  27.418  26.463  1.00  0.00    -0.014 A 
ATOM     61  C   UNL A   1      49.947  27.339  25.085  1.00  0.00     0.010 A 
ATOM     62  C   UNL A   1      50.598  26.930  27.388  1.00  0.00     0.010 A 
ATOM     63  C   UNL A   1      51.106  26.701  24.638  1.00  0.00     0.020 A 
ATOM     64  C   UNL A   1      51.777  26.323  26.944  1.00  0.00     0.020 A 
ATOM     65  C   UNL A   1      52.001  26.176  25.573  1.00  0.00     0.054 A 
BRANCH  65  66
ATOM     66  S   UNL A   1      53.434  25.239  24.972  1.00  0.00     0.124 S 
ATOM     67  O   UNL A   1      54.535  25.855  25.706  1.00  0.00    -0.237 OA
ATOM     68  O   UNL A   1      53.104  23.870  25.361  1.00  0.00    -0.237 OA
ATOM     69  O   UNL A   1      53.428  25.488  23.532  1.00  0.00    -0.744 OA
ENDBRANCH  65  66
ENDBRANCH  39  60
ENDBRANCH  13  14
ENDBRANCH   6   8
ENDBRANCH   3   4
ENDBRANCH   2   3
ENDBRANCH   1   2
BRANCH   1  70
ATOM     70  N   UNL A   1      32.505  29.085  27.531  1.00  0.00    -0.355 N 
ATOM     71  C   UNL A   1      31.726  28.233  26.831  1.00  0.00     0.235 C 
ATOM     72  H   UNL A   1      32.503  28.894  28.498  1.00  0.00     0.163 HD
ATOM     73  O   UNL A   1      31.070  27.444  27.532  1.00  0.00    -0.274 OA
BRANCH  71  74
ATOM     74  C   UNL A   1      31.540  28.163  25.317  1.00  0.00     0.163 C 
ATOM     75  S   UNL A   1      32.726  29.046  24.258  1.00  0.00    -0.119 SA
ATOM     76  C   UNL A   1      31.704  26.692  24.912  1.00  0.00     0.170 C 
ATOM     77  C   UNL A   1      33.765  27.676  24.147  1.00  0.00     0.038 C 
ATOM     78  C   UNL A   1      33.154  26.538  24.487  1.00  0.00     0.002 C 
BRANCH  76  79
ATOM     79  S   UNL A   1      30.662  26.236  23.501  1.00  0.00     0.219 S 
ATOM     80  O   UNL A   1      29.474  27.059  23.449  1.00  0.00    -0.212 OA
ATOM     81  O   UNL A   1      31.506  26.122  22.330  1.00  0.00    -0.212 OA
BRANCH  79  82
ATOM     82  N   UNL A   1      30.168  24.670  23.785  1.00  0.00    -0.214 NA
ATOM     83  H   UNL A   1      29.864  24.316  22.879  1.00  0.00     0.141 HD
BRANCH  82  84
ATOM     84  C   UNL A   1      30.997  23.604  24.359  1.00  0.00     0.103 C 
BRANCH  84  85
ATOM     85  C   UNL A   1      31.939  22.866  23.401  1.00  0.00     0.050 C 
BRANCH  85  86
ATOM     86  C   UNL A   1      32.947  21.969  24.044  1.00  0.00    -0.038 C 
ATOM     87  C   UNL A   1      34.272  22.083  24.009  1.00  0.00     0.001 A 
ATOM     88  C   UNL A   1      32.543  20.838  24.944  1.00  0.00     0.174 C 
ATOM     89  C   UNL A   1      35.198  22.985  23.404  1.00  0.00     0.010 A 
ATOM     90  C   UNL A   1      34.721  20.965  24.854  1.00  0.00     0.065 A 
ATOM     91  N   UNL A   1      33.814  20.211  25.393  1.00  0.00    -0.280 NA
ATOM     92  C   UNL A   1      36.512  22.786  23.598  1.00  0.00     0.001 A 
ATOM     93  C   UNL A   1      36.181  20.798  25.005  1.00  0.00     0.028 A 
ATOM     94  C   UNL A   1      37.001  21.674  24.397  1.00  0.00     0.002 A 
ENDBRANCH  85  86
ENDBRANCH  84  85
ENDBRANCH  82  84
ENDBRANCH  79  82
ENDBRANCH  76  79
ENDBRANCH  71  74
ENDBRANCH   1  70
TORSDOF 18
ENDMDL
MODEL 2
REMARK VINA RESULT:     -11.5      6.362     11.072
REMARK SMILES O=C(NCCCNC(=O)[C@H]1SC=C[C@@H]1S(=O)(=O)NCCC1=c2ccccc2=NC1)c1ccc(-c2c3nc(c(-c4ccc(S(=O)(=O)[O-])cc4)c4ccc([nH]4)c(-c4ccc(S(=O)(=O)[O-])cc4)c4nc(c(-c5ccc(S(=O)(=O)[O-])cc5)c5ccc2[nH]5)C=C4)C=C3)cc1
REMARK SMILES IDX 6 1 5 2 4 3 3 4 1 5 2 6 30 8 31 9 89 10 32 11 88 12 33 13
REMARK SMILES IDX 34 14 35 15 82 16 36 17 87 18 81 19 83 20 37 21 86 22 80 23
REMARK SMILES IDX 79 24 38 26 68 27 49 28 67 29 50 30 53 31 66 32 84 33 51 34
REMARK SMILES IDX 52 35 65 37 85 38 54 39 39 40 40 41 48 42 41 43 47 44 42 45
REMARK SMILES IDX 43 46 44 47 45 48 46 49 69 50 70 51 78 52 71 53 77 54 72 55
REMARK SMILES IDX 73 56 74 57 75 58 76 59 55 60 56 61 64 62 57 63 63 64 58 65
REMARK SMILES IDX 59 66 60 67 61 68 62 69 7 70 8 71 9 73 10 74 11 75 14 76
REMARK SMILES IDX 12 77 13 78 15 79 16 80 17 81 18 82 19 84 20 85 21 86 22 87
REMARK SMILES IDX 29 88 23 89 27 90 28 91 24 92 26 93 25 94
REMARK H PARENT 3 7 83 25 53 36 7 72 18 83
REMARK Flexibility Score: inf
ROOT
ATOM      1  C   UNL A   1      37.031  23.218  24.917  1.00  0.00     0.117 C 
ENDROOT
BRANCH   1   2
ATOM      2  C   UNL A   1      38.017  23.009  26.054  1.00  0.00     0.042 C 
BRANCH   2   3
ATOM      3  C   UNL A   1      38.484  24.319  26.665  1.00  0.00     0.118 C 
BRANCH   3   4
ATOM      4  N   UNL A   1      39.735  24.767  26.067  1.00  0.00    -0.352 N 
ATOM      5  O   UNL A   1      41.245  26.281  25.392  1.00  0.00    -0.269 OA
ATOM      6  C   UNL A   1      40.426  25.939  26.240  1.00  0.00     0.251 C 
ATOM      7  H   UNL A   1      40.148  24.129  25.442  1.00  0.00     0.163 HD
BRANCH   6   8
ATOM      8  C   UNL A   1      40.218  26.763  27.450  1.00  0.00     0.039 A 
ATOM      9  C   UNL A   1      40.652  28.093  27.457  1.00  0.00     0.014 A 
ATOM     10  C   UNL A   1      39.704  26.192  28.616  1.00  0.00     0.014 A 
ATOM     11  C   UNL A   1      40.575  28.842  28.633  1.00  0.00     0.010 A 
ATOM     12  C   UNL A   1      39.526  26.967  29.752  1.00  0.00     0.010 A 
ATOM     13  C   UNL A   1      40.017  28.280  29.790  1.00  0.00    -0.014 A 
BRANCH  13  14
ATOM     14  C   UNL A   1      40.063  28.961  31.104  1.00  0.00     0.031 A 
ATOM     15  C   UNL A   1      39.005  29.991  31.412  1.00  0.00     0.074 A 
ATOM     16  C   UNL A   1      41.059  28.717  31.974  1.00  0.00     0.049 A 
ATOM     17  N   UNL A   1      38.952  30.846  32.397  1.00  0.00    -0.248 NA
ATOM     18  C   UNL A   1      37.875  30.098  30.468  1.00  0.00     0.031 C 
ATOM     19  C   UNL A   1      42.125  27.734  31.785  1.00  0.00     0.029 A 
ATOM     20  N   UNL A   1      41.346  29.292  33.189  1.00  0.00    -0.354 N 
ATOM     21  C   UNL A   1      37.807  31.602  32.176  1.00  0.00     0.074 A 
ATOM     22  C   UNL A   1      37.220  31.149  30.939  1.00  0.00     0.031 C 
ATOM     23  C   UNL A   1      42.944  27.767  32.849  1.00  0.00     0.029 A 
ATOM     24  C   UNL A   1      42.499  28.814  33.767  1.00  0.00     0.049 A 
ATOM     25  H   UNL A   1      40.780  29.981  33.605  1.00  0.00     0.167 HD
ATOM     26  C   UNL A   1      37.278  32.569  32.956  1.00  0.00     0.031 A 
ATOM     27  C   UNL A   1      43.139  29.193  34.893  1.00  0.00     0.031 A 
ATOM     28  C   UNL A   1      37.839  32.963  34.219  1.00  0.00     0.049 A 
ATOM     29  C   UNL A   1      42.541  30.292  35.734  1.00  0.00     0.074 A 
ATOM     30  C   UNL A   1      37.345  33.895  35.112  1.00  0.00     0.029 A 
ATOM     31  N   UNL A   1      38.995  32.439  34.775  1.00  0.00    -0.354 N 
ATOM     32  N   UNL A   1      41.440  30.974  35.528  1.00  0.00    -0.248 NA
ATOM     33  C   UNL A   1      43.260  30.671  36.960  1.00  0.00     0.031 C 
ATOM     34  C   UNL A   1      38.243  33.991  36.173  1.00  0.00     0.029 A 
ATOM     35  C   UNL A   1      39.246  33.051  35.988  1.00  0.00     0.049 A 
ATOM     36  H   UNL A   1      39.552  31.737  34.369  1.00  0.00     0.167 HD
ATOM     37  C   UNL A   1      41.318  31.838  36.611  1.00  0.00     0.074 A 
ATOM     38  C   UNL A   1      42.449  31.587  37.477  1.00  0.00     0.031 C 
ATOM     39  C   UNL A   1      40.357  32.760  36.860  1.00  0.00     0.031 A 
BRANCH  26  40
ATOM     40  C   UNL A   1      36.008  33.250  32.522  1.00  0.00    -0.014 A 
ATOM     41  C   UNL A   1      36.070  34.309  31.596  1.00  0.00     0.010 A 
ATOM     42  C   UNL A   1      34.790  32.976  33.169  1.00  0.00     0.010 A 
ATOM     43  C   UNL A   1      34.960  35.128  31.381  1.00  0.00     0.020 A 
ATOM     44  C   UNL A   1      33.667  33.772  32.930  1.00  0.00     0.020 A 
ATOM     45  C   UNL A   1      33.772  34.866  32.067  1.00  0.00     0.054 A 
BRANCH  45  46
ATOM     46  S   UNL A   1      32.379  36.008  31.860  1.00  0.00     0.124 S 
ATOM     47  O   UNL A   1      32.233  36.058  30.409  1.00  0.00    -0.237 OA
ATOM     48  O   UNL A   1      31.304  35.330  32.581  1.00  0.00    -0.237 OA
ATOM     49  O   UNL A   1      32.851  37.244  32.483  1.00  0.00    -0.744 OA
ENDBRANCH  45  46
ENDBRANCH  26  40
BRANCH  27  50
ATOM     50  C   UNL A   1      44.409  28.514  35.279  1.00  0.00    -0.014 A 
ATOM     51  C   UNL A   1      45.628  28.889  34.681  1.00  0.00     0.010 A 
ATOM     52  C   UNL A   1      44.404  27.447  36.195  1.00  0.00     0.010 A 
ATOM     53  C   UNL A   1      46.802  28.181  34.950  1.00  0.00     0.020 A 
ATOM     54  C   UNL A   1      45.585  26.760  36.498  1.00  0.00     0.020 A 
ATOM     55  C   UNL A   1      46.771  27.114  35.850  1.00  0.00     0.054 A 
BRANCH  55  56
ATOM     56  S   UNL A   1      48.302  26.190  36.155  1.00  0.00     0.124 S 
ATOM     57  O   UNL A   1      48.453  26.331  37.600  1.00  0.00    -0.237 OA
ATOM     58  O   UNL A   1      47.964  24.849  35.686  1.00  0.00    -0.237 OA
ATOM     59  O   UNL A   1      49.295  26.897  35.350  1.00  0.00    -0.744 OA
ENDBRANCH  55  56
ENDBRANCH  27  50
BRANCH  39  60
ATOM     60  C   UNL A   1      40.430  33.576  38.125  1.00  0.00    -0.014 A 
ATOM     61  C   UNL A   1      41.222  34.742  38.145  1.00  0.00     0.010 A 
ATOM     62  C   UNL A   1      39.928  33.065  39.332  1.00  0.00     0.010 A 
ATOM     63  C   UNL A   1      41.579  35.333  39.358  1.00  0.00     0.020 A 
ATOM     64  C   UNL A   1      40.255  33.676  40.546  1.00  0.00     0.020 A 
ATOM     65  C   UNL A   1      41.112  34.780  40.552  1.00  0.00     0.054 A 
BRANCH  65  66
ATOM     66  S   UNL A   1      41.692  35.484  42.121  1.00  0.00     0.124 S 
ATOM     67  O   UNL A   1      42.154  34.299  42.838  1.00  0.00    -0.237 OA
ATOM     68  O   UNL A   1      42.738  36.408  41.688  1.00  0.00    -0.237 OA
ATOM     69  O   UNL A   1      40.498  36.121  42.674  1.00  0.00    -0.744 OA
ENDBRANCH  65  66
ENDBRANCH  39  60
ENDBRANCH  13  14
ENDBRANCH   6   8
ENDBRANCH   3   4
ENDBRANCH   2   3
ENDBRANCH   1   2
BRANCH   1  70
ATOM     70  N   UNL A   1      36.082  24.277  25.218  1.00  0.00    -0.355 N 
ATOM     71  C   UNL A   1      34.747  24.327  25.415  1.00  0.00     0.235 C 
ATOM     72  H   UNL A   1      36.511  25.160  25.297  1.00  0.00     0.163 HD
ATOM     73  O   UNL A   1      34.292  25.476  25.548  1.00  0.00    -0.274 OA
BRANCH  71  74
ATOM     74  C   UNL A   1      33.761  23.162  25.449  1.00  0.00     0.163 C 
ATOM     75  S   UNL A   1      34.405  21.493  25.776  1.00  0.00    -0.119 SA
ATOM     76  C   UNL A   1      32.798  23.424  26.616  1.00  0.00     0.170 C 
ATOM     77  C   UNL A   1      34.195  21.661  27.478  1.00  0.00     0.038 C 
ATOM     78  C   UNL A   1      33.361  22.654  27.798  1.00  0.00     0.002 C 
BRANCH  76  79
ATOM     79  S   UNL A   1      31.127  22.803  26.295  1.00  0.00     0.219 S 
ATOM     80  O   UNL A   1      31.170  21.484  25.702  1.00  0.00    -0.212 OA
ATOM     81  O   UNL A   1      30.322  23.031  27.476  1.00  0.00    -0.212 OA
BRANCH  79  82
ATOM     82  N   UNL A   1      30.466  23.834  25.164  1.00  0.00    -0.214 NA
ATOM     83  H   UNL A   1      30.803  24.762  25.418  1.00  0.00     0.141 HD
BRANCH  82  84
ATOM     84  C   UNL A   1      30.649  23.740  23.712  1.00  0.00     0.103 C 
BRANCH  84  85
ATOM     85  C   UNL A   1      30.442  25.024  22.901  1.00  0.00     0.050 C 
BRANCH  85  86
ATOM     86  C   UNL A   1      31.669  25.840  22.650  1.00  0.00    -0.038 C 
ATOM     87  C   UNL A   1      32.069  26.925  23.308  1.00  0.00     0.001 A 
ATOM     88  C   UNL A   1      32.699  25.432  21.638  1.00  0.00     0.174 C 
ATOM     89  C   UNL A   1      31.559  27.701  24.392  1.00  0.00     0.010 A 
ATOM     90  C   UNL A   1      33.349  27.249  22.659  1.00  0.00     0.065 A 
ATOM     91  N   UNL A   1      33.757  26.474  21.703  1.00  0.00    -0.280 NA
ATOM     92  C   UNL A   1      32.263  28.766  24.809  1.00  0.00     0.001 A 
ATOM     93  C   UNL A   1      34.056  28.446  23.159  1.00  0.00     0.028 A 
ATOM     94  C   UNL A   1      33.516  29.143  24.174  1.00  0.00     0.002 A 
ENDBRANCH  85  86
ENDBRANCH  84  85
ENDBRANCH  82  84
ENDBRANCH  79  82
ENDBRANCH  76  79
ENDBRANCH  71  74
ENDBRANCH   1  70
TORSDOF 18
ENDMDL
MODEL 3
REMARK VINA RESULT:     -11.4      0.874      8.111
REMARK SMILES O=C(NCCCNC(=O)[C@H]1SC=C[C@@H]1S(=O)(=O)NCCC1=c2ccccc2=NC1)c1ccc(-c2c3nc(c(-c4ccc(S(=O)(=O)[O-])cc4)c4ccc([nH]4)c(-c4ccc(S(=O)(=O)[O-])cc4)c4nc(c(-c5ccc(S(=O)(=O)[O-])cc5)c5ccc2[nH]5)C=C4)C=C3)cc1
REMARK SMILES IDX 6 1 5 2 4 3 3 4 1 5 2 6 30 8 31 9 89 10 32 11 88 12 33 13
REMARK SMILES IDX 34 14 35 15 82 16 36 17 87 18 81 19 83 20 37 21 86 22 80 23
REMARK SMILES IDX 79 24 38 26 68 27 49 28 67 29 50 30 53 31 66 32 84 33 51 34
REMARK SMILES IDX 52 35 65 37 85 38 54 39 39 40 40 41 48 42 41 43 47 44 42 45
REMARK SMILES IDX 43 46 44 47 45 48 46 49 69 50 70 51 78 52 71 53 77 54 72 55
REMARK SMILES IDX 73 56 74 57 75 58 76 59 55 60 56 61 64 62 57 63 63 64 58 65
REMARK SMILES IDX 59 66 60 67 61 68 62 69 7 70 8 71 9 73 10 74 11 75 14 76
REMARK SMILES IDX 12 77 13 78 15 79 16 80 17 81 18 82 19 84 20 85 21 86 22 87
REMARK SMILES IDX 29 88 23 89 27 90 28 91 24 92 26 93 25 94
REMARK H PARENT 3 7 83 25 53 36 7 72 18 83
REMARK Flexibility Score: inf
ROOT
ATOM      1  C   UNL A   1      33.405  30.148  27.287  1.00  0.00     0.117 C 
ENDROOT
BRANCH   1   2
ATOM      2  C   UNL A   1      34.854  29.818  27.608  1.00  0.00     0.042 C 
BRANCH   2   3
ATOM      3  C   UNL A   1      35.616  31.018  28.142  1.00  0.00     0.118 C 
BRANCH   3   4
ATOM      4  N   UNL A   1      35.727  30.972  29.594  1.00  0.00    -0.352 N 
ATOM      5  O   UNL A   1      36.261  30.057  31.571  1.00  0.00    -0.269 OA
ATOM      6  C   UNL A   1      36.561  30.233  30.393  1.00  0.00     0.251 C 
ATOM      7  H   UNL A   1      35.106  31.565  30.077  1.00  0.00     0.163 HD
BRANCH   6   8
ATOM      8  C   UNL A   1      37.825  29.685  29.857  1.00  0.00     0.039 A 
ATOM      9  C   UNL A   1      38.765  29.141  30.738  1.00  0.00     0.014 A 
ATOM     10  C   UNL A   1      38.134  29.813  28.501  1.00  0.00     0.014 A 
ATOM     11  C   UNL A   1      40.013  28.734  30.258  1.00  0.00     0.010 A 
ATOM     12  C   UNL A   1      39.329  29.310  28.007  1.00  0.00     0.010 A 
ATOM     13  C   UNL A   1      40.303  28.824  28.889  1.00  0.00    -0.014 A 
BRANCH  13  14
ATOM     14  C   UNL A   1      41.658  28.571  28.349  1.00  0.00     0.031 A 
ATOM     15  C   UNL A   1      41.990  27.178  27.877  1.00  0.00     0.074 A 
ATOM     16  C   UNL A   1      42.591  29.541  28.340  1.00  0.00     0.049 A 
ATOM     17  N   UNL A   1      43.150  26.674  27.552  1.00  0.00    -0.248 NA
ATOM     18  C   UNL A   1      40.876  26.213  27.791  1.00  0.00     0.031 C 
ATOM     19  C   UNL A   1      42.375  30.925  28.760  1.00  0.00     0.029 A 
ATOM     20  N   UNL A   1      43.915  29.504  27.976  1.00  0.00    -0.354 N 
ATOM     21  C   UNL A   1      42.909  25.339  27.254  1.00  0.00     0.074 A 
ATOM     22  C   UNL A   1      41.507  25.089  27.484  1.00  0.00     0.031 C 
ATOM     23  C   UNL A   1      43.523  31.607  28.622  1.00  0.00     0.029 A 
ATOM     24  C   UNL A   1      44.572  30.698  28.163  1.00  0.00     0.049 A 
ATOM     25  H   UNL A   1      44.353  28.699  27.618  1.00  0.00     0.167 HD
ATOM     26  C   UNL A   1      43.778  24.412  26.796  1.00  0.00     0.031 A 
ATOM     27  C   UNL A   1      45.874  31.018  28.008  1.00  0.00     0.031 A 
ATOM     28  C   UNL A   1      45.157  24.694  26.508  1.00  0.00     0.049 A 
ATOM     29  C   UNL A   1      46.829  29.959  27.520  1.00  0.00     0.074 A 
ATOM     30  C   UNL A   1      46.107  23.835  25.987  1.00  0.00     0.029 A 
ATOM     31  N   UNL A   1      45.775  25.921  26.692  1.00  0.00    -0.354 N 
ATOM     32  N   UNL A   1      46.579  28.710  27.210  1.00  0.00    -0.248 NA
ATOM     33  C   UNL A   1      48.238  30.346  27.352  1.00  0.00     0.031 C 
ATOM     34  C   UNL A   1      47.319  24.521  25.928  1.00  0.00     0.029 A 
ATOM     35  C   UNL A   1      47.102  25.832  26.322  1.00  0.00     0.049 A 
ATOM     36  H   UNL A   1      45.334  26.732  27.034  1.00  0.00     0.167 HD
ATOM     37  C   UNL A   1      47.788  28.172  26.782  1.00  0.00     0.074 A 
ATOM     38  C   UNL A   1      48.769  29.232  26.861  1.00  0.00     0.031 C 
ATOM     39  C   UNL A   1      48.059  26.911  26.367  1.00  0.00     0.031 A 
BRANCH  26  40
ATOM     40  C   UNL A   1      43.287  23.016  26.523  1.00  0.00    -0.014 A 
ATOM     41  C   UNL A   1      42.633  22.298  27.543  1.00  0.00     0.010 A 
ATOM     42  C   UNL A   1      43.640  22.351  25.335  1.00  0.00     0.010 A 
ATOM     43  C   UNL A   1      42.410  20.926  27.412  1.00  0.00     0.020 A 
ATOM     44  C   UNL A   1      43.386  20.985  25.186  1.00  0.00     0.020 A 
ATOM     45  C   UNL A   1      42.808  20.275  26.242  1.00  0.00     0.054 A 
BRANCH  45  46
ATOM     46  S   UNL A   1      42.613  18.476  26.138  1.00  0.00     0.124 S 
ATOM     47  O   UNL A   1      43.585  18.119  25.110  1.00  0.00    -0.237 OA
ATOM     48  O   UNL A   1      42.939  18.043  27.494  1.00  0.00    -0.237 OA
ATOM     49  O   UNL A   1      41.212  18.303  25.759  1.00  0.00    -0.744 OA
ENDBRANCH  45  46
ENDBRANCH  26  40
BRANCH  27  50
ATOM     50  C   UNL A   1      46.330  32.404  28.313  1.00  0.00    -0.014 A 
ATOM     51  C   UNL A   1      46.741  32.748  29.616  1.00  0.00     0.010 A 
ATOM     52  C   UNL A   1      46.298  33.405  27.326  1.00  0.00     0.010 A 
ATOM     53  C   UNL A   1      47.059  34.071  29.938  1.00  0.00     0.020 A 
ATOM     54  C   UNL A   1      46.653  34.724  27.634  1.00  0.00     0.020 A 
ATOM     55  C   UNL A   1      47.002  35.052  28.946  1.00  0.00     0.054 A 
BRANCH  55  56
ATOM     56  S   UNL A   1      47.386  36.766  29.399  1.00  0.00     0.124 S 
ATOM     57  O   UNL A   1      46.814  36.856  30.740  1.00  0.00    -0.237 OA
ATOM     58  O   UNL A   1      48.844  36.793  29.335  1.00  0.00    -0.237 OA
ATOM     59  O   UNL A   1      46.705  37.553  28.374  1.00  0.00    -0.744 OA
ENDBRANCH  55  56
ENDBRANCH  27  50
BRANCH  39  60
ATOM     60  C   UNL A   1      49.459  26.566  25.930  1.00  0.00    -0.014 A 
ATOM     61  C   UNL A   1      50.391  26.128  26.893  1.00  0.00     0.010 A 
ATOM     62  C   UNL A   1      49.908  26.905  24.643  1.00  0.00     0.010 A 
ATOM     63  C   UNL A   1      51.756  26.117  26.601  1.00  0.00     0.020 A 
ATOM     64  C   UNL A   1      51.271  26.860  24.338  1.00  0.00     0.020 A 
ATOM     65  C   UNL A   1      52.188  26.507  25.332  1.00  0.00     0.054 A 
BRANCH  65  66
ATOM     66  S   UNL A   1      53.971  26.609  25.014  1.00  0.00     0.124 S 
ATOM     67  O   UNL A   1      54.445  27.374  26.163  1.00  0.00    -0.237 OA
ATOM     68  O   UNL A   1      54.370  25.204  24.983  1.00  0.00    -0.237 OA
ATOM     69  O   UNL A   1      54.052  27.299  23.729  1.00  0.00    -0.744 OA
ENDBRANCH  65  66
ENDBRANCH  39  60
ENDBRANCH  13  14
ENDBRANCH   6   8
ENDBRANCH   3   4
ENDBRANCH   2   3
ENDBRANCH   1   2
BRANCH   1  70
ATOM     70  N   UNL A   1      32.519  29.044  27.612  1.00  0.00    -0.355 N 
ATOM     71  C   UNL A   1      31.712  28.231  26.896  1.00  0.00     0.235 C 
ATOM     72  H   UNL A   1      32.503  28.840  28.576  1.00  0.00     0.163 HD
ATOM     73  O   UNL A   1      31.022  27.459  27.583  1.00  0.00    -0.274 OA
BRANCH  71  74
ATOM     74  C   UNL A   1      31.533  28.189  25.380  1.00  0.00     0.163 C 
ATOM     75  S   UNL A   1      32.731  29.080  24.342  1.00  0.00    -0.119 SA
ATOM     76  C   UNL A   1      31.686  26.723  24.950  1.00  0.00     0.170 C 
ATOM     77  C   UNL A   1      33.759  27.703  24.212  1.00  0.00     0.038 C 
ATOM     78  C   UNL A   1      33.136  26.565  24.530  1.00  0.00     0.002 C 
BRANCH  76  79
ATOM     79  S   UNL A   1      30.646  26.301  23.528  1.00  0.00     0.219 S 
ATOM     80  O   UNL A   1      29.470  27.142  23.478  1.00  0.00    -0.212 OA
ATOM     81  O   UNL A   1      31.496  26.190  22.361  1.00  0.00    -0.212 OA
BRANCH  79  82
ATOM     82  N   UNL A   1      30.130  24.738  23.787  1.00  0.00    -0.214 NA
ATOM     83  H   UNL A   1      29.802  24.409  22.880  1.00  0.00     0.141 HD
BRANCH  82  84
ATOM     84  C   UNL A   1      30.948  23.646  24.323  1.00  0.00     0.103 C 
BRANCH  84  85
ATOM     85  C   UNL A   1      31.948  22.992  23.362  1.00  0.00     0.050 C 
BRANCH  85  86
ATOM     86  C   UNL A   1      32.958  22.086  23.991  1.00  0.00    -0.038 C 
ATOM     87  C   UNL A   1      34.282  22.210  23.967  1.00  0.00     0.001 A 
ATOM     88  C   UNL A   1      32.555  20.933  24.862  1.00  0.00     0.174 C 
ATOM     89  C   UNL A   1      35.206  23.132  23.389  1.00  0.00     0.010 A 
ATOM     90  C   UNL A   1      34.732  21.076  24.790  1.00  0.00     0.065 A 
ATOM     91  N   UNL A   1      33.827  20.304  25.305  1.00  0.00    -0.280 NA
ATOM     92  C   UNL A   1      36.519  22.937  23.588  1.00  0.00     0.001 A 
ATOM     93  C   UNL A   1      36.193  20.915  24.946  1.00  0.00     0.028 A 
ATOM     94  C   UNL A   1      37.011  21.810  24.364  1.00  0.00     0.002 A 
ENDBRANCH  85  86
ENDBRANCH  84  85
ENDBRANCH  82  84
ENDBRANCH  79  82
ENDBRANCH  76  79
ENDBRANCH  71  74
ENDBRANCH   1  70
TORSDOF 18
ENDMDL
