MODEL 1
REMARK VINA RESULT:     -11.0      0.000      0.000
REMARK SMILES C[C@@H](C(=O)NCCCNC(=O)c1ccc(-c2c3nc(c(-c4ccc(S(=O)(=O)[O-])cc4)c4ccc([nH]4)c(-c4ccc(S(=O)(=O)[O-])cc4)c4nc(c(-c5ccc(S(=O)(=O)[O-])cc5)c5ccc2[nH]5)C=C4)C=C3)cc1)c1ccn(C(F)F)c(=O)c1
REMARK SMILES IDX 7 1 6 2 5 3 3 4 4 5 2 7 1 8 72 9 73 10 81 11 74 12 79 13
REMARK SMILES IDX 75 14 80 15 76 16 77 17 78 18 8 19 9 20 10 21 11 23 12 24
REMARK SMILES IDX 13 25 71 26 14 27 70 28 15 29 16 30 17 31 64 32 18 33 69 34
REMARK SMILES IDX 63 35 65 36 19 37 68 38 62 39 61 40 20 42 50 43 31 44 49 45
REMARK SMILES IDX 32 46 35 47 48 48 66 49 33 50 34 51 47 53 67 54 36 55 21 56
REMARK SMILES IDX 22 57 30 58 23 59 29 60 24 61 25 62 26 63 27 64 28 65 51 66
REMARK SMILES IDX 52 67 60 68 53 69 59 70 54 71 55 72 56 73 57 74 58 75 37 76
REMARK SMILES IDX 38 77 46 78 39 79 45 80 40 81 41 82 42 83 43 84 44 85
REMARK H PARENT 5 6 9 22 65 41 35 52
REMARK Flexibility Score: inf
ROOT
ATOM      1  C   UNL A   1      33.150  27.604  26.476  1.00  0.00     0.042 C 
ENDROOT
BRANCH   1   2
ATOM      2  C   UNL A   1      31.691  27.841  26.090  1.00  0.00     0.117 C 
BRANCH   2   3
ATOM      3  N   UNL A   1      30.829  26.776  26.567  1.00  0.00    -0.356 N 
ATOM      4  C   UNL A   1      30.111  25.840  25.886  1.00  0.00     0.227 C 
ATOM      5  O   UNL A   1      29.381  25.107  26.557  1.00  0.00    -0.274 OA
ATOM      6  H   UNL A   1      30.751  26.720  27.547  1.00  0.00     0.163 HD
BRANCH   4   7
ATOM      7  C   UNL A   1      30.244  25.722  24.353  1.00  0.00     0.105 C 
ATOM      8  C   UNL A   1      31.691  25.478  23.918  1.00  0.00     0.023 C 
BRANCH   7   9
ATOM      9  C   UNL A   1      29.650  26.948  23.667  1.00  0.00    -0.029 A 
ATOM     10  C   UNL A   1      30.517  27.816  22.889  1.00  0.00     0.023 A 
ATOM     11  C   UNL A   1      28.348  27.269  23.776  1.00  0.00     0.076 A 
ATOM     12  C   UNL A   1      30.036  28.922  22.313  1.00  0.00     0.095 A 
ATOM     13  C   UNL A   1      27.796  28.495  23.130  1.00  0.00     0.255 A 
ATOM     14  N   UNL A   1      28.703  29.267  22.425  1.00  0.00    -0.258 N 
ATOM     15  O   UNL A   1      26.598  28.741  23.265  1.00  0.00    -0.269 OA
BRANCH  14  16
ATOM     16  C   UNL A   1      28.213  30.481  21.828  1.00  0.00     0.451 C 
ATOM     17  F   UNL A   1      29.189  31.418  21.744  1.00  0.00    -0.185 F 
ATOM     18  F   UNL A   1      27.743  30.255  20.576  1.00  0.00    -0.185 F 
ENDBRANCH  14  16
ENDBRANCH   7   9
ENDBRANCH   4   7
ENDBRANCH   2   3
ENDBRANCH   1   2
BRANCH   1  19
ATOM     19  C   UNL A   1      34.107  28.728  26.071  1.00  0.00     0.118 C 
BRANCH  19  20
ATOM     20  N   UNL A   1      33.877  29.958  26.810  1.00  0.00    -0.352 N 
ATOM     21  C   UNL A   1      34.622  30.562  27.793  1.00  0.00     0.251 C 
ATOM     22  H   UNL A   1      33.051  30.437  26.566  1.00  0.00     0.163 HD
ATOM     23  O   UNL A   1      34.138  31.516  28.400  1.00  0.00    -0.269 OA
BRANCH  21  24
ATOM     24  C   UNL A   1      35.976  30.076  28.145  1.00  0.00     0.039 A 
ATOM     25  C   UNL A   1      36.983  30.156  27.176  1.00  0.00     0.014 A 
ATOM     26  C   UNL A   1      36.257  29.498  29.386  1.00  0.00     0.014 A 
ATOM     27  C   UNL A   1      38.276  29.718  27.474  1.00  0.00     0.010 A 
ATOM     28  C   UNL A   1      37.565  29.121  29.704  1.00  0.00     0.010 A 
ATOM     29  C   UNL A   1      38.588  29.229  28.752  1.00  0.00    -0.014 A 
BRANCH  29  30
ATOM     30  C   UNL A   1      39.987  28.861  29.103  1.00  0.00     0.031 A 
ATOM     31  C   UNL A   1      40.900  29.848  29.780  1.00  0.00     0.074 A 
ATOM     32  C   UNL A   1      40.447  27.636  28.777  1.00  0.00     0.049 A 
ATOM     33  N   UNL A   1      42.149  29.698  30.143  1.00  0.00    -0.248 NA
ATOM     34  C   UNL A   1      40.348  31.181  30.069  1.00  0.00     0.031 C 
ATOM     35  C   UNL A   1      39.680  26.601  28.079  1.00  0.00     0.029 A 
ATOM     36  N   UNL A   1      41.672  27.053  28.986  1.00  0.00    -0.354 N 
ATOM     37  C   UNL A   1      42.533  30.912  30.699  1.00  0.00     0.074 A 
ATOM     38  C   UNL A   1      41.400  31.804  30.582  1.00  0.00     0.031 C 
ATOM     39  C   UNL A   1      40.441  25.506  27.940  1.00  0.00     0.029 A 
ATOM     40  C   UNL A   1      41.761  25.768  28.505  1.00  0.00     0.049 A 
ATOM     41  H   UNL A   1      42.417  27.512  29.438  1.00  0.00     0.167 HD
ATOM     42  C   UNL A   1      43.713  31.249  31.274  1.00  0.00     0.031 A 
ATOM     43  C   UNL A   1      42.788  24.895  28.512  1.00  0.00     0.031 A 
ATOM     44  C   UNL A   1      44.842  30.361  31.394  1.00  0.00     0.049 A 
ATOM     45  C   UNL A   1      44.088  25.295  29.152  1.00  0.00     0.074 A 
ATOM     46  C   UNL A   1      46.065  30.601  31.997  1.00  0.00     0.029 A 
ATOM     47  N   UNL A   1      44.887  29.065  30.904  1.00  0.00    -0.354 N 
ATOM     48  N   UNL A   1      44.409  26.431  29.726  1.00  0.00    -0.248 NA
ATOM     49  C   UNL A   1      45.160  24.290  29.160  1.00  0.00     0.031 C 
ATOM     50  C   UNL A   1      46.866  29.466  31.832  1.00  0.00     0.029 A 
ATOM     51  C   UNL A   1      46.123  28.500  31.173  1.00  0.00     0.049 A 
ATOM     52  H   UNL A   1      44.150  28.614  30.433  1.00  0.00     0.167 HD
ATOM     53  C   UNL A   1      45.713  26.269  30.177  1.00  0.00     0.074 A 
ATOM     54  C   UNL A   1      46.112  24.919  29.834  1.00  0.00     0.031 C 
ATOM     55  C   UNL A   1      46.512  27.160  30.816  1.00  0.00     0.031 A 
BRANCH  42  56
ATOM     56  C   UNL A   1      43.847  32.644  31.829  1.00  0.00    -0.014 A 
ATOM     57  C   UNL A   1      44.202  33.720  30.997  1.00  0.00     0.010 A 
ATOM     58  C   UNL A   1      43.556  32.893  33.184  1.00  0.00     0.010 A 
ATOM     59  C   UNL A   1      44.297  35.015  31.514  1.00  0.00     0.020 A 
ATOM     60  C   UNL A   1      43.623  34.192  33.698  1.00  0.00     0.020 A 
ATOM     61  C   UNL A   1      44.007  35.243  32.863  1.00  0.00     0.054 A 
BRANCH  61  62
ATOM     62  S   UNL A   1      44.102  36.939  33.496  1.00  0.00     0.124 S 
ATOM     63  O   UNL A   1      44.543  37.677  32.315  1.00  0.00    -0.237 OA
ATOM     64  O   UNL A   1      42.731  37.200  33.924  1.00  0.00    -0.237 OA
ATOM     65  O   UNL A   1      45.083  36.852  34.576  1.00  0.00    -0.744 OA
ENDBRANCH  61  62
ENDBRANCH  42  56
BRANCH  43  66
ATOM     66  C   UNL A   1      42.627  23.553  27.890  1.00  0.00    -0.014 A 
ATOM     67  C   UNL A   1      42.096  22.480  28.627  1.00  0.00     0.010 A 
ATOM     68  C   UNL A   1      43.005  23.344  26.552  1.00  0.00     0.010 A 
ATOM     69  C   UNL A   1      41.968  21.216  28.044  1.00  0.00     0.020 A 
ATOM     70  C   UNL A   1      42.852  22.088  25.957  1.00  0.00     0.020 A 
ATOM     71  C   UNL A   1      42.348  21.028  26.713  1.00  0.00     0.054 A 
BRANCH  71  72
ATOM     72  S   UNL A   1      42.136  19.391  25.960  1.00  0.00     0.124 S 
ATOM     73  O   UNL A   1      42.963  19.499  24.762  1.00  0.00    -0.237 OA
ATOM     74  O   UNL A   1      42.639  18.496  26.999  1.00  0.00    -0.237 OA
ATOM     75  O   UNL A   1      40.696  19.310  25.723  1.00  0.00    -0.744 OA
ENDBRANCH  71  72
ENDBRANCH  43  66
BRANCH  55  76
ATOM     76  C   UNL A   1      47.890  26.693  31.199  1.00  0.00    -0.014 A 
ATOM     77  C   UNL A   1      48.131  26.079  32.442  1.00  0.00     0.010 A 
ATOM     78  C   UNL A   1      48.956  26.848  30.294  1.00  0.00     0.010 A 
ATOM     79  C   UNL A   1      49.421  25.670  32.791  1.00  0.00     0.020 A 
ATOM     80  C   UNL A   1      50.243  26.417  30.630  1.00  0.00     0.020 A 
ATOM     81  C   UNL A   1      50.470  25.848  31.884  1.00  0.00     0.054 A 
BRANCH  81  82
ATOM     82  S   UNL A   1      52.133  25.294  32.352  1.00  0.00     0.124 S 
ATOM     83  O   UNL A   1      52.311  25.937  33.651  1.00  0.00    -0.237 OA
ATOM     84  O   UNL A   1      51.991  23.840  32.383  1.00  0.00    -0.237 OA
ATOM     85  O   UNL A   1      52.983  25.808  31.280  1.00  0.00    -0.744 OA
ENDBRANCH  81  82
ENDBRANCH  55  76
ENDBRANCH  29  30
ENDBRANCH  21  24
ENDBRANCH  19  20
ENDBRANCH   1  19
TORSDOF 15
ENDMDL
MODEL 2
REMARK VINA RESULT:     -11.0      4.398      9.993
REMARK SMILES C[C@@H](C(=O)NCCCNC(=O)c1ccc(-c2c3nc(c(-c4ccc(S(=O)(=O)[O-])cc4)c4ccc([nH]4)c(-c4ccc(S(=O)(=O)[O-])cc4)c4nc(c(-c5ccc(S(=O)(=O)[O-])cc5)c5ccc2[nH]5)C=C4)C=C3)cc1)c1ccn(C(F)F)c(=O)c1
REMARK SMILES IDX 7 1 6 2 5 3 3 4 4 5 2 7 1 8 72 9 73 10 81 11 74 12 79 13
REMARK SMILES IDX 75 14 80 15 76 16 77 17 78 18 8 19 9 20 10 21 11 23 12 24
REMARK SMILES IDX 13 25 71 26 14 27 70 28 15 29 16 30 17 31 64 32 18 33 69 34
REMARK SMILES IDX 63 35 65 36 19 37 68 38 62 39 61 40 20 42 50 43 31 44 49 45
REMARK SMILES IDX 32 46 35 47 48 48 66 49 33 50 34 51 47 53 67 54 36 55 21 56
REMARK SMILES IDX 22 57 30 58 23 59 29 60 24 61 25 62 26 63 27 64 28 65 51 66
REMARK SMILES IDX 52 67 60 68 53 69 59 70 54 71 55 72 56 73 57 74 58 75 37 76
REMARK SMILES IDX 38 77 46 78 39 79 45 80 40 81 41 82 42 83 43 84 44 85
REMARK H PARENT 5 6 9 22 65 41 35 52
REMARK Flexibility Score: inf
ROOT
ATOM      1  C   UNL A   1      35.310  23.335  26.288  1.00  0.00     0.042 C 
ENDROOT
BRANCH   1   2
ATOM      2  C   UNL A   1      34.053  24.112  25.900  1.00  0.00     0.117 C 
BRANCH   2   3
ATOM      3  N   UNL A   1      32.846  23.358  26.182  1.00  0.00    -0.356 N 
ATOM      4  C   UNL A   1      32.117  22.518  25.394  1.00  0.00     0.227 C 
ATOM      5  O   UNL A   1      31.068  22.082  25.874  1.00  0.00    -0.274 OA
ATOM      6  H   UNL A   1      32.496  23.471  27.095  1.00  0.00     0.163 HD
BRANCH   4   7
ATOM      7  C   UNL A   1      32.621  22.141  23.985  1.00  0.00     0.105 C 
ATOM      8  C   UNL A   1      31.672  22.628  22.886  1.00  0.00     0.023 C 
BRANCH   7   9
ATOM      9  C   UNL A   1      32.870  20.640  23.888  1.00  0.00    -0.029 A 
ATOM     10  C   UNL A   1      33.794  20.012  24.816  1.00  0.00     0.023 A 
ATOM     11  C   UNL A   1      32.278  19.875  22.953  1.00  0.00     0.076 A 
ATOM     12  C   UNL A   1      34.068  18.706  24.729  1.00  0.00     0.095 A 
ATOM     13  C   UNL A   1      32.567  18.415  22.849  1.00  0.00     0.255 A 
ATOM     14  N   UNL A   1      33.474  17.912  23.767  1.00  0.00    -0.258 N 
ATOM     15  O   UNL A   1      32.000  17.765  21.973  1.00  0.00    -0.269 OA
BRANCH  14  16
ATOM     16  C   UNL A   1      33.810  16.517  23.666  1.00  0.00     0.451 C 
ATOM     17  F   UNL A   1      34.537  16.266  22.549  1.00  0.00    -0.185 F 
ATOM     18  F   UNL A   1      34.536  16.111  24.737  1.00  0.00    -0.185 F 
ENDBRANCH  14  16
ENDBRANCH   7   9
ENDBRANCH   4   7
ENDBRANCH   2   3
ENDBRANCH   1   2
BRANCH   1  19
ATOM     19  C   UNL A   1      36.549  23.672  25.457  1.00  0.00     0.118 C 
BRANCH  19  20
ATOM     20  N   UNL A   1      37.625  22.709  25.632  1.00  0.00    -0.352 N 
ATOM     21  C   UNL A   1      38.895  22.869  26.126  1.00  0.00     0.251 C 
ATOM     22  H   UNL A   1      37.405  21.791  25.349  1.00  0.00     0.163 HD
ATOM     23  O   UNL A   1      39.694  21.941  26.016  1.00  0.00    -0.269 OA
BRANCH  21  24
ATOM     24  C   UNL A   1      39.322  24.136  26.764  1.00  0.00     0.039 A 
ATOM     25  C   UNL A   1      38.949  24.369  28.092  1.00  0.00     0.014 A 
ATOM     26  C   UNL A   1      40.034  25.115  26.066  1.00  0.00     0.014 A 
ATOM     27  C   UNL A   1      39.342  25.547  28.734  1.00  0.00     0.010 A 
ATOM     28  C   UNL A   1      40.482  26.262  26.727  1.00  0.00     0.010 A 
ATOM     29  C   UNL A   1      40.142  26.489  28.068  1.00  0.00    -0.014 A 
BRANCH  29  30
ATOM     30  C   UNL A   1      40.649  27.693  28.781  1.00  0.00     0.031 A 
ATOM     31  C   UNL A   1      42.044  27.728  29.345  1.00  0.00     0.074 A 
ATOM     32  C   UNL A   1      39.830  28.751  28.951  1.00  0.00     0.049 A 
ATOM     33  N   UNL A   1      42.640  28.688  30.006  1.00  0.00    -0.248 NA
ATOM     34  C   UNL A   1      42.870  26.524  29.162  1.00  0.00     0.031 C 
ATOM     35  C   UNL A   1      38.440  28.828  28.493  1.00  0.00     0.029 A 
ATOM     36  N   UNL A   1      40.045  29.964  29.557  1.00  0.00    -0.354 N 
ATOM     37  C   UNL A   1      43.906  28.207  30.319  1.00  0.00     0.074 A 
ATOM     38  C   UNL A   1      43.975  26.851  29.819  1.00  0.00     0.031 C 
ATOM     39  C   UNL A   1      37.937  30.030  28.812  1.00  0.00     0.029 A 
ATOM     40  C   UNL A   1      38.952  30.797  29.527  1.00  0.00     0.049 A 
ATOM     41  H   UNL A   1      40.902  30.213  29.974  1.00  0.00     0.167 HD
ATOM     42  C   UNL A   1      44.926  28.842  30.947  1.00  0.00     0.031 A 
ATOM     43  C   UNL A   1      38.780  32.039  30.022  1.00  0.00     0.031 A 
ATOM     44  C   UNL A   1      44.860  30.193  31.444  1.00  0.00     0.049 A 
ATOM     45  C   UNL A   1      39.925  32.719  30.717  1.00  0.00     0.074 A 
ATOM     46  C   UNL A   1      45.856  30.933  32.058  1.00  0.00     0.029 A 
ATOM     47  N   UNL A   1      43.738  31.005  31.385  1.00  0.00    -0.354 N 
ATOM     48  N   UNL A   1      41.134  32.265  30.950  1.00  0.00    -0.248 NA
ATOM     49  C   UNL A   1      39.688  34.085  31.204  1.00  0.00     0.031 C 
ATOM     50  C   UNL A   1      45.323  32.178  32.410  1.00  0.00     0.029 A 
ATOM     51  C   UNL A   1      44.012  32.232  31.967  1.00  0.00     0.049 A 
ATOM     52  H   UNL A   1      42.875  30.748  30.987  1.00  0.00     0.167 HD
ATOM     53  C   UNL A   1      41.806  33.297  31.595  1.00  0.00     0.074 A 
ATOM     54  C   UNL A   1      40.878  34.406  31.692  1.00  0.00     0.031 C 
ATOM     55  C   UNL A   1      43.077  33.323  32.069  1.00  0.00     0.031 A 
BRANCH  42  56
ATOM     56  C   UNL A   1      46.214  28.082  31.130  1.00  0.00    -0.014 A 
ATOM     57  C   UNL A   1      46.392  27.218  32.225  1.00  0.00     0.010 A 
ATOM     58  C   UNL A   1      47.235  28.184  30.166  1.00  0.00     0.010 A 
ATOM     59  C   UNL A   1      47.580  26.496  32.372  1.00  0.00     0.020 A 
ATOM     60  C   UNL A   1      48.413  27.442  30.295  1.00  0.00     0.020 A 
ATOM     61  C   UNL A   1      48.584  26.613  31.406  1.00  0.00     0.054 A 
BRANCH  61  62
ATOM     62  S   UNL A   1      50.098  25.635  31.604  1.00  0.00     0.124 S 
ATOM     63  O   UNL A   1      51.092  26.671  31.872  1.00  0.00    -0.237 OA
ATOM     64  O   UNL A   1      49.775  24.768  32.734  1.00  0.00    -0.237 OA
ATOM     65  O   UNL A   1      50.241  24.953  30.320  1.00  0.00    -0.744 OA
ENDBRANCH  61  62
ENDBRANCH  42  56
BRANCH  43  66
ATOM     66  C   UNL A   1      37.465  32.722  29.874  1.00  0.00    -0.014 A 
ATOM     67  C   UNL A   1      36.501  32.652  30.895  1.00  0.00     0.010 A 
ATOM     68  C   UNL A   1      37.174  33.449  28.706  1.00  0.00     0.010 A 
ATOM     69  C   UNL A   1      35.260  33.276  30.740  1.00  0.00     0.020 A 
ATOM     70  C   UNL A   1      35.946  34.098  28.560  1.00  0.00     0.020 A 
ATOM     71  C   UNL A   1      34.990  33.995  29.572  1.00  0.00     0.054 A 
BRANCH  71  72
ATOM     72  S   UNL A   1      33.391  34.835  29.407  1.00  0.00     0.124 S 
ATOM     73  O   UNL A   1      33.772  36.088  28.765  1.00  0.00    -0.237 OA
ATOM     74  O   UNL A   1      32.628  33.905  28.577  1.00  0.00    -0.237 OA
ATOM     75  O   UNL A   1      32.924  34.952  30.786  1.00  0.00    -0.744 OA
ENDBRANCH  71  72
ENDBRANCH  43  66
BRANCH  55  76
ATOM     76  C   UNL A   1      43.540  34.600  32.718  1.00  0.00    -0.014 A 
ATOM     77  C   UNL A   1      43.497  34.763  34.114  1.00  0.00     0.010 A 
ATOM     78  C   UNL A   1      44.048  35.642  31.921  1.00  0.00     0.010 A 
ATOM     79  C   UNL A   1      43.911  35.963  34.699  1.00  0.00     0.020 A 
ATOM     80  C   UNL A   1      44.488  36.834  32.505  1.00  0.00     0.020 A 
ATOM     81  C   UNL A   1      44.398  36.993  33.889  1.00  0.00     0.054 A 
BRANCH  81  82
ATOM     82  S   UNL A   1      44.946  38.535  34.671  1.00  0.00     0.124 S 
ATOM     83  O   UNL A   1      43.982  38.682  35.759  1.00  0.00    -0.237 OA
ATOM     84  O   UNL A   1      46.313  38.221  35.081  1.00  0.00    -0.237 OA
ATOM     85  O   UNL A   1      44.834  39.525  33.602  1.00  0.00    -0.744 OA
ENDBRANCH  81  82
ENDBRANCH  55  76
ENDBRANCH  29  30
ENDBRANCH  21  24
ENDBRANCH  19  20
ENDBRANCH   1  19
TORSDOF 15
ENDMDL
MODEL 3
REMARK VINA RESULT:     -10.9      5.499     11.369
REMARK SMILES C[C@@H](C(=O)NCCCNC(=O)c1ccc(-c2c3nc(c(-c4ccc(S(=O)(=O)[O-])cc4)c4ccc([nH]4)c(-c4ccc(S(=O)(=O)[O-])cc4)c4nc(c(-c5ccc(S(=O)(=O)[O-])cc5)c5ccc2[nH]5)C=C4)C=C3)cc1)c1ccn(C(F)F)c(=O)c1
REMARK SMILES IDX 7 1 6 2 5 3 3 4 4 5 2 7 1 8 72 9 73 10 81 11 74 12 79 13
REMARK SMILES IDX 75 14 80 15 76 16 77 17 78 18 8 19 9 20 10 21 11 23 12 24
REMARK SMILES IDX 13 25 71 26 14 27 70 28 15 29 16 30 17 31 64 32 18 33 69 34
REMARK SMILES IDX 63 35 65 36 19 37 68 38 62 39 61 40 20 42 50 43 31 44 49 45
REMARK SMILES IDX 32 46 35 47 48 48 66 49 33 50 34 51 47 53 67 54 36 55 21 56
REMARK SMILES IDX 22 57 30 58 23 59 29 60 24 61 25 62 26 63 27 64 28 65 51 66
REMARK SMILES IDX 52 67 60 68 53 69 59 70 54 71 55 72 56 73 57 74 58 75 37 76
REMARK SMILES IDX 38 77 46 78 39 79 45 80 40 81 41 82 42 83 43 84 44 85
REMARK H PARENT 5 6 9 22 65 41 35 52
REMARK Flexibility Score: inf
ROOT
ATOM      1  C   UNL A   1      41.476  21.804  26.218  1.00  0.00     0.042 C 
ENDROOT
BRANCH   1   2
ATOM      2  C   UNL A   1      42.289  22.539  27.282  1.00  0.00     0.117 C 
BRANCH   2   3
ATOM      3  N   UNL A   1      43.698  22.204  27.209  1.00  0.00    -0.356 N 
ATOM      4  C   UNL A   1      44.626  22.465  26.245  1.00  0.00     0.227 C 
ATOM      5  O   UNL A   1      45.744  21.972  26.407  1.00  0.00    -0.274 OA
ATOM      6  H   UNL A   1      44.043  21.706  27.985  1.00  0.00     0.163 HD
BRANCH   4   7
ATOM      7  C   UNL A   1      44.263  23.353  25.037  1.00  0.00     0.105 C 
ATOM      8  C   UNL A   1      45.132  23.046  23.815  1.00  0.00     0.023 C 
BRANCH   7   9
ATOM      9  C   UNL A   1      44.328  24.829  25.416  1.00  0.00    -0.029 A 
ATOM     10  C   UNL A   1      45.292  25.264  26.411  1.00  0.00     0.023 A 
ATOM     11  C   UNL A   1      43.504  25.744  24.874  1.00  0.00     0.076 A 
ATOM     12  C   UNL A   1      45.344  26.543  26.797  1.00  0.00     0.095 A 
ATOM     13  C   UNL A   1      43.557  27.176  25.289  1.00  0.00     0.255 A 
ATOM     14  N   UNL A   1      44.497  27.491  26.255  1.00  0.00    -0.258 N 
ATOM     15  O   UNL A   1      42.778  27.969  24.763  1.00  0.00    -0.269 OA
BRANCH  14  16
ATOM     16  C   UNL A   1      44.544  28.854  26.711  1.00  0.00     0.451 C 
ATOM     17  F   UNL A   1      44.989  28.931  27.990  1.00  0.00    -0.185 F 
ATOM     18  F   UNL A   1      45.370  29.600  25.937  1.00  0.00    -0.185 F 
ENDBRANCH  14  16
ENDBRANCH   7   9
ENDBRANCH   4   7
ENDBRANCH   2   3
ENDBRANCH   1   2
BRANCH   1  19
ATOM     19  C   UNL A   1      40.057  21.427  26.648  1.00  0.00     0.118 C 
BRANCH  19  20
ATOM     20  N   UNL A   1      39.035  22.001  25.788  1.00  0.00    -0.352 N 
ATOM     21  C   UNL A   1      38.477  23.255  25.779  1.00  0.00     0.251 C 
ATOM     22  H   UNL A   1      38.686  21.389  25.099  1.00  0.00     0.163 HD
ATOM     23  O   UNL A   1      37.497  23.461  25.065  1.00  0.00    -0.269 OA
BRANCH  21  24
ATOM     24  C   UNL A   1      39.017  24.347  26.620  1.00  0.00     0.039 A 
ATOM     25  C   UNL A   1      39.923  25.244  26.043  1.00  0.00     0.014 A 
ATOM     26  C   UNL A   1      38.689  24.473  27.973  1.00  0.00     0.014 A 
ATOM     27  C   UNL A   1      40.446  26.295  26.801  1.00  0.00     0.010 A 
ATOM     28  C   UNL A   1      39.162  25.561  28.711  1.00  0.00     0.010 A 
ATOM     29  C   UNL A   1      40.043  26.485  28.133  1.00  0.00    -0.014 A 
BRANCH  29  30
ATOM     30  C   UNL A   1      40.518  27.663  28.909  1.00  0.00     0.031 A 
ATOM     31  C   UNL A   1      41.870  27.661  29.569  1.00  0.00     0.074 A 
ATOM     32  C   UNL A   1      39.705  28.730  29.048  1.00  0.00     0.049 A 
ATOM     33  N   UNL A   1      42.434  28.595  30.293  1.00  0.00    -0.248 NA
ATOM     34  C   UNL A   1      42.689  26.448  29.413  1.00  0.00     0.031 C 
ATOM     35  C   UNL A   1      38.352  28.841  28.498  1.00  0.00     0.029 A 
ATOM     36  N   UNL A   1      39.896  29.924  29.698  1.00  0.00    -0.354 N 
ATOM     37  C   UNL A   1      43.667  28.086  30.681  1.00  0.00     0.074 A 
ATOM     38  C   UNL A   1      43.751  26.741  30.152  1.00  0.00     0.031 C 
ATOM     39  C   UNL A   1      37.846  30.044  28.811  1.00  0.00     0.029 A 
ATOM     40  C   UNL A   1      38.820  30.776  29.613  1.00  0.00     0.049 A 
ATOM     41  H   UNL A   1      40.725  30.149  30.179  1.00  0.00     0.167 HD
ATOM     42  C   UNL A   1      44.650  28.688  31.393  1.00  0.00     0.031 A 
ATOM     43  C   UNL A   1      38.632  32.009  30.126  1.00  0.00     0.031 A 
ATOM     44  C   UNL A   1      44.571  30.027  31.918  1.00  0.00     0.049 A 
ATOM     45  C   UNL A   1      39.736  32.652  30.916  1.00  0.00     0.074 A 
ATOM     46  C   UNL A   1      45.532  30.735  32.618  1.00  0.00     0.029 A 
ATOM     47  N   UNL A   1      43.468  30.860  31.802  1.00  0.00    -0.354 N 
ATOM     48  N   UNL A   1      40.920  32.173  31.220  1.00  0.00    -0.248 NA
ATOM     49  C   UNL A   1      39.487  34.010  31.420  1.00  0.00     0.031 C 
ATOM     50  C   UNL A   1      44.995  31.981  32.963  1.00  0.00     0.029 A 
ATOM     51  C   UNL A   1      43.719  32.067  32.433  1.00  0.00     0.049 A 
ATOM     52  H   UNL A   1      42.631  30.627  31.340  1.00  0.00     0.167 HD
ATOM     53  C   UNL A   1      41.561  33.177  31.936  1.00  0.00     0.074 A 
ATOM     54  C   UNL A   1      40.645  34.299  31.996  1.00  0.00     0.031 C 
ATOM     55  C   UNL A   1      42.795  33.171  32.497  1.00  0.00     0.031 A 
BRANCH  42  56
ATOM     56  C   UNL A   1      45.912  27.902  31.646  1.00  0.00    -0.014 A 
ATOM     57  C   UNL A   1      47.009  28.000  30.772  1.00  0.00     0.010 A 
ATOM     58  C   UNL A   1      46.025  27.104  32.799  1.00  0.00     0.010 A 
ATOM     59  C   UNL A   1      48.185  27.289  31.029  1.00  0.00     0.020 A 
ATOM     60  C   UNL A   1      47.209  26.413  33.074  1.00  0.00     0.020 A 
ATOM     61  C   UNL A   1      48.277  26.499  32.178  1.00  0.00     0.054 A 
BRANCH  61  62
ATOM     62  S   UNL A   1      49.829  25.618  32.503  1.00  0.00     0.124 S 
ATOM     63  O   UNL A   1      49.373  24.498  33.323  1.00  0.00    -0.237 OA
ATOM     64  O   UNL A   1      50.287  25.269  31.162  1.00  0.00    -0.237 OA
ATOM     65  O   UNL A   1      50.649  26.606  33.201  1.00  0.00    -0.744 OA
ENDBRANCH  61  62
ENDBRANCH  42  56
BRANCH  43  66
ATOM     66  C   UNL A   1      37.342  32.716  29.905  1.00  0.00    -0.014 A 
ATOM     67  C   UNL A   1      36.301  32.622  30.845  1.00  0.00     0.010 A 
ATOM     68  C   UNL A   1      37.151  33.493  28.748  1.00  0.00     0.010 A 
ATOM     69  C   UNL A   1      35.083  33.271  30.620  1.00  0.00     0.020 A 
ATOM     70  C   UNL A   1      35.945  34.166  28.534  1.00  0.00     0.020 A 
ATOM     71  C   UNL A   1      34.913  34.038  29.465  1.00  0.00     0.054 A 
BRANCH  71  72
ATOM     72  S   UNL A   1      33.342  34.908  29.211  1.00  0.00     0.124 S 
ATOM     73  O   UNL A   1      32.672  34.047  28.241  1.00  0.00    -0.237 OA
ATOM     74  O   UNL A   1      32.764  34.918  30.552  1.00  0.00    -0.237 OA
ATOM     75  O   UNL A   1      33.754  36.217  28.709  1.00  0.00    -0.744 OA
ENDBRANCH  71  72
ENDBRANCH  43  66
BRANCH  55  76
ATOM     76  C   UNL A   1      43.232  34.424  33.208  1.00  0.00    -0.014 A 
ATOM     77  C   UNL A   1      43.148  34.532  34.608  1.00  0.00     0.010 A 
ATOM     78  C   UNL A   1      43.755  35.500  32.468  1.00  0.00     0.010 A 
ATOM     79  C   UNL A   1      43.537  35.710  35.251  1.00  0.00     0.020 A 
ATOM     80  C   UNL A   1      44.170  36.670  33.110  1.00  0.00     0.020 A 
ATOM     81  C   UNL A   1      44.040  36.774  34.496  1.00  0.00     0.054 A 
BRANCH  81  82
ATOM     82  S   UNL A   1      44.555  38.287  35.353  1.00  0.00     0.124 S 
ATOM     83  O   UNL A   1      43.983  39.327  34.502  1.00  0.00    -0.237 OA
ATOM     84  O   UNL A   1      43.935  38.140  36.669  1.00  0.00    -0.237 OA
ATOM     85  O   UNL A   1      46.014  38.209  35.347  1.00  0.00    -0.744 OA
ENDBRANCH  81  82
ENDBRANCH  55  76
ENDBRANCH  29  30
ENDBRANCH  21  24
ENDBRANCH  19  20
ENDBRANCH   1  19
TORSDOF 15
ENDMDL
