MODEL 1
REMARK VINA RESULT:     -13.1      0.000      0.000
REMARK SMILES Cc1ccc(NC(=O)COc2ccc(Cl)cc2/C=C2\SC(=S)N(CC(=O)NCCCNC(=O)c3ccc(-c4c5nc(c(-c6ccc(S(=O)(=O)[O-])cc6)c6ccc([nH]6)c(-c6ccc(S(=O)(=O)[O-])cc6)c6nc(c(-c7ccc(S(=O)(=O)[O-])cc7)c7ccc4[nH]7)C=C6)C=C5)cc3)C2=O)cc1
REMARK SMILES IDX 25 1 26 2 27 3 24 5 23 6 18 7 19 8 20 9 94 10 21 11 95 12
REMARK SMILES IDX 22 13 17 14 11 15 12 16 13 17 16 18 14 19 15 20 10 21 9 22
REMARK SMILES IDX 7 23 6 24 8 26 5 27 1 28 2 29 3 30 97 31 4 32 96 33 28 34
REMARK SMILES IDX 29 35 30 36 31 37 32 38 33 40 34 41 35 42 93 43 36 44 92 45
REMARK SMILES IDX 37 46 38 47 39 48 86 49 40 50 91 51 85 52 87 53 41 54 90 55
REMARK SMILES IDX 84 56 83 57 42 59 72 60 53 61 71 62 54 63 57 64 70 65 88 66
REMARK SMILES IDX 55 67 56 68 69 70 89 71 58 72 43 73 44 74 52 75 45 76 51 77
REMARK SMILES IDX 46 78 47 79 48 80 49 81 50 82 73 83 74 84 82 85 75 86 81 87
REMARK SMILES IDX 76 88 77 89 78 90 79 91 80 92 59 93 60 94 68 95 61 96 67 97
REMARK SMILES IDX 62 98 63 99 64 100 65 101 66 102
REMARK H PARENT 27 4 6 25 31 39 87 58 57 69
REMARK Flexibility Score: inf
ROOT
ATOM      1  C   UNL A   1      30.514  29.928  24.239  1.00  0.00     0.240 C 
ATOM      2  O   UNL A   1      29.979  30.624  23.375  1.00  0.00    -0.273 OA
ATOM      3  N   UNL A   1      31.439  30.492  25.082  1.00  0.00    -0.354 N 
ATOM      4  H   UNL A   1      31.819  31.347  24.776  1.00  0.00     0.163 HD
ENDROOT
BRANCH   1   5
ATOM      5  C   UNL A   1      30.135  28.463  24.394  1.00  0.00     0.227 C 
BRANCH   5   6
ATOM      6  N   UNL A   1      31.209  27.480  24.337  1.00  0.00    -0.283 N 
ATOM      7  C   UNL A   1      32.974  24.872  25.839  1.00  0.00     0.033 C 
ATOM      8  C   UNL A   1      32.800  26.051  25.254  1.00  0.00     0.081 C 
ATOM      9  S   UNL A   1      33.628  26.798  23.982  1.00  0.00    -0.054 SA
ATOM     10  C   UNL A   1      31.508  26.767  25.469  1.00  0.00     0.266 C 
ATOM     11  C   UNL A   1      32.037  27.175  23.290  1.00  0.00     0.148 C 
ATOM     12  O   UNL A   1      30.827  26.682  26.485  1.00  0.00    -0.268 OA
ATOM     13  S   UNL A   1      31.616  26.893  21.703  1.00  0.00    -0.052 S 
BRANCH   7  14
ATOM     14  C   UNL A   1      33.982  23.794  25.941  1.00  0.00     0.019 A 
ATOM     15  C   UNL A   1      33.470  22.669  26.567  1.00  0.00     0.127 A 
ATOM     16  C   UNL A   1      34.289  21.878  27.360  1.00  0.00     0.048 A 
ATOM     17  C   UNL A   1      35.652  21.886  27.096  1.00  0.00     0.024 A 
ATOM     18  C   UNL A   1      35.325  23.728  25.568  1.00  0.00     0.032 A 
ATOM     19  C   UNL A   1      36.123  22.689  26.062  1.00  0.00     0.041 A 
ATOM     20  Cl  UNL A   1      37.668  22.360  25.380  1.00  0.00    -0.084 Cl
BRANCH  15  21
ATOM     21  O   UNL A   1      32.136  22.420  26.450  1.00  0.00    -0.483 OA
BRANCH  21  22
ATOM     22  C   UNL A   1      31.756  21.833  25.205  1.00  0.00     0.329 C 
BRANCH  22  23
ATOM     23  C   UNL A   1      32.197  21.020  23.855  1.00  0.00     0.262 C 
ATOM     24  N   UNL A   1      32.406  19.730  23.481  1.00  0.00    -0.323 N 
ATOM     25  H   UNL A   1      32.426  19.712  22.498  1.00  0.00     0.170 HD
ATOM     26  O   UNL A   1      32.220  21.749  22.832  1.00  0.00    -0.271 OA
BRANCH  24  27
ATOM     27  C   UNL A   1      32.607  18.407  23.928  1.00  0.00     0.041 A 
ATOM     28  C   UNL A   1      33.527  14.383  25.394  1.00  0.00     0.044 C 
ATOM     29  C   UNL A   1      33.239  15.750  24.839  1.00  0.00    -0.051 A 
ATOM     30  C   UNL A   1      32.509  16.641  25.613  1.00  0.00     0.005 A 
ATOM     31  C   UNL A   1      33.665  16.194  23.589  1.00  0.00     0.005 A 
ATOM     32  C   UNL A   1      32.203  17.932  25.143  1.00  0.00     0.026 A 
ATOM     33  C   UNL A   1      33.355  17.506  23.144  1.00  0.00     0.026 A 
ENDBRANCH  24  27
ENDBRANCH  22  23
ENDBRANCH  21  22
ENDBRANCH  15  21
ENDBRANCH   7  14
ENDBRANCH   5   6
ENDBRANCH   1   5
BRANCH   3  34
ATOM     34  C   UNL A   1      31.943  30.011  26.358  1.00  0.00     0.117 C 
BRANCH  34  35
ATOM     35  C   UNL A   1      33.079  30.798  27.011  1.00  0.00     0.042 C 
BRANCH  35  36
ATOM     36  C   UNL A   1      34.425  30.100  27.191  1.00  0.00     0.118 C 
BRANCH  36  37
ATOM     37  N   UNL A   1      35.414  31.153  27.438  1.00  0.00    -0.352 N 
ATOM     38  C   UNL A   1      36.579  31.173  28.159  1.00  0.00     0.251 C 
ATOM     39  H   UNL A   1      35.201  32.009  27.004  1.00  0.00     0.163 HD
ATOM     40  O   UNL A   1      37.042  32.185  28.669  1.00  0.00    -0.269 OA
BRANCH  38  41
ATOM     41  C   UNL A   1      37.357  29.936  28.182  1.00  0.00     0.039 A 
ATOM     42  C   UNL A   1      37.254  29.130  29.323  1.00  0.00     0.014 A 
ATOM     43  C   UNL A   1      38.301  29.703  27.194  1.00  0.00     0.014 A 
ATOM     44  C   UNL A   1      38.229  28.174  29.564  1.00  0.00     0.010 A 
ATOM     45  C   UNL A   1      39.245  28.730  27.408  1.00  0.00     0.010 A 
ATOM     46  C   UNL A   1      39.257  28.046  28.631  1.00  0.00    -0.014 A 
BRANCH  46  47
ATOM     47  C   UNL A   1      40.538  27.444  28.934  1.00  0.00     0.031 A 
ATOM     48  C   UNL A   1      40.822  26.041  28.631  1.00  0.00     0.074 A 
ATOM     49  C   UNL A   1      41.510  28.302  29.304  1.00  0.00     0.049 A 
ATOM     50  N   UNL A   1      41.880  25.428  29.032  1.00  0.00    -0.248 NA
ATOM     51  C   UNL A   1      39.898  25.182  27.898  1.00  0.00     0.031 C 
ATOM     52  C   UNL A   1      42.955  28.129  29.254  1.00  0.00     0.029 A 
ATOM     53  N   UNL A   1      41.360  29.522  29.938  1.00  0.00    -0.354 N 
ATOM     54  C   UNL A   1      41.951  24.249  28.336  1.00  0.00     0.074 A 
ATOM     55  C   UNL A   1      40.627  24.067  27.786  1.00  0.00     0.031 C 
ATOM     56  C   UNL A   1      43.526  29.075  30.022  1.00  0.00     0.029 A 
ATOM     57  C   UNL A   1      42.462  29.748  30.756  1.00  0.00     0.049 A 
ATOM     58  H   UNL A   1      40.595  30.132  29.827  1.00  0.00     0.167 HD
ATOM     59  C   UNL A   1      43.170  23.659  28.179  1.00  0.00     0.031 A 
ATOM     60  C   UNL A   1      42.305  29.671  32.116  1.00  0.00     0.031 A 
ATOM     61  C   UNL A   1      44.184  24.291  29.036  1.00  0.00     0.049 A 
ATOM     62  C   UNL A   1      42.967  28.446  32.746  1.00  0.00     0.074 A 
ATOM     63  C   UNL A   1      45.288  25.099  28.821  1.00  0.00     0.029 A 
ATOM     64  N   UNL A   1      43.937  24.352  30.401  1.00  0.00    -0.354 N 
ATOM     65  N   UNL A   1      43.632  27.535  32.086  1.00  0.00    -0.248 NA
ATOM     66  C   UNL A   1      42.878  28.122  34.172  1.00  0.00     0.031 C 
ATOM     67  C   UNL A   1      45.654  25.692  30.072  1.00  0.00     0.029 A 
ATOM     68  C   UNL A   1      44.804  25.209  31.050  1.00  0.00     0.049 A 
ATOM     69  H   UNL A   1      43.225  23.842  30.854  1.00  0.00     0.167 HD
ATOM     70  C   UNL A   1      44.003  26.518  32.922  1.00  0.00     0.074 A 
ATOM     71  C   UNL A   1      43.521  26.941  34.227  1.00  0.00     0.031 C 
ATOM     72  C   UNL A   1      44.639  25.387  32.488  1.00  0.00     0.031 A 
BRANCH  59  73
ATOM     73  C   UNL A   1      43.488  22.635  27.107  1.00  0.00    -0.014 A 
ATOM     74  C   UNL A   1      42.816  21.396  27.093  1.00  0.00     0.010 A 
ATOM     75  C   UNL A   1      44.503  22.788  26.139  1.00  0.00     0.010 A 
ATOM     76  C   UNL A   1      43.155  20.371  26.189  1.00  0.00     0.020 A 
ATOM     77  C   UNL A   1      44.837  21.788  25.216  1.00  0.00     0.020 A 
ATOM     78  C   UNL A   1      44.171  20.574  25.256  1.00  0.00     0.054 A 
BRANCH  78  79
ATOM     79  S   UNL A   1      44.634  19.246  24.116  1.00  0.00     0.124 S 
ATOM     80  O   UNL A   1      43.645  18.215  24.419  1.00  0.00    -0.237 OA
ATOM     81  O   UNL A   1      44.503  19.887  22.811  1.00  0.00    -0.237 OA
ATOM     82  O   UNL A   1      46.005  18.918  24.505  1.00  0.00    -0.744 OA
ENDBRANCH  78  79
ENDBRANCH  59  73
BRANCH  60  83
ATOM     83  C   UNL A   1      41.043  30.329  32.592  1.00  0.00    -0.014 A 
ATOM     84  C   UNL A   1      40.063  29.505  33.194  1.00  0.00     0.010 A 
ATOM     85  C   UNL A   1      40.978  31.714  32.822  1.00  0.00     0.010 A 
ATOM     86  C   UNL A   1      39.134  30.029  34.102  1.00  0.00     0.020 A 
ATOM     87  C   UNL A   1      40.041  32.244  33.727  1.00  0.00     0.020 A 
ATOM     88  C   UNL A   1      39.152  31.393  34.394  1.00  0.00     0.054 A 
BRANCH  88  89
ATOM     89  S   UNL A   1      38.129  32.004  35.773  1.00  0.00     0.124 S 
ATOM     90  O   UNL A   1      38.924  33.116  36.279  1.00  0.00    -0.237 OA
ATOM     91  O   UNL A   1      36.878  32.385  35.114  1.00  0.00    -0.237 OA
ATOM     92  O   UNL A   1      38.026  30.845  36.653  1.00  0.00    -0.744 OA
ENDBRANCH  88  89
ENDBRANCH  60  83
BRANCH  72  93
ATOM     93  C   UNL A   1      45.105  24.288  33.411  1.00  0.00    -0.014 A 
ATOM     94  C   UNL A   1      46.381  24.279  33.999  1.00  0.00     0.010 A 
ATOM     95  C   UNL A   1      44.293  23.151  33.624  1.00  0.00     0.010 A 
ATOM     96  C   UNL A   1      46.785  23.230  34.835  1.00  0.00     0.020 A 
ATOM     97  C   UNL A   1      44.694  22.089  34.437  1.00  0.00     0.020 A 
ATOM     98  C   UNL A   1      45.930  22.149  35.063  1.00  0.00     0.054 A 
BRANCH  98  99
ATOM     99  S   UNL A   1      46.466  20.803  36.147  1.00  0.00     0.124 S 
ATOM    100  O   UNL A   1      46.238  19.618  35.322  1.00  0.00    -0.237 OA
ATOM    101  O   UNL A   1      47.866  21.146  36.380  1.00  0.00    -0.237 OA
ATOM    102  O   UNL A   1      45.591  20.922  37.310  1.00  0.00    -0.744 OA
ENDBRANCH  98  99
ENDBRANCH  72  93
ENDBRANCH  46  47
ENDBRANCH  38  41
ENDBRANCH  36  37
ENDBRANCH  35  36
ENDBRANCH  34  35
ENDBRANCH   3  34
TORSDOF 19
ENDMDL
MODEL 2
REMARK VINA RESULT:     -12.2      1.576      2.122
REMARK SMILES Cc1ccc(NC(=O)COc2ccc(Cl)cc2/C=C2\SC(=S)N(CC(=O)NCCCNC(=O)c3ccc(-c4c5nc(c(-c6ccc(S(=O)(=O)[O-])cc6)c6ccc([nH]6)c(-c6ccc(S(=O)(=O)[O-])cc6)c6nc(c(-c7ccc(S(=O)(=O)[O-])cc7)c7ccc4[nH]7)C=C6)C=C5)cc3)C2=O)cc1
REMARK SMILES IDX 25 1 26 2 27 3 24 5 23 6 18 7 19 8 20 9 94 10 21 11 95 12
REMARK SMILES IDX 22 13 17 14 11 15 12 16 13 17 16 18 14 19 15 20 10 21 9 22
REMARK SMILES IDX 7 23 6 24 8 26 5 27 1 28 2 29 3 30 97 31 4 32 96 33 28 34
REMARK SMILES IDX 29 35 30 36 31 37 32 38 33 40 34 41 35 42 93 43 36 44 92 45
REMARK SMILES IDX 37 46 38 47 39 48 86 49 40 50 91 51 85 52 87 53 41 54 90 55
REMARK SMILES IDX 84 56 83 57 42 59 72 60 53 61 71 62 54 63 57 64 70 65 88 66
REMARK SMILES IDX 55 67 56 68 69 70 89 71 58 72 43 73 44 74 52 75 45 76 51 77
REMARK SMILES IDX 46 78 47 79 48 80 49 81 50 82 73 83 74 84 82 85 75 86 81 87
REMARK SMILES IDX 76 88 77 89 78 90 79 91 80 92 59 93 60 94 68 95 61 96 67 97
REMARK SMILES IDX 62 98 63 99 64 100 65 101 66 102
REMARK H PARENT 27 4 6 25 31 39 87 58 57 69
REMARK Flexibility Score: inf
ROOT
ATOM      1  C   UNL A   1      31.046  30.332  25.185  1.00  0.00     0.240 C 
ATOM      2  O   UNL A   1      30.342  30.995  24.423  1.00  0.00    -0.273 OA
ATOM      3  N   UNL A   1      32.181  30.892  25.716  1.00  0.00    -0.354 N 
ATOM      4  H   UNL A   1      32.510  31.694  25.249  1.00  0.00     0.163 HD
ENDROOT
BRANCH   1   5
ATOM      5  C   UNL A   1      30.650  28.912  25.562  1.00  0.00     0.227 C 
BRANCH   5   6
ATOM      6  N   UNL A   1      31.532  27.832  25.141  1.00  0.00    -0.283 N 
ATOM      7  C   UNL A   1      33.359  24.967  25.932  1.00  0.00     0.033 C 
ATOM      8  C   UNL A   1      33.151  26.194  25.470  1.00  0.00     0.081 C 
ATOM      9  S   UNL A   1      33.631  26.937  24.028  1.00  0.00    -0.054 SA
ATOM     10  C   UNL A   1      32.079  27.019  26.099  1.00  0.00     0.266 C 
ATOM     11  C   UNL A   1      31.959  27.516  23.878  1.00  0.00     0.148 C 
ATOM     12  O   UNL A   1      31.738  26.935  27.274  1.00  0.00    -0.268 OA
ATOM     13  S   UNL A   1      31.042  27.385  22.494  1.00  0.00    -0.052 S 
BRANCH   7  14
ATOM     14  C   UNL A   1      34.217  23.789  25.680  1.00  0.00     0.019 A 
ATOM     15  C   UNL A   1      33.520  22.601  25.835  1.00  0.00     0.127 A 
ATOM     16  C   UNL A   1      34.163  21.473  26.322  1.00  0.00     0.048 A 
ATOM     17  C   UNL A   1      35.535  21.377  26.137  1.00  0.00     0.024 A 
ATOM     18  C   UNL A   1      35.571  23.666  25.366  1.00  0.00     0.032 A 
ATOM     19  C   UNL A   1      36.192  22.416  25.485  1.00  0.00     0.041 A 
ATOM     20  Cl  UNL A   1      37.741  22.130  24.796  1.00  0.00    -0.084 Cl
BRANCH  15  21
ATOM     21  O   UNL A   1      32.182  22.604  25.580  1.00  0.00    -0.483 OA
BRANCH  21  22
ATOM     22  C   UNL A   1      31.820  21.992  24.342  1.00  0.00     0.329 C 
BRANCH  22  23
ATOM     23  C   UNL A   1      32.212  20.969  23.125  1.00  0.00     0.262 C 
ATOM     24  N   UNL A   1      32.462  19.643  22.968  1.00  0.00    -0.323 N 
ATOM     25  H   UNL A   1      32.417  19.451  22.004  1.00  0.00     0.170 HD
ATOM     26  O   UNL A   1      32.129  21.505  21.991  1.00  0.00    -0.271 OA
BRANCH  24  27
ATOM     27  C   UNL A   1      32.760  18.429  23.622  1.00  0.00     0.041 A 
ATOM     28  C   UNL A   1      33.394  14.556  25.567  1.00  0.00     0.044 C 
ATOM     29  C   UNL A   1      33.146  15.903  24.949  1.00  0.00    -0.051 A 
ATOM     30  C   UNL A   1      33.684  16.169  23.698  1.00  0.00     0.005 A 
ATOM     31  C   UNL A   1      32.397  16.915  25.547  1.00  0.00     0.005 A 
ATOM     32  C   UNL A   1      33.491  17.415  23.072  1.00  0.00     0.026 A 
ATOM     33  C   UNL A   1      32.206  18.158  24.888  1.00  0.00     0.026 A 
ENDBRANCH  24  27
ENDBRANCH  22  23
ENDBRANCH  21  22
ENDBRANCH  15  21
ENDBRANCH   7  14
ENDBRANCH   5   6
ENDBRANCH   1   5
BRANCH   3  34
ATOM     34  C   UNL A   1      32.970  30.475  26.864  1.00  0.00     0.117 C 
BRANCH  34  35
ATOM     35  C   UNL A   1      33.414  31.558  27.846  1.00  0.00     0.042 C 
BRANCH  35  36
ATOM     36  C   UNL A   1      34.798  32.174  27.657  1.00  0.00     0.118 C 
BRANCH  36  37
ATOM     37  N   UNL A   1      35.197  32.718  28.958  1.00  0.00    -0.352 N 
ATOM     38  C   UNL A   1      35.772  32.144  30.061  1.00  0.00     0.251 C 
ATOM     39  H   UNL A   1      35.018  33.680  29.059  1.00  0.00     0.163 HD
ATOM     40  O   UNL A   1      35.617  32.564  31.201  1.00  0.00    -0.269 OA
BRANCH  38  41
ATOM     41  C   UNL A   1      36.723  31.063  29.817  1.00  0.00     0.039 A 
ATOM     42  C   UNL A   1      36.598  29.904  30.594  1.00  0.00     0.014 A 
ATOM     43  C   UNL A   1      37.815  31.286  28.991  1.00  0.00     0.014 A 
ATOM     44  C   UNL A   1      37.670  29.030  30.679  1.00  0.00     0.010 A 
ATOM     45  C   UNL A   1      38.863  30.401  29.040  1.00  0.00     0.010 A 
ATOM     46  C   UNL A   1      38.820  29.339  29.954  1.00  0.00    -0.014 A 
BRANCH  46  47
ATOM     47  C   UNL A   1      40.128  28.804  30.266  1.00  0.00     0.031 A 
ATOM     48  C   UNL A   1      40.600  27.541  29.696  1.00  0.00     0.074 A 
ATOM     49  C   UNL A   1      40.954  29.638  30.928  1.00  0.00     0.049 A 
ATOM     50  N   UNL A   1      41.681  26.953  30.075  1.00  0.00    -0.248 NA
ATOM     51  C   UNL A   1      39.857  26.795  28.687  1.00  0.00     0.031 C 
ATOM     52  C   UNL A   1      42.407  29.615  31.013  1.00  0.00     0.029 A 
ATOM     53  N   UNL A   1      40.604  30.659  31.794  1.00  0.00    -0.354 N 
ATOM     54  C   UNL A   1      41.953  25.978  29.149  1.00  0.00     0.074 A 
ATOM     55  C   UNL A   1      40.718  25.808  28.420  1.00  0.00     0.031 C 
ATOM     56  C   UNL A   1      42.790  30.405  32.033  1.00  0.00     0.029 A 
ATOM     57  C   UNL A   1      41.590  30.789  32.766  1.00  0.00     0.049 A 
ATOM     58  H   UNL A   1      39.787  31.204  31.731  1.00  0.00     0.167 HD
ATOM     59  C   UNL A   1      43.242  25.556  29.011  1.00  0.00     0.031 A 
ATOM     60  C   UNL A   1      41.315  30.385  34.047  1.00  0.00     0.031 A 
ATOM     61  C   UNL A   1      44.091  26.062  30.101  1.00  0.00     0.049 A 
ATOM     62  C   UNL A   1      42.052  29.113  34.466  1.00  0.00     0.074 A 
ATOM     63  C   UNL A   1      45.108  26.996  30.202  1.00  0.00     0.029 A 
ATOM     64  N   UNL A   1      43.710  25.782  31.406  1.00  0.00    -0.354 N 
ATOM     65  N   UNL A   1      42.879  28.445  33.704  1.00  0.00    -0.248 NA
ATOM     66  C   UNL A   1      41.868  28.460  35.764  1.00  0.00     0.031 C 
ATOM     67  C   UNL A   1      45.283  27.314  31.587  1.00  0.00     0.029 A 
ATOM     68  C   UNL A   1      44.406  26.541  32.327  1.00  0.00     0.049 A 
ATOM     69  H   UNL A   1      43.023  25.118  31.648  1.00  0.00     0.167 HD
ATOM     70  C   UNL A   1      43.285  27.301  34.333  1.00  0.00     0.074 A 
ATOM     71  C   UNL A   1      42.636  27.362  35.632  1.00  0.00     0.031 C 
ATOM     72  C   UNL A   1      44.087  26.365  33.739  1.00  0.00     0.031 A 
BRANCH  59  73
ATOM     73  C   UNL A   1      43.777  24.842  27.785  1.00  0.00    -0.014 A 
ATOM     74  C   UNL A   1      44.252  23.519  27.890  1.00  0.00     0.010 A 
ATOM     75  C   UNL A   1      43.929  25.445  26.519  1.00  0.00     0.010 A 
ATOM     76  C   UNL A   1      44.862  22.856  26.807  1.00  0.00     0.020 A 
ATOM     77  C   UNL A   1      44.510  24.791  25.425  1.00  0.00     0.020 A 
ATOM     78  C   UNL A   1      44.990  23.501  25.579  1.00  0.00     0.054 A 
BRANCH  78  79
ATOM     79  S   UNL A   1      45.806  22.664  24.195  1.00  0.00     0.124 S 
ATOM     80  O   UNL A   1      46.419  21.510  24.847  1.00  0.00    -0.237 OA
ATOM     81  O   UNL A   1      44.690  22.369  23.301  1.00  0.00    -0.237 OA
ATOM     82  O   UNL A   1      46.749  23.662  23.693  1.00  0.00    -0.744 OA
ENDBRANCH  78  79
ENDBRANCH  59  73
BRANCH  60  83
ATOM     83  C   UNL A   1      39.945  30.795  34.504  1.00  0.00    -0.014 A 
ATOM     84  C   UNL A   1      39.860  31.821  35.473  1.00  0.00     0.010 A 
ATOM     85  C   UNL A   1      38.799  30.501  33.745  1.00  0.00     0.010 A 
ATOM     86  C   UNL A   1      38.712  32.617  35.586  1.00  0.00     0.020 A 
ATOM     87  C   UNL A   1      37.643  31.293  33.862  1.00  0.00     0.020 A 
ATOM     88  C   UNL A   1      37.621  32.373  34.753  1.00  0.00     0.054 A 
BRANCH  88  89
ATOM     89  S   UNL A   1      36.258  33.581  34.723  1.00  0.00     0.124 S 
ATOM     90  O   UNL A   1      35.975  33.765  36.141  1.00  0.00    -0.237 OA
ATOM     91  O   UNL A   1      36.856  34.739  34.055  1.00  0.00    -0.237 OA
ATOM     92  O   UNL A   1      35.223  32.900  33.952  1.00  0.00    -0.744 OA
ENDBRANCH  88  89
ENDBRANCH  60  83
BRANCH  72  93
ATOM     93  C   UNL A   1      44.588  25.128  34.445  1.00  0.00    -0.014 A 
ATOM     94  C   UNL A   1      43.891  23.909  34.427  1.00  0.00     0.010 A 
ATOM     95  C   UNL A   1      45.742  25.197  35.257  1.00  0.00     0.010 A 
ATOM     96  C   UNL A   1      44.379  22.787  35.112  1.00  0.00     0.020 A 
ATOM     97  C   UNL A   1      46.225  24.092  35.962  1.00  0.00     0.020 A 
ATOM     98  C   UNL A   1      45.554  22.882  35.860  1.00  0.00     0.054 A 
BRANCH  98  99
ATOM     99  S   UNL A   1      46.171  21.425  36.738  1.00  0.00     0.124 S 
ATOM    100  O   UNL A   1      47.606  21.471  36.465  1.00  0.00    -0.237 OA
ATOM    101  O   UNL A   1      45.783  21.718  38.114  1.00  0.00    -0.237 OA
ATOM    102  O   UNL A   1      45.460  20.313  36.111  1.00  0.00    -0.744 OA
ENDBRANCH  98  99
ENDBRANCH  72  93
ENDBRANCH  46  47
ENDBRANCH  38  41
ENDBRANCH  36  37
ENDBRANCH  35  36
ENDBRANCH  34  35
ENDBRANCH   3  34
TORSDOF 19
ENDMDL
MODEL 3
REMARK VINA RESULT:     -11.9      2.596      4.157
REMARK SMILES Cc1ccc(NC(=O)COc2ccc(Cl)cc2/C=C2\SC(=S)N(CC(=O)NCCCNC(=O)c3ccc(-c4c5nc(c(-c6ccc(S(=O)(=O)[O-])cc6)c6ccc([nH]6)c(-c6ccc(S(=O)(=O)[O-])cc6)c6nc(c(-c7ccc(S(=O)(=O)[O-])cc7)c7ccc4[nH]7)C=C6)C=C5)cc3)C2=O)cc1
REMARK SMILES IDX 25 1 26 2 27 3 24 5 23 6 18 7 19 8 20 9 94 10 21 11 95 12
REMARK SMILES IDX 22 13 17 14 11 15 12 16 13 17 16 18 14 19 15 20 10 21 9 22
REMARK SMILES IDX 7 23 6 24 8 26 5 27 1 28 2 29 3 30 97 31 4 32 96 33 28 34
REMARK SMILES IDX 29 35 30 36 31 37 32 38 33 40 34 41 35 42 93 43 36 44 92 45
REMARK SMILES IDX 37 46 38 47 39 48 86 49 40 50 91 51 85 52 87 53 41 54 90 55
REMARK SMILES IDX 84 56 83 57 42 59 72 60 53 61 71 62 54 63 57 64 70 65 88 66
REMARK SMILES IDX 55 67 56 68 69 70 89 71 58 72 43 73 44 74 52 75 45 76 51 77
REMARK SMILES IDX 46 78 47 79 48 80 49 81 50 82 73 83 74 84 82 85 75 86 81 87
REMARK SMILES IDX 76 88 77 89 78 90 79 91 80 92 59 93 60 94 68 95 61 96 67 97
REMARK SMILES IDX 62 98 63 99 64 100 65 101 66 102
REMARK H PARENT 27 4 6 25 31 39 87 58 57 69
REMARK Flexibility Score: inf
ROOT
ATOM      1  C   UNL A   1      32.541  30.278  26.908  1.00  0.00     0.240 C 
ATOM      2  O   UNL A   1      31.464  29.906  27.377  1.00  0.00    -0.273 OA
ATOM      3  N   UNL A   1      33.411  30.988  27.697  1.00  0.00    -0.354 N 
ATOM      4  H   UNL A   1      33.013  31.389  28.504  1.00  0.00     0.163 HD
ENDROOT
BRANCH   1   5
ATOM      5  C   UNL A   1      32.921  29.931  25.477  1.00  0.00     0.227 C 
BRANCH   5   6
ATOM      6  N   UNL A   1      32.947  28.522  25.109  1.00  0.00    -0.283 N 
ATOM      7  C   UNL A   1      34.053  25.274  25.741  1.00  0.00     0.033 C 
ATOM      8  C   UNL A   1      33.866  26.386  25.039  1.00  0.00     0.081 C 
ATOM      9  S   UNL A   1      33.309  26.626  23.460  1.00  0.00    -0.054 SA
ATOM     10  C   UNL A   1      33.809  27.686  25.770  1.00  0.00     0.266 C 
ATOM     11  C   UNL A   1      32.242  27.880  24.125  1.00  0.00     0.148 C 
ATOM     12  O   UNL A   1      34.414  27.926  26.808  1.00  0.00    -0.268 OA
ATOM     13  S   UNL A   1      30.613  27.997  23.794  1.00  0.00    -0.052 S 
BRANCH   7  14
ATOM     14  C   UNL A   1      34.162  23.812  25.543  1.00  0.00     0.019 A 
ATOM     15  C   UNL A   1      35.344  23.466  24.908  1.00  0.00     0.127 A 
ATOM     16  C   UNL A   1      35.379  22.383  24.043  1.00  0.00     0.048 A 
ATOM     17  C   UNL A   1      34.445  21.373  24.228  1.00  0.00     0.024 A 
ATOM     18  C   UNL A   1      33.294  22.760  25.836  1.00  0.00     0.032 A 
ATOM     19  C   UNL A   1      33.521  21.504  25.260  1.00  0.00     0.041 A 
ATOM     20  Cl  UNL A   1      32.706  20.105  25.841  1.00  0.00    -0.084 Cl
BRANCH  15  21
ATOM     21  O   UNL A   1      36.431  24.266  25.092  1.00  0.00    -0.483 OA
BRANCH  21  22
ATOM     22  C   UNL A   1      37.508  23.641  25.790  1.00  0.00     0.329 C 
BRANCH  22  23
ATOM     23  C   UNL A   1      38.886  23.802  26.660  1.00  0.00     0.262 C 
ATOM     24  N   UNL A   1      40.093  23.185  26.754  1.00  0.00    -0.323 N 
ATOM     25  H   UNL A   1      40.690  23.789  27.251  1.00  0.00     0.170 HD
ATOM     26  O   UNL A   1      38.917  24.862  27.333  1.00  0.00    -0.271 OA
BRANCH  24  27
ATOM     27  C   UNL A   1      40.840  22.032  26.431  1.00  0.00     0.041 A 
ATOM     28  C   UNL A   1      43.313  18.490  25.706  1.00  0.00     0.044 C 
ATOM     29  C   UNL A   1      42.510  19.740  25.935  1.00  0.00    -0.051 A 
ATOM     30  C   UNL A   1      41.209  19.617  26.400  1.00  0.00     0.005 A 
ATOM     31  C   UNL A   1      42.988  21.031  25.717  1.00  0.00     0.005 A 
ATOM     32  C   UNL A   1      40.406  20.752  26.627  1.00  0.00     0.026 A 
ATOM     33  C   UNL A   1      42.163  22.159  25.966  1.00  0.00     0.026 A 
ENDBRANCH  24  27
ENDBRANCH  22  23
ENDBRANCH  21  22
ENDBRANCH  15  21
ENDBRANCH   7  14
ENDBRANCH   5   6
ENDBRANCH   1   5
BRANCH   3  34
ATOM     34  C   UNL A   1      34.832  31.237  27.517  1.00  0.00     0.117 C 
BRANCH  34  35
ATOM     35  C   UNL A   1      35.361  32.620  27.897  1.00  0.00     0.042 C 
BRANCH  35  36
ATOM     36  C   UNL A   1      36.372  32.713  29.036  1.00  0.00     0.118 C 
BRANCH  36  37
ATOM     37  N   UNL A   1      35.928  31.775  30.070  1.00  0.00    -0.352 N 
ATOM     38  C   UNL A   1      36.512  30.663  30.619  1.00  0.00     0.251 C 
ATOM     39  H   UNL A   1      35.041  31.983  30.442  1.00  0.00     0.163 HD
ATOM     40  O   UNL A   1      35.877  29.731  31.095  1.00  0.00    -0.269 OA
BRANCH  38  41
ATOM     41  C   UNL A   1      37.966  30.685  30.754  1.00  0.00     0.039 A 
ATOM     42  C   UNL A   1      38.725  30.644  29.578  1.00  0.00     0.014 A 
ATOM     43  C   UNL A   1      38.538  30.546  32.010  1.00  0.00     0.014 A 
ATOM     44  C   UNL A   1      40.061  30.282  29.649  1.00  0.00     0.010 A 
ATOM     45  C   UNL A   1      39.871  30.228  32.088  1.00  0.00     0.010 A 
ATOM     46  C   UNL A   1      40.592  30.004  30.907  1.00  0.00    -0.014 A 
BRANCH  46  47
ATOM     47  C   UNL A   1      41.787  29.212  31.112  1.00  0.00     0.031 A 
ATOM     48  C   UNL A   1      42.005  27.948  30.409  1.00  0.00     0.074 A 
ATOM     49  C   UNL A   1      42.769  29.814  31.814  1.00  0.00     0.049 A 
ATOM     50  N   UNL A   1      42.967  27.139  30.685  1.00  0.00    -0.248 NA
ATOM     51  C   UNL A   1      41.112  27.452  29.367  1.00  0.00     0.031 C 
ATOM     52  C   UNL A   1      44.194  29.520  31.835  1.00  0.00     0.029 A 
ATOM     53  N   UNL A   1      42.633  30.790  32.784  1.00  0.00    -0.354 N 
ATOM     54  C   UNL A   1      43.033  26.228  29.662  1.00  0.00     0.074 A 
ATOM     55  C   UNL A   1      41.770  26.357  28.973  1.00  0.00     0.031 C 
ATOM     56  C   UNL A   1      44.741  30.123  32.907  1.00  0.00     0.029 A 
ATOM     57  C   UNL A   1      43.651  30.643  33.722  1.00  0.00     0.049 A 
ATOM     58  H   UNL A   1      41.930  31.478  32.807  1.00  0.00     0.167 HD
ATOM     59  C   UNL A   1      44.219  25.595  29.431  1.00  0.00     0.031 A 
ATOM     60  C   UNL A   1      43.337  30.170  34.971  1.00  0.00     0.031 A 
ATOM     61  C   UNL A   1      45.172  25.830  30.526  1.00  0.00     0.049 A 
ATOM     62  C   UNL A   1      43.838  28.751  35.238  1.00  0.00     0.074 A 
ATOM     63  C   UNL A   1      46.346  26.549  30.670  1.00  0.00     0.029 A 
ATOM     64  N   UNL A   1      44.779  25.495  31.815  1.00  0.00    -0.354 N 
ATOM     65  N   UNL A   1      44.508  28.024  34.383  1.00  0.00    -0.248 NA
ATOM     66  C   UNL A   1      43.569  28.017  36.476  1.00  0.00     0.031 C 
ATOM     67  C   UNL A   1      46.611  26.692  32.070  1.00  0.00     0.029 A 
ATOM     68  C   UNL A   1      45.625  26.021  32.771  1.00  0.00     0.049 A 
ATOM     69  H   UNL A   1      43.988  24.945  32.023  1.00  0.00     0.167 HD
ATOM     70  C   UNL A   1      44.713  26.768  34.885  1.00  0.00     0.074 A 
ATOM     71  C   UNL A   1      44.118  26.817  36.211  1.00  0.00     0.031 C 
ATOM     72  C   UNL A   1      45.314  25.766  34.173  1.00  0.00     0.031 A 
BRANCH  59  73
ATOM     73  C   UNL A   1      44.583  24.922  28.122  1.00  0.00    -0.014 A 
ATOM     74  C   UNL A   1      45.189  23.649  28.129  1.00  0.00     0.010 A 
ATOM     75  C   UNL A   1      44.444  25.524  26.854  1.00  0.00     0.010 A 
ATOM     76  C   UNL A   1      45.648  23.034  26.948  1.00  0.00     0.020 A 
ATOM     77  C   UNL A   1      44.872  24.915  25.667  1.00  0.00     0.020 A 
ATOM     78  C   UNL A   1      45.489  23.676  25.721  1.00  0.00     0.054 A 
BRANCH  78  79
ATOM     79  S   UNL A   1      46.110  22.904  24.206  1.00  0.00     0.124 S 
ATOM     80  O   UNL A   1      47.176  23.817  23.805  1.00  0.00    -0.237 OA
ATOM     81  O   UNL A   1      46.541  21.589  24.672  1.00  0.00    -0.237 OA
ATOM     82  O   UNL A   1      44.945  22.890  23.321  1.00  0.00    -0.744 OA
ENDBRANCH  78  79
ENDBRANCH  59  73
BRANCH  60  83
ATOM     83  C   UNL A   1      42.078  30.774  35.521  1.00  0.00    -0.014 A 
ATOM     84  C   UNL A   1      42.059  32.174  35.724  1.00  0.00     0.010 A 
ATOM     85  C   UNL A   1      40.849  30.095  35.456  1.00  0.00     0.010 A 
ATOM     86  C   UNL A   1      40.854  32.889  35.727  1.00  0.00     0.020 A 
ATOM     87  C   UNL A   1      39.638  30.810  35.466  1.00  0.00     0.020 A 
ATOM     88  C   UNL A   1      39.649  32.207  35.560  1.00  0.00     0.054 A 
BRANCH  88  89
ATOM     89  S   UNL A   1      38.129  33.174  35.289  1.00  0.00     0.124 S 
ATOM     90  O   UNL A   1      38.209  34.178  36.343  1.00  0.00    -0.237 OA
ATOM     91  O   UNL A   1      38.302  33.689  33.929  1.00  0.00    -0.237 OA
ATOM     92  O   UNL A   1      37.070  32.182  35.436  1.00  0.00    -0.744 OA
ENDBRANCH  88  89
ENDBRANCH  60  83
BRANCH  72  93
ATOM     93  C   UNL A   1      45.596  24.396  34.739  1.00  0.00    -0.014 A 
ATOM     94  C   UNL A   1      46.664  24.143  35.616  1.00  0.00     0.010 A 
ATOM     95  C   UNL A   1      44.846  23.281  34.302  1.00  0.00     0.010 A 
ATOM     96  C   UNL A   1      46.908  22.852  36.106  1.00  0.00     0.020 A 
ATOM     97  C   UNL A   1      45.093  21.987  34.766  1.00  0.00     0.020 A 
ATOM     98  C   UNL A   1      46.108  21.785  35.691  1.00  0.00     0.054 A 
BRANCH  98  99
ATOM     99  S   UNL A   1      46.433  20.125  36.333  1.00  0.00     0.124 S 
ATOM    100  O   UNL A   1      45.735  19.269  35.377  1.00  0.00    -0.237 OA
ATOM    101  O   UNL A   1      47.891  20.065  36.281  1.00  0.00    -0.237 OA
ATOM    102  O   UNL A   1      45.855  20.150  37.675  1.00  0.00    -0.744 OA
ENDBRANCH  98  99
ENDBRANCH  72  93
ENDBRANCH  46  47
ENDBRANCH  38  41
ENDBRANCH  36  37
ENDBRANCH  35  36
ENDBRANCH  34  35
ENDBRANCH   3  34
TORSDOF 19
ENDMDL
