MODEL 1
REMARK VINA RESULT:     -13.4      0.000      0.000
REMARK SMILES CC(=O)Nc1ccc(/C=C2/CCc3oc(C(=O)NCCCNC(=O)c4ccc(-c5c6nc(c(-c7ccc(S(=O)(=O)[O-])cc7)c7ccc([nH]7)c(-c7ccc(S(=O)(=O)[O-])cc7)c7nc(c(-c8ccc(S(=O)(=O)[O-])cc8)c8ccc5[nH]8)C=C7)C=C6)cc4)c(C)c3C2=O)cc1
REMARK SMILES IDX 20 1 19 2 18 3 16 4 17 5 15 7 9 8 10 9 11 10 88 11 12 12
REMARK SMILES IDX 87 13 89 14 13 15 85 16 14 17 86 18 8 19 5 20 6 21 91 22
REMARK SMILES IDX 7 23 90 24 4 25 1 26 2 27 3 28 21 30 22 31 23 32 24 34 25 35
REMARK SMILES IDX 26 36 84 37 27 38 83 39 28 40 29 41 30 42 77 43 31 44 82 45
REMARK SMILES IDX 76 46 78 47 32 48 81 49 75 50 74 51 33 53 63 54 44 55 62 56
REMARK SMILES IDX 45 57 48 58 61 59 79 60 46 61 47 62 60 64 80 65 49 66 34 67
REMARK SMILES IDX 35 68 43 69 36 70 42 71 37 72 38 73 39 74 40 75 41 76 64 77
REMARK SMILES IDX 65 78 73 79 66 80 72 81 67 82 68 83 69 84 70 85 71 86 50 87
REMARK SMILES IDX 51 88 59 89 52 90 58 91 53 92 54 93 55 94 56 95 57 96
REMARK H PARENT 18 6 4 29 22 33 78 52 48 63
REMARK Flexibility Score: inf
ROOT
ATOM      1  C   UNL A   1      31.317  31.979  26.507  1.00  0.00     0.042 C 
ENDROOT
BRANCH   1   2
ATOM      2  C   UNL A   1      31.554  30.523  26.099  1.00  0.00     0.118 C 
BRANCH   2   3
ATOM      3  N   UNL A   1      32.629  29.893  26.847  1.00  0.00    -0.349 N 
ATOM      4  C   UNL A   1      33.348  28.742  26.600  1.00  0.00     0.287 C 
ATOM      5  O   UNL A   1      34.291  28.526  27.363  1.00  0.00    -0.266 OA
ATOM      6  H   UNL A   1      32.890  30.369  27.668  1.00  0.00     0.163 HD
BRANCH   4   7
ATOM      7  C   UNL A   1      33.015  27.860  25.490  1.00  0.00     0.195 A 
ATOM      8  C   UNL A   1      33.152  23.532  21.973  1.00  0.00     0.016 C 
ATOM      9  C   UNL A   1      32.604  24.743  22.194  1.00  0.00     0.001 C 
ATOM     10  C   UNL A   1      32.833  25.946  21.293  1.00  0.00     0.048 C 
ATOM     11  C   UNL A   1      31.799  25.044  23.435  1.00  0.00     0.192 C 
ATOM     12  C   UNL A   1      33.605  27.058  22.034  1.00  0.00     0.081 C 
ATOM     13  C   UNL A   1      32.320  26.228  24.095  1.00  0.00     0.067 A 
ATOM     14  O   UNL A   1      30.880  24.362  23.838  1.00  0.00    -0.289 OA
ATOM     15  C   UNL A   1      33.112  27.127  23.428  1.00  0.00     0.116 A 
ATOM     16  C   UNL A   1      32.252  26.687  25.444  1.00  0.00     0.012 A 
ATOM     17  O   UNL A   1      33.507  28.127  24.234  1.00  0.00    -0.455 OA
ATOM     18  C   UNL A   1      31.569  25.977  26.560  1.00  0.00     0.049 C 
BRANCH   8  19
ATOM     19  C   UNL A   1      33.160  22.362  22.872  1.00  0.00    -0.025 A 
ATOM     20  C   UNL A   1      33.192  20.043  24.482  1.00  0.00     0.041 A 
ATOM     21  C   UNL A   1      34.095  21.074  24.717  1.00  0.00     0.027 A 
ATOM     22  C   UNL A   1      32.258  20.176  23.454  1.00  0.00     0.027 A 
ATOM     23  C   UNL A   1      34.114  22.192  23.884  1.00  0.00     0.010 A 
ATOM     24  C   UNL A   1      32.237  21.332  22.661  1.00  0.00     0.010 A 
BRANCH  20  25
ATOM     25  N   UNL A   1      33.252  18.934  25.337  1.00  0.00    -0.326 N 
ATOM     26  C   UNL A   1      34.226  17.297  23.753  1.00  0.00     0.114 C 
ATOM     27  C   UNL A   1      33.564  17.633  25.062  1.00  0.00     0.221 C 
ATOM     28  O   UNL A   1      33.383  16.768  25.920  1.00  0.00    -0.275 OA
ATOM     29  H   UNL A   1      33.034  19.121  26.278  1.00  0.00     0.169 HD
ENDBRANCH  20  25
ENDBRANCH   8  19
ENDBRANCH   4   7
ENDBRANCH   2   3
ENDBRANCH   1   2
BRANCH   1  30
ATOM     30  C   UNL A   1      32.507  32.563  27.261  1.00  0.00     0.118 C 
BRANCH  30  31
ATOM     31  N   UNL A   1      32.271  33.947  27.686  1.00  0.00    -0.352 N 
ATOM     32  C   UNL A   1      32.979  34.714  28.591  1.00  0.00     0.251 C 
ATOM     33  H   UNL A   1      31.499  34.393  27.267  1.00  0.00     0.163 HD
ATOM     34  O   UNL A   1      32.486  35.737  29.055  1.00  0.00    -0.269 OA
BRANCH  32  35
ATOM     35  C   UNL A   1      34.321  34.271  29.003  1.00  0.00     0.039 A 
ATOM     36  C   UNL A   1      34.529  33.655  30.242  1.00  0.00     0.014 A 
ATOM     37  C   UNL A   1      35.367  34.422  28.102  1.00  0.00     0.014 A 
ATOM     38  C   UNL A   1      35.776  33.095  30.520  1.00  0.00     0.010 A 
ATOM     39  C   UNL A   1      36.541  33.741  28.315  1.00  0.00     0.010 A 
ATOM     40  C   UNL A   1      36.776  33.113  29.538  1.00  0.00    -0.014 A 
BRANCH  40  41
ATOM     41  C   UNL A   1      38.044  32.405  29.734  1.00  0.00     0.031 A 
ATOM     42  C   UNL A   1      38.091  30.973  29.312  1.00  0.00     0.074 A 
ATOM     43  C   UNL A   1      39.196  33.054  30.012  1.00  0.00     0.049 A 
ATOM     44  N   UNL A   1      38.356  29.935  30.036  1.00  0.00    -0.248 NA
ATOM     45  C   UNL A   1      37.742  30.648  27.919  1.00  0.00     0.031 C 
ATOM     46  C   UNL A   1      39.418  34.501  30.133  1.00  0.00     0.029 A 
ATOM     47  N   UNL A   1      40.459  32.554  30.077  1.00  0.00    -0.354 N 
ATOM     48  C   UNL A   1      38.386  28.843  29.170  1.00  0.00     0.074 A 
ATOM     49  C   UNL A   1      37.866  29.319  27.910  1.00  0.00     0.031 C 
ATOM     50  C   UNL A   1      40.730  34.769  29.967  1.00  0.00     0.029 A 
ATOM     51  C   UNL A   1      41.453  33.513  29.924  1.00  0.00     0.049 A 
ATOM     52  H   UNL A   1      40.652  31.599  30.219  1.00  0.00     0.167 HD
ATOM     53  C   UNL A   1      39.014  27.672  29.485  1.00  0.00     0.031 A 
ATOM     54  C   UNL A   1      42.776  33.293  29.732  1.00  0.00     0.031 A 
ATOM     55  C   UNL A   1      39.369  27.608  30.878  1.00  0.00     0.049 A 
ATOM     56  C   UNL A   1      43.060  31.915  30.201  1.00  0.00     0.074 A 
ATOM     57  C   UNL A   1      38.670  27.672  32.067  1.00  0.00     0.029 A 
ATOM     58  N   UNL A   1      40.686  27.837  31.207  1.00  0.00    -0.354 N 
ATOM     59  N   UNL A   1      42.966  31.550  31.448  1.00  0.00    -0.248 NA
ATOM     60  C   UNL A   1      43.039  30.830  29.233  1.00  0.00     0.031 C 
ATOM     61  C   UNL A   1      39.505  28.432  32.939  1.00  0.00     0.029 A 
ATOM     62  C   UNL A   1      40.684  28.727  32.250  1.00  0.00     0.049 A 
ATOM     63  H   UNL A   1      41.476  27.439  30.776  1.00  0.00     0.167 HD
ATOM     64  C   UNL A   1      42.441  30.267  31.405  1.00  0.00     0.074 A 
ATOM     65  C   UNL A   1      42.625  29.834  30.021  1.00  0.00     0.031 C 
ATOM     66  C   UNL A   1      41.655  29.787  32.417  1.00  0.00     0.031 A 
BRANCH  53  67
ATOM     67  C   UNL A   1      39.621  26.725  28.477  1.00  0.00    -0.014 A 
ATOM     68  C   UNL A   1      39.369  25.341  28.594  1.00  0.00     0.010 A 
ATOM     69  C   UNL A   1      40.641  27.113  27.587  1.00  0.00     0.010 A 
ATOM     70  C   UNL A   1      40.147  24.395  27.909  1.00  0.00     0.020 A 
ATOM     71  C   UNL A   1      41.392  26.181  26.864  1.00  0.00     0.020 A 
ATOM     72  C   UNL A   1      41.166  24.825  27.061  1.00  0.00     0.054 A 
BRANCH  72  73
ATOM     73  S   UNL A   1      42.247  23.601  26.278  1.00  0.00     0.124 S 
ATOM     74  O   UNL A   1      41.295  22.565  25.891  1.00  0.00    -0.237 OA
ATOM     75  O   UNL A   1      42.837  24.362  25.180  1.00  0.00    -0.237 OA
ATOM     76  O   UNL A   1      43.176  23.235  27.344  1.00  0.00    -0.744 OA
ENDBRANCH  72  73
ENDBRANCH  53  67
BRANCH  54  77
ATOM     77  C   UNL A   1      43.742  34.101  28.952  1.00  0.00    -0.014 A 
ATOM     78  C   UNL A   1      44.995  34.435  29.494  1.00  0.00     0.010 A 
ATOM     79  C   UNL A   1      43.545  34.313  27.570  1.00  0.00     0.010 A 
ATOM     80  C   UNL A   1      46.040  34.886  28.671  1.00  0.00     0.020 A 
ATOM     81  C   UNL A   1      44.579  34.775  26.746  1.00  0.00     0.020 A 
ATOM     82  C   UNL A   1      45.832  35.027  27.297  1.00  0.00     0.054 A 
BRANCH  82  83
ATOM     83  S   UNL A   1      47.246  35.396  26.218  1.00  0.00     0.124 S 
ATOM     84  O   UNL A   1      47.091  36.828  25.982  1.00  0.00    -0.237 OA
ATOM     85  O   UNL A   1      48.385  35.010  27.045  1.00  0.00    -0.237 OA
ATOM     86  O   UNL A   1      47.018  34.546  25.050  1.00  0.00    -0.744 OA
ENDBRANCH  82  83
ENDBRANCH  54  77
BRANCH  66  87
ATOM     87  C   UNL A   1      41.577  30.574  33.708  1.00  0.00    -0.014 A 
ATOM     88  C   UNL A   1      40.775  31.722  33.869  1.00  0.00     0.010 A 
ATOM     89  C   UNL A   1      42.211  30.042  34.845  1.00  0.00     0.010 A 
ATOM     90  C   UNL A   1      40.639  32.337  35.122  1.00  0.00     0.020 A 
ATOM     91  C   UNL A   1      42.064  30.638  36.100  1.00  0.00     0.020 A 
ATOM     92  C   UNL A   1      41.286  31.790  36.232  1.00  0.00     0.054 A 
BRANCH  92  93
ATOM     93  S   UNL A   1      41.066  32.560  37.861  1.00  0.00     0.124 S 
ATOM     94  O   UNL A   1      41.467  33.942  37.615  1.00  0.00    -0.237 OA
ATOM     95  O   UNL A   1      39.644  32.355  38.129  1.00  0.00    -0.237 OA
ATOM     96  O   UNL A   1      41.965  31.800  38.729  1.00  0.00    -0.744 OA
ENDBRANCH  92  93
ENDBRANCH  66  87
ENDBRANCH  40  41
ENDBRANCH  32  35
ENDBRANCH  30  31
ENDBRANCH   1  30
TORSDOF 15
ENDMDL
MODEL 2
REMARK VINA RESULT:     -13.4      4.092     10.109
REMARK SMILES CC(=O)Nc1ccc(/C=C2/CCc3oc(C(=O)NCCCNC(=O)c4ccc(-c5c6nc(c(-c7ccc(S(=O)(=O)[O-])cc7)c7ccc([nH]7)c(-c7ccc(S(=O)(=O)[O-])cc7)c7nc(c(-c8ccc(S(=O)(=O)[O-])cc8)c8ccc5[nH]8)C=C7)C=C6)cc4)c(C)c3C2=O)cc1
REMARK SMILES IDX 20 1 19 2 18 3 16 4 17 5 15 7 9 8 10 9 11 10 88 11 12 12
REMARK SMILES IDX 87 13 89 14 13 15 85 16 14 17 86 18 8 19 5 20 6 21 91 22
REMARK SMILES IDX 7 23 90 24 4 25 1 26 2 27 3 28 21 30 22 31 23 32 24 34 25 35
REMARK SMILES IDX 26 36 84 37 27 38 83 39 28 40 29 41 30 42 77 43 31 44 82 45
REMARK SMILES IDX 76 46 78 47 32 48 81 49 75 50 74 51 33 53 63 54 44 55 62 56
REMARK SMILES IDX 45 57 48 58 61 59 79 60 46 61 47 62 60 64 80 65 49 66 34 67
REMARK SMILES IDX 35 68 43 69 36 70 42 71 37 72 38 73 39 74 40 75 41 76 64 77
REMARK SMILES IDX 65 78 73 79 66 80 72 81 67 82 68 83 69 84 70 85 71 86 50 87
REMARK SMILES IDX 51 88 59 89 52 90 58 91 53 92 54 93 55 94 56 95 57 96
REMARK H PARENT 18 6 4 29 22 33 78 52 48 63
REMARK Flexibility Score: inf
ROOT
ATOM      1  C   UNL A   1      37.815  19.524  24.965  1.00  0.00     0.042 C 
ENDROOT
BRANCH   1   2
ATOM      2  C   UNL A   1      36.743  20.606  24.812  1.00  0.00     0.118 C 
BRANCH   2   3
ATOM      3  N   UNL A   1      37.253  21.947  25.044  1.00  0.00    -0.349 N 
ATOM      4  C   UNL A   1      36.600  23.123  25.348  1.00  0.00     0.287 C 
ATOM      5  O   UNL A   1      37.323  24.086  25.607  1.00  0.00    -0.266 OA
ATOM      6  H   UNL A   1      38.231  22.030  24.972  1.00  0.00     0.163 HD
BRANCH   4   7
ATOM      7  C   UNL A   1      35.145  23.199  25.379  1.00  0.00     0.195 A 
ATOM      8  C   UNL A   1      29.985  25.262  25.869  1.00  0.00     0.016 C 
ATOM      9  C   UNL A   1      30.701  24.126  25.745  1.00  0.00     0.001 C 
ATOM     10  C   UNL A   1      30.761  23.051  26.818  1.00  0.00     0.048 C 
ATOM     11  C   UNL A   1      31.608  23.875  24.566  1.00  0.00     0.192 C 
ATOM     12  C   UNL A   1      32.185  22.926  27.402  1.00  0.00     0.081 C 
ATOM     13  C   UNL A   1      32.941  23.525  25.024  1.00  0.00     0.067 A 
ATOM     14  O   UNL A   1      31.273  23.995  23.406  1.00  0.00    -0.289 OA
ATOM     15  C   UNL A   1      33.163  23.079  26.301  1.00  0.00     0.116 A 
ATOM     16  C   UNL A   1      34.225  23.616  24.410  1.00  0.00     0.012 A 
ATOM     17  O   UNL A   1      34.467  22.844  26.521  1.00  0.00    -0.455 OA
ATOM     18  C   UNL A   1      34.488  24.141  23.041  1.00  0.00     0.049 C 
BRANCH   8  19
ATOM     19  C   UNL A   1      30.007  26.447  24.991  1.00  0.00    -0.025 A 
ATOM     20  C   UNL A   1      29.923  28.747  23.356  1.00  0.00     0.041 A 
ATOM     21  C   UNL A   1      30.941  28.586  24.289  1.00  0.00     0.027 A 
ATOM     22  C   UNL A   1      28.954  27.751  23.224  1.00  0.00     0.027 A 
ATOM     23  C   UNL A   1      30.947  27.477  25.134  1.00  0.00     0.010 A 
ATOM     24  C   UNL A   1      29.002  26.605  24.031  1.00  0.00     0.010 A 
BRANCH  20  25
ATOM     25  N   UNL A   1      29.959  29.903  22.563  1.00  0.00    -0.326 N 
ATOM     26  C   UNL A   1      28.014  31.085  23.541  1.00  0.00     0.114 C 
ATOM     27  C   UNL A   1      29.068  30.933  22.476  1.00  0.00     0.221 C 
ATOM     28  O   UNL A   1      29.190  31.772  21.582  1.00  0.00    -0.275 OA
ATOM     29  H   UNL A   1      30.747  29.982  21.979  1.00  0.00     0.169 HD
ENDBRANCH  20  25
ENDBRANCH   8  19
ENDBRANCH   4   7
ENDBRANCH   2   3
ENDBRANCH   1   2
BRANCH   1  30
ATOM     30  C   UNL A   1      39.054  20.045  25.685  1.00  0.00     0.118 C 
BRANCH  30  31
ATOM     31  N   UNL A   1      40.146  19.065  25.693  1.00  0.00    -0.352 N 
ATOM     32  C   UNL A   1      41.492  19.261  25.934  1.00  0.00     0.251 C 
ATOM     33  H   UNL A   1      39.882  18.136  25.500  1.00  0.00     0.163 HD
ATOM     34  O   UNL A   1      42.309  18.405  25.614  1.00  0.00    -0.269 OA
BRANCH  32  35
ATOM     35  C   UNL A   1      41.927  20.521  26.558  1.00  0.00     0.039 A 
ATOM     36  C   UNL A   1      42.575  21.511  25.811  1.00  0.00     0.014 A 
ATOM     37  C   UNL A   1      41.621  20.730  27.897  1.00  0.00     0.014 A 
ATOM     38  C   UNL A   1      42.813  22.755  26.396  1.00  0.00     0.010 A 
ATOM     39  C   UNL A   1      41.719  21.997  28.419  1.00  0.00     0.010 A 
ATOM     40  C   UNL A   1      42.355  23.007  27.696  1.00  0.00    -0.014 A 
BRANCH  40  41
ATOM     41  C   UNL A   1      42.451  24.344  28.289  1.00  0.00     0.031 A 
ATOM     42  C   UNL A   1      41.294  25.263  28.071  1.00  0.00     0.074 A 
ATOM     43  C   UNL A   1      43.384  24.656  29.215  1.00  0.00     0.049 A 
ATOM     44  N   UNL A   1      41.293  26.424  27.500  1.00  0.00    -0.248 NA
ATOM     45  C   UNL A   1      39.958  24.811  28.490  1.00  0.00     0.031 C 
ATOM     46  C   UNL A   1      44.402  23.782  29.809  1.00  0.00     0.029 A 
ATOM     47  N   UNL A   1      43.503  25.794  29.950  1.00  0.00    -0.354 N 
ATOM     48  C   UNL A   1      40.003  26.935  27.639  1.00  0.00     0.074 A 
ATOM     49  C   UNL A   1      39.195  25.845  28.130  1.00  0.00     0.031 C 
ATOM     50  C   UNL A   1      44.823  24.313  30.977  1.00  0.00     0.029 A 
ATOM     51  C   UNL A   1      44.254  25.639  31.110  1.00  0.00     0.049 A 
ATOM     52  H   UNL A   1      43.097  26.651  29.684  1.00  0.00     0.167 HD
ATOM     53  C   UNL A   1      39.725  28.266  27.525  1.00  0.00     0.031 A 
ATOM     54  C   UNL A   1      44.366  26.522  32.131  1.00  0.00     0.031 A 
ATOM     55  C   UNL A   1      40.831  29.006  26.976  1.00  0.00     0.049 A 
ATOM     56  C   UNL A   1      43.977  27.851  31.603  1.00  0.00     0.074 A 
ATOM     57  C   UNL A   1      41.552  28.952  25.801  1.00  0.00     0.029 A 
ATOM     58  N   UNL A   1      41.599  29.738  27.853  1.00  0.00    -0.354 N 
ATOM     59  N   UNL A   1      44.664  28.490  30.697  1.00  0.00    -0.248 NA
ATOM     60  C   UNL A   1      42.601  28.292  31.763  1.00  0.00     0.031 C 
ATOM     61  C   UNL A   1      42.901  29.200  26.190  1.00  0.00     0.029 A 
ATOM     62  C   UNL A   1      42.909  29.451  27.565  1.00  0.00     0.049 A 
ATOM     63  H   UNL A   1      41.271  30.349  28.551  1.00  0.00     0.167 HD
ATOM     64  C   UNL A   1      43.712  29.092  29.888  1.00  0.00     0.074 A 
ATOM     65  C   UNL A   1      42.474  29.038  30.663  1.00  0.00     0.031 C 
ATOM     66  C   UNL A   1      43.951  29.320  28.561  1.00  0.00     0.031 A 
BRANCH  53  67
ATOM     67  C   UNL A   1      38.584  28.967  28.226  1.00  0.00    -0.014 A 
ATOM     68  C   UNL A   1      37.677  29.737  27.465  1.00  0.00     0.010 A 
ATOM     69  C   UNL A   1      38.529  29.118  29.625  1.00  0.00     0.010 A 
ATOM     70  C   UNL A   1      36.812  30.659  28.071  1.00  0.00     0.020 A 
ATOM     71  C   UNL A   1      37.638  30.001  30.243  1.00  0.00     0.020 A 
ATOM     72  C   UNL A   1      36.813  30.796  29.459  1.00  0.00     0.054 A 
BRANCH  72  73
ATOM     73  S   UNL A   1      35.786  32.074  30.227  1.00  0.00     0.124 S 
ATOM     74  O   UNL A   1      36.655  33.244  30.148  1.00  0.00    -0.237 OA
ATOM     75  O   UNL A   1      34.612  32.096  29.358  1.00  0.00    -0.237 OA
ATOM     76  O   UNL A   1      35.548  31.558  31.573  1.00  0.00    -0.744 OA
ENDBRANCH  72  73
ENDBRANCH  53  67
BRANCH  54  77
ATOM     77  C   UNL A   1      44.549  26.243  33.574  1.00  0.00    -0.014 A 
ATOM     78  C   UNL A   1      45.303  27.114  34.380  1.00  0.00     0.010 A 
ATOM     79  C   UNL A   1      43.756  25.270  34.221  1.00  0.00     0.010 A 
ATOM     80  C   UNL A   1      45.205  27.069  35.780  1.00  0.00     0.020 A 
ATOM     81  C   UNL A   1      43.663  25.211  35.617  1.00  0.00     0.020 A 
ATOM     82  C   UNL A   1      44.364  26.134  36.388  1.00  0.00     0.054 A 
BRANCH  82  83
ATOM     83  S   UNL A   1      44.077  26.230  38.180  1.00  0.00     0.124 S 
ATOM     84  O   UNL A   1      42.620  26.219  38.263  1.00  0.00    -0.237 OA
ATOM     85  O   UNL A   1      44.749  25.032  38.673  1.00  0.00    -0.237 OA
ATOM     86  O   UNL A   1      44.711  27.491  38.562  1.00  0.00    -0.744 OA
ENDBRANCH  82  83
ENDBRANCH  54  77
BRANCH  66  87
ATOM     87  C   UNL A   1      45.362  29.148  28.039  1.00  0.00    -0.014 A 
ATOM     88  C   UNL A   1      46.294  30.203  27.959  1.00  0.00     0.010 A 
ATOM     89  C   UNL A   1      45.812  27.843  27.773  1.00  0.00     0.010 A 
ATOM     90  C   UNL A   1      47.626  29.962  27.591  1.00  0.00     0.020 A 
ATOM     91  C   UNL A   1      47.143  27.593  27.425  1.00  0.00     0.020 A 
ATOM     92  C   UNL A   1      48.042  28.656  27.326  1.00  0.00     0.054 A 
BRANCH  92  93
ATOM     93  S   UNL A   1      49.778  28.344  26.900  1.00  0.00     0.124 S 
ATOM     94  O   UNL A   1      49.848  26.885  26.900  1.00  0.00    -0.237 OA
ATOM     95  O   UNL A   1      49.913  28.980  25.592  1.00  0.00    -0.237 OA
ATOM     96  O   UNL A   1      50.523  28.999  27.976  1.00  0.00    -0.744 OA
ENDBRANCH  92  93
ENDBRANCH  66  87
ENDBRANCH  40  41
ENDBRANCH  32  35
ENDBRANCH  30  31
ENDBRANCH   1  30
TORSDOF 15
ENDMDL
MODEL 3
REMARK VINA RESULT:     -13.0      3.214      8.991
REMARK SMILES CC(=O)Nc1ccc(/C=C2/CCc3oc(C(=O)NCCCNC(=O)c4ccc(-c5c6nc(c(-c7ccc(S(=O)(=O)[O-])cc7)c7ccc([nH]7)c(-c7ccc(S(=O)(=O)[O-])cc7)c7nc(c(-c8ccc(S(=O)(=O)[O-])cc8)c8ccc5[nH]8)C=C7)C=C6)cc4)c(C)c3C2=O)cc1
REMARK SMILES IDX 20 1 19 2 18 3 16 4 17 5 15 7 9 8 10 9 11 10 88 11 12 12
REMARK SMILES IDX 87 13 89 14 13 15 85 16 14 17 86 18 8 19 5 20 6 21 91 22
REMARK SMILES IDX 7 23 90 24 4 25 1 26 2 27 3 28 21 30 22 31 23 32 24 34 25 35
REMARK SMILES IDX 26 36 84 37 27 38 83 39 28 40 29 41 30 42 77 43 31 44 82 45
REMARK SMILES IDX 76 46 78 47 32 48 81 49 75 50 74 51 33 53 63 54 44 55 62 56
REMARK SMILES IDX 45 57 48 58 61 59 79 60 46 61 47 62 60 64 80 65 49 66 34 67
REMARK SMILES IDX 35 68 43 69 36 70 42 71 37 72 38 73 39 74 40 75 41 76 64 77
REMARK SMILES IDX 65 78 73 79 66 80 72 81 67 82 68 83 69 84 70 85 71 86 50 87
REMARK SMILES IDX 51 88 59 89 52 90 58 91 53 92 54 93 55 94 56 95 57 96
REMARK H PARENT 18 6 4 29 22 33 78 52 48 63
REMARK Flexibility Score: inf
ROOT
ATOM      1  C   UNL A   1      38.824  21.435  26.126  1.00  0.00     0.042 C 
ENDROOT
BRANCH   1   2
ATOM      2  C   UNL A   1      37.534  22.147  25.709  1.00  0.00     0.118 C 
BRANCH   2   3
ATOM      3  N   UNL A   1      37.440  22.355  24.274  1.00  0.00    -0.349 N 
ATOM      4  C   UNL A   1      36.379  22.746  23.484  1.00  0.00     0.287 C 
ATOM      5  O   UNL A   1      36.642  22.953  22.298  1.00  0.00    -0.266 OA
ATOM      6  H   UNL A   1      38.276  22.190  23.781  1.00  0.00     0.163 HD
BRANCH   4   7
ATOM      7  C   UNL A   1      35.043  22.922  24.038  1.00  0.00     0.195 A 
ATOM      8  C   UNL A   1      30.434  25.375  26.003  1.00  0.00     0.016 C 
ATOM      9  C   UNL A   1      31.059  24.191  25.843  1.00  0.00     0.001 C 
ATOM     10  C   UNL A   1      31.527  23.326  27.002  1.00  0.00     0.048 C 
ATOM     11  C   UNL A   1      31.456  23.672  24.483  1.00  0.00     0.192 C 
ATOM     12  C   UNL A   1      33.067  23.215  27.028  1.00  0.00     0.081 C 
ATOM     13  C   UNL A   1      32.865  23.323  24.471  1.00  0.00     0.067 A 
ATOM     14  O   UNL A   1      30.707  23.601  23.531  1.00  0.00    -0.289 OA
ATOM     15  C   UNL A   1      33.556  23.101  25.635  1.00  0.00     0.116 A 
ATOM     16  C   UNL A   1      33.823  23.217  23.419  1.00  0.00     0.012 A 
ATOM     17  O   UNL A   1      34.849  22.825  25.396  1.00  0.00    -0.455 OA
ATOM     18  C   UNL A   1      33.547  23.467  21.978  1.00  0.00     0.049 C 
BRANCH   8  19
ATOM     19  C   UNL A   1      30.115  26.378  24.970  1.00  0.00    -0.025 A 
ATOM     20  C   UNL A   1      29.396  28.337  23.068  1.00  0.00     0.041 A 
ATOM     21  C   UNL A   1      30.661  28.349  23.644  1.00  0.00     0.027 A 
ATOM     22  C   UNL A   1      28.492  27.336  23.426  1.00  0.00     0.027 A 
ATOM     23  C   UNL A   1      30.993  27.414  24.625  1.00  0.00     0.010 A 
ATOM     24  C   UNL A   1      28.854  26.358  24.364  1.00  0.00     0.010 A 
BRANCH  20  25
ATOM     25  N   UNL A   1      29.119  29.326  22.115  1.00  0.00    -0.326 N 
ATOM     26  C   UNL A   1      27.667  30.780  23.499  1.00  0.00     0.114 C 
ATOM     27  C   UNL A   1      28.247  30.376  22.170  1.00  0.00     0.221 C 
ATOM     28  O   UNL A   1      28.015  31.032  21.153  1.00  0.00    -0.275 OA
ATOM     29  H   UNL A   1      29.629  29.252  21.277  1.00  0.00     0.169 HD
ENDBRANCH  20  25
ENDBRANCH   8  19
ENDBRANCH   4   7
ENDBRANCH   2   3
ENDBRANCH   1   2
BRANCH   1  30
ATOM     30  C   UNL A   1      39.939  22.420  26.461  1.00  0.00     0.118 C 
BRANCH  30  31
ATOM     31  N   UNL A   1      41.202  22.075  25.800  1.00  0.00    -0.352 N 
ATOM     32  C   UNL A   1      42.267  22.892  25.473  1.00  0.00     0.251 C 
ATOM     33  H   UNL A   1      41.307  21.127  25.555  1.00  0.00     0.163 HD
ATOM     34  O   UNL A   1      43.111  22.517  24.666  1.00  0.00    -0.269 OA
BRANCH  32  35
ATOM     35  C   UNL A   1      42.357  24.225  26.091  1.00  0.00     0.039 A 
ATOM     36  C   UNL A   1      41.687  25.324  25.541  1.00  0.00     0.014 A 
ATOM     37  C   UNL A   1      43.073  24.353  27.274  1.00  0.00     0.014 A 
ATOM     38  C   UNL A   1      41.656  26.524  26.250  1.00  0.00     0.010 A 
ATOM     39  C   UNL A   1      42.913  25.483  28.038  1.00  0.00     0.010 A 
ATOM     40  C   UNL A   1      42.247  26.593  27.519  1.00  0.00    -0.014 A 
BRANCH  40  41
ATOM     41  C   UNL A   1      42.105  27.786  28.358  1.00  0.00     0.031 A 
ATOM     42  C   UNL A   1      43.148  28.845  28.208  1.00  0.00     0.074 A 
ATOM     43  C   UNL A   1      40.964  28.066  29.025  1.00  0.00     0.049 A 
ATOM     44  N   UNL A   1      43.940  29.319  29.113  1.00  0.00    -0.248 NA
ATOM     45  C   UNL A   1      43.379  29.409  26.868  1.00  0.00     0.031 C 
ATOM     46  C   UNL A   1      39.704  27.313  29.026  1.00  0.00     0.029 A 
ATOM     47  N   UNL A   1      40.638  29.192  29.716  1.00  0.00    -0.354 N 
ATOM     48  C   UNL A   1      44.649  30.361  28.516  1.00  0.00     0.074 A 
ATOM     49  C   UNL A   1      44.363  30.278  27.104  1.00  0.00     0.031 C 
ATOM     50  C   UNL A   1      38.699  28.121  29.426  1.00  0.00     0.029 A 
ATOM     51  C   UNL A   1      39.270  29.370  29.888  1.00  0.00     0.049 A 
ATOM     52  H   UNL A   1      41.310  29.823  30.063  1.00  0.00     0.167 HD
ATOM     53  C   UNL A   1      45.268  31.339  29.241  1.00  0.00     0.031 A 
ATOM     54  C   UNL A   1      38.645  30.484  30.339  1.00  0.00     0.031 A 
ATOM     55  C   UNL A   1      45.343  31.009  30.639  1.00  0.00     0.049 A 
ATOM     56  C   UNL A   1      39.654  31.283  31.075  1.00  0.00     0.074 A 
ATOM     57  C   UNL A   1      45.896  29.976  31.369  1.00  0.00     0.029 A 
ATOM     58  N   UNL A   1      44.449  31.626  31.484  1.00  0.00    -0.354 N 
ATOM     59  N   UNL A   1      40.207  30.888  32.188  1.00  0.00    -0.248 NA
ATOM     60  C   UNL A   1      40.370  32.330  30.364  1.00  0.00     0.031 C 
ATOM     61  C   UNL A   1      44.950  29.716  32.404  1.00  0.00     0.029 A 
ATOM     62  C   UNL A   1      43.914  30.645  32.279  1.00  0.00     0.049 A 
ATOM     63  H   UNL A   1      44.235  32.587  31.512  1.00  0.00     0.167 HD
ATOM     64  C   UNL A   1      41.526  31.304  32.097  1.00  0.00     0.074 A 
ATOM     65  C   UNL A   1      41.534  32.289  31.017  1.00  0.00     0.031 C 
ATOM     66  C   UNL A   1      42.533  30.610  32.709  1.00  0.00     0.031 A 
BRANCH  53  67
ATOM     67  C   UNL A   1      45.502  32.750  28.754  1.00  0.00    -0.014 A 
ATOM     68  C   UNL A   1      46.791  33.313  28.869  1.00  0.00     0.010 A 
ATOM     69  C   UNL A   1      44.448  33.631  28.440  1.00  0.00     0.010 A 
ATOM     70  C   UNL A   1      47.000  34.695  28.746  1.00  0.00     0.020 A 
ATOM     71  C   UNL A   1      44.652  35.004  28.270  1.00  0.00     0.020 A 
ATOM     72  C   UNL A   1      45.921  35.532  28.465  1.00  0.00     0.054 A 
BRANCH  72  73
ATOM     73  S   UNL A   1      46.173  37.325  28.431  1.00  0.00     0.124 S 
ATOM     74  O   UNL A   1      44.889  37.817  28.920  1.00  0.00    -0.237 OA
ATOM     75  O   UNL A   1      47.305  37.499  29.337  1.00  0.00    -0.237 OA
ATOM     76  O   UNL A   1      46.459  37.603  27.025  1.00  0.00    -0.744 OA
ENDBRANCH  72  73
ENDBRANCH  53  67
BRANCH  54  77
ATOM     77  C   UNL A   1      37.310  31.007  29.966  1.00  0.00    -0.014 A 
ATOM     78  C   UNL A   1      36.486  31.614  30.929  1.00  0.00     0.010 A 
ATOM     79  C   UNL A   1      36.956  31.158  28.607  1.00  0.00     0.010 A 
ATOM     80  C   UNL A   1      35.395  32.412  30.546  1.00  0.00     0.020 A 
ATOM     81  C   UNL A   1      35.862  31.942  28.219  1.00  0.00     0.020 A 
ATOM     82  C   UNL A   1      35.107  32.592  29.191  1.00  0.00     0.054 A 
BRANCH  82  83
ATOM     83  S   UNL A   1      33.838  33.797  28.706  1.00  0.00     0.124 S 
ATOM     84  O   UNL A   1      33.285  34.204  29.994  1.00  0.00    -0.237 OA
ATOM     85  O   UNL A   1      34.618  34.812  28.002  1.00  0.00    -0.237 OA
ATOM     86  O   UNL A   1      32.933  33.021  27.859  1.00  0.00    -0.744 OA
ENDBRANCH  82  83
ENDBRANCH  54  77
BRANCH  66  87
ATOM     87  C   UNL A   1      42.166  29.529  33.704  1.00  0.00    -0.014 A 
ATOM     88  C   UNL A   1      41.910  28.192  33.337  1.00  0.00     0.010 A 
ATOM     89  C   UNL A   1      42.241  29.839  35.073  1.00  0.00     0.010 A 
ATOM     90  C   UNL A   1      41.701  27.204  34.311  1.00  0.00     0.020 A 
ATOM     91  C   UNL A   1      42.054  28.856  36.049  1.00  0.00     0.020 A 
ATOM     92  C   UNL A   1      41.775  27.544  35.664  1.00  0.00     0.054 A 
BRANCH  92  93
ATOM     93  S   UNL A   1      41.556  26.251  36.919  1.00  0.00     0.124 S 
ATOM     94  O   UNL A   1      42.816  26.306  37.655  1.00  0.00    -0.237 OA
ATOM     95  O   UNL A   1      40.378  26.707  37.654  1.00  0.00    -0.237 OA
ATOM     96  O   UNL A   1      41.351  25.035  36.133  1.00  0.00    -0.744 OA
ENDBRANCH  92  93
ENDBRANCH  66  87
ENDBRANCH  40  41
ENDBRANCH  32  35
ENDBRANCH  30  31
ENDBRANCH   1  30
TORSDOF 15
ENDMDL
