MODEL 1
REMARK VINA RESULT:     -11.5      0.000      0.000
REMARK SMILES CC(C)C[C@@H](NC(=O)Cn1nc(O)ccc1=O)C(=O)NCCCNC(=O)c1ccc(-c2c3nc(c(-c4ccc(S(=O)(=O)[O-])cc4)c4ccc([nH]4)c(-c4ccc(S(=O)(=O)[O-])cc4)c4nc(c(-c5ccc(S(=O)(=O)[O-])cc5)c5ccc2[nH]5)C=C4)C=C3)cc1
REMARK SMILES IDX 21 1 20 2 18 3 19 4 5 6 4 7 2 8 1 9 3 10 6 11 7 12 8 14 9 15
REMARK SMILES IDX 10 16 11 17 16 18 12 19 15 20 17 21 14 22 13 23 22 25 23 26
REMARK SMILES IDX 24 27 25 28 26 30 27 31 28 32 86 33 29 34 85 35 30 36 31 37
REMARK SMILES IDX 32 38 79 39 33 40 84 41 78 42 80 43 34 44 83 45 77 46 76 47
REMARK SMILES IDX 35 49 65 50 46 51 64 52 47 53 50 54 63 55 81 56 48 57 49 58
REMARK SMILES IDX 62 60 82 61 51 62 36 63 37 64 45 65 38 66 44 67 39 68 40 69
REMARK SMILES IDX 41 70 42 71 43 72 66 73 67 74 75 75 68 76 74 77 69 78 70 79
REMARK SMILES IDX 71 80 72 81 73 82 52 83 53 84 61 85 54 86 60 87 55 88 56 89
REMARK SMILES IDX 57 90 58 91 59 92
REMARK H PARENT 20 5 6 13 13 24 24 29 80 48 50 59
REMARK Flexibility Score: inf
ROOT
ATOM      1  C   UNL A   1      34.624  23.220  25.577  1.00  0.00     0.117 C 
ENDROOT
BRANCH   1   2
ATOM      2  N   UNL A   1      32.867  24.213  26.126  1.00  0.00    -0.354 N 
ATOM      3  C   UNL A   1      32.038  25.360  25.976  1.00  0.00     0.242 C 
ATOM      4  O   UNL A   1      30.959  25.225  26.586  1.00  0.00    -0.273 OA
ATOM      5  H   UNL A   1      32.412  23.627  26.773  1.00  0.00     0.163 HD
BRANCH   3   6
ATOM      6  C   UNL A   1      32.332  26.790  25.328  1.00  0.00     0.171 C 
BRANCH   6   7
ATOM      7  C   UNL A   1      32.832  27.713  26.476  1.00  0.00     0.038 C 
BRANCH   7   8
ATOM      8  C   UNL A   1      33.289  29.152  26.197  1.00  0.00    -0.015 C 
ATOM      9  C   UNL A   1      32.112  30.085  25.975  1.00  0.00     0.007 C 
ATOM     10  C   UNL A   1      34.133  29.628  27.395  1.00  0.00     0.007 C 
ENDBRANCH   7   8
ENDBRANCH   6   7
BRANCH   6  11
ATOM     11  N   UNL A   1      33.126  27.013  24.108  1.00  0.00    -0.343 N 
ATOM     12  C   UNL A   1      32.752  27.158  22.809  1.00  0.00     0.242 C 
ATOM     13  H   UNL A   1      34.098  27.066  24.260  1.00  0.00     0.164 HD
ATOM     14  O   UNL A   1      33.545  27.708  22.037  1.00  0.00    -0.273 OA
BRANCH  12  15
ATOM     15  C   UNL A   1      31.361  26.802  22.362  1.00  0.00     0.248 C 
BRANCH  15  16
ATOM     16  N   UNL A   1      30.408  27.836  22.651  1.00  0.00    -0.217 N 
ATOM     17  N   UNL A   1      30.490  29.507  21.801  1.00  0.00    -0.131 NA
ATOM     18  C   UNL A   1      28.886  27.322  23.459  1.00  0.00     0.267 A 
ATOM     19  C   UNL A   1      29.204  30.323  21.695  1.00  0.00     0.229 A 
ATOM     20  C   UNL A   1      27.440  28.630  23.406  1.00  0.00     0.079 A 
ATOM     21  O   UNL A   1      28.756  26.241  24.021  1.00  0.00    -0.268 OA
ATOM     22  C   UNL A   1      27.557  29.906  22.599  1.00  0.00     0.075 A 
BRANCH  19  23
ATOM     23  O   UNL A   1      29.029  31.489  21.043  1.00  0.00    -0.492 OA
ATOM     24  H   UNL A   1      29.089  32.300  21.507  1.00  0.00     0.295 HD
ENDBRANCH  19  23
ENDBRANCH  15  16
ENDBRANCH  12  15
ENDBRANCH   6  11
ENDBRANCH   3   6
ENDBRANCH   1   2
BRANCH   1  25
ATOM     25  C   UNL A   1      36.156  23.185  26.293  1.00  0.00     0.042 C 
BRANCH  25  26
ATOM     26  C   UNL A   1      37.261  23.301  25.274  1.00  0.00     0.118 C 
BRANCH  26  27
ATOM     27  N   UNL A   1      38.432  22.477  25.500  1.00  0.00    -0.352 N 
ATOM     28  C   UNL A   1      39.532  22.889  26.229  1.00  0.00     0.251 C 
ATOM     29  H   UNL A   1      38.445  21.572  25.111  1.00  0.00     0.163 HD
ATOM     30  O   UNL A   1      40.520  22.189  26.385  1.00  0.00    -0.269 OA
BRANCH  28  31
ATOM     31  C   UNL A   1      39.455  24.270  26.753  1.00  0.00     0.039 A 
ATOM     32  C   UNL A   1      40.146  25.269  26.067  1.00  0.00     0.014 A 
ATOM     33  C   UNL A   1      39.049  24.448  28.077  1.00  0.00     0.014 A 
ATOM     34  C   UNL A   1      40.612  26.365  26.779  1.00  0.00     0.010 A 
ATOM     35  C   UNL A   1      39.396  25.626  28.740  1.00  0.00     0.010 A 
ATOM     36  C   UNL A   1      40.216  26.577  28.113  1.00  0.00    -0.014 A 
BRANCH  36  37
ATOM     37  C   UNL A   1      40.601  27.833  28.811  1.00  0.00     0.031 A 
ATOM     38  C   UNL A   1      39.634  28.975  28.992  1.00  0.00     0.074 A 
ATOM     39  C   UNL A   1      41.867  27.937  29.266  1.00  0.00     0.049 A 
ATOM     40  N   UNL A   1      39.865  30.175  29.461  1.00  0.00    -0.248 NA
ATOM     41  C   UNL A   1      38.233  28.754  28.593  1.00  0.00     0.031 C 
ATOM     42  C   UNL A   1      42.884  26.886  29.169  1.00  0.00     0.029 A 
ATOM     43  N   UNL A   1      42.516  28.960  29.910  1.00  0.00    -0.354 N 
ATOM     44  C   UNL A   1      38.658  30.863  29.380  1.00  0.00     0.074 A 
ATOM     45  C   UNL A   1      37.696  29.951  28.800  1.00  0.00     0.031 C 
ATOM     46  C   UNL A   1      43.997  27.287  29.789  1.00  0.00     0.029 A 
ATOM     47  C   UNL A   1      43.825  28.668  30.211  1.00  0.00     0.049 A 
ATOM     48  H   UNL A   1      42.086  29.817  30.135  1.00  0.00     0.167 HD
ATOM     49  C   UNL A   1      38.389  32.135  29.759  1.00  0.00     0.031 A 
ATOM     50  C   UNL A   1      44.808  29.432  30.725  1.00  0.00     0.031 A 
ATOM     51  C   UNL A   1      39.365  33.017  30.356  1.00  0.00     0.049 A 
ATOM     52  C   UNL A   1      44.499  30.852  31.078  1.00  0.00     0.074 A 
ATOM     53  C   UNL A   1      39.185  34.316  30.801  1.00  0.00     0.029 A 
ATOM     54  N   UNL A   1      40.693  32.695  30.599  1.00  0.00    -0.354 N 
ATOM     55  N   UNL A   1      43.352  31.484  30.993  1.00  0.00    -0.248 NA
ATOM     56  C   UNL A   1      45.605  31.666  31.594  1.00  0.00     0.031 C 
ATOM     57  C   UNL A   1      40.418  34.805  31.234  1.00  0.00     0.029 A 
ATOM     58  C   UNL A   1      41.350  33.783  31.152  1.00  0.00     0.049 A 
ATOM     59  H   UNL A   1      41.107  31.823  30.407  1.00  0.00     0.167 HD
ATOM     60  C   UNL A   1      43.596  32.769  31.458  1.00  0.00     0.074 A 
ATOM     61  C   UNL A   1      44.991  32.814  31.849  1.00  0.00     0.031 C 
ATOM     62  C   UNL A   1      42.741  33.817  31.541  1.00  0.00     0.031 A 
BRANCH  49  63
ATOM     63  C   UNL A   1      36.994  32.684  29.558  1.00  0.00    -0.014 A 
ATOM     64  C   UNL A   1      36.646  33.276  28.327  1.00  0.00     0.010 A 
ATOM     65  C   UNL A   1      36.078  32.759  30.624  1.00  0.00     0.010 A 
ATOM     66  C   UNL A   1      35.441  33.970  28.179  1.00  0.00     0.020 A 
ATOM     67  C   UNL A   1      34.856  33.423  30.470  1.00  0.00     0.020 A 
ATOM     68  C   UNL A   1      34.558  34.048  29.257  1.00  0.00     0.054 A 
BRANCH  68  69
ATOM     69  S   UNL A   1      33.023  34.998  29.065  1.00  0.00     0.124 S 
ATOM     70  O   UNL A   1      32.462  34.956  30.411  1.00  0.00    -0.237 OA
ATOM     71  O   UNL A   1      33.511  36.303  28.623  1.00  0.00    -0.237 OA
ATOM     72  O   UNL A   1      32.280  34.247  28.055  1.00  0.00    -0.744 OA
ENDBRANCH  68  69
ENDBRANCH  49  63
BRANCH  50  73
ATOM     73  C   UNL A   1      46.156  28.831  30.924  1.00  0.00    -0.014 A 
ATOM     74  C   UNL A   1      47.043  28.682  29.838  1.00  0.00     0.010 A 
ATOM     75  C   UNL A   1      46.506  28.283  32.169  1.00  0.00     0.010 A 
ATOM     76  C   UNL A   1      48.208  27.924  29.971  1.00  0.00     0.020 A 
ATOM     77  C   UNL A   1      47.694  27.561  32.318  1.00  0.00     0.020 A 
ATOM     78  C   UNL A   1      48.518  27.355  31.207  1.00  0.00     0.054 A 
BRANCH  78  79
ATOM     79  S   UNL A   1      49.994  26.311  31.336  1.00  0.00     0.124 S 
ATOM     80  O   UNL A   1      50.561  26.430  29.995  1.00  0.00    -0.237 OA
ATOM     81  O   UNL A   1      50.752  26.962  32.401  1.00  0.00    -0.237 OA
ATOM     82  O   UNL A   1      49.454  24.996  31.671  1.00  0.00    -0.744 OA
ENDBRANCH  78  79
ENDBRANCH  50  73
BRANCH  62  83
ATOM     83  C   UNL A   1      43.273  35.119  32.079  1.00  0.00    -0.014 A 
ATOM     84  C   UNL A   1      43.041  35.466  33.425  1.00  0.00     0.010 A 
ATOM     85  C   UNL A   1      43.880  36.057  31.226  1.00  0.00     0.010 A 
ATOM     86  C   UNL A   1      43.355  36.743  33.892  1.00  0.00     0.020 A 
ATOM     87  C   UNL A   1      44.233  37.323  31.700  1.00  0.00     0.020 A 
ATOM     88  C   UNL A   1      43.938  37.668  33.021  1.00  0.00     0.054 A 
BRANCH  88  89
ATOM     89  S   UNL A   1      44.283  39.340  33.632  1.00  0.00     0.124 S 
ATOM     90  O   UNL A   1      44.954  39.071  34.900  1.00  0.00    -0.237 OA
ATOM     91  O   UNL A   1      45.127  39.897  32.577  1.00  0.00    -0.237 OA
ATOM     92  O   UNL A   1      42.958  39.946  33.744  1.00  0.00    -0.744 OA
ENDBRANCH  88  89
ENDBRANCH  62  83
ENDBRANCH  36  37
ENDBRANCH  28  31
ENDBRANCH  26  27
ENDBRANCH  25  26
ENDBRANCH   1  25
TORSDOF 19
ENDMDL
MODEL 2
REMARK VINA RESULT:     -11.4      2.734      9.182
REMARK SMILES CC(C)C[C@@H](NC(=O)Cn1nc(O)ccc1=O)C(=O)NCCCNC(=O)c1ccc(-c2c3nc(c(-c4ccc(S(=O)(=O)[O-])cc4)c4ccc([nH]4)c(-c4ccc(S(=O)(=O)[O-])cc4)c4nc(c(-c5ccc(S(=O)(=O)[O-])cc5)c5ccc2[nH]5)C=C4)C=C3)cc1
REMARK SMILES IDX 21 1 20 2 18 3 19 4 5 6 4 7 2 8 1 9 3 10 6 11 7 12 8 14 9 15
REMARK SMILES IDX 10 16 11 17 16 18 12 19 15 20 17 21 14 22 13 23 22 25 23 26
REMARK SMILES IDX 24 27 25 28 26 30 27 31 28 32 86 33 29 34 85 35 30 36 31 37
REMARK SMILES IDX 32 38 79 39 33 40 84 41 78 42 80 43 34 44 83 45 77 46 76 47
REMARK SMILES IDX 35 49 65 50 46 51 64 52 47 53 50 54 63 55 81 56 48 57 49 58
REMARK SMILES IDX 62 60 82 61 51 62 36 63 37 64 45 65 38 66 44 67 39 68 40 69
REMARK SMILES IDX 41 70 42 71 43 72 66 73 67 74 75 75 68 76 74 77 69 78 70 79
REMARK SMILES IDX 71 80 72 81 73 82 52 83 53 84 61 85 54 86 60 87 55 88 56 89
REMARK SMILES IDX 57 90 58 91 59 92
REMARK H PARENT 20 5 6 13 13 24 24 29 80 48 50 59
REMARK Flexibility Score: inf
ROOT
ATOM      1  C   UNL A   1      32.553  27.061  26.472  1.00  0.00     0.117 C 
ENDROOT
BRANCH   1   2
ATOM      2  N   UNL A   1      31.668  25.204  26.850  1.00  0.00    -0.354 N 
ATOM      3  C   UNL A   1      31.716  23.792  26.677  1.00  0.00     0.242 C 
ATOM      4  O   UNL A   1      30.829  23.221  27.341  1.00  0.00    -0.273 OA
ATOM      5  H   UNL A   1      30.863  25.389  27.385  1.00  0.00     0.163 HD
BRANCH   3   6
ATOM      6  C   UNL A   1      32.572  22.885  25.678  1.00  0.00     0.171 C 
BRANCH   6   7
ATOM      7  C   UNL A   1      33.479  21.977  26.557  1.00  0.00     0.038 C 
BRANCH   7   8
ATOM      8  C   UNL A   1      34.997  21.913  26.331  1.00  0.00    -0.015 C 
ATOM      9  C   UNL A   1      35.362  20.927  25.235  1.00  0.00     0.007 C 
ATOM     10  C   UNL A   1      35.488  23.327  25.968  1.00  0.00     0.007 C 
ENDBRANCH   7   8
ENDBRANCH   6   7
BRANCH   6  11
ATOM     11  N   UNL A   1      32.015  22.117  24.552  1.00  0.00    -0.343 N 
ATOM     12  C   UNL A   1      32.208  22.224  23.210  1.00  0.00     0.242 C 
ATOM     13  H   UNL A   1      31.392  21.402  24.818  1.00  0.00     0.164 HD
ATOM     14  O   UNL A   1      31.940  21.244  22.508  1.00  0.00    -0.273 OA
BRANCH  12  15
ATOM     15  C   UNL A   1      32.872  23.438  22.621  1.00  0.00     0.248 C 
BRANCH  15  16
ATOM     16  N   UNL A   1      32.006  24.582  22.592  1.00  0.00    -0.217 N 
ATOM     17  N   UNL A   1      30.319  24.551  23.412  1.00  0.00    -0.131 NA
ATOM     18  C   UNL A   1      32.770  26.158  22.185  1.00  0.00     0.267 A 
ATOM     19  C   UNL A   1      29.706  25.881  23.846  1.00  0.00     0.229 A 
ATOM     20  C   UNL A   1      31.698  27.731  22.614  1.00  0.00     0.079 A 
ATOM     21  O   UNL A   1      33.874  26.254  21.662  1.00  0.00    -0.268 OA
ATOM     22  C   UNL A   1      30.396  27.616  23.379  1.00  0.00     0.075 A 
BRANCH  19  23
ATOM     23  O   UNL A   1      28.563  26.067  24.534  1.00  0.00    -0.492 OA
ATOM     24  H   UNL A   1      28.429  26.860  25.014  1.00  0.00     0.295 HD
ENDBRANCH  19  23
ENDBRANCH  15  16
ENDBRANCH  12  15
ENDBRANCH   6  11
ENDBRANCH   3   6
ENDBRANCH   1   2
BRANCH   1  25
ATOM     25  C   UNL A   1      32.382  28.556  27.243  1.00  0.00     0.042 C 
BRANCH  25  26
ATOM     26  C   UNL A   1      33.662  29.354  27.225  1.00  0.00     0.118 C 
BRANCH  26  27
ATOM     27  N   UNL A   1      33.639  30.620  27.930  1.00  0.00    -0.352 N 
ATOM     28  C   UNL A   1      34.727  31.141  28.607  1.00  0.00     0.251 C 
ATOM     29  H   UNL A   1      32.802  31.138  27.928  1.00  0.00     0.163 HD
ATOM     30  O   UNL A   1      34.679  32.197  29.218  1.00  0.00    -0.269 OA
BRANCH  28  31
ATOM     31  C   UNL A   1      35.938  30.293  28.594  1.00  0.00     0.039 A 
ATOM     32  C   UNL A   1      36.314  29.673  29.787  1.00  0.00     0.014 A 
ATOM     33  C   UNL A   1      36.846  30.459  27.547  1.00  0.00     0.014 A 
ATOM     34  C   UNL A   1      37.659  29.409  30.004  1.00  0.00     0.010 A 
ATOM     35  C   UNL A   1      38.168  30.049  27.723  1.00  0.00     0.010 A 
ATOM     36  C   UNL A   1      38.598  29.560  28.967  1.00  0.00    -0.014 A 
BRANCH  36  37
ATOM     37  C   UNL A   1      40.007  29.128  29.172  1.00  0.00     0.031 A 
ATOM     38  C   UNL A   1      40.495  27.767  28.746  1.00  0.00     0.074 A 
ATOM     39  C   UNL A   1      40.847  29.990  29.781  1.00  0.00     0.049 A 
ATOM     40  N   UNL A   1      41.655  27.205  28.976  1.00  0.00    -0.248 NA
ATOM     41  C   UNL A   1      39.571  26.922  27.970  1.00  0.00     0.031 C 
ATOM     42  C   UNL A   1      40.491  31.344  30.215  1.00  0.00     0.029 A 
ATOM     43  N   UNL A   1      42.168  29.872  30.130  1.00  0.00    -0.354 N 
ATOM     44  C   UNL A   1      41.590  25.935  28.413  1.00  0.00     0.074 A 
ATOM     45  C   UNL A   1      40.269  25.799  27.840  1.00  0.00     0.031 C 
ATOM     46  C   UNL A   1      41.575  31.951  30.705  1.00  0.00     0.029 A 
ATOM     47  C   UNL A   1      42.670  30.994  30.746  1.00  0.00     0.049 A 
ATOM     48  H   UNL A   1      42.703  29.064  29.957  1.00  0.00     0.167 HD
ATOM     49  C   UNL A   1      42.551  24.980  28.379  1.00  0.00     0.031 A 
ATOM     50  C   UNL A   1      43.861  31.228  31.329  1.00  0.00     0.031 A 
ATOM     51  C   UNL A   1      43.871  25.152  28.941  1.00  0.00     0.049 A 
ATOM     52  C   UNL A   1      44.882  30.135  31.331  1.00  0.00     0.074 A 
ATOM     53  C   UNL A   1      44.926  24.256  28.934  1.00  0.00     0.029 A 
ATOM     54  N   UNL A   1      44.321  26.289  29.597  1.00  0.00    -0.354 N 
ATOM     55  N   UNL A   1      44.802  28.941  30.794  1.00  0.00    -0.248 NA
ATOM     56  C   UNL A   1      46.151  30.411  32.014  1.00  0.00     0.031 C 
ATOM     57  C   UNL A   1      45.980  24.816  29.657  1.00  0.00     0.029 A 
ATOM     58  C   UNL A   1      45.623  26.101  30.032  1.00  0.00     0.049 A 
ATOM     59  H   UNL A   1      43.792  27.109  29.735  1.00  0.00     0.167 HD
ATOM     60  C   UNL A   1      46.016  28.325  31.063  1.00  0.00     0.074 A 
ATOM     61  C   UNL A   1      46.823  29.291  31.785  1.00  0.00     0.031 C 
ATOM     62  C   UNL A   1      46.419  27.071  30.748  1.00  0.00     0.031 A 
BRANCH  49  63
ATOM     63  C   UNL A   1      42.248  23.653  27.720  1.00  0.00    -0.014 A 
ATOM     64  C   UNL A   1      41.658  22.618  28.473  1.00  0.00     0.010 A 
ATOM     65  C   UNL A   1      42.684  23.372  26.412  1.00  0.00     0.010 A 
ATOM     66  C   UNL A   1      41.552  21.323  27.954  1.00  0.00     0.020 A 
ATOM     67  C   UNL A   1      42.549  22.086  25.876  1.00  0.00     0.020 A 
ATOM     68  C   UNL A   1      42.011  21.063  26.661  1.00  0.00     0.054 A 
BRANCH  68  69
ATOM     69  S   UNL A   1      41.917  19.366  26.023  1.00  0.00     0.124 S 
ATOM     70  O   UNL A   1      42.810  19.419  24.871  1.00  0.00    -0.237 OA
ATOM     71  O   UNL A   1      42.392  18.575  27.156  1.00  0.00    -0.237 OA
ATOM     72  O   UNL A   1      40.499  19.198  25.709  1.00  0.00    -0.744 OA
ENDBRANCH  68  69
ENDBRANCH  49  63
BRANCH  50  73
ATOM     73  C   UNL A   1      44.112  32.563  31.940  1.00  0.00    -0.014 A 
ATOM     74  C   UNL A   1      43.848  32.787  33.307  1.00  0.00     0.010 A 
ATOM     75  C   UNL A   1      44.488  33.648  31.132  1.00  0.00     0.010 A 
ATOM     76  C   UNL A   1      43.869  34.081  33.832  1.00  0.00     0.020 A 
ATOM     77  C   UNL A   1      44.554  34.940  31.664  1.00  0.00     0.020 A 
ATOM     78  C   UNL A   1      44.207  35.151  33.001  1.00  0.00     0.054 A 
BRANCH  78  79
ATOM     79  S   UNL A   1      44.151  36.830  33.684  1.00  0.00     0.124 S 
ATOM     80  O   UNL A   1      42.713  37.059  33.794  1.00  0.00    -0.237 OA
ATOM     81  O   UNL A   1      44.864  36.681  34.949  1.00  0.00    -0.237 OA
ATOM     82  O   UNL A   1      44.835  37.633  32.674  1.00  0.00    -0.744 OA
ENDBRANCH  78  79
ENDBRANCH  50  73
BRANCH  62  83
ATOM     83  C   UNL A   1      47.801  26.646  31.174  1.00  0.00    -0.014 A 
ATOM     84  C   UNL A   1      47.988  26.046  32.434  1.00  0.00     0.010 A 
ATOM     85  C   UNL A   1      48.925  26.963  30.392  1.00  0.00     0.010 A 
ATOM     86  C   UNL A   1      49.274  25.820  32.927  1.00  0.00     0.020 A 
ATOM     87  C   UNL A   1      50.214  26.702  30.866  1.00  0.00     0.020 A 
ATOM     88  C   UNL A   1      50.379  26.162  32.144  1.00  0.00     0.054 A 
BRANCH  88  89
ATOM     89  S   UNL A   1      52.041  25.918  32.827  1.00  0.00     0.124 S 
ATOM     90  O   UNL A   1      51.763  25.150  34.038  1.00  0.00    -0.237 OA
ATOM     91  O   UNL A   1      52.720  25.187  31.760  1.00  0.00    -0.237 OA
ATOM     92  O   UNL A   1      52.526  27.277  33.049  1.00  0.00    -0.744 OA
ENDBRANCH  88  89
ENDBRANCH  62  83
ENDBRANCH  36  37
ENDBRANCH  28  31
ENDBRANCH  26  27
ENDBRANCH  25  26
ENDBRANCH   1  25
TORSDOF 19
ENDMDL
MODEL 3
REMARK VINA RESULT:     -11.3      0.583      8.190
REMARK SMILES CC(C)C[C@@H](NC(=O)Cn1nc(O)ccc1=O)C(=O)NCCCNC(=O)c1ccc(-c2c3nc(c(-c4ccc(S(=O)(=O)[O-])cc4)c4ccc([nH]4)c(-c4ccc(S(=O)(=O)[O-])cc4)c4nc(c(-c5ccc(S(=O)(=O)[O-])cc5)c5ccc2[nH]5)C=C4)C=C3)cc1
REMARK SMILES IDX 21 1 20 2 18 3 19 4 5 6 4 7 2 8 1 9 3 10 6 11 7 12 8 14 9 15
REMARK SMILES IDX 10 16 11 17 16 18 12 19 15 20 17 21 14 22 13 23 22 25 23 26
REMARK SMILES IDX 24 27 25 28 26 30 27 31 28 32 86 33 29 34 85 35 30 36 31 37
REMARK SMILES IDX 32 38 79 39 33 40 84 41 78 42 80 43 34 44 83 45 77 46 76 47
REMARK SMILES IDX 35 49 65 50 46 51 64 52 47 53 50 54 63 55 81 56 48 57 49 58
REMARK SMILES IDX 62 60 82 61 51 62 36 63 37 64 45 65 38 66 44 67 39 68 40 69
REMARK SMILES IDX 41 70 42 71 43 72 66 73 67 74 75 75 68 76 74 77 69 78 70 79
REMARK SMILES IDX 71 80 72 81 73 82 52 83 53 84 61 85 54 86 60 87 55 88 56 89
REMARK SMILES IDX 57 90 58 91 59 92
REMARK H PARENT 20 5 6 13 13 24 24 29 80 48 50 59
REMARK Flexibility Score: inf
ROOT
ATOM      1  C   UNL A   1      34.189  23.357  25.360  1.00  0.00     0.117 C 
ENDROOT
BRANCH   1   2
ATOM      2  N   UNL A   1      32.530  24.422  26.055  1.00  0.00    -0.354 N 
ATOM      3  C   UNL A   1      31.809  25.649  26.069  1.00  0.00     0.242 C 
ATOM      4  O   UNL A   1      30.721  25.533  26.667  1.00  0.00    -0.273 OA
ATOM      5  H   UNL A   1      32.022  23.799  26.623  1.00  0.00     0.163 HD
BRANCH   3   6
ATOM      6  C   UNL A   1      32.233  27.121  25.615  1.00  0.00     0.171 C 
BRANCH   6   7
ATOM      7  C   UNL A   1      32.667  27.884  26.900  1.00  0.00     0.038 C 
BRANCH   7   8
ATOM      8  C   UNL A   1      32.582  29.415  26.982  1.00  0.00    -0.015 C 
ATOM      9  C   UNL A   1      33.954  30.061  26.897  1.00  0.00     0.007 C 
ATOM     10  C   UNL A   1      31.684  29.908  25.832  1.00  0.00     0.007 C 
ENDBRANCH   7   8
ENDBRANCH   6   7
BRANCH   6  11
ATOM     11  N   UNL A   1      33.150  27.427  24.504  1.00  0.00    -0.343 N 
ATOM     12  C   UNL A   1      32.928  27.558  23.168  1.00  0.00     0.242 C 
ATOM     13  H   UNL A   1      34.088  27.558  24.775  1.00  0.00     0.164 HD
ATOM     14  O   UNL A   1      33.760  28.183  22.503  1.00  0.00    -0.273 OA
BRANCH  12  15
ATOM     15  C   UNL A   1      31.637  27.094  22.552  1.00  0.00     0.248 C 
BRANCH  15  16
ATOM     16  N   UNL A   1      30.565  28.030  22.745  1.00  0.00    -0.217 N 
ATOM     17  N   UNL A   1      30.554  29.694  21.878  1.00  0.00    -0.131 NA
ATOM     18  C   UNL A   1      29.039  27.374  23.432  1.00  0.00     0.267 A 
ATOM     19  C   UNL A   1      29.208  30.379  21.654  1.00  0.00     0.229 A 
ATOM     20  C   UNL A   1      27.481  28.532  23.239  1.00  0.00     0.079 A 
ATOM     21  O   UNL A   1      28.970  26.289  23.999  1.00  0.00    -0.268 OA
ATOM     22  C   UNL A   1      27.540  29.807  22.425  1.00  0.00     0.075 A 
BRANCH  19  23
ATOM     23  O   UNL A   1      28.974  31.516  20.971  1.00  0.00    -0.492 OA
ATOM     24  H   UNL A   1      29.445  32.297  21.185  1.00  0.00     0.295 HD
ENDBRANCH  19  23
ENDBRANCH  15  16
ENDBRANCH  12  15
ENDBRANCH   6  11
ENDBRANCH   3   6
ENDBRANCH   1   2
BRANCH   1  25
ATOM     25  C   UNL A   1      35.468  22.619  26.185  1.00  0.00     0.042 C 
BRANCH  25  26
ATOM     26  C   UNL A   1      36.809  23.155  25.749  1.00  0.00     0.118 C 
BRANCH  26  27
ATOM     27  N   UNL A   1      37.946  22.281  25.956  1.00  0.00    -0.352 N 
ATOM     28  C   UNL A   1      39.131  22.690  26.541  1.00  0.00     0.251 C 
ATOM     29  H   UNL A   1      37.872  21.345  25.662  1.00  0.00     0.163 HD
ATOM     30  O   UNL A   1      40.088  21.945  26.681  1.00  0.00    -0.269 OA
BRANCH  28  31
ATOM     31  C   UNL A   1      39.181  24.117  26.925  1.00  0.00     0.039 A 
ATOM     32  C   UNL A   1      39.841  25.001  26.072  1.00  0.00     0.014 A 
ATOM     33  C   UNL A   1      38.933  24.446  28.259  1.00  0.00     0.014 A 
ATOM     34  C   UNL A   1      40.437  26.130  26.616  1.00  0.00     0.010 A 
ATOM     35  C   UNL A   1      39.409  25.660  28.758  1.00  0.00     0.010 A 
ATOM     36  C   UNL A   1      40.202  26.494  27.954  1.00  0.00    -0.014 A 
BRANCH  36  37
ATOM     37  C   UNL A   1      40.723  27.786  28.476  1.00  0.00     0.031 A 
ATOM     38  C   UNL A   1      42.171  27.969  28.853  1.00  0.00     0.074 A 
ATOM     39  C   UNL A   1      39.849  28.802  28.629  1.00  0.00     0.049 A 
ATOM     40  N   UNL A   1      42.740  28.991  29.441  1.00  0.00    -0.248 NA
ATOM     41  C   UNL A   1      43.102  26.871  28.542  1.00  0.00     0.031 C 
ATOM     42  C   UNL A   1      38.427  28.747  28.274  1.00  0.00     0.029 A 
ATOM     43  N   UNL A   1      40.017  30.077  29.104  1.00  0.00    -0.354 N 
ATOM     44  C   UNL A   1      44.078  28.650  29.605  1.00  0.00     0.074 A 
ATOM     45  C   UNL A   1      44.238  27.315  29.069  1.00  0.00     0.031 C 
ATOM     46  C   UNL A   1      37.873  29.945  28.477  1.00  0.00     0.029 A 
ATOM     47  C   UNL A   1      38.858  30.817  29.099  1.00  0.00     0.049 A 
ATOM     48  H   UNL A   1      40.881  30.428  29.418  1.00  0.00     0.167 HD
ATOM     49  C   UNL A   1      45.073  29.389  30.151  1.00  0.00     0.031 A 
ATOM     50  C   UNL A   1      38.587  32.043  29.583  1.00  0.00     0.031 A 
ATOM     51  C   UNL A   1      44.890  30.728  30.660  1.00  0.00     0.049 A 
ATOM     52  C   UNL A   1      39.690  32.814  30.236  1.00  0.00     0.074 A 
ATOM     53  C   UNL A   1      45.840  31.573  31.208  1.00  0.00     0.029 A 
ATOM     54  N   UNL A   1      43.687  31.421  30.678  1.00  0.00    -0.354 N 
ATOM     55  N   UNL A   1      40.948  32.473  30.383  1.00  0.00    -0.248 NA
ATOM     56  C   UNL A   1      39.346  34.128  30.790  1.00  0.00     0.031 C 
ATOM     57  C   UNL A   1      45.199  32.738  31.631  1.00  0.00     0.029 A 
ATOM     58  C   UNL A   1      43.866  32.665  31.261  1.00  0.00     0.049 A 
ATOM     59  H   UNL A   1      42.833  31.079  30.328  1.00  0.00     0.167 HD
ATOM     60  C   UNL A   1      41.552  33.539  31.036  1.00  0.00     0.074 A 
ATOM     61  C   UNL A   1      40.527  34.546  31.229  1.00  0.00     0.031 C 
ATOM     62  C   UNL A   1      42.838  33.663  31.446  1.00  0.00     0.031 A 
BRANCH  49  63
ATOM     63  C   UNL A   1      46.463  28.800  30.242  1.00  0.00    -0.014 A 
ATOM     64  C   UNL A   1      47.342  28.908  29.146  1.00  0.00     0.010 A 
ATOM     65  C   UNL A   1      46.849  28.007  31.340  1.00  0.00     0.010 A 
ATOM     66  C   UNL A   1      48.550  28.202  29.121  1.00  0.00     0.020 A 
ATOM     67  C   UNL A   1      48.072  27.327  31.334  1.00  0.00     0.020 A 
ATOM     68  C   UNL A   1      48.901  27.406  30.213  1.00  0.00     0.054 A 
BRANCH  68  69
ATOM     69  S   UNL A   1      50.446  26.455  30.142  1.00  0.00     0.124 S 
ATOM     70  O   UNL A   1      51.328  27.353  29.404  1.00  0.00    -0.237 OA
ATOM     71  O   UNL A   1      50.769  26.270  31.555  1.00  0.00    -0.237 OA
ATOM     72  O   UNL A   1      50.062  25.234  29.435  1.00  0.00    -0.744 OA
ENDBRANCH  68  69
ENDBRANCH  49  63
BRANCH  50  73
ATOM     73  C   UNL A   1      37.205  32.582  29.443  1.00  0.00    -0.014 A 
ATOM     74  C   UNL A   1      36.785  33.172  28.232  1.00  0.00     0.010 A 
ATOM     75  C   UNL A   1      36.350  32.630  30.555  1.00  0.00     0.010 A 
ATOM     76  C   UNL A   1      35.580  33.872  28.164  1.00  0.00     0.020 A 
ATOM     77  C   UNL A   1      35.121  33.292  30.478  1.00  0.00     0.020 A 
ATOM     78  C   UNL A   1      34.763  33.941  29.294  1.00  0.00     0.054 A 
BRANCH  78  79
ATOM     79  S   UNL A   1      33.240  34.922  29.205  1.00  0.00     0.124 S 
ATOM     80  O   UNL A   1      32.438  34.143  28.265  1.00  0.00    -0.237 OA
ATOM     81  O   UNL A   1      32.775  34.911  30.589  1.00  0.00    -0.237 OA
ATOM     82  O   UNL A   1      33.697  36.218  28.713  1.00  0.00    -0.744 OA
ENDBRANCH  78  79
ENDBRANCH  50  73
BRANCH  62  83
ATOM     83  C   UNL A   1      43.233  34.935  32.150  1.00  0.00    -0.014 A 
ATOM     84  C   UNL A   1      42.710  35.217  33.427  1.00  0.00     0.010 A 
ATOM     85  C   UNL A   1      44.007  35.910  31.497  1.00  0.00     0.010 A 
ATOM     86  C   UNL A   1      42.908  36.468  34.014  1.00  0.00     0.020 A 
ATOM     87  C   UNL A   1      44.240  37.150  32.098  1.00  0.00     0.020 A 
ATOM     88  C   UNL A   1      43.662  37.431  33.338  1.00  0.00     0.054 A 
BRANCH  88  89
ATOM     89  S   UNL A   1      43.856  39.070  34.090  1.00  0.00     0.124 S 
ATOM     90  O   UNL A   1      45.081  39.552  33.460  1.00  0.00    -0.237 OA
ATOM     91  O   UNL A   1      42.629  39.752  33.687  1.00  0.00    -0.237 OA
ATOM     92  O   UNL A   1      43.960  38.783  35.519  1.00  0.00    -0.744 OA
ENDBRANCH  88  89
ENDBRANCH  62  83
ENDBRANCH  36  37
ENDBRANCH  28  31
ENDBRANCH  26  27
ENDBRANCH  25  26
ENDBRANCH   1  25
TORSDOF 19
ENDMDL
