MODEL 1
REMARK VINA RESULT:     -12.3      0.000      0.000
REMARK SMILES O=C(NCCCNC(=O)[C@@H]1CCCC[N@H+]1Cc1cn2cccnc2n1)c1ccc(-c2c3nc(c(-c4ccc(S(=O)(=O)[O-])cc4)c4ccc([nH]4)c(-c4ccc(S(=O)(=O)[O-])cc4)c4nc(c(-c5ccc(S(=O)(=O)[O-])cc5)c5ccc2[nH]5)C=C4)C=C3)cc1
REMARK SMILES IDX 4 1 3 2 1 3 2 4 26 6 27 7 85 8 28 9 84 10 29 11 30 12 31 13
REMARK SMILES IDX 78 14 32 15 83 16 77 17 79 18 33 19 82 20 76 21 75 22 34 24
REMARK SMILES IDX 64 25 45 26 63 27 46 28 49 29 62 30 80 31 47 32 48 33 61 35
REMARK SMILES IDX 81 36 50 37 35 38 36 39 44 40 37 41 43 42 38 43 39 44 40 45
REMARK SMILES IDX 41 46 42 47 65 48 66 49 74 50 67 51 73 52 68 53 69 54 70 55
REMARK SMILES IDX 71 56 72 57 51 58 52 59 60 60 53 61 59 62 54 63 55 64 56 65
REMARK SMILES IDX 57 66 58 67 5 68 6 69 7 70 8 71 9 73 10 74 11 75 15 76 12 77
REMARK SMILES IDX 14 78 13 80 16 81 17 82 18 83 25 84 19 85 24 86 20 87 23 88
REMARK SMILES IDX 21 89 22 90
REMARK H PARENT 3 5 79 23 49 34 7 72 15 79
REMARK Flexibility Score: inf
ROOT
ATOM      1  C   UNL A   1      38.707  24.314  26.540  1.00  0.00     0.118 C 
ENDROOT
BRANCH   1   2
ATOM      2  N   UNL A   1      39.940  24.605  25.818  1.00  0.00    -0.352 N 
ATOM      3  O   UNL A   1      41.734  25.810  25.179  1.00  0.00    -0.269 OA
ATOM      4  C   UNL A   1      40.848  25.617  26.009  1.00  0.00     0.251 C 
ATOM      5  H   UNL A   1      40.152  23.984  25.084  1.00  0.00     0.163 HD
BRANCH   4   6
ATOM      6  C   UNL A   1      40.749  26.484  27.201  1.00  0.00     0.039 A 
ATOM      7  C   UNL A   1      40.018  26.078  28.319  1.00  0.00     0.014 A 
ATOM      8  C   UNL A   1      41.408  27.716  27.206  1.00  0.00     0.014 A 
ATOM      9  C   UNL A   1      39.823  26.958  29.375  1.00  0.00     0.010 A 
ATOM     10  C   UNL A   1      41.292  28.563  28.313  1.00  0.00     0.010 A 
ATOM     11  C   UNL A   1      40.475  28.201  29.395  1.00  0.00    -0.014 A 
BRANCH  11  12
ATOM     12  C   UNL A   1      40.349  29.065  30.595  1.00  0.00     0.031 A 
ATOM     13  C   UNL A   1      41.271  28.909  31.772  1.00  0.00     0.074 A 
ATOM     14  C   UNL A   1      39.398  30.021  30.596  1.00  0.00     0.049 A 
ATOM     15  N   UNL A   1      41.303  29.601  32.883  1.00  0.00    -0.248 NA
ATOM     16  C   UNL A   1      42.278  27.840  31.702  1.00  0.00     0.031 C 
ATOM     17  C   UNL A   1      38.442  30.259  29.511  1.00  0.00     0.029 A 
ATOM     18  N   UNL A   1      39.092  30.981  31.524  1.00  0.00    -0.354 N 
ATOM     19  C   UNL A   1      42.317  29.041  33.652  1.00  0.00     0.074 A 
ATOM     20  C   UNL A   1      42.861  27.938  32.890  1.00  0.00     0.031 C 
ATOM     21  C   UNL A   1      37.692  31.329  29.812  1.00  0.00     0.029 A 
ATOM     22  C   UNL A   1      38.066  31.811  31.136  1.00  0.00     0.049 A 
ATOM     23  H   UNL A   1      39.559  31.069  32.386  1.00  0.00     0.167 HD
ATOM     24  C   UNL A   1      42.754  29.417  34.879  1.00  0.00     0.031 A 
ATOM     25  C   UNL A   1      37.476  32.836  31.777  1.00  0.00     0.031 A 
ATOM     26  C   UNL A   1      42.206  30.518  35.630  1.00  0.00     0.049 A 
ATOM     27  C   UNL A   1      37.963  33.214  33.144  1.00  0.00     0.074 A 
ATOM     28  C   UNL A   1      42.599  30.995  36.869  1.00  0.00     0.029 A 
ATOM     29  N   UNL A   1      41.145  31.311  35.217  1.00  0.00    -0.354 N 
ATOM     30  N   UNL A   1      38.942  32.690  33.841  1.00  0.00    -0.248 NA
ATOM     31  C   UNL A   1      37.268  34.322  33.810  1.00  0.00     0.031 C 
ATOM     32  C   UNL A   1      41.745  32.044  37.226  1.00  0.00     0.029 A 
ATOM     33  C   UNL A   1      40.855  32.257  36.186  1.00  0.00     0.049 A 
ATOM     34  H   UNL A   1      40.669  31.215  34.360  1.00  0.00     0.167 HD
ATOM     35  C   UNL A   1      38.990  33.412  35.026  1.00  0.00     0.074 A 
ATOM     36  C   UNL A   1      37.956  34.424  34.940  1.00  0.00     0.031 C 
ATOM     37  C   UNL A   1      39.815  33.250  36.089  1.00  0.00     0.031 A 
BRANCH  24  38
ATOM     38  C   UNL A   1      43.866  28.613  35.503  1.00  0.00    -0.014 A 
ATOM     39  C   UNL A   1      43.593  27.490  36.305  1.00  0.00     0.010 A 
ATOM     40  C   UNL A   1      45.206  28.954  35.239  1.00  0.00     0.010 A 
ATOM     41  C   UNL A   1      44.638  26.747  36.862  1.00  0.00     0.020 A 
ATOM     42  C   UNL A   1      46.254  28.200  35.774  1.00  0.00     0.020 A 
ATOM     43  C   UNL A   1      45.963  27.110  36.598  1.00  0.00     0.054 A 
BRANCH  43  44
ATOM     44  S   UNL A   1      47.301  26.119  37.319  1.00  0.00     0.124 S 
ATOM     45  O   UNL A   1      48.450  27.007  37.161  1.00  0.00    -0.237 OA
ATOM     46  O   UNL A   1      46.847  25.919  38.694  1.00  0.00    -0.237 OA
ATOM     47  O   UNL A   1      47.327  24.915  36.493  1.00  0.00    -0.744 OA
ENDBRANCH  43  44
ENDBRANCH  24  38
BRANCH  25  48
ATOM     48  C   UNL A   1      36.348  33.556  31.128  1.00  0.00    -0.014 A 
ATOM     49  C   UNL A   1      35.235  33.970  31.880  1.00  0.00     0.010 A 
ATOM     50  C   UNL A   1      36.405  33.868  29.758  1.00  0.00     0.010 A 
ATOM     51  C   UNL A   1      34.193  34.673  31.268  1.00  0.00     0.020 A 
ATOM     52  C   UNL A   1      35.379  34.596  29.149  1.00  0.00     0.020 A 
ATOM     53  C   UNL A   1      34.272  34.982  29.907  1.00  0.00     0.054 A 
BRANCH  53  54
ATOM     54  S   UNL A   1      32.938  35.946  29.145  1.00  0.00     0.124 S 
ATOM     55  O   UNL A   1      33.671  37.061  28.552  1.00  0.00    -0.237 OA
ATOM     56  O   UNL A   1      32.359  34.995  28.199  1.00  0.00    -0.237 OA
ATOM     57  O   UNL A   1      32.078  36.291  30.275  1.00  0.00    -0.744 OA
ENDBRANCH  53  54
ENDBRANCH  25  48
BRANCH  37  58
ATOM     58  C   UNL A   1      39.644  34.206  37.237  1.00  0.00    -0.014 A 
ATOM     59  C   UNL A   1      38.900  33.849  38.375  1.00  0.00     0.010 A 
ATOM     60  C   UNL A   1      40.268  35.467  37.191  1.00  0.00     0.010 A 
ATOM     61  C   UNL A   1      38.756  34.749  39.435  1.00  0.00     0.020 A 
ATOM     62  C   UNL A   1      40.149  36.358  38.259  1.00  0.00     0.020 A 
ATOM     63  C   UNL A   1      39.381  35.999  39.369  1.00  0.00     0.054 A 
BRANCH  63  64
ATOM     64  S   UNL A   1      39.212  37.135  40.773  1.00  0.00     0.124 S 
ATOM     65  O   UNL A   1      38.367  38.186  40.213  1.00  0.00    -0.237 OA
ATOM     66  O   UNL A   1      38.583  36.297  41.791  1.00  0.00    -0.237 OA
ATOM     67  O   UNL A   1      40.589  37.531  41.065  1.00  0.00    -0.744 OA
ENDBRANCH  63  64
ENDBRANCH  37  58
ENDBRANCH  11  12
ENDBRANCH   4   6
ENDBRANCH   1   2
BRANCH   1  68
ATOM     68  C   UNL A   1      37.877  23.234  25.864  1.00  0.00     0.042 C 
BRANCH  68  69
ATOM     69  C   UNL A   1      36.383  23.513  25.905  1.00  0.00     0.118 C 
BRANCH  69  70
ATOM     70  N   UNL A   1      35.706  22.644  26.855  1.00  0.00    -0.351 N 
ATOM     71  C   UNL A   1      34.373  22.390  27.009  1.00  0.00     0.278 C 
ATOM     72  H   UNL A   1      36.297  22.165  27.480  1.00  0.00     0.163 HD
ATOM     73  O   UNL A   1      34.043  21.604  27.901  1.00  0.00    -0.268 OA
BRANCH  71  74
ATOM     74  C   UNL A   1      33.350  23.105  26.103  1.00  0.00     0.274 C 
ATOM     75  C   UNL A   1      32.299  23.757  27.012  1.00  0.00     0.076 C 
ATOM     76  N   UNL A   1      32.714  22.170  25.132  1.00  0.00    -0.320 N 
ATOM     77  C   UNL A   1      31.255  24.491  26.181  1.00  0.00     0.012 C 
ATOM     78  C   UNL A   1      31.737  22.875  24.295  1.00  0.00     0.263 C 
ATOM     79  H   UNL A   1      32.212  21.471  25.679  1.00  0.00     0.349 HD
ATOM     80  C   UNL A   1      30.654  23.553  25.141  1.00  0.00     0.062 C 
BRANCH  76  81
ATOM     81  C   UNL A   1      33.692  21.399  24.330  1.00  0.00     0.322 C 
BRANCH  81  82
ATOM     82  C   UNL A   1      33.621  19.912  24.534  1.00  0.00     0.115 A 
ATOM     83  C   UNL A   1      34.614  18.961  24.401  1.00  0.00     0.124 A 
ATOM     84  N   UNL A   1      32.441  19.303  24.906  1.00  0.00    -0.210 NA
ATOM     85  N   UNL A   1      34.038  17.774  24.771  1.00  0.00    -0.291 N 
ATOM     86  C   UNL A   1      32.710  18.031  25.092  1.00  0.00     0.234 A 
ATOM     87  C   UNL A   1      34.589  16.505  24.868  1.00  0.00     0.096 A 
ATOM     88  N   UNL A   1      31.887  17.041  25.548  1.00  0.00    -0.221 NA
ATOM     89  C   UNL A   1      33.826  15.493  25.304  1.00  0.00     0.039 A 
ATOM     90  C   UNL A   1      32.422  15.863  25.650  1.00  0.00     0.117 A 
ENDBRANCH  81  82
ENDBRANCH  76  81
ENDBRANCH  71  74
ENDBRANCH  69  70
ENDBRANCH  68  69
ENDBRANCH   1  68
TORSDOF 15
ENDMDL
MODEL 2
REMARK VINA RESULT:     -12.3      6.644     12.125
REMARK SMILES O=C(NCCCNC(=O)[C@@H]1CCCC[N@H+]1Cc1cn2cccnc2n1)c1ccc(-c2c3nc(c(-c4ccc(S(=O)(=O)[O-])cc4)c4ccc([nH]4)c(-c4ccc(S(=O)(=O)[O-])cc4)c4nc(c(-c5ccc(S(=O)(=O)[O-])cc5)c5ccc2[nH]5)C=C4)C=C3)cc1
REMARK SMILES IDX 4 1 3 2 1 3 2 4 26 6 27 7 85 8 28 9 84 10 29 11 30 12 31 13
REMARK SMILES IDX 78 14 32 15 83 16 77 17 79 18 33 19 82 20 76 21 75 22 34 24
REMARK SMILES IDX 64 25 45 26 63 27 46 28 49 29 62 30 80 31 47 32 48 33 61 35
REMARK SMILES IDX 81 36 50 37 35 38 36 39 44 40 37 41 43 42 38 43 39 44 40 45
REMARK SMILES IDX 41 46 42 47 65 48 66 49 74 50 67 51 73 52 68 53 69 54 70 55
REMARK SMILES IDX 71 56 72 57 51 58 52 59 60 60 53 61 59 62 54 63 55 64 56 65
REMARK SMILES IDX 57 66 58 67 5 68 6 69 7 70 8 71 9 73 10 74 11 75 15 76 12 77
REMARK SMILES IDX 14 78 13 80 16 81 17 82 18 83 25 84 19 85 24 86 20 87 23 88
REMARK SMILES IDX 21 89 22 90
REMARK H PARENT 3 5 79 23 49 34 7 72 15 79
REMARK Flexibility Score: inf
ROOT
ATOM      1  C   UNL A   1      35.430  30.057  27.698  1.00  0.00     0.118 C 
ENDROOT
BRANCH   1   2
ATOM      2  N   UNL A   1      35.358  30.221  29.146  1.00  0.00    -0.352 N 
ATOM      3  O   UNL A   1      36.001  29.995  31.293  1.00  0.00    -0.269 OA
ATOM      4  C   UNL A   1      36.309  29.974  30.104  1.00  0.00     0.251 C 
ATOM      5  H   UNL A   1      34.497  30.557  29.486  1.00  0.00     0.163 HD
BRANCH   4   6
ATOM      6  C   UNL A   1      37.698  29.665  29.704  1.00  0.00     0.039 A 
ATOM      7  C   UNL A   1      38.128  29.886  28.394  1.00  0.00     0.014 A 
ATOM      8  C   UNL A   1      38.586  29.159  30.656  1.00  0.00     0.014 A 
ATOM      9  C   UNL A   1      39.392  29.466  28.001  1.00  0.00     0.010 A 
ATOM     10  C   UNL A   1      39.892  28.827  30.282  1.00  0.00     0.010 A 
ATOM     11  C   UNL A   1      40.296  28.953  28.944  1.00  0.00    -0.014 A 
BRANCH  11  12
ATOM     12  C   UNL A   1      41.681  28.632  28.519  1.00  0.00     0.031 A 
ATOM     13  C   UNL A   1      42.766  29.673  28.536  1.00  0.00     0.074 A 
ATOM     14  C   UNL A   1      41.956  27.368  28.138  1.00  0.00     0.049 A 
ATOM     15  N   UNL A   1      44.029  29.544  28.217  1.00  0.00    -0.248 NA
ATOM     16  C   UNL A   1      42.390  31.031  28.956  1.00  0.00     0.031 C 
ATOM     17  C   UNL A   1      40.980  26.277  28.074  1.00  0.00     0.029 A 
ATOM     18  N   UNL A   1      43.134  26.782  27.754  1.00  0.00    -0.354 N 
ATOM     19  C   UNL A   1      44.595  30.803  28.377  1.00  0.00     0.074 A 
ATOM     20  C   UNL A   1      43.532  31.689  28.802  1.00  0.00     0.031 C 
ATOM     21  C   UNL A   1      41.608  25.144  27.727  1.00  0.00     0.029 A 
ATOM     22  C   UNL A   1      43.013  25.441  27.479  1.00  0.00     0.049 A 
ATOM     23  H   UNL A   1      43.984  27.273  27.682  1.00  0.00     0.167 HD
ATOM     24  C   UNL A   1      45.883  31.182  28.191  1.00  0.00     0.031 A 
ATOM     25  C   UNL A   1      43.925  24.546  27.056  1.00  0.00     0.031 A 
ATOM     26  C   UNL A   1      46.935  30.293  27.769  1.00  0.00     0.049 A 
ATOM     27  C   UNL A   1      45.337  24.998  26.834  1.00  0.00     0.074 A 
ATOM     28  C   UNL A   1      48.276  30.576  27.579  1.00  0.00     0.029 A 
ATOM     29  N   UNL A   1      46.764  28.949  27.467  1.00  0.00    -0.354 N 
ATOM     30  N   UNL A   1      45.857  26.188  27.019  1.00  0.00    -0.248 NA
ATOM     31  C   UNL A   1      46.286  23.990  26.347  1.00  0.00     0.031 C 
ATOM     32  C   UNL A   1      48.907  29.416  27.116  1.00  0.00     0.029 A 
ATOM     33  C   UNL A   1      47.970  28.396  27.069  1.00  0.00     0.049 A 
ATOM     34  H   UNL A   1      45.911  28.461  27.526  1.00  0.00     0.167 HD
ATOM     35  C   UNL A   1      47.198  26.070  26.683  1.00  0.00     0.074 A 
ATOM     36  C   UNL A   1      47.414  24.687  26.305  1.00  0.00     0.031 C 
ATOM     37  C   UNL A   1      48.165  27.021  26.686  1.00  0.00     0.031 A 
BRANCH  24  38
ATOM     38  C   UNL A   1      46.225  32.633  28.415  1.00  0.00    -0.014 A 
ATOM     39  C   UNL A   1      46.663  33.095  29.670  1.00  0.00     0.010 A 
ATOM     40  C   UNL A   1      46.156  33.539  27.340  1.00  0.00     0.010 A 
ATOM     41  C   UNL A   1      46.991  34.441  29.854  1.00  0.00     0.020 A 
ATOM     42  C   UNL A   1      46.505  34.882  27.514  1.00  0.00     0.020 A 
ATOM     43  C   UNL A   1      46.904  35.329  28.776  1.00  0.00     0.054 A 
BRANCH  43  44
ATOM     44  S   UNL A   1      47.351  37.068  29.037  1.00  0.00     0.124 S 
ATOM     45  O   UNL A   1      46.437  37.752  28.126  1.00  0.00    -0.237 OA
ATOM     46  O   UNL A   1      47.078  37.259  30.460  1.00  0.00    -0.237 OA
ATOM     47  O   UNL A   1      48.761  37.125  28.664  1.00  0.00    -0.744 OA
ENDBRANCH  43  44
ENDBRANCH  24  38
BRANCH  25  48
ATOM     48  C   UNL A   1      43.512  23.140  26.802  1.00  0.00    -0.014 A 
ATOM     49  C   UNL A   1      43.783  22.524  25.568  1.00  0.00     0.010 A 
ATOM     50  C   UNL A   1      42.879  22.396  27.815  1.00  0.00     0.010 A 
ATOM     51  C   UNL A   1      43.418  21.193  25.349  1.00  0.00     0.020 A 
ATOM     52  C   UNL A   1      42.539  21.057  27.610  1.00  0.00     0.020 A 
ATOM     53  C   UNL A   1      42.800  20.467  26.372  1.00  0.00     0.054 A 
BRANCH  53  54
ATOM     54  S   UNL A   1      42.387  18.724  26.087  1.00  0.00     0.124 S 
ATOM     55  O   UNL A   1      40.980  18.805  25.706  1.00  0.00    -0.237 OA
ATOM     56  O   UNL A   1      43.311  18.349  25.020  1.00  0.00    -0.237 OA
ATOM     57  O   UNL A   1      42.652  18.095  27.379  1.00  0.00    -0.744 OA
ENDBRANCH  53  54
ENDBRANCH  25  48
BRANCH  37  58
ATOM     58  C   UNL A   1      49.549  26.588  26.287  1.00  0.00    -0.014 A 
ATOM     59  C   UNL A   1      50.385  25.907  27.188  1.00  0.00     0.010 A 
ATOM     60  C   UNL A   1      50.003  26.835  24.978  1.00  0.00     0.010 A 
ATOM     61  C   UNL A   1      51.666  25.508  26.797  1.00  0.00     0.020 A 
ATOM     62  C   UNL A   1      51.273  26.415  24.576  1.00  0.00     0.020 A 
ATOM     63  C   UNL A   1      52.103  25.766  25.494  1.00  0.00     0.054 A 
BRANCH  63  64
ATOM     64  S   UNL A   1      53.754  25.205  24.998  1.00  0.00     0.124 S 
ATOM     65  O   UNL A   1      53.594  23.753  24.996  1.00  0.00    -0.237 OA
ATOM     66  O   UNL A   1      53.923  25.821  23.685  1.00  0.00    -0.237 OA
ATOM     67  O   UNL A   1      54.628  25.734  26.044  1.00  0.00    -0.744 OA
ENDBRANCH  63  64
ENDBRANCH  37  58
ENDBRANCH  11  12
ENDBRANCH   4   6
ENDBRANCH   1   2
BRANCH   1  68
ATOM     68  C   UNL A   1      34.556  28.919  27.195  1.00  0.00     0.042 C 
BRANCH  68  69
ATOM     69  C   UNL A   1      33.112  29.330  26.963  1.00  0.00     0.118 C 
BRANCH  69  70
ATOM     70  N   UNL A   1      32.197  28.228  27.218  1.00  0.00    -0.351 N 
ATOM     71  C   UNL A   1      31.604  27.366  26.341  1.00  0.00     0.278 C 
ATOM     72  H   UNL A   1      31.974  28.080  28.165  1.00  0.00     0.163 HD
ATOM     73  O   UNL A   1      30.855  26.503  26.809  1.00  0.00    -0.268 OA
BRANCH  71  74
ATOM     74  C   UNL A   1      31.859  27.520  24.828  1.00  0.00     0.274 C 
ATOM     75  C   UNL A   1      30.495  27.645  24.136  1.00  0.00     0.076 C 
ATOM     76  N   UNL A   1      32.639  26.377  24.273  1.00  0.00    -0.320 N 
ATOM     77  C   UNL A   1      30.671  27.808  22.632  1.00  0.00     0.012 C 
ATOM     78  C   UNL A   1      32.854  26.544  22.832  1.00  0.00     0.263 C 
ATOM     79  H   UNL A   1      32.075  25.538  24.412  1.00  0.00     0.349 HD
ATOM     80  C   UNL A   1      31.528  26.677  22.076  1.00  0.00     0.062 C 
BRANCH  76  81
ATOM     81  C   UNL A   1      33.900  26.115  25.005  1.00  0.00     0.322 C 
BRANCH  81  82
ATOM     82  C   UNL A   1      34.287  24.664  25.067  1.00  0.00     0.115 A 
ATOM     83  C   UNL A   1      33.509  23.540  24.869  1.00  0.00     0.124 A 
ATOM     84  N   UNL A   1      35.581  24.287  25.360  1.00  0.00    -0.210 NA
ATOM     85  N   UNL A   1      34.367  22.476  24.972  1.00  0.00    -0.291 N 
ATOM     86  C   UNL A   1      35.632  22.980  25.253  1.00  0.00     0.234 A 
ATOM     87  C   UNL A   1      34.129  21.119  24.817  1.00  0.00     0.096 A 
ATOM     88  N   UNL A   1      36.714  22.154  25.364  1.00  0.00    -0.221 NA
ATOM     89  C   UNL A   1      35.154  20.261  24.920  1.00  0.00     0.039 A 
ATOM     90  C   UNL A   1      36.479  20.889  25.199  1.00  0.00     0.117 A 
ENDBRANCH  81  82
ENDBRANCH  76  81
ENDBRANCH  71  74
ENDBRANCH  69  70
ENDBRANCH  68  69
ENDBRANCH   1  68
TORSDOF 15
ENDMDL
MODEL 3
REMARK VINA RESULT:     -12.3      7.299     12.413
REMARK SMILES O=C(NCCCNC(=O)[C@@H]1CCCC[N@H+]1Cc1cn2cccnc2n1)c1ccc(-c2c3nc(c(-c4ccc(S(=O)(=O)[O-])cc4)c4ccc([nH]4)c(-c4ccc(S(=O)(=O)[O-])cc4)c4nc(c(-c5ccc(S(=O)(=O)[O-])cc5)c5ccc2[nH]5)C=C4)C=C3)cc1
REMARK SMILES IDX 4 1 3 2 1 3 2 4 26 6 27 7 85 8 28 9 84 10 29 11 30 12 31 13
REMARK SMILES IDX 78 14 32 15 83 16 77 17 79 18 33 19 82 20 76 21 75 22 34 24
REMARK SMILES IDX 64 25 45 26 63 27 46 28 49 29 62 30 80 31 47 32 48 33 61 35
REMARK SMILES IDX 81 36 50 37 35 38 36 39 44 40 37 41 43 42 38 43 39 44 40 45
REMARK SMILES IDX 41 46 42 47 65 48 66 49 74 50 67 51 73 52 68 53 69 54 70 55
REMARK SMILES IDX 71 56 72 57 51 58 52 59 60 60 53 61 59 62 54 63 55 64 56 65
REMARK SMILES IDX 57 66 58 67 5 68 6 69 7 70 8 71 9 73 10 74 11 75 15 76 12 77
REMARK SMILES IDX 14 78 13 80 16 81 17 82 18 83 25 84 19 85 24 86 20 87 23 88
REMARK SMILES IDX 21 89 22 90
REMARK H PARENT 3 5 79 23 49 34 7 72 15 79
REMARK Flexibility Score: inf
ROOT
ATOM      1  C   UNL A   1      35.529  29.679  27.849  1.00  0.00     0.118 C 
ENDROOT
BRANCH   1   2
ATOM      2  N   UNL A   1      35.515  29.906  29.289  1.00  0.00    -0.352 N 
ATOM      3  O   UNL A   1      36.246  29.773  31.416  1.00  0.00    -0.269 OA
ATOM      4  C   UNL A   1      36.505  29.700  30.218  1.00  0.00     0.251 C 
ATOM      5  H   UNL A   1      34.669  30.258  29.649  1.00  0.00     0.163 HD
BRANCH   4   6
ATOM      6  C   UNL A   1      37.877  29.372  29.775  1.00  0.00     0.039 A 
ATOM      7  C   UNL A   1      38.785  28.777  30.653  1.00  0.00     0.014 A 
ATOM      8  C   UNL A   1      38.255  29.651  28.460  1.00  0.00     0.014 A 
ATOM      9  C   UNL A   1      40.106  28.598  30.264  1.00  0.00     0.010 A 
ATOM     10  C   UNL A   1      39.560  29.380  28.039  1.00  0.00     0.010 A 
ATOM     11  C   UNL A   1      40.504  28.877  28.947  1.00  0.00    -0.014 A 
BRANCH  11  12
ATOM     12  C   UNL A   1      41.891  28.556  28.527  1.00  0.00     0.031 A 
ATOM     13  C   UNL A   1      42.267  27.178  28.057  1.00  0.00     0.074 A 
ATOM     14  C   UNL A   1      42.810  29.542  28.550  1.00  0.00     0.049 A 
ATOM     15  N   UNL A   1      43.429  26.746  27.635  1.00  0.00    -0.248 NA
ATOM     16  C   UNL A   1      41.214  26.152  28.065  1.00  0.00     0.031 C 
ATOM     17  C   UNL A   1      42.560  30.916  28.996  1.00  0.00     0.029 A 
ATOM     18  N   UNL A   1      44.128  29.551  28.175  1.00  0.00    -0.354 N 
ATOM     19  C   UNL A   1      43.254  25.398  27.348  1.00  0.00     0.074 A 
ATOM     20  C   UNL A   1      41.879  25.077  27.664  1.00  0.00     0.031 C 
ATOM     21  C   UNL A   1      43.670  31.645  28.817  1.00  0.00     0.029 A 
ATOM     22  C   UNL A   1      44.728  30.780  28.311  1.00  0.00     0.049 A 
ATOM     23  H   UNL A   1      44.600  28.754  27.839  1.00  0.00     0.167 HD
ATOM     24  C   UNL A   1      44.158  24.512  26.862  1.00  0.00     0.031 A 
ATOM     25  C   UNL A   1      45.994  31.170  28.074  1.00  0.00     0.031 A 
ATOM     26  C   UNL A   1      45.525  24.841  26.549  1.00  0.00     0.049 A 
ATOM     27  C   UNL A   1      46.979  30.163  27.560  1.00  0.00     0.074 A 
ATOM     28  C   UNL A   1      46.510  24.021  26.026  1.00  0.00     0.029 A 
ATOM     29  N   UNL A   1      46.103  26.089  26.735  1.00  0.00    -0.354 N 
ATOM     30  N   UNL A   1      46.785  28.899  27.268  1.00  0.00    -0.248 NA
ATOM     31  C   UNL A   1      48.352  30.633  27.343  1.00  0.00     0.031 C 
ATOM     32  C   UNL A   1      47.696  24.759  25.942  1.00  0.00     0.029 A 
ATOM     33  C   UNL A   1      47.436  26.054  26.360  1.00  0.00     0.049 A 
ATOM     34  H   UNL A   1      45.635  26.882  27.083  1.00  0.00     0.167 HD
ATOM     35  C   UNL A   1      48.010  28.424  26.820  1.00  0.00     0.074 A 
ATOM     36  C   UNL A   1      48.932  29.543  26.859  1.00  0.00     0.031 C 
ATOM     37  C   UNL A   1      48.342  27.174  26.415  1.00  0.00     0.031 A 
BRANCH  24  38
ATOM     38  C   UNL A   1      43.705  23.088  26.663  1.00  0.00    -0.014 A 
ATOM     39  C   UNL A   1      43.883  22.430  25.433  1.00  0.00     0.010 A 
ATOM     40  C   UNL A   1      43.140  22.380  27.740  1.00  0.00     0.010 A 
ATOM     41  C   UNL A   1      43.471  21.104  25.272  1.00  0.00     0.020 A 
ATOM     42  C   UNL A   1      42.748  21.046  27.592  1.00  0.00     0.020 A 
ATOM     43  C   UNL A   1      42.900  20.421  26.351  1.00  0.00     0.054 A 
BRANCH  43  44
ATOM     44  S   UNL A   1      42.389  18.695  26.122  1.00  0.00     0.124 S 
ATOM     45  O   UNL A   1      42.547  18.154  27.470  1.00  0.00    -0.237 OA
ATOM     46  O   UNL A   1      41.010  18.828  25.658  1.00  0.00    -0.237 OA
ATOM     47  O   UNL A   1      43.330  18.181  25.131  1.00  0.00    -0.744 OA
ENDBRANCH  43  44
ENDBRANCH  24  38
BRANCH  25  48
ATOM     48  C   UNL A   1      46.391  32.578  28.340  1.00  0.00    -0.014 A 
ATOM     49  C   UNL A   1      46.276  33.557  27.338  1.00  0.00     0.010 A 
ATOM     50  C   UNL A   1      46.849  32.953  29.617  1.00  0.00     0.010 A 
ATOM     51  C   UNL A   1      46.624  34.884  27.605  1.00  0.00     0.020 A 
ATOM     52  C   UNL A   1      47.170  34.284  29.896  1.00  0.00     0.020 A 
ATOM     53  C   UNL A   1      47.067  35.239  28.883  1.00  0.00     0.054 A 
BRANCH  53  54
ATOM     54  S   UNL A   1      47.457  36.978  29.226  1.00  0.00     0.124 S 
ATOM     55  O   UNL A   1      46.127  37.562  29.371  1.00  0.00    -0.237 OA
ATOM     56  O   UNL A   1      48.247  36.889  30.452  1.00  0.00    -0.237 OA
ATOM     57  O   UNL A   1      48.203  37.400  28.043  1.00  0.00    -0.744 OA
ENDBRANCH  53  54
ENDBRANCH  25  48
BRANCH  37  58
ATOM     58  C   UNL A   1      49.760  26.958  25.960  1.00  0.00    -0.014 A 
ATOM     59  C   UNL A   1      50.739  26.468  26.842  1.00  0.00     0.010 A 
ATOM     60  C   UNL A   1      50.106  27.213  24.620  1.00  0.00     0.010 A 
ATOM     61  C   UNL A   1      52.049  26.268  26.400  1.00  0.00     0.020 A 
ATOM     62  C   UNL A   1      51.408  26.990  24.169  1.00  0.00     0.020 A 
ATOM     63  C   UNL A   1      52.376  26.532  25.066  1.00  0.00     0.054 A 
BRANCH  63  64
ATOM     64  S   UNL A   1      54.074  26.229  24.505  1.00  0.00     0.124 S 
ATOM     65  O   UNL A   1      54.818  27.266  25.215  1.00  0.00    -0.237 OA
ATOM     66  O   UNL A   1      54.320  24.860  24.952  1.00  0.00    -0.237 OA
ATOM     67  O   UNL A   1      53.995  26.399  23.056  1.00  0.00    -0.744 OA
ENDBRANCH  63  64
ENDBRANCH  37  58
ENDBRANCH  11  12
ENDBRANCH   4   6
ENDBRANCH   1   2
BRANCH   1  68
ATOM     68  C   UNL A   1      34.131  29.641  27.251  1.00  0.00     0.042 C 
BRANCH  68  69
ATOM     69  C   UNL A   1      33.951  28.541  26.218  1.00  0.00     0.118 C 
BRANCH  69  70
ATOM     70  N   UNL A   1      33.992  29.071  24.864  1.00  0.00    -0.351 N 
ATOM     71  C   UNL A   1      33.547  28.519  23.697  1.00  0.00     0.278 C 
ATOM     72  H   UNL A   1      34.400  29.962  24.776  1.00  0.00     0.163 HD
ATOM     73  O   UNL A   1      33.699  29.175  22.662  1.00  0.00    -0.268 OA
BRANCH  71  74
ATOM     74  C   UNL A   1      32.914  27.113  23.709  1.00  0.00     0.274 C 
ATOM     75  C   UNL A   1      33.661  26.257  22.677  1.00  0.00     0.076 C 
ATOM     76  N   UNL A   1      31.453  27.154  23.416  1.00  0.00    -0.320 N 
ATOM     77  C   UNL A   1      33.091  24.845  22.640  1.00  0.00     0.012 C 
ATOM     78  C   UNL A   1      30.883  25.803  23.421  1.00  0.00     0.263 C 
ATOM     79  H   UNL A   1      31.351  27.535  22.475  1.00  0.00     0.349 HD
ATOM     80  C   UNL A   1      31.585  24.890  22.410  1.00  0.00     0.062 C 
BRANCH  76  81
ATOM     81  C   UNL A   1      30.704  28.086  24.289  1.00  0.00     0.322 C 
BRANCH  81  82
ATOM     82  C   UNL A   1      29.972  29.171  23.550  1.00  0.00     0.115 A 
ATOM     83  C   UNL A   1      29.819  30.504  23.877  1.00  0.00     0.124 A 
ATOM     84  N   UNL A   1      29.319  28.905  22.365  1.00  0.00    -0.210 NA
ATOM     85  N   UNL A   1      29.127  31.061  22.832  1.00  0.00    -0.291 N 
ATOM     86  C   UNL A   1      28.858  30.049  21.917  1.00  0.00     0.234 A 
ATOM     87  C   UNL A   1      28.740  32.375  22.617  1.00  0.00     0.096 A 
ATOM     88  N   UNL A   1      28.218  30.312  20.740  1.00  0.00    -0.221 NA
ATOM     89  C   UNL A   1      28.103  32.690  21.480  1.00  0.00     0.039 A 
ATOM     90  C   UNL A   1      27.878  31.549  20.544  1.00  0.00     0.117 A 
ENDBRANCH  81  82
ENDBRANCH  76  81
ENDBRANCH  71  74
ENDBRANCH  69  70
ENDBRANCH  68  69
ENDBRANCH   1  68
TORSDOF 15
ENDMDL
