MODEL 1
REMARK VINA RESULT:     -10.5      0.000      0.000
REMARK SMILES O=C(NCCCNC(=O)c1cc(/N=C/c2ccc([N+](=O)[O-])cc2)ccc1O)c1ccc(-c2c3nc(c(-c4ccc(S(=O)(=O)[O-])cc4)c4ccc([nH]4)c(-c4ccc(S(=O)(=O)[O-])cc4)c4nc(c(-c5ccc(S(=O)(=O)[O-])cc5)c5ccc2[nH]5)C=C4)C=C3)cc1
REMARK SMILES IDX 5 1 4 2 3 3 1 4 2 5 28 7 29 8 87 9 30 10 86 11 31 12 32 13
REMARK SMILES IDX 33 14 80 15 34 16 85 17 79 18 81 19 35 20 84 21 78 22 77 23
REMARK SMILES IDX 36 25 66 26 47 27 65 28 48 29 51 30 64 31 82 32 49 33 50 34
REMARK SMILES IDX 63 36 83 37 52 38 37 39 38 40 46 41 39 42 45 43 40 44 41 45
REMARK SMILES IDX 42 46 43 47 44 48 67 49 68 50 76 51 69 52 75 53 70 54 71 55
REMARK SMILES IDX 72 56 73 57 74 58 53 59 54 60 62 61 55 62 61 63 56 64 57 65
REMARK SMILES IDX 58 66 59 67 60 68 6 69 7 70 8 71 9 73 10 74 11 75 26 76
REMARK SMILES IDX 12 77 25 78 24 79 27 80 13 82 14 83 15 84 16 85 23 86 17 87
REMARK SMILES IDX 22 88 18 89 19 90 20 91 21 92
REMARK H PARENT 3 6 81 24 51 35 7 72 27 81
REMARK Flexibility Score: inf
ROOT
ATOM      1  C   UNL A   1      40.880  21.419  27.514  1.00  0.00     0.042 C 
ENDROOT
BRANCH   1   2
ATOM      2  C   UNL A   1      40.700  21.911  26.087  1.00  0.00     0.118 C 
BRANCH   2   3
ATOM      3  N   UNL A   1      39.311  22.229  25.769  1.00  0.00    -0.352 N 
ATOM      4  O   UNL A   1      37.321  23.263  25.911  1.00  0.00    -0.269 OA
ATOM      5  C   UNL A   1      38.528  23.294  26.143  1.00  0.00     0.251 C 
ATOM      6  H   UNL A   1      38.863  21.571  25.190  1.00  0.00     0.163 HD
BRANCH   5   7
ATOM      7  C   UNL A   1      39.118  24.460  26.839  1.00  0.00     0.039 A 
ATOM      8  C   UNL A   1      38.902  24.664  28.200  1.00  0.00     0.014 A 
ATOM      9  C   UNL A   1      39.926  25.351  26.124  1.00  0.00     0.014 A 
ATOM     10  C   UNL A   1      39.331  25.840  28.801  1.00  0.00     0.010 A 
ATOM     11  C   UNL A   1      40.456  26.480  26.760  1.00  0.00     0.010 A 
ATOM     12  C   UNL A   1      40.131  26.755  28.096  1.00  0.00    -0.014 A 
BRANCH  12  13
ATOM     13  C   UNL A   1      40.655  27.947  28.814  1.00  0.00     0.031 A 
ATOM     14  C   UNL A   1      42.095  28.039  29.242  1.00  0.00     0.074 A 
ATOM     15  C   UNL A   1      39.821  28.987  29.022  1.00  0.00     0.049 A 
ATOM     16  N   UNL A   1      42.717  29.037  29.816  1.00  0.00    -0.248 NA
ATOM     17  C   UNL A   1      42.946  26.863  29.000  1.00  0.00     0.031 C 
ATOM     18  C   UNL A   1      38.398  29.011  28.665  1.00  0.00     0.029 A 
ATOM     19  N   UNL A   1      40.049  30.233  29.546  1.00  0.00    -0.354 N 
ATOM     20  C   UNL A   1      44.026  28.611  30.014  1.00  0.00     0.074 A 
ATOM     21  C   UNL A   1      44.102  27.250  29.528  1.00  0.00     0.031 C 
ATOM     22  C   UNL A   1      37.900  30.229  28.918  1.00  0.00     0.029 A 
ATOM     23  C   UNL A   1      38.944  31.050  29.518  1.00  0.00     0.049 A 
ATOM     24  H   UNL A   1      40.920  30.515  29.908  1.00  0.00     0.167 HD
ATOM     25  C   UNL A   1      45.070  29.294  30.544  1.00  0.00     0.031 A 
ATOM     26  C   UNL A   1      38.779  32.319  29.937  1.00  0.00     0.031 A 
ATOM     27  C   UNL A   1      44.989  30.648  31.032  1.00  0.00     0.049 A 
ATOM     28  C   UNL A   1      39.948  33.045  30.533  1.00  0.00     0.074 A 
ATOM     29  C   UNL A   1      45.991  31.424  31.590  1.00  0.00     0.029 A 
ATOM     30  N   UNL A   1      43.843  31.429  31.016  1.00  0.00    -0.354 N 
ATOM     31  N   UNL A   1      41.179  32.623  30.702  1.00  0.00    -0.248 NA
ATOM     32  C   UNL A   1      39.708  34.419  30.994  1.00  0.00     0.031 C 
ATOM     33  C   UNL A   1      45.442  32.661  31.945  1.00  0.00     0.029 A 
ATOM     34  C   UNL A   1      44.110  32.674  31.563  1.00  0.00     0.049 A 
ATOM     35  H   UNL A   1      42.969  31.142  30.667  1.00  0.00     0.167 HD
ATOM     36  C   UNL A   1      41.862  33.683  31.284  1.00  0.00     0.074 A 
ATOM     37  C   UNL A   1      40.917  34.773  31.408  1.00  0.00     0.031 C 
ATOM     38  C   UNL A   1      43.155  33.744  31.687  1.00  0.00     0.031 A 
BRANCH  25  39
ATOM     39  C   UNL A   1      46.395  28.583  30.638  1.00  0.00    -0.014 A 
ATOM     40  C   UNL A   1      47.378  28.751  29.645  1.00  0.00     0.010 A 
ATOM     41  C   UNL A   1      46.685  27.781  31.756  1.00  0.00     0.010 A 
ATOM     42  C   UNL A   1      48.613  28.105  29.754  1.00  0.00     0.020 A 
ATOM     43  C   UNL A   1      47.928  27.152  31.881  1.00  0.00     0.020 A 
ATOM     44  C   UNL A   1      48.879  27.306  30.869  1.00  0.00     0.054 A 
BRANCH  44  45
ATOM     45  S   UNL A   1      50.499  26.499  30.996  1.00  0.00     0.124 S 
ATOM     46  O   UNL A   1      50.824  26.699  32.407  1.00  0.00    -0.237 OA
ATOM     47  O   UNL A   1      50.204  25.121  30.611  1.00  0.00    -0.237 OA
ATOM     48  O   UNL A   1      51.333  27.242  30.054  1.00  0.00    -0.744 OA
ENDBRANCH  44  45
ENDBRANCH  25  39
BRANCH  26  49
ATOM     49  C   UNL A   1      37.444  32.965  29.827  1.00  0.00    -0.014 A 
ATOM     50  C   UNL A   1      36.618  33.114  30.954  1.00  0.00     0.010 A 
ATOM     51  C   UNL A   1      36.999  33.450  28.583  1.00  0.00     0.010 A 
ATOM     52  C   UNL A   1      35.362  33.717  30.834  1.00  0.00     0.020 A 
ATOM     53  C   UNL A   1      35.759  34.081  28.465  1.00  0.00     0.020 A 
ATOM     54  C   UNL A   1      34.941  34.195  29.590  1.00  0.00     0.054 A 
BRANCH  54  55
ATOM     55  S   UNL A   1      33.326  35.012  29.459  1.00  0.00     0.124 S 
ATOM     56  O   UNL A   1      33.704  36.357  29.036  1.00  0.00    -0.237 OA
ATOM     57  O   UNL A   1      32.639  34.202  28.456  1.00  0.00    -0.237 OA
ATOM     58  O   UNL A   1      32.782  34.907  30.811  1.00  0.00    -0.744 OA
ENDBRANCH  54  55
ENDBRANCH  26  49
BRANCH  38  59
ATOM     59  C   UNL A   1      43.619  35.045  32.282  1.00  0.00    -0.014 A 
ATOM     60  C   UNL A   1      44.143  36.067  31.470  1.00  0.00     0.010 A 
ATOM     61  C   UNL A   1      43.513  35.253  33.668  1.00  0.00     0.010 A 
ATOM     62  C   UNL A   1      44.593  37.260  32.042  1.00  0.00     0.020 A 
ATOM     63  C   UNL A   1      43.938  36.455  34.240  1.00  0.00     0.020 A 
ATOM     64  C   UNL A   1      44.492  37.444  33.425  1.00  0.00     0.054 A 
BRANCH  64  65
ATOM     65  S   UNL A   1      45.062  39.009  34.143  1.00  0.00     0.124 S 
ATOM     66  O   UNL A   1      43.925  39.392  34.976  1.00  0.00    -0.237 OA
ATOM     67  O   UNL A   1      46.267  38.611  34.868  1.00  0.00    -0.237 OA
ATOM     68  O   UNL A   1      45.296  39.858  32.977  1.00  0.00    -0.744 OA
ENDBRANCH  64  65
ENDBRANCH  38  59
ENDBRANCH  12  13
ENDBRANCH   5   7
ENDBRANCH   2   3
ENDBRANCH   1   2
BRANCH   1  69
ATOM     69  C   UNL A   1      42.136  20.588  27.721  1.00  0.00     0.118 C 
BRANCH  69  70
ATOM     70  N   UNL A   1      42.066  19.296  27.052  1.00  0.00    -0.352 N 
ATOM     71  C   UNL A   1      42.909  18.766  26.106  1.00  0.00     0.255 C 
ATOM     72  H   UNL A   1      41.308  18.724  27.313  1.00  0.00     0.163 HD
ATOM     73  O   UNL A   1      42.651  17.689  25.575  1.00  0.00    -0.269 OA
BRANCH  71  74
ATOM     74  C   UNL A   1      44.096  19.527  25.675  1.00  0.00     0.083 A 
ATOM     75  C   UNL A   1      43.967  20.917  25.560  1.00  0.00     0.046 A 
ATOM     76  C   UNL A   1      45.322  18.910  25.406  1.00  0.00     0.128 A 
ATOM     77  C   UNL A   1      45.074  21.703  25.239  1.00  0.00     0.064 A 
ATOM     78  C   UNL A   1      46.440  19.686  25.115  1.00  0.00     0.049 A 
ATOM     79  C   UNL A   1      46.316  21.077  25.055  1.00  0.00     0.032 A 
BRANCH  76  80
ATOM     80  O   UNL A   1      45.439  17.548  25.458  1.00  0.00    -0.507 OA
ATOM     81  H   UNL A   1      45.118  17.024  24.752  1.00  0.00     0.293 HD
ENDBRANCH  76  80
BRANCH  77  82
ATOM     82  N   UNL A   1      44.908  23.096  25.182  1.00  0.00    -0.256 NA
ATOM     83  C   UNL A   1      45.499  23.826  26.073  1.00  0.00     0.119 C 
BRANCH  83  84
ATOM     84  C   UNL A   1      45.392  25.298  26.076  1.00  0.00    -0.007 A 
ATOM     85  C   UNL A   1      46.471  26.043  26.561  1.00  0.00     0.017 A 
ATOM     86  C   UNL A   1      44.250  25.940  25.583  1.00  0.00     0.017 A 
ATOM     87  C   UNL A   1      46.417  27.440  26.543  1.00  0.00     0.086 A 
ATOM     88  C   UNL A   1      44.191  27.337  25.557  1.00  0.00     0.086 A 
ATOM     89  C   UNL A   1      45.279  28.082  26.032  1.00  0.00     0.269 A 
BRANCH  89  90
ATOM     90  N   UNL A   1      45.239  29.550  25.979  1.00  0.00     0.062 N 
ATOM     91  O   UNL A   1      46.223  30.134  25.498  1.00  0.00    -0.258 OA
ATOM     92  O   UNL A   1      44.225  30.118  26.404  1.00  0.00    -0.258 OA
ENDBRANCH  89  90
ENDBRANCH  83  84
ENDBRANCH  77  82
ENDBRANCH  71  74
ENDBRANCH  69  70
ENDBRANCH   1  69
TORSDOF 17
ENDMDL
MODEL 2
REMARK VINA RESULT:     -10.5      0.945      8.243
REMARK SMILES O=C(NCCCNC(=O)c1cc(/N=C/c2ccc([N+](=O)[O-])cc2)ccc1O)c1ccc(-c2c3nc(c(-c4ccc(S(=O)(=O)[O-])cc4)c4ccc([nH]4)c(-c4ccc(S(=O)(=O)[O-])cc4)c4nc(c(-c5ccc(S(=O)(=O)[O-])cc5)c5ccc2[nH]5)C=C4)C=C3)cc1
REMARK SMILES IDX 5 1 4 2 3 3 1 4 2 5 28 7 29 8 87 9 30 10 86 11 31 12 32 13
REMARK SMILES IDX 33 14 80 15 34 16 85 17 79 18 81 19 35 20 84 21 78 22 77 23
REMARK SMILES IDX 36 25 66 26 47 27 65 28 48 29 51 30 64 31 82 32 49 33 50 34
REMARK SMILES IDX 63 36 83 37 52 38 37 39 38 40 46 41 39 42 45 43 40 44 41 45
REMARK SMILES IDX 42 46 43 47 44 48 67 49 68 50 76 51 69 52 75 53 70 54 71 55
REMARK SMILES IDX 72 56 73 57 74 58 53 59 54 60 62 61 55 62 61 63 56 64 57 65
REMARK SMILES IDX 58 66 59 67 60 68 6 69 7 70 8 71 9 73 10 74 11 75 26 76
REMARK SMILES IDX 12 77 25 78 24 79 27 80 13 82 14 83 15 84 16 85 23 86 17 87
REMARK SMILES IDX 22 88 18 89 19 90 20 91 21 92
REMARK H PARENT 3 6 81 24 51 35 7 72 27 81
REMARK Flexibility Score: inf
ROOT
ATOM      1  C   UNL A   1      40.989  21.390  27.464  1.00  0.00     0.042 C 
ENDROOT
BRANCH   1   2
ATOM      2  C   UNL A   1      40.792  22.010  26.090  1.00  0.00     0.118 C 
BRANCH   2   3
ATOM      3  N   UNL A   1      39.384  22.195  25.750  1.00  0.00    -0.352 N 
ATOM      4  O   UNL A   1      37.300  23.028  25.868  1.00  0.00    -0.269 OA
ATOM      5  C   UNL A   1      38.494  23.173  26.122  1.00  0.00     0.251 C 
ATOM      6  H   UNL A   1      39.013  21.505  25.154  1.00  0.00     0.163 HD
BRANCH   5   7
ATOM      7  C   UNL A   1      38.954  24.381  26.844  1.00  0.00     0.039 A 
ATOM      8  C   UNL A   1      39.684  25.370  26.189  1.00  0.00     0.014 A 
ATOM      9  C   UNL A   1      38.625  24.543  28.194  1.00  0.00     0.014 A 
ATOM     10  C   UNL A   1      40.240  26.417  26.914  1.00  0.00     0.010 A 
ATOM     11  C   UNL A   1      39.090  25.659  28.900  1.00  0.00     0.010 A 
ATOM     12  C   UNL A   1      39.934  26.588  28.274  1.00  0.00    -0.014 A 
BRANCH  12  13
ATOM     13  C   UNL A   1      40.466  27.783  28.980  1.00  0.00     0.031 A 
ATOM     14  C   UNL A   1      39.617  29.004  29.212  1.00  0.00     0.074 A 
ATOM     15  C   UNL A   1      41.721  27.729  29.474  1.00  0.00     0.049 A 
ATOM     16  N   UNL A   1      39.915  30.097  29.868  1.00  0.00    -0.248 NA
ATOM     17  C   UNL A   1      38.264  29.004  28.633  1.00  0.00     0.031 C 
ATOM     18  C   UNL A   1      42.647  26.605  29.302  1.00  0.00     0.029 A 
ATOM     19  N   UNL A   1      42.422  28.617  30.249  1.00  0.00    -0.354 N 
ATOM     20  C   UNL A   1      38.797  30.918  29.774  1.00  0.00     0.074 A 
ATOM     21  C   UNL A   1      37.824  30.211  28.970  1.00  0.00     0.031 C 
ATOM     22  C   UNL A   1      43.764  26.841  30.004  1.00  0.00     0.029 A 
ATOM     23  C   UNL A   1      43.664  28.159  30.618  1.00  0.00     0.049 A 
ATOM     24  H   UNL A   1      42.070  29.497  30.513  1.00  0.00     0.167 HD
ATOM     25  C   UNL A   1      38.597  32.144  30.315  1.00  0.00     0.031 A 
ATOM     26  C   UNL A   1      44.628  28.735  31.362  1.00  0.00     0.031 A 
ATOM     27  C   UNL A   1      39.570  32.848  31.113  1.00  0.00     0.049 A 
ATOM     28  C   UNL A   1      44.384  30.099  31.935  1.00  0.00     0.074 A 
ATOM     29  C   UNL A   1      39.461  34.096  31.702  1.00  0.00     0.029 A 
ATOM     30  N   UNL A   1      40.829  32.363  31.436  1.00  0.00    -0.354 N 
ATOM     31  N   UNL A   1      43.314  30.852  31.840  1.00  0.00    -0.248 NA
ATOM     32  C   UNL A   1      45.476  30.691  32.719  1.00  0.00     0.031 C 
ATOM     33  C   UNL A   1      40.668  34.381  32.351  1.00  0.00     0.029 A 
ATOM     34  C   UNL A   1      41.510  33.291  32.207  1.00  0.00     0.049 A 
ATOM     35  H   UNL A   1      41.186  31.489  31.159  1.00  0.00     0.167 HD
ATOM     36  C   UNL A   1      43.602  32.006  32.557  1.00  0.00     0.074 A 
ATOM     37  C   UNL A   1      44.932  31.837  33.106  1.00  0.00     0.031 C 
ATOM     38  C   UNL A   1      42.837  33.110  32.738  1.00  0.00     0.031 A 
BRANCH  25  39
ATOM     39  C   UNL A   1      37.273  32.816  30.056  1.00  0.00    -0.014 A 
ATOM     40  C   UNL A   1      36.201  32.675  30.956  1.00  0.00     0.010 A 
ATOM     41  C   UNL A   1      37.114  33.641  28.927  1.00  0.00     0.010 A 
ATOM     42  C   UNL A   1      34.985  33.322  30.716  1.00  0.00     0.020 A 
ATOM     43  C   UNL A   1      35.906  34.308  28.696  1.00  0.00     0.020 A 
ATOM     44  C   UNL A   1      34.844  34.131  29.585  1.00  0.00     0.054 A 
BRANCH  44  45
ATOM     45  S   UNL A   1      33.262  34.978  29.312  1.00  0.00     0.124 S 
ATOM     46  O   UNL A   1      33.699  36.257  28.757  1.00  0.00    -0.237 OA
ATOM     47  O   UNL A   1      32.579  34.089  28.375  1.00  0.00    -0.237 OA
ATOM     48  O   UNL A   1      32.670  35.048  30.646  1.00  0.00    -0.744 OA
ENDBRANCH  44  45
ENDBRANCH  25  39
BRANCH  26  49
ATOM     49  C   UNL A   1      45.918  28.027  31.576  1.00  0.00    -0.014 A 
ATOM     50  C   UNL A   1      46.123  27.224  32.710  1.00  0.00     0.010 A 
ATOM     51  C   UNL A   1      46.949  28.145  30.625  1.00  0.00     0.010 A 
ATOM     52  C   UNL A   1      47.344  26.569  32.901  1.00  0.00     0.020 A 
ATOM     53  C   UNL A   1      48.159  27.469  30.796  1.00  0.00     0.020 A 
ATOM     54  C   UNL A   1      48.354  26.698  31.943  1.00  0.00     0.054 A 
BRANCH  54  55
ATOM     55  S   UNL A   1      49.917  25.809  32.184  1.00  0.00     0.124 S 
ATOM     56  O   UNL A   1      49.461  24.550  32.762  1.00  0.00    -0.237 OA
ATOM     57  O   UNL A   1      50.451  25.727  30.827  1.00  0.00    -0.237 OA
ATOM     58  O   UNL A   1      50.667  26.680  33.087  1.00  0.00    -0.744 OA
ENDBRANCH  54  55
ENDBRANCH  26  49
BRANCH  38  59
ATOM     59  C   UNL A   1      43.420  34.209  33.581  1.00  0.00    -0.014 A 
ATOM     60  C   UNL A   1      43.204  34.250  34.970  1.00  0.00     0.010 A 
ATOM     61  C   UNL A   1      44.211  35.204  32.979  1.00  0.00     0.010 A 
ATOM     62  C   UNL A   1      43.732  35.293  35.736  1.00  0.00     0.020 A 
ATOM     63  C   UNL A   1      44.763  36.234  33.745  1.00  0.00     0.020 A 
ATOM     64  C   UNL A   1      44.504  36.281  35.117  1.00  0.00     0.054 A 
BRANCH  64  65
ATOM     65  S   UNL A   1      45.199  37.613  36.133  1.00  0.00     0.124 S 
ATOM     66  O   UNL A   1      45.435  36.933  37.404  1.00  0.00    -0.237 OA
ATOM     67  O   UNL A   1      46.400  37.992  35.391  1.00  0.00    -0.237 OA
ATOM     68  O   UNL A   1      44.141  38.620  36.151  1.00  0.00    -0.744 OA
ENDBRANCH  64  65
ENDBRANCH  38  59
ENDBRANCH  12  13
ENDBRANCH   5   7
ENDBRANCH   2   3
ENDBRANCH   1   2
BRANCH   1  69
ATOM     69  C   UNL A   1      42.321  20.675  27.627  1.00  0.00     0.118 C 
BRANCH  69  70
ATOM     70  N   UNL A   1      42.353  19.393  26.938  1.00  0.00    -0.352 N 
ATOM     71  C   UNL A   1      43.181  18.978  25.924  1.00  0.00     0.255 C 
ATOM     72  H   UNL A   1      41.689  18.732  27.240  1.00  0.00     0.163 HD
ATOM     73  O   UNL A   1      43.012  17.885  25.390  1.00  0.00    -0.269 OA
BRANCH  71  74
ATOM     74  C   UNL A   1      44.237  19.879  25.425  1.00  0.00     0.083 A 
ATOM     75  C   UNL A   1      43.970  21.254  25.433  1.00  0.00     0.046 A 
ATOM     76  C   UNL A   1      45.473  19.404  24.977  1.00  0.00     0.128 A 
ATOM     77  C   UNL A   1      44.957  22.165  25.054  1.00  0.00     0.064 A 
ATOM     78  C   UNL A   1      46.475  20.304  24.626  1.00  0.00     0.049 A 
ATOM     79  C   UNL A   1      46.220  21.677  24.688  1.00  0.00     0.032 A 
BRANCH  76  80
ATOM     80  O   UNL A   1      45.718  18.061  24.911  1.00  0.00    -0.507 OA
ATOM     81  H   UNL A   1      45.454  17.574  24.155  1.00  0.00     0.293 HD
ENDBRANCH  76  80
BRANCH  77  82
ATOM     82  N   UNL A   1      44.660  23.535  25.123  1.00  0.00    -0.256 NA
ATOM     83  C   UNL A   1      45.143  24.223  26.108  1.00  0.00     0.119 C 
BRANCH  83  84
ATOM     84  C   UNL A   1      44.895  25.671  26.248  1.00  0.00    -0.007 A 
ATOM     85  C   UNL A   1      43.730  26.204  25.685  1.00  0.00     0.017 A 
ATOM     86  C   UNL A   1      45.786  26.492  26.947  1.00  0.00     0.017 A 
ATOM     87  C   UNL A   1      43.447  27.565  25.833  1.00  0.00     0.086 A 
ATOM     88  C   UNL A   1      45.505  27.854  27.103  1.00  0.00     0.086 A 
ATOM     89  C   UNL A   1      44.332  28.384  26.549  1.00  0.00     0.269 A 
BRANCH  89  90
ATOM     90  N   UNL A   1      44.013  29.806  26.735  1.00  0.00     0.062 N 
ATOM     91  O   UNL A   1      44.726  30.635  26.150  1.00  0.00    -0.258 OA
ATOM     92  O   UNL A   1      43.046  30.094  27.452  1.00  0.00    -0.258 OA
ENDBRANCH  89  90
ENDBRANCH  83  84
ENDBRANCH  77  82
ENDBRANCH  71  74
ENDBRANCH  69  70
ENDBRANCH   1  69
TORSDOF 17
ENDMDL
MODEL 3
REMARK VINA RESULT:     -10.4      3.322     11.482
REMARK SMILES O=C(NCCCNC(=O)c1cc(/N=C/c2ccc([N+](=O)[O-])cc2)ccc1O)c1ccc(-c2c3nc(c(-c4ccc(S(=O)(=O)[O-])cc4)c4ccc([nH]4)c(-c4ccc(S(=O)(=O)[O-])cc4)c4nc(c(-c5ccc(S(=O)(=O)[O-])cc5)c5ccc2[nH]5)C=C4)C=C3)cc1
REMARK SMILES IDX 5 1 4 2 3 3 1 4 2 5 28 7 29 8 87 9 30 10 86 11 31 12 32 13
REMARK SMILES IDX 33 14 80 15 34 16 85 17 79 18 81 19 35 20 84 21 78 22 77 23
REMARK SMILES IDX 36 25 66 26 47 27 65 28 48 29 51 30 64 31 82 32 49 33 50 34
REMARK SMILES IDX 63 36 83 37 52 38 37 39 38 40 46 41 39 42 45 43 40 44 41 45
REMARK SMILES IDX 42 46 43 47 44 48 67 49 68 50 76 51 69 52 75 53 70 54 71 55
REMARK SMILES IDX 72 56 73 57 74 58 53 59 54 60 62 61 55 62 61 63 56 64 57 65
REMARK SMILES IDX 58 66 59 67 60 68 6 69 7 70 8 71 9 73 10 74 11 75 26 76
REMARK SMILES IDX 12 77 25 78 24 79 27 80 13 82 14 83 15 84 16 85 23 86 17 87
REMARK SMILES IDX 22 88 18 89 19 90 20 91 21 92
REMARK H PARENT 3 6 81 24 51 35 7 72 27 81
REMARK Flexibility Score: inf
ROOT
ATOM      1  C   UNL A   1      34.031  33.575  28.840  1.00  0.00     0.042 C 
ENDROOT
BRANCH   1   2
ATOM      2  C   UNL A   1      34.403  32.725  27.636  1.00  0.00     0.118 C 
BRANCH   2   3
ATOM      3  N   UNL A   1      33.729  31.431  27.626  1.00  0.00    -0.352 N 
ATOM      4  O   UNL A   1      33.498  29.197  27.525  1.00  0.00    -0.269 OA
ATOM      5  C   UNL A   1      34.231  30.157  27.752  1.00  0.00     0.251 C 
ATOM      6  H   UNL A   1      32.752  31.478  27.512  1.00  0.00     0.163 HD
BRANCH   5   7
ATOM      7  C   UNL A   1      35.644  29.935  28.133  1.00  0.00     0.039 A 
ATOM      8  C   UNL A   1      36.668  30.081  27.199  1.00  0.00     0.014 A 
ATOM      9  C   UNL A   1      35.957  29.604  29.456  1.00  0.00     0.014 A 
ATOM     10  C   UNL A   1      37.967  29.719  27.532  1.00  0.00     0.010 A 
ATOM     11  C   UNL A   1      37.284  29.349  29.820  1.00  0.00     0.010 A 
ATOM     12  C   UNL A   1      38.298  29.369  28.851  1.00  0.00    -0.014 A 
BRANCH  12  13
ATOM     13  C   UNL A   1      39.721  29.093  29.180  1.00  0.00     0.031 A 
ATOM     14  C   UNL A   1      40.554  30.078  29.956  1.00  0.00     0.074 A 
ATOM     15  C   UNL A   1      40.242  27.900  28.824  1.00  0.00     0.049 A 
ATOM     16  N   UNL A   1      41.787  29.954  30.378  1.00  0.00    -0.248 NA
ATOM     17  C   UNL A   1      39.931  31.366  30.299  1.00  0.00     0.031 C 
ATOM     18  C   UNL A   1      39.536  26.867  28.058  1.00  0.00     0.029 A 
ATOM     19  N   UNL A   1      41.464  27.337  29.087  1.00  0.00    -0.354 N 
ATOM     20  C   UNL A   1      42.092  31.146  31.026  1.00  0.00     0.074 A 
ATOM     21  C   UNL A   1      40.925  31.995  30.914  1.00  0.00     0.031 C 
ATOM     22  C   UNL A   1      40.309  25.777  27.970  1.00  0.00     0.029 A 
ATOM     23  C   UNL A   1      41.589  26.053  28.611  1.00  0.00     0.049 A 
ATOM     24  H   UNL A   1      42.182  27.807  29.569  1.00  0.00     0.167 HD
ATOM     25  C   UNL A   1      43.236  31.497  31.663  1.00  0.00     0.031 A 
ATOM     26  C   UNL A   1      42.621  25.191  28.672  1.00  0.00     0.031 A 
ATOM     27  C   UNL A   1      44.398  30.651  31.769  1.00  0.00     0.049 A 
ATOM     28  C   UNL A   1      43.880  25.613  29.370  1.00  0.00     0.074 A 
ATOM     29  C   UNL A   1      45.606  30.919  32.391  1.00  0.00     0.029 A 
ATOM     30  N   UNL A   1      44.496  29.370  31.244  1.00  0.00    -0.354 N 
ATOM     31  N   UNL A   1      44.141  26.743  29.982  1.00  0.00    -0.248 NA
ATOM     32  C   UNL A   1      44.982  24.642  29.387  1.00  0.00     0.031 C 
ATOM     33  C   UNL A   1      46.447  29.815  32.210  1.00  0.00     0.029 A 
ATOM     34  C   UNL A   1      45.747  28.840  31.519  1.00  0.00     0.049 A 
ATOM     35  H   UNL A   1      43.782  28.906  30.749  1.00  0.00     0.167 HD
ATOM     36  C   UNL A   1      45.438  26.617  30.464  1.00  0.00     0.074 A 
ATOM     37  C   UNL A   1      45.893  25.291  30.099  1.00  0.00     0.031 C 
ATOM     38  C   UNL A   1      46.186  27.522  31.140  1.00  0.00     0.031 A 
BRANCH  25  39
ATOM     39  C   UNL A   1      43.296  32.866  32.289  1.00  0.00    -0.014 A 
ATOM     40  C   UNL A   1      42.812  33.087  33.592  1.00  0.00     0.010 A 
ATOM     41  C   UNL A   1      43.891  33.933  31.592  1.00  0.00     0.010 A 
ATOM     42  C   UNL A   1      42.894  34.357  34.172  1.00  0.00     0.020 A 
ATOM     43  C   UNL A   1      43.996  35.199  32.177  1.00  0.00     0.020 A 
ATOM     44  C   UNL A   1      43.481  35.406  33.460  1.00  0.00     0.054 A 
BRANCH  44  45
ATOM     45  S   UNL A   1      43.595  37.037  34.247  1.00  0.00     0.124 S 
ATOM     46  O   UNL A   1      44.955  37.017  34.781  1.00  0.00    -0.237 OA
ATOM     47  O   UNL A   1      43.376  37.950  33.128  1.00  0.00    -0.237 OA
ATOM     48  O   UNL A   1      42.532  37.015  35.248  1.00  0.00    -0.744 OA
ENDBRANCH  44  45
ENDBRANCH  25  39
BRANCH  26  49
ATOM     49  C   UNL A   1      42.506  23.856  28.025  1.00  0.00    -0.014 A 
ATOM     50  C   UNL A   1      42.891  23.665  26.688  1.00  0.00     0.010 A 
ATOM     51  C   UNL A   1      42.021  22.760  28.763  1.00  0.00     0.010 A 
ATOM     52  C   UNL A   1      42.771  22.405  26.092  1.00  0.00     0.020 A 
ATOM     53  C   UNL A   1      41.928  21.494  28.181  1.00  0.00     0.020 A 
ATOM     54  C   UNL A   1      42.289  21.329  26.842  1.00  0.00     0.054 A 
BRANCH  54  55
ATOM     55  S   UNL A   1      42.179  19.692  26.068  1.00  0.00     0.124 S 
ATOM     56  O   UNL A   1      42.590  18.815  27.159  1.00  0.00    -0.237 OA
ATOM     57  O   UNL A   1      40.771  19.613  25.687  1.00  0.00    -0.237 OA
ATOM     58  O   UNL A   1      43.113  19.783  24.948  1.00  0.00    -0.744 OA
ENDBRANCH  54  55
ENDBRANCH  26  49
BRANCH  38  59
ATOM     59  C   UNL A   1      47.570  27.093  31.543  1.00  0.00    -0.014 A 
ATOM     60  C   UNL A   1      48.682  27.370  30.727  1.00  0.00     0.010 A 
ATOM     61  C   UNL A   1      47.763  26.419  32.762  1.00  0.00     0.010 A 
ATOM     62  C   UNL A   1      49.957  26.942  31.104  1.00  0.00     0.020 A 
ATOM     63  C   UNL A   1      49.041  26.013  33.155  1.00  0.00     0.020 A 
ATOM     64  C   UNL A   1      50.127  26.261  32.314  1.00  0.00     0.054 A 
BRANCH  64  65
ATOM     65  S   UNL A   1      51.795  25.734  32.794  1.00  0.00     0.124 S 
ATOM     66  O   UNL A   1      52.283  25.115  31.565  1.00  0.00    -0.237 OA
ATOM     67  O   UNL A   1      52.438  26.994  33.162  1.00  0.00    -0.237 OA
ATOM     68  O   UNL A   1      51.559  24.815  33.905  1.00  0.00    -0.744 OA
ENDBRANCH  64  65
ENDBRANCH  38  59
ENDBRANCH  12  13
ENDBRANCH   5   7
ENDBRANCH   2   3
ENDBRANCH   1   2
BRANCH   1  69
ATOM     69  C   UNL A   1      34.835  33.252  30.089  1.00  0.00     0.118 C 
BRANCH  69  70
ATOM     70  N   UNL A   1      34.007  33.201  31.286  1.00  0.00    -0.352 N 
ATOM     71  C   UNL A   1      34.394  33.211  32.604  1.00  0.00     0.255 C 
ATOM     72  H   UNL A   1      33.037  33.150  31.129  1.00  0.00     0.163 HD
ATOM     73  O   UNL A   1      33.563  33.069  33.498  1.00  0.00    -0.269 OA
BRANCH  71  74
ATOM     74  C   UNL A   1      35.823  33.323  32.948  1.00  0.00     0.083 A 
ATOM     75  C   UNL A   1      36.501  32.145  33.288  1.00  0.00     0.046 A 
ATOM     76  C   UNL A   1      36.504  34.544  32.920  1.00  0.00     0.128 A 
ATOM     77  C   UNL A   1      37.872  32.170  33.541  1.00  0.00     0.064 A 
ATOM     78  C   UNL A   1      37.878  34.576  33.141  1.00  0.00     0.049 A 
ATOM     79  C   UNL A   1      38.557  33.389  33.428  1.00  0.00     0.032 A 
BRANCH  76  80
ATOM     80  O   UNL A   1      35.836  35.705  32.647  1.00  0.00    -0.507 OA
ATOM     81  H   UNL A   1      35.751  35.999  31.762  1.00  0.00     0.293 HD
ENDBRANCH  76  80
BRANCH  77  82
ATOM     82  N   UNL A   1      38.518  30.958  33.832  1.00  0.00    -0.256 NA
ATOM     83  C   UNL A   1      39.789  30.978  34.078  1.00  0.00     0.119 C 
BRANCH  83  84
ATOM     84  C   UNL A   1      40.542  29.753  34.410  1.00  0.00    -0.007 A 
ATOM     85  C   UNL A   1      41.077  29.628  35.696  1.00  0.00     0.017 A 
ATOM     86  C   UNL A   1      40.699  28.726  33.472  1.00  0.00     0.017 A 
ATOM     87  C   UNL A   1      41.763  28.464  36.054  1.00  0.00     0.086 A 
ATOM     88  C   UNL A   1      41.380  27.556  33.826  1.00  0.00     0.086 A 
ATOM     89  C   UNL A   1      41.904  27.427  35.120  1.00  0.00     0.269 A 
BRANCH  89  90
ATOM     90  N   UNL A   1      42.593  26.190  35.510  1.00  0.00     0.062 N 
ATOM     91  O   UNL A   1      43.832  26.214  35.562  1.00  0.00    -0.258 OA
ATOM     92  O   UNL A   1      41.898  25.200  35.776  1.00  0.00    -0.258 OA
ENDBRANCH  89  90
ENDBRANCH  83  84
ENDBRANCH  77  82
ENDBRANCH  71  74
ENDBRANCH  69  70
ENDBRANCH   1  69
TORSDOF 17
ENDMDL
