MODEL 1
REMARK VINA RESULT:     -10.5      0.000      0.000
REMARK SMILES CSCC[C@H](NC(=O)N[C@@H]1CCCCC1(C)C)C(=O)NCCCNC(=O)c1ccc(-c2c3nc(c(-c4ccc(S(=O)(=O)[O-])cc4)c4ccc([nH]4)c(-c4ccc(S(=O)(=O)[O-])cc4)c4nc(c(-c5ccc(S(=O)(=O)[O-])cc5)c5ccc2[nH]5)C=C4)C=C3)cc1
REMARK SMILES IDX 22 1 21 2 20 3 18 4 19 5 5 7 4 8 3 9 2 10 1 11 6 12 7 13
REMARK SMILES IDX 8 15 9 16 10 18 11 19 15 20 12 21 14 22 16 23 17 24 13 25
REMARK SMILES IDX 23 26 24 27 25 28 26 30 27 31 28 32 86 33 29 34 85 35 30 36
REMARK SMILES IDX 31 37 32 38 79 39 33 40 84 41 78 42 80 43 34 44 83 45 77 46
REMARK SMILES IDX 76 47 35 49 65 50 46 51 64 52 47 53 50 54 63 55 81 56 48 57
REMARK SMILES IDX 49 58 62 60 82 61 51 62 36 63 37 64 45 65 38 66 44 67 39 68
REMARK SMILES IDX 40 69 41 70 42 71 43 72 66 73 67 74 75 75 68 76 74 77 69 78
REMARK SMILES IDX 70 79 71 80 72 81 73 82 52 83 53 84 61 85 54 86 60 87 55 88
REMARK SMILES IDX 56 89 57 90 58 91 59 92
REMARK H PARENT 20 6 6 14 9 17 24 29 80 48 50 59
REMARK Flexibility Score: inf
ROOT
ATOM      1  C   UNL A   1      38.031  21.150  25.062  1.00  0.00     0.042 C 
ENDROOT
BRANCH   1   2
ATOM      2  C   UNL A   1      36.753  21.634  25.711  1.00  0.00     0.117 C 
BRANCH   2   3
ATOM      3  N   UNL A   1      35.915  22.257  24.701  1.00  0.00    -0.354 N 
ATOM      4  C   UNL A   1      34.658  21.943  24.301  1.00  0.00     0.242 C 
ATOM      5  O   UNL A   1      34.192  22.509  23.312  1.00  0.00    -0.273 OA
ATOM      6  H   UNL A   1      36.322  23.023  24.235  1.00  0.00     0.163 HD
BRANCH   4   7
ATOM      7  C   UNL A   1      33.800  21.060  25.201  1.00  0.00     0.174 C 
BRANCH   7   8
ATOM      8  C   UNL A   1      32.782  20.354  24.258  1.00  0.00     0.046 C 
BRANCH   8   9
ATOM      9  C   UNL A   1      32.936  18.863  23.903  1.00  0.00     0.072 C 
BRANCH   9  10
ATOM     10  S   UNL A   1      32.810  17.760  25.359  1.00  0.00    -0.165 SA
ATOM     11  C   UNL A   1      34.176  16.632  25.012  1.00  0.00     0.085 C 
ENDBRANCH   9  10
ENDBRANCH   8   9
ENDBRANCH   7   8
BRANCH   7  12
ATOM     12  N   UNL A   1      33.282  21.883  26.387  1.00  0.00    -0.326 N 
ATOM     13  C   UNL A   1      32.564  22.931  26.816  1.00  0.00     0.315 C 
ATOM     14  H   UNL A   1      33.636  21.447  27.196  1.00  0.00     0.166 HD
ATOM     15  O   UNL A   1      32.216  22.830  28.005  1.00  0.00    -0.249 OA
ATOM     16  N   UNL A   1      32.129  24.051  26.216  1.00  0.00    -0.335 N 
ATOM     17  H   UNL A   1      31.326  24.377  26.685  1.00  0.00     0.165 HD
BRANCH  16  18
ATOM     18  C   UNL A   1      32.448  24.985  25.072  1.00  0.00     0.089 C 
ATOM     19  C   UNL A   1      33.393  26.131  25.450  1.00  0.00     0.025 C 
ATOM     20  C   UNL A   1      31.181  25.519  24.427  1.00  0.00    -0.015 C 
ATOM     21  C   UNL A   1      32.808  27.055  26.502  1.00  0.00     0.002 C 
ATOM     22  C   UNL A   1      30.504  26.273  25.630  1.00  0.00     0.008 C 
ATOM     23  C   UNL A   1      31.186  26.583  23.313  1.00  0.00     0.013 C 
ATOM     24  C   UNL A   1      30.730  24.248  23.631  1.00  0.00     0.013 C 
ATOM     25  C   UNL A   1      31.347  27.422  26.238  1.00  0.00     0.001 C 
ENDBRANCH  16  18
ENDBRANCH   7  12
ENDBRANCH   4   7
ENDBRANCH   2   3
ENDBRANCH   1   2
BRANCH   1  26
ATOM     26  C   UNL A   1      39.228  21.326  25.979  1.00  0.00     0.118 C 
BRANCH  26  27
ATOM     27  N   UNL A   1      40.025  20.106  26.094  1.00  0.00    -0.352 N 
ATOM     28  C   UNL A   1      41.389  20.007  26.176  1.00  0.00     0.251 C 
ATOM     29  H   UNL A   1      39.524  19.259  26.116  1.00  0.00     0.163 HD
ATOM     30  O   UNL A   1      41.958  18.929  26.056  1.00  0.00    -0.269 OA
BRANCH  28  31
ATOM     31  C   UNL A   1      42.133  21.254  26.396  1.00  0.00     0.039 A 
ATOM     32  C   UNL A   1      42.378  22.104  25.320  1.00  0.00     0.014 A 
ATOM     33  C   UNL A   1      42.439  21.628  27.708  1.00  0.00     0.014 A 
ATOM     34  C   UNL A   1      42.894  23.372  25.574  1.00  0.00     0.010 A 
ATOM     35  C   UNL A   1      42.838  22.927  27.963  1.00  0.00     0.010 A 
ATOM     36  C   UNL A   1      43.093  23.803  26.898  1.00  0.00    -0.014 A 
BRANCH  36  37
ATOM     37  C   UNL A   1      43.608  25.157  27.199  1.00  0.00     0.031 A 
ATOM     38  C   UNL A   1      45.065  25.454  26.972  1.00  0.00     0.074 A 
ATOM     39  C   UNL A   1      42.788  26.081  27.737  1.00  0.00     0.049 A 
ATOM     40  N   UNL A   1      45.731  26.548  27.228  1.00  0.00    -0.248 NA
ATOM     41  C   UNL A   1      45.893  24.364  26.422  1.00  0.00     0.031 C 
ATOM     42  C   UNL A   1      41.372  25.880  28.061  1.00  0.00     0.029 A 
ATOM     43  N   UNL A   1      43.031  27.377  28.113  1.00  0.00    -0.354 N 
ATOM     44  C   UNL A   1      47.052  26.268  26.898  1.00  0.00     0.074 A 
ATOM     45  C   UNL A   1      47.107  24.886  26.484  1.00  0.00     0.031 C 
ATOM     46  C   UNL A   1      40.867  27.023  28.553  1.00  0.00     0.029 A 
ATOM     47  C   UNL A   1      41.929  28.021  28.621  1.00  0.00     0.049 A 
ATOM     48  H   UNL A   1      43.915  27.805  28.028  1.00  0.00     0.167 HD
ATOM     49  C   UNL A   1      48.118  27.098  26.913  1.00  0.00     0.031 A 
ATOM     50  C   UNL A   1      41.792  29.276  29.091  1.00  0.00     0.031 A 
ATOM     51  C   UNL A   1      48.043  28.482  27.294  1.00  0.00     0.049 A 
ATOM     52  C   UNL A   1      42.989  30.187  29.073  1.00  0.00     0.074 A 
ATOM     53  C   UNL A   1      49.045  29.434  27.267  1.00  0.00     0.029 A 
ATOM     54  N   UNL A   1      46.901  29.107  27.769  1.00  0.00    -0.354 N 
ATOM     55  N   UNL A   1      44.214  29.933  28.673  1.00  0.00    -0.248 NA
ATOM     56  C   UNL A   1      42.786  31.560  29.556  1.00  0.00     0.031 C 
ATOM     57  C   UNL A   1      48.521  30.625  27.782  1.00  0.00     0.029 A 
ATOM     58  C   UNL A   1      47.178  30.429  28.067  1.00  0.00     0.049 A 
ATOM     59  H   UNL A   1      46.023  28.675  27.879  1.00  0.00     0.167 HD
ATOM     60  C   UNL A   1      44.918  31.121  28.831  1.00  0.00     0.074 A 
ATOM     61  C   UNL A   1      43.980  32.097  29.346  1.00  0.00     0.031 C 
ATOM     62  C   UNL A   1      46.224  31.382  28.574  1.00  0.00     0.031 A 
BRANCH  49  63
ATOM     63  C   UNL A   1      49.452  26.531  26.504  1.00  0.00    -0.014 A 
ATOM     64  C   UNL A   1      49.897  26.601  25.171  1.00  0.00     0.010 A 
ATOM     65  C   UNL A   1      50.287  25.951  27.474  1.00  0.00     0.010 A 
ATOM     66  C   UNL A   1      51.137  26.069  24.811  1.00  0.00     0.020 A 
ATOM     67  C   UNL A   1      51.542  25.445  27.124  1.00  0.00     0.020 A 
ATOM     68  C   UNL A   1      51.953  25.494  25.790  1.00  0.00     0.054 A 
BRANCH  68  69
ATOM     69  S   UNL A   1      53.574  24.848  25.299  1.00  0.00     0.124 S 
ATOM     70  O   UNL A   1      54.382  25.132  26.482  1.00  0.00    -0.237 OA
ATOM     71  O   UNL A   1      53.295  23.436  25.054  1.00  0.00    -0.237 OA
ATOM     72  O   UNL A   1      53.914  25.630  24.112  1.00  0.00    -0.744 OA
ENDBRANCH  68  69
ENDBRANCH  49  63
BRANCH  50  73
ATOM     73  C   UNL A   1      40.474  29.745  29.599  1.00  0.00    -0.014 A 
ATOM     74  C   UNL A   1      40.154  29.644  30.964  1.00  0.00     0.010 A 
ATOM     75  C   UNL A   1      39.532  30.307  28.718  1.00  0.00     0.010 A 
ATOM     76  C   UNL A   1      38.908  30.068  31.435  1.00  0.00     0.020 A 
ATOM     77  C   UNL A   1      38.296  30.761  29.189  1.00  0.00     0.020 A 
ATOM     78  C   UNL A   1      37.986  30.625  30.543  1.00  0.00     0.054 A 
BRANCH  78  79
ATOM     79  S   UNL A   1      36.390  31.204  31.183  1.00  0.00     0.124 S 
ATOM     80  O   UNL A   1      36.724  32.540  31.667  1.00  0.00    -0.237 OA
ATOM     81  O   UNL A   1      35.538  31.153  29.998  1.00  0.00    -0.237 OA
ATOM     82  O   UNL A   1      36.062  30.226  32.219  1.00  0.00    -0.744 OA
ENDBRANCH  78  79
ENDBRANCH  50  73
BRANCH  62  83
ATOM     83  C   UNL A   1      46.708  32.787  28.811  1.00  0.00    -0.014 A 
ATOM     84  C   UNL A   1      47.279  33.165  30.038  1.00  0.00     0.010 A 
ATOM     85  C   UNL A   1      46.646  33.723  27.761  1.00  0.00     0.010 A 
ATOM     86  C   UNL A   1      47.751  34.467  30.222  1.00  0.00     0.020 A 
ATOM     87  C   UNL A   1      47.145  35.015  27.933  1.00  0.00     0.020 A 
ATOM     88  C   UNL A   1      47.682  35.383  29.167  1.00  0.00     0.054 A 
BRANCH  88  89
ATOM     89  S   UNL A   1      48.344  37.052  29.419  1.00  0.00     0.124 S 
ATOM     90  O   UNL A   1      49.546  36.787  30.203  1.00  0.00    -0.237 OA
ATOM     91  O   UNL A   1      48.573  37.515  28.052  1.00  0.00    -0.237 OA
ATOM     92  O   UNL A   1      47.274  37.745  30.133  1.00  0.00    -0.744 OA
ENDBRANCH  88  89
ENDBRANCH  62  83
ENDBRANCH  36  37
ENDBRANCH  28  31
ENDBRANCH  26  27
ENDBRANCH   1  26
TORSDOF 18
ENDMDL
MODEL 2
REMARK VINA RESULT:     -10.2      6.007      9.894
REMARK SMILES CSCC[C@H](NC(=O)N[C@@H]1CCCCC1(C)C)C(=O)NCCCNC(=O)c1ccc(-c2c3nc(c(-c4ccc(S(=O)(=O)[O-])cc4)c4ccc([nH]4)c(-c4ccc(S(=O)(=O)[O-])cc4)c4nc(c(-c5ccc(S(=O)(=O)[O-])cc5)c5ccc2[nH]5)C=C4)C=C3)cc1
REMARK SMILES IDX 22 1 21 2 20 3 18 4 19 5 5 7 4 8 3 9 2 10 1 11 6 12 7 13
REMARK SMILES IDX 8 15 9 16 10 18 11 19 15 20 12 21 14 22 16 23 17 24 13 25
REMARK SMILES IDX 23 26 24 27 25 28 26 30 27 31 28 32 86 33 29 34 85 35 30 36
REMARK SMILES IDX 31 37 32 38 79 39 33 40 84 41 78 42 80 43 34 44 83 45 77 46
REMARK SMILES IDX 76 47 35 49 65 50 46 51 64 52 47 53 50 54 63 55 81 56 48 57
REMARK SMILES IDX 49 58 62 60 82 61 51 62 36 63 37 64 45 65 38 66 44 67 39 68
REMARK SMILES IDX 40 69 41 70 42 71 43 72 66 73 67 74 75 75 68 76 74 77 69 78
REMARK SMILES IDX 70 79 71 80 72 81 73 82 52 83 53 84 61 85 54 86 60 87 55 88
REMARK SMILES IDX 56 89 57 90 58 91 59 92
REMARK H PARENT 20 6 6 14 9 17 24 29 80 48 50 59
REMARK Flexibility Score: inf
ROOT
ATOM      1  C   UNL A   1      32.665  30.746  27.050  1.00  0.00     0.042 C 
ENDROOT
BRANCH   1   2
ATOM      2  C   UNL A   1      33.341  29.636  26.275  1.00  0.00     0.117 C 
BRANCH   2   3
ATOM      3  N   UNL A   1      32.457  28.483  26.231  1.00  0.00    -0.354 N 
ATOM      4  C   UNL A   1      31.540  28.128  25.298  1.00  0.00     0.242 C 
ATOM      5  O   UNL A   1      30.784  27.186  25.539  1.00  0.00    -0.273 OA
ATOM      6  H   UNL A   1      32.536  27.867  26.995  1.00  0.00     0.163 HD
BRANCH   4   7
ATOM      7  C   UNL A   1      31.612  28.767  23.916  1.00  0.00     0.174 C 
BRANCH   7   8
ATOM      8  C   UNL A   1      30.142  28.848  23.408  1.00  0.00     0.046 C 
BRANCH   8   9
ATOM      9  C   UNL A   1      29.790  29.639  22.133  1.00  0.00     0.072 C 
BRANCH   9  10
ATOM     10  S   UNL A   1      28.085  30.303  22.146  1.00  0.00    -0.165 SA
ATOM     11  C   UNL A   1      28.162  31.325  23.632  1.00  0.00     0.085 C 
ENDBRANCH   9  10
ENDBRANCH   8   9
ENDBRANCH   7   8
BRANCH   7  12
ATOM     12  N   UNL A   1      32.663  28.041  23.067  1.00  0.00    -0.326 N 
ATOM     13  C   UNL A   1      33.162  26.876  22.625  1.00  0.00     0.315 C 
ATOM     14  H   UNL A   1      33.224  28.745  22.666  1.00  0.00     0.166 HD
ATOM     15  O   UNL A   1      33.849  26.998  21.598  1.00  0.00    -0.249 OA
ATOM     16  N   UNL A   1      33.049  25.610  23.057  1.00  0.00    -0.335 N 
ATOM     17  H   UNL A   1      33.192  24.998  22.298  1.00  0.00     0.165 HD
BRANCH  16  18
ATOM     18  C   UNL A   1      32.779  24.800  24.303  1.00  0.00     0.089 C 
ATOM     19  C   UNL A   1      33.848  24.959  25.390  1.00  0.00     0.025 C 
ATOM     20  C   UNL A   1      32.557  23.334  23.972  1.00  0.00    -0.015 C 
ATOM     21  C   UNL A   1      35.216  24.472  24.947  1.00  0.00     0.002 C 
ATOM     22  C   UNL A   1      33.927  22.947  23.305  1.00  0.00     0.008 C 
ATOM     23  C   UNL A   1      32.378  22.246  25.046  1.00  0.00     0.013 C 
ATOM     24  C   UNL A   1      31.112  23.412  23.373  1.00  0.00     0.013 C 
ATOM     25  C   UNL A   1      35.171  23.132  24.211  1.00  0.00     0.001 C 
ENDBRANCH  16  18
ENDBRANCH   7  12
ENDBRANCH   4   7
ENDBRANCH   2   3
ENDBRANCH   1   2
BRANCH   1  26
ATOM     26  C   UNL A   1      33.675  31.722  27.627  1.00  0.00     0.118 C 
BRANCH  26  27
ATOM     27  N   UNL A   1      33.162  33.090  27.670  1.00  0.00    -0.352 N 
ATOM     28  C   UNL A   1      33.469  34.066  28.582  1.00  0.00     0.251 C 
ATOM     29  H   UNL A   1      32.524  33.340  26.963  1.00  0.00     0.163 HD
ATOM     30  O   UNL A   1      32.822  35.105  28.646  1.00  0.00    -0.269 OA
BRANCH  28  31
ATOM     31  C   UNL A   1      34.596  33.800  29.485  1.00  0.00     0.039 A 
ATOM     32  C   UNL A   1      34.416  32.946  30.571  1.00  0.00     0.014 A 
ATOM     33  C   UNL A   1      35.860  34.287  29.141  1.00  0.00     0.014 A 
ATOM     34  C   UNL A   1      35.534  32.537  31.292  1.00  0.00     0.010 A 
ATOM     35  C   UNL A   1      36.975  33.784  29.785  1.00  0.00     0.010 A 
ATOM     36  C   UNL A   1      36.822  32.925  30.882  1.00  0.00    -0.014 A 
BRANCH  36  37
ATOM     37  C   UNL A   1      38.031  32.477  31.608  1.00  0.00     0.031 A 
ATOM     38  C   UNL A   1      38.864  31.367  31.029  1.00  0.00     0.074 A 
ATOM     39  C   UNL A   1      38.330  33.015  32.807  1.00  0.00     0.049 A 
ATOM     40  N   UNL A   1      39.920  30.784  31.531  1.00  0.00    -0.248 NA
ATOM     41  C   UNL A   1      38.431  30.810  29.733  1.00  0.00     0.031 C 
ATOM     42  C   UNL A   1      37.553  34.052  33.494  1.00  0.00     0.029 A 
ATOM     43  N   UNL A   1      39.367  32.757  33.665  1.00  0.00    -0.354 N 
ATOM     44  C   UNL A   1      40.256  29.780  30.630  1.00  0.00     0.074 A 
ATOM     45  C   UNL A   1      39.260  29.789  29.585  1.00  0.00     0.031 C 
ATOM     46  C   UNL A   1      38.163  34.365  34.649  1.00  0.00     0.029 A 
ATOM     47  C   UNL A   1      39.344  33.524  34.805  1.00  0.00     0.049 A 
ATOM     48  H   UNL A   1      40.063  32.085  33.480  1.00  0.00     0.167 HD
ATOM     49  C   UNL A   1      41.317  28.942  30.658  1.00  0.00     0.031 A 
ATOM     50  C   UNL A   1      40.182  33.542  35.860  1.00  0.00     0.031 A 
ATOM     51  C   UNL A   1      42.321  28.966  31.686  1.00  0.00     0.049 A 
ATOM     52  C   UNL A   1      41.369  32.618  35.855  1.00  0.00     0.074 A 
ATOM     53  C   UNL A   1      43.481  28.219  31.770  1.00  0.00     0.029 A 
ATOM     54  N   UNL A   1      42.282  29.781  32.807  1.00  0.00    -0.354 N 
ATOM     55  N   UNL A   1      41.723  31.735  34.949  1.00  0.00    -0.248 NA
ATOM     56  C   UNL A   1      42.280  32.700  37.004  1.00  0.00     0.031 C 
ATOM     57  C   UNL A   1      44.116  28.542  32.973  1.00  0.00     0.029 A 
ATOM     58  C   UNL A   1      43.384  29.536  33.605  1.00  0.00     0.049 A 
ATOM     59  H   UNL A   1      41.573  30.436  33.006  1.00  0.00     0.167 HD
ATOM     60  C   UNL A   1      42.910  31.177  35.408  1.00  0.00     0.074 A 
ATOM     61  C   UNL A   1      43.224  31.835  36.661  1.00  0.00     0.031 C 
ATOM     62  C   UNL A   1      43.675  30.208  34.846  1.00  0.00     0.031 A 
BRANCH  49  63
ATOM     63  C   UNL A   1      41.444  27.936  29.545  1.00  0.00    -0.014 A 
ATOM     64  C   UNL A   1      42.530  27.970  28.651  1.00  0.00     0.010 A 
ATOM     65  C   UNL A   1      40.481  26.921  29.413  1.00  0.00     0.010 A 
ATOM     66  C   UNL A   1      42.631  27.028  27.624  1.00  0.00     0.020 A 
ATOM     67  C   UNL A   1      40.594  25.957  28.407  1.00  0.00     0.020 A 
ATOM     68  C   UNL A   1      41.662  26.026  27.509  1.00  0.00     0.054 A 
BRANCH  68  69
ATOM     69  S   UNL A   1      41.840  24.794  26.191  1.00  0.00     0.124 S 
ATOM     70  O   UNL A   1      41.694  25.614  24.991  1.00  0.00    -0.237 OA
ATOM     71  O   UNL A   1      43.179  24.263  26.429  1.00  0.00    -0.237 OA
ATOM     72  O   UNL A   1      40.746  23.858  26.441  1.00  0.00    -0.744 OA
ENDBRANCH  68  69
ENDBRANCH  49  63
BRANCH  50  73
ATOM     73  C   UNL A   1      39.938  34.475  36.993  1.00  0.00    -0.014 A 
ATOM     74  C   UNL A   1      40.502  35.763  36.998  1.00  0.00     0.010 A 
ATOM     75  C   UNL A   1      39.129  34.082  38.076  1.00  0.00     0.010 A 
ATOM     76  C   UNL A   1      40.285  36.630  38.073  1.00  0.00     0.020 A 
ATOM     77  C   UNL A   1      38.884  34.957  39.139  1.00  0.00     0.020 A 
ATOM     78  C   UNL A   1      39.477  36.220  39.138  1.00  0.00     0.054 A 
BRANCH  78  79
ATOM     79  S   UNL A   1      39.178  37.376  40.504  1.00  0.00     0.124 S 
ATOM     80  O   UNL A   1      38.737  36.480  41.569  1.00  0.00    -0.237 OA
ATOM     81  O   UNL A   1      40.492  37.986  40.694  1.00  0.00    -0.237 OA
ATOM     82  O   UNL A   1      38.154  38.274  39.975  1.00  0.00    -0.744 OA
ENDBRANCH  78  79
ENDBRANCH  50  73
BRANCH  62  83
ATOM     83  C   UNL A   1      44.942  29.824  35.561  1.00  0.00    -0.014 A 
ATOM     84  C   UNL A   1      44.969  28.762  36.480  1.00  0.00     0.010 A 
ATOM     85  C   UNL A   1      46.138  30.501  35.254  1.00  0.00     0.010 A 
ATOM     86  C   UNL A   1      46.165  28.404  37.106  1.00  0.00     0.020 A 
ATOM     87  C   UNL A   1      47.340  30.124  35.855  1.00  0.00     0.020 A 
ATOM     88  C   UNL A   1      47.343  29.087  36.788  1.00  0.00     0.054 A 
BRANCH  88  89
ATOM     89  S   UNL A   1      48.890  28.571  37.581  1.00  0.00     0.124 S 
ATOM     90  O   UNL A   1      49.208  27.344  36.856  1.00  0.00    -0.237 OA
ATOM     91  O   UNL A   1      49.776  29.704  37.320  1.00  0.00    -0.237 OA
ATOM     92  O   UNL A   1      48.517  28.389  38.982  1.00  0.00    -0.744 OA
ENDBRANCH  88  89
ENDBRANCH  62  83
ENDBRANCH  36  37
ENDBRANCH  28  31
ENDBRANCH  26  27
ENDBRANCH   1  26
TORSDOF 18
ENDMDL
MODEL 3
REMARK VINA RESULT:     -10.1      5.832     10.740
REMARK SMILES CSCC[C@H](NC(=O)N[C@@H]1CCCCC1(C)C)C(=O)NCCCNC(=O)c1ccc(-c2c3nc(c(-c4ccc(S(=O)(=O)[O-])cc4)c4ccc([nH]4)c(-c4ccc(S(=O)(=O)[O-])cc4)c4nc(c(-c5ccc(S(=O)(=O)[O-])cc5)c5ccc2[nH]5)C=C4)C=C3)cc1
REMARK SMILES IDX 22 1 21 2 20 3 18 4 19 5 5 7 4 8 3 9 2 10 1 11 6 12 7 13
REMARK SMILES IDX 8 15 9 16 10 18 11 19 15 20 12 21 14 22 16 23 17 24 13 25
REMARK SMILES IDX 23 26 24 27 25 28 26 30 27 31 28 32 86 33 29 34 85 35 30 36
REMARK SMILES IDX 31 37 32 38 79 39 33 40 84 41 78 42 80 43 34 44 83 45 77 46
REMARK SMILES IDX 76 47 35 49 65 50 46 51 64 52 47 53 50 54 63 55 81 56 48 57
REMARK SMILES IDX 49 58 62 60 82 61 51 62 36 63 37 64 45 65 38 66 44 67 39 68
REMARK SMILES IDX 40 69 41 70 42 71 43 72 66 73 67 74 75 75 68 76 74 77 69 78
REMARK SMILES IDX 70 79 71 80 72 81 73 82 52 83 53 84 61 85 54 86 60 87 55 88
REMARK SMILES IDX 56 89 57 90 58 91 59 92
REMARK H PARENT 20 6 6 14 9 17 24 29 80 48 50 59
REMARK Flexibility Score: inf
ROOT
ATOM      1  C   UNL A   1      38.905  23.459  26.510  1.00  0.00     0.042 C 
ENDROOT
BRANCH   1   2
ATOM      2  C   UNL A   1      37.445  23.526  26.118  1.00  0.00     0.117 C 
BRANCH   2   3
ATOM      3  N   UNL A   1      37.326  23.283  24.691  1.00  0.00    -0.354 N 
ATOM      4  C   UNL A   1      36.237  23.360  23.885  1.00  0.00     0.242 C 
ATOM      5  O   UNL A   1      36.330  22.958  22.725  1.00  0.00    -0.273 OA
ATOM      6  H   UNL A   1      38.161  23.024  24.240  1.00  0.00     0.163 HD
BRANCH   4   7
ATOM      7  C   UNL A   1      35.011  24.121  24.377  1.00  0.00     0.174 C 
BRANCH   7   8
ATOM      8  C   UNL A   1      34.215  23.117  25.262  1.00  0.00     0.046 C 
BRANCH   8   9
ATOM      9  C   UNL A   1      33.498  21.907  24.633  1.00  0.00     0.072 C 
BRANCH   9  10
ATOM     10  S   UNL A   1      34.371  20.324  24.919  1.00  0.00    -0.165 SA
ATOM     11  C   UNL A   1      32.994  19.172  24.731  1.00  0.00     0.085 C 
ENDBRANCH   9  10
ENDBRANCH   8   9
ENDBRANCH   7   8
BRANCH   7  12
ATOM     12  N   UNL A   1      34.312  24.795  23.189  1.00  0.00    -0.326 N 
ATOM     13  C   UNL A   1      33.527  25.788  22.746  1.00  0.00     0.315 C 
ATOM     14  H   UNL A   1      34.544  24.258  22.397  1.00  0.00     0.166 HD
ATOM     15  O   UNL A   1      33.643  25.993  21.526  1.00  0.00    -0.249 OA
ATOM     16  N   UNL A   1      32.661  26.613  23.356  1.00  0.00    -0.335 N 
ATOM     17  H   UNL A   1      32.581  27.442  22.830  1.00  0.00     0.165 HD
BRANCH  16  18
ATOM     18  C   UNL A   1      31.768  26.708  24.571  1.00  0.00     0.089 C 
ATOM     19  C   UNL A   1      30.282  26.885  24.235  1.00  0.00     0.025 C 
ATOM     20  C   UNL A   1      32.241  27.795  25.520  1.00  0.00    -0.015 C 
ATOM     21  C   UNL A   1      29.995  28.174  23.488  1.00  0.00     0.002 C 
ATOM     22  C   UNL A   1      32.140  29.076  24.614  1.00  0.00     0.008 C 
ATOM     23  C   UNL A   1      31.464  28.207  26.785  1.00  0.00     0.013 C 
ATOM     24  C   UNL A   1      33.485  27.079  26.146  1.00  0.00     0.013 C 
ATOM     25  C   UNL A   1      30.721  29.387  24.075  1.00  0.00     0.001 C 
ENDBRANCH  16  18
ENDBRANCH   7  12
ENDBRANCH   4   7
ENDBRANCH   2   3
ENDBRANCH   1   2
BRANCH   1  26
ATOM     26  C   UNL A   1      39.525  24.841  26.604  1.00  0.00     0.118 C 
BRANCH  26  27
ATOM     27  N   UNL A   1      40.698  24.984  25.745  1.00  0.00    -0.352 N 
ATOM     28  C   UNL A   1      41.724  25.882  25.878  1.00  0.00     0.251 C 
ATOM     29  H   UNL A   1      40.759  24.362  24.983  1.00  0.00     0.163 HD
ATOM     30  O   UNL A   1      42.544  26.051  24.983  1.00  0.00    -0.269 OA
BRANCH  28  31
ATOM     31  C   UNL A   1      41.782  26.642  27.133  1.00  0.00     0.039 A 
ATOM     32  C   UNL A   1      42.145  27.986  27.104  1.00  0.00     0.014 A 
ATOM     33  C   UNL A   1      41.320  26.035  28.305  1.00  0.00     0.014 A 
ATOM     34  C   UNL A   1      41.993  28.745  28.261  1.00  0.00     0.010 A 
ATOM     35  C   UNL A   1      41.059  26.820  29.413  1.00  0.00     0.010 A 
ATOM     36  C   UNL A   1      41.417  28.175  29.410  1.00  0.00    -0.014 A 
BRANCH  36  37
ATOM     37  C   UNL A   1      41.211  28.967  30.644  1.00  0.00     0.031 A 
ATOM     38  C   UNL A   1      40.064  29.937  30.708  1.00  0.00     0.074 A 
ATOM     39  C   UNL A   1      42.090  28.864  31.660  1.00  0.00     0.049 A 
ATOM     40  N   UNL A   1      39.743  30.769  31.663  1.00  0.00    -0.248 NA
ATOM     41  C   UNL A   1      39.182  30.012  29.528  1.00  0.00     0.031 C 
ATOM     42  C   UNL A   1      43.276  28.003  31.678  1.00  0.00     0.029 A 
ATOM     43  N   UNL A   1      42.122  29.496  32.876  1.00  0.00    -0.354 N 
ATOM     44  C   UNL A   1      38.647  31.480  31.187  1.00  0.00     0.074 A 
ATOM     45  C   UNL A   1      38.395  31.030  29.839  1.00  0.00     0.031 C 
ATOM     46  C   UNL A   1      43.898  28.136  32.861  1.00  0.00     0.029 A 
ATOM     47  C   UNL A   1      43.183  29.120  33.665  1.00  0.00     0.049 A 
ATOM     48  H   UNL A   1      41.449  30.158  33.157  1.00  0.00     0.167 HD
ATOM     49  C   UNL A   1      37.901  32.407  31.828  1.00  0.00     0.031 A 
ATOM     50  C   UNL A   1      43.539  29.528  34.899  1.00  0.00     0.031 A 
ATOM     51  C   UNL A   1      38.140  32.821  33.183  1.00  0.00     0.049 A 
ATOM     52  C   UNL A   1      42.677  30.542  35.601  1.00  0.00     0.074 A 
ATOM     53  C   UNL A   1      37.397  33.692  33.958  1.00  0.00     0.029 A 
ATOM     54  N   UNL A   1      39.204  32.392  33.962  1.00  0.00    -0.354 N 
ATOM     55  N   UNL A   1      41.589  31.140  35.170  1.00  0.00    -0.248 NA
ATOM     56  C   UNL A   1      43.078  30.928  36.960  1.00  0.00     0.031 C 
ATOM     57  C   UNL A   1      38.045  33.834  35.189  1.00  0.00     0.029 A 
ATOM     58  C   UNL A   1      39.154  33.002  35.202  1.00  0.00     0.049 A 
ATOM     59  H   UNL A   1      39.893  31.750  33.675  1.00  0.00     0.167 HD
ATOM     60  C   UNL A   1      41.164  31.950  36.215  1.00  0.00     0.074 A 
ATOM     61  C   UNL A   1      42.099  31.753  37.304  1.00  0.00     0.031 C 
ATOM     62  C   UNL A   1      40.096  32.784  36.271  1.00  0.00     0.031 A 
BRANCH  49  63
ATOM     63  C   UNL A   1      36.758  33.030  31.072  1.00  0.00    -0.014 A 
ATOM     64  C   UNL A   1      35.427  32.874  31.502  1.00  0.00     0.010 A 
ATOM     65  C   UNL A   1      37.021  33.812  29.934  1.00  0.00     0.010 A 
ATOM     66  C   UNL A   1      34.379  33.459  30.787  1.00  0.00     0.020 A 
ATOM     67  C   UNL A   1      35.979  34.426  29.234  1.00  0.00     0.020 A 
ATOM     68  C   UNL A   1      34.662  34.232  29.657  1.00  0.00     0.054 A 
BRANCH  68  69
ATOM     69  S   UNL A   1      33.285  35.012  28.772  1.00  0.00     0.124 S 
ATOM     70  O   UNL A   1      32.982  34.015  27.749  1.00  0.00    -0.237 OA
ATOM     71  O   UNL A   1      32.278  35.164  29.818  1.00  0.00    -0.237 OA
ATOM     72  O   UNL A   1      33.856  36.262  28.273  1.00  0.00    -0.744 OA
ENDBRANCH  68  69
ENDBRANCH  49  63
BRANCH  50  73
ATOM     73  C   UNL A   1      44.753  28.966  35.551  1.00  0.00    -0.014 A 
ATOM     74  C   UNL A   1      44.678  27.786  36.313  1.00  0.00     0.010 A 
ATOM     75  C   UNL A   1      45.998  29.607  35.407  1.00  0.00     0.010 A 
ATOM     76  C   UNL A   1      45.818  27.273  36.939  1.00  0.00     0.020 A 
ATOM     77  C   UNL A   1      47.146  29.079  36.007  1.00  0.00     0.020 A 
ATOM     78  C   UNL A   1      47.045  27.923  36.782  1.00  0.00     0.054 A 
BRANCH  78  79
ATOM     79  S   UNL A   1      48.517  27.216  37.573  1.00  0.00     0.124 S 
ATOM     80  O   UNL A   1      49.153  28.400  38.143  1.00  0.00    -0.237 OA
ATOM     81  O   UNL A   1      47.940  26.282  38.535  1.00  0.00    -0.237 OA
ATOM     82  O   UNL A   1      49.235  26.592  36.463  1.00  0.00    -0.744 OA
ENDBRANCH  78  79
ENDBRANCH  50  73
BRANCH  62  83
ATOM     83  C   UNL A   1      39.859  33.519  37.563  1.00  0.00    -0.014 A 
ATOM     84  C   UNL A   1      40.433  34.779  37.802  1.00  0.00     0.010 A 
ATOM     85  C   UNL A   1      38.994  32.962  38.523  1.00  0.00     0.010 A 
ATOM     86  C   UNL A   1      40.171  35.456  38.995  1.00  0.00     0.020 A 
ATOM     87  C   UNL A   1      38.706  33.650  39.703  1.00  0.00     0.020 A 
ATOM     88  C   UNL A   1      39.308  34.887  39.938  1.00  0.00     0.054 A 
BRANCH  88  89
ATOM     89  S   UNL A   1      38.949  35.808  41.458  1.00  0.00     0.124 S 
ATOM     90  O   UNL A   1      37.649  35.266  41.841  1.00  0.00    -0.237 OA
ATOM     91  O   UNL A   1      40.066  35.439  42.326  1.00  0.00    -0.237 OA
ATOM     92  O   UNL A   1      38.940  37.203  41.024  1.00  0.00    -0.744 OA
ENDBRANCH  88  89
ENDBRANCH  62  83
ENDBRANCH  36  37
ENDBRANCH  28  31
ENDBRANCH  26  27
ENDBRANCH   1  26
TORSDOF 18
ENDMDL
