MODEL 1
REMARK VINA RESULT:     -10.6      0.000      0.000
REMARK SMILES COc1ccc(C(=O)N(C)CCC(=O)NCCCNC(=O)c2ccc(-c3c4nc(c(-c5ccc(S(=O)(=O)[O-])cc5)c5ccc([nH]5)c(-c5ccc(S(=O)(=O)[O-])cc5)c5nc(c(-c6ccc(S(=O)(=O)[O-])cc6)c6ccc3[nH]6)C=C5)C=C4)cc2)cc1O
REMARK SMILES IDX 16 1 15 2 13 3 14 4 12 6 11 7 9 8 10 9 7 10 8 11 6 12 3 13
REMARK SMILES IDX 4 14 83 15 5 16 82 17 2 18 1 19 84 20 17 22 18 23 19 24
REMARK SMILES IDX 20 25 21 27 22 28 23 29 81 30 24 31 80 32 25 33 26 34 27 35
REMARK SMILES IDX 74 36 28 37 79 38 73 39 75 40 29 41 78 42 72 43 71 44 30 46
REMARK SMILES IDX 60 47 41 48 59 49 42 50 45 51 58 52 76 53 43 54 44 55 57 57
REMARK SMILES IDX 77 58 46 59 31 60 32 61 40 62 33 63 39 64 34 65 35 66 36 67
REMARK SMILES IDX 37 68 38 69 61 70 62 71 70 72 63 73 69 74 64 75 65 76 66 77
REMARK SMILES IDX 67 78 68 79 47 80 48 81 56 82 49 83 55 84 50 85 51 86 52 87
REMARK SMILES IDX 53 88 54 89
REMARK H PARENT 15 5 84 21 19 26 75 45 45 56
REMARK Flexibility Score: inf
ROOT
ATOM      1  C   UNL A   1      33.289  28.292  24.502  1.00  0.00     0.117 C 
ENDROOT
BRANCH   1   2
ATOM      2  N   UNL A   1      33.637  27.381  23.421  1.00  0.00    -0.356 N 
ATOM      3  C   UNL A   1      33.508  26.027  23.333  1.00  0.00     0.221 C 
ATOM      4  O   UNL A   1      33.963  25.462  22.335  1.00  0.00    -0.275 OA
ATOM      5  H   UNL A   1      34.028  27.812  22.627  1.00  0.00     0.163 HD
BRANCH   3   6
ATOM      6  C   UNL A   1      32.779  25.235  24.398  1.00  0.00     0.121 C 
BRANCH   6   7
ATOM      7  C   UNL A   1      33.195  23.760  24.439  1.00  0.00     0.129 C 
BRANCH   7   8
ATOM      8  N   UNL A   1      32.092  22.833  24.137  1.00  0.00    -0.341 N 
ATOM      9  C   UNL A   1      31.194  23.228  23.064  1.00  0.00     0.147 C 
BRANCH   8  10
ATOM     10  C   UNL A   1      32.072  21.582  24.777  1.00  0.00     0.253 C 
ATOM     11  O   UNL A   1      31.389  21.398  25.786  1.00  0.00    -0.269 OA
BRANCH  10  12
ATOM     12  C   UNL A   1      32.667  20.366  24.120  1.00  0.00     0.043 A 
ATOM     13  C   UNL A   1      33.470  17.728  23.582  1.00  0.00     0.160 A 
ATOM     14  C   UNL A   1      34.150  18.483  24.522  1.00  0.00     0.051 A 
ATOM     15  C   UNL A   1      32.481  18.336  22.822  1.00  0.00     0.158 A 
ATOM     16  C   UNL A   1      33.759  19.795  24.794  1.00  0.00     0.018 A 
ATOM     17  C   UNL A   1      32.118  19.663  23.046  1.00  0.00     0.064 A 
BRANCH  13  18
ATOM     18  O   UNL A   1      33.627  16.372  23.557  1.00  0.00    -0.493 OA
ATOM     19  C   UNL A   1      33.394  15.753  24.819  1.00  0.00     0.278 C 
ENDBRANCH  13  18
BRANCH  15  20
ATOM     20  O   UNL A   1      31.772  17.626  21.895  1.00  0.00    -0.504 OA
ATOM     21  H   UNL A   1      31.250  18.074  21.260  1.00  0.00     0.293 HD
ENDBRANCH  15  20
ENDBRANCH  10  12
ENDBRANCH   8  10
ENDBRANCH   7   8
ENDBRANCH   6   7
ENDBRANCH   3   6
ENDBRANCH   1   2
BRANCH   1  22
ATOM     22  C   UNL A   1      34.114  28.023  25.757  1.00  0.00     0.042 C 
BRANCH  22  23
ATOM     23  C   UNL A   1      33.411  28.285  27.090  1.00  0.00     0.118 C 
BRANCH  23  24
ATOM     24  N   UNL A   1      33.404  29.689  27.478  1.00  0.00    -0.352 N 
ATOM     25  C   UNL A   1      34.352  30.548  27.993  1.00  0.00     0.251 C 
ATOM     26  H   UNL A   1      32.530  30.121  27.343  1.00  0.00     0.163 HD
ATOM     27  O   UNL A   1      33.972  31.687  28.274  1.00  0.00    -0.269 OA
BRANCH  25  28
ATOM     28  C   UNL A   1      35.772  30.180  28.279  1.00  0.00     0.039 A 
ATOM     29  C   UNL A   1      36.077  29.742  29.582  1.00  0.00     0.014 A 
ATOM     30  C   UNL A   1      36.818  30.270  27.360  1.00  0.00     0.014 A 
ATOM     31  C   UNL A   1      37.370  29.309  29.928  1.00  0.00     0.010 A 
ATOM     32  C   UNL A   1      38.100  29.786  27.687  1.00  0.00     0.010 A 
ATOM     33  C   UNL A   1      38.389  29.287  28.970  1.00  0.00    -0.014 A 
BRANCH  33  34
ATOM     34  C   UNL A   1      39.772  28.841  29.317  1.00  0.00     0.031 A 
ATOM     35  C   UNL A   1      40.667  29.775  30.085  1.00  0.00     0.074 A 
ATOM     36  C   UNL A   1      40.257  27.636  28.947  1.00  0.00     0.049 A 
ATOM     37  N   UNL A   1      41.904  29.603  30.477  1.00  0.00    -0.248 NA
ATOM     38  C   UNL A   1      40.089  31.075  30.450  1.00  0.00     0.031 C 
ATOM     39  C   UNL A   1      39.518  26.608  28.219  1.00  0.00     0.029 A 
ATOM     40  N   UNL A   1      41.501  27.073  29.131  1.00  0.00    -0.354 N 
ATOM     41  C   UNL A   1      42.257  30.780  31.127  1.00  0.00     0.074 A 
ATOM     42  C   UNL A   1      41.121  31.671  31.028  1.00  0.00     0.031 C 
ATOM     43  C   UNL A   1      40.312  25.541  28.026  1.00  0.00     0.029 A 
ATOM     44  C   UNL A   1      41.633  25.813  28.591  1.00  0.00     0.049 A 
ATOM     45  H   UNL A   1      42.232  27.531  29.606  1.00  0.00     0.167 HD
ATOM     46  C   UNL A   1      43.411  31.093  31.763  1.00  0.00     0.031 A 
ATOM     47  C   UNL A   1      42.688  24.972  28.551  1.00  0.00     0.031 A 
ATOM     48  C   UNL A   1      44.559  30.234  31.847  1.00  0.00     0.049 A 
ATOM     49  C   UNL A   1      43.998  25.379  29.182  1.00  0.00     0.074 A 
ATOM     50  C   UNL A   1      45.759  30.463  32.497  1.00  0.00     0.029 A 
ATOM     51  N   UNL A   1      44.664  28.990  31.243  1.00  0.00    -0.354 N 
ATOM     52  N   UNL A   1      44.289  26.469  29.850  1.00  0.00    -0.248 NA
ATOM     53  C   UNL A   1      45.120  24.434  29.058  1.00  0.00     0.031 C 
ATOM     54  C   UNL A   1      46.614  29.388  32.231  1.00  0.00     0.029 A 
ATOM     55  C   UNL A   1      45.922  28.457  31.472  1.00  0.00     0.049 A 
ATOM     56  H   UNL A   1      43.950  28.550  30.728  1.00  0.00     0.167 HD
ATOM     57  C   UNL A   1      45.613  26.324  30.256  1.00  0.00     0.074 A 
ATOM     58  C   UNL A   1      46.066  25.042  29.763  1.00  0.00     0.031 C 
ATOM     59  C   UNL A   1      46.378  27.179  30.981  1.00  0.00     0.031 A 
BRANCH  46  60
ATOM     60  C   UNL A   1      43.484  32.465  32.382  1.00  0.00    -0.014 A 
ATOM     61  C   UNL A   1      43.112  32.680  33.721  1.00  0.00     0.010 A 
ATOM     62  C   UNL A   1      43.890  33.559  31.598  1.00  0.00     0.010 A 
ATOM     63  C   UNL A   1      43.066  33.975  34.241  1.00  0.00     0.020 A 
ATOM     64  C   UNL A   1      43.879  34.852  32.125  1.00  0.00     0.020 A 
ATOM     65  C   UNL A   1      43.435  35.055  33.433  1.00  0.00     0.054 A 
BRANCH  65  66
ATOM     66  S   UNL A   1      43.318  36.728  34.118  1.00  0.00     0.124 S 
ATOM     67  O   UNL A   1      44.423  36.738  35.073  1.00  0.00    -0.237 OA
ATOM     68  O   UNL A   1      43.495  37.572  32.942  1.00  0.00    -0.237 OA
ATOM     69  O   UNL A   1      41.981  36.764  34.713  1.00  0.00    -0.744 OA
ENDBRANCH  65  66
ENDBRANCH  46  60
BRANCH  47  70
ATOM     70  C   UNL A   1      42.557  23.629  27.912  1.00  0.00    -0.014 A 
ATOM     71  C   UNL A   1      42.349  22.486  28.705  1.00  0.00     0.010 A 
ATOM     72  C   UNL A   1      42.651  23.479  26.516  1.00  0.00     0.010 A 
ATOM     73  C   UNL A   1      42.239  21.221  28.118  1.00  0.00     0.020 A 
ATOM     74  C   UNL A   1      42.516  22.219  25.922  1.00  0.00     0.020 A 
ATOM     75  C   UNL A   1      42.314  21.096  26.728  1.00  0.00     0.054 A 
BRANCH  75  76
ATOM     76  S   UNL A   1      42.091  19.454  25.988  1.00  0.00     0.124 S 
ATOM     77  O   UNL A   1      40.655  19.427  25.729  1.00  0.00    -0.237 OA
ATOM     78  O   UNL A   1      42.946  19.525  24.806  1.00  0.00    -0.237 OA
ATOM     79  O   UNL A   1      42.557  18.542  27.031  1.00  0.00    -0.744 OA
ENDBRANCH  75  76
ENDBRANCH  47  70
BRANCH  59  80
ATOM     80  C   UNL A   1      47.784  26.755  31.330  1.00  0.00    -0.014 A 
ATOM     81  C   UNL A   1      48.061  26.011  32.490  1.00  0.00     0.010 A 
ATOM     82  C   UNL A   1      48.833  27.039  30.435  1.00  0.00     0.010 A 
ATOM     83  C   UNL A   1      49.364  25.574  32.757  1.00  0.00     0.020 A 
ATOM     84  C   UNL A   1      50.130  26.579  30.684  1.00  0.00     0.020 A 
ATOM     85  C   UNL A   1      50.389  25.856  31.849  1.00  0.00     0.054 A 
BRANCH  85  86
ATOM     86  S   UNL A   1      52.056  25.220  32.185  1.00  0.00     0.124 S 
ATOM     87  O   UNL A   1      52.806  25.706  31.030  1.00  0.00    -0.237 OA
ATOM     88  O   UNL A   1      52.389  25.850  33.460  1.00  0.00    -0.237 OA
ATOM     89  O   UNL A   1      51.870  23.772  32.242  1.00  0.00    -0.744 OA
ENDBRANCH  85  86
ENDBRANCH  59  80
ENDBRANCH  33  34
ENDBRANCH  25  28
ENDBRANCH  23  24
ENDBRANCH  22  23
ENDBRANCH   1  22
TORSDOF 19
ENDMDL
MODEL 2
REMARK VINA RESULT:     -10.5      2.923      9.761
REMARK SMILES COc1ccc(C(=O)N(C)CCC(=O)NCCCNC(=O)c2ccc(-c3c4nc(c(-c5ccc(S(=O)(=O)[O-])cc5)c5ccc([nH]5)c(-c5ccc(S(=O)(=O)[O-])cc5)c5nc(c(-c6ccc(S(=O)(=O)[O-])cc6)c6ccc3[nH]6)C=C5)C=C4)cc2)cc1O
REMARK SMILES IDX 16 1 15 2 13 3 14 4 12 6 11 7 9 8 10 9 7 10 8 11 6 12 3 13
REMARK SMILES IDX 4 14 83 15 5 16 82 17 2 18 1 19 84 20 17 22 18 23 19 24
REMARK SMILES IDX 20 25 21 27 22 28 23 29 81 30 24 31 80 32 25 33 26 34 27 35
REMARK SMILES IDX 74 36 28 37 79 38 73 39 75 40 29 41 78 42 72 43 71 44 30 46
REMARK SMILES IDX 60 47 41 48 59 49 42 50 45 51 58 52 76 53 43 54 44 55 57 57
REMARK SMILES IDX 77 58 46 59 31 60 32 61 40 62 33 63 39 64 34 65 35 66 36 67
REMARK SMILES IDX 37 68 38 69 61 70 62 71 70 72 63 73 69 74 64 75 65 76 66 77
REMARK SMILES IDX 67 78 68 79 47 80 48 81 56 82 49 83 55 84 50 85 51 86 52 87
REMARK SMILES IDX 53 88 54 89
REMARK H PARENT 15 5 84 21 19 26 75 45 45 56
REMARK Flexibility Score: inf
ROOT
ATOM      1  C   UNL A   1      35.142  22.593  26.454  1.00  0.00     0.117 C 
ENDROOT
BRANCH   1   2
ATOM      2  N   UNL A   1      33.969  21.976  25.850  1.00  0.00    -0.356 N 
ATOM      3  C   UNL A   1      32.650  22.306  25.951  1.00  0.00     0.221 C 
ATOM      4  O   UNL A   1      31.823  21.568  25.410  1.00  0.00    -0.275 OA
ATOM      5  H   UNL A   1      34.159  21.198  25.280  1.00  0.00     0.163 HD
BRANCH   3   6
ATOM      6  C   UNL A   1      32.206  23.570  26.655  1.00  0.00     0.121 C 
BRANCH   6   7
ATOM      7  C   UNL A   1      31.082  24.307  25.917  1.00  0.00     0.129 C 
BRANCH   7   8
ATOM      8  N   UNL A   1      31.492  24.835  24.606  1.00  0.00    -0.341 N 
ATOM      9  C   UNL A   1      30.703  24.407  23.464  1.00  0.00     0.147 C 
BRANCH   8  10
ATOM     10  C   UNL A   1      32.492  25.822  24.564  1.00  0.00     0.253 C 
ATOM     11  O   UNL A   1      33.393  25.775  23.724  1.00  0.00    -0.269 OA
BRANCH  10  12
ATOM     12  C   UNL A   1      32.361  27.093  25.358  1.00  0.00     0.043 A 
ATOM     13  C   UNL A   1      32.854  29.623  26.477  1.00  0.00     0.160 A 
ATOM     14  C   UNL A   1      33.536  28.512  26.944  1.00  0.00     0.051 A 
ATOM     15  C   UNL A   1      31.837  29.445  25.550  1.00  0.00     0.158 A 
ATOM     16  C   UNL A   1      33.295  27.252  26.395  1.00  0.00     0.018 A 
ATOM     17  C   UNL A   1      31.549  28.182  25.035  1.00  0.00     0.064 A 
BRANCH  13  18
ATOM     18  O   UNL A   1      33.318  30.874  26.765  1.00  0.00    -0.493 OA
ATOM     19  C   UNL A   1      34.396  30.877  27.696  1.00  0.00     0.278 C 
ENDBRANCH  13  18
BRANCH  15  20
ATOM     20  O   UNL A   1      31.150  30.513  25.048  1.00  0.00    -0.504 OA
ATOM     21  H   UNL A   1      31.462  30.953  24.283  1.00  0.00     0.293 HD
ENDBRANCH  15  20
ENDBRANCH  10  12
ENDBRANCH   8  10
ENDBRANCH   7   8
ENDBRANCH   6   7
ENDBRANCH   3   6
ENDBRANCH   1   2
BRANCH   1  22
ATOM     22  C   UNL A   1      35.609  23.812  25.664  1.00  0.00     0.042 C 
BRANCH  22  23
ATOM     23  C   UNL A   1      36.794  23.588  24.723  1.00  0.00     0.118 C 
BRANCH  23  24
ATOM     24  N   UNL A   1      37.810  22.698  25.268  1.00  0.00    -0.352 N 
ATOM     25  C   UNL A   1      38.904  22.877  26.087  1.00  0.00     0.251 C 
ATOM     26  H   UNL A   1      37.690  21.761  24.989  1.00  0.00     0.163 HD
ATOM     27  O   UNL A   1      39.606  21.885  26.299  1.00  0.00    -0.269 OA
BRANCH  25  28
ATOM     28  C   UNL A   1      39.319  24.182  26.685  1.00  0.00     0.039 A 
ATOM     29  C   UNL A   1      38.920  24.442  28.011  1.00  0.00     0.014 A 
ATOM     30  C   UNL A   1      40.043  25.170  26.017  1.00  0.00     0.014 A 
ATOM     31  C   UNL A   1      39.320  25.612  28.682  1.00  0.00     0.010 A 
ATOM     32  C   UNL A   1      40.490  26.316  26.703  1.00  0.00     0.010 A 
ATOM     33  C   UNL A   1      40.147  26.545  28.048  1.00  0.00    -0.014 A 
BRANCH  33  34
ATOM     34  C   UNL A   1      40.576  27.799  28.738  1.00  0.00     0.031 A 
ATOM     35  C   UNL A   1      41.977  27.890  29.280  1.00  0.00     0.074 A 
ATOM     36  C   UNL A   1      39.744  28.848  28.912  1.00  0.00     0.049 A 
ATOM     37  N   UNL A   1      42.554  28.870  29.926  1.00  0.00    -0.248 NA
ATOM     38  C   UNL A   1      42.832  26.713  29.071  1.00  0.00     0.031 C 
ATOM     39  C   UNL A   1      38.368  28.932  28.431  1.00  0.00     0.029 A 
ATOM     40  N   UNL A   1      39.939  30.053  29.551  1.00  0.00    -0.354 N 
ATOM     41  C   UNL A   1      43.840  28.425  30.210  1.00  0.00     0.074 A 
ATOM     42  C   UNL A   1      43.934  27.070  29.712  1.00  0.00     0.031 C 
ATOM     43  C   UNL A   1      37.845  30.120  28.782  1.00  0.00     0.029 A 
ATOM     44  C   UNL A   1      38.838  30.880  29.539  1.00  0.00     0.049 A 
ATOM     45  H   UNL A   1      40.790  30.301  29.979  1.00  0.00     0.167 HD
ATOM     46  C   UNL A   1      44.859  29.081  30.815  1.00  0.00     0.031 A 
ATOM     47  C   UNL A   1      38.644  32.105  30.073  1.00  0.00     0.031 A 
ATOM     48  C   UNL A   1      44.775  30.416  31.342  1.00  0.00     0.049 A 
ATOM     49  C   UNL A   1      39.762  32.781  30.829  1.00  0.00     0.074 A 
ATOM     50  C   UNL A   1      45.769  31.166  31.945  1.00  0.00     0.029 A 
ATOM     51  N   UNL A   1      43.627  31.193  31.352  1.00  0.00    -0.354 N 
ATOM     52  N   UNL A   1      40.991  32.370  31.028  1.00  0.00    -0.248 NA
ATOM     53  C   UNL A   1      39.465  34.093  31.427  1.00  0.00     0.031 C 
ATOM     54  C   UNL A   1      45.206  32.370  32.381  1.00  0.00     0.029 A 
ATOM     55  C   UNL A   1      43.878  32.399  31.986  1.00  0.00     0.049 A 
ATOM     56  H   UNL A   1      42.761  30.929  30.965  1.00  0.00     0.167 HD
ATOM     57  C   UNL A   1      41.622  33.387  31.740  1.00  0.00     0.074 A 
ATOM     58  C   UNL A   1      40.642  34.434  31.934  1.00  0.00     0.031 C 
ATOM     59  C   UNL A   1      42.903  33.445  32.183  1.00  0.00     0.031 A 
BRANCH  46  60
ATOM     60  C   UNL A   1      46.147  28.318  30.973  1.00  0.00    -0.014 A 
ATOM     61  C   UNL A   1      46.405  27.553  32.125  1.00  0.00     0.010 A 
ATOM     62  C   UNL A   1      47.131  28.402  29.972  1.00  0.00     0.010 A 
ATOM     63  C   UNL A   1      47.652  26.956  32.311  1.00  0.00     0.020 A 
ATOM     64  C   UNL A   1      48.367  27.776  30.137  1.00  0.00     0.020 A 
ATOM     65  C   UNL A   1      48.632  27.085  31.321  1.00  0.00     0.054 A 
BRANCH  65  66
ATOM     66  S   UNL A   1      50.258  26.340  31.611  1.00  0.00     0.124 S 
ATOM     67  O   UNL A   1      49.910  24.939  31.831  1.00  0.00    -0.237 OA
ATOM     68  O   UNL A   1      50.969  26.625  30.371  1.00  0.00    -0.237 OA
ATOM     69  O   UNL A   1      50.757  27.050  32.790  1.00  0.00    -0.744 OA
ENDBRANCH  65  66
ENDBRANCH  46  60
BRANCH  47  70
ATOM     70  C   UNL A   1      37.338  32.807  29.893  1.00  0.00    -0.014 A 
ATOM     71  C   UNL A   1      37.091  33.551  28.725  1.00  0.00     0.010 A 
ATOM     72  C   UNL A   1      36.342  32.748  30.885  1.00  0.00     0.010 A 
ATOM     73  C   UNL A   1      35.876  34.223  28.553  1.00  0.00     0.020 A 
ATOM     74  C   UNL A   1      35.116  33.399  30.706  1.00  0.00     0.020 A 
ATOM     75  C   UNL A   1      34.892  34.136  29.541  1.00  0.00     0.054 A 
BRANCH  75  76
ATOM     76  S   UNL A   1      33.297  34.955  29.256  1.00  0.00     0.124 S 
ATOM     77  O   UNL A   1      32.684  34.092  28.252  1.00  0.00    -0.237 OA
ATOM     78  O   UNL A   1      32.686  34.916  30.582  1.00  0.00    -0.237 OA
ATOM     79  O   UNL A   1      33.675  36.288  28.791  1.00  0.00    -0.744 OA
ENDBRANCH  75  76
ENDBRANCH  47  70
BRANCH  59  80
ATOM     80  C   UNL A   1      43.354  34.697  32.896  1.00  0.00    -0.014 A 
ATOM     81  C   UNL A   1      43.754  35.843  32.187  1.00  0.00     0.010 A 
ATOM     82  C   UNL A   1      43.295  34.751  34.302  1.00  0.00     0.010 A 
ATOM     83  C   UNL A   1      44.105  37.014  32.872  1.00  0.00     0.020 A 
ATOM     84  C   UNL A   1      43.616  35.926  34.987  1.00  0.00     0.020 A 
ATOM     85  C   UNL A   1      44.028  37.049  34.268  1.00  0.00     0.054 A 
BRANCH  85  86
ATOM     86  S   UNL A   1      44.422  38.598  35.127  1.00  0.00     0.124 S 
ATOM     87  O   UNL A   1      43.642  39.574  34.370  1.00  0.00    -0.237 OA
ATOM     88  O   UNL A   1      43.955  38.339  36.487  1.00  0.00    -0.237 OA
ATOM     89  O   UNL A   1      45.871  38.715  34.985  1.00  0.00    -0.744 OA
ENDBRANCH  85  86
ENDBRANCH  59  80
ENDBRANCH  33  34
ENDBRANCH  25  28
ENDBRANCH  23  24
ENDBRANCH  22  23
ENDBRANCH   1  22
TORSDOF 19
ENDMDL
MODEL 3
REMARK VINA RESULT:     -10.5      4.698      9.914
REMARK SMILES COc1ccc(C(=O)N(C)CCC(=O)NCCCNC(=O)c2ccc(-c3c4nc(c(-c5ccc(S(=O)(=O)[O-])cc5)c5ccc([nH]5)c(-c5ccc(S(=O)(=O)[O-])cc5)c5nc(c(-c6ccc(S(=O)(=O)[O-])cc6)c6ccc3[nH]6)C=C5)C=C4)cc2)cc1O
REMARK SMILES IDX 16 1 15 2 13 3 14 4 12 6 11 7 9 8 10 9 7 10 8 11 6 12 3 13
REMARK SMILES IDX 4 14 83 15 5 16 82 17 2 18 1 19 84 20 17 22 18 23 19 24
REMARK SMILES IDX 20 25 21 27 22 28 23 29 81 30 24 31 80 32 25 33 26 34 27 35
REMARK SMILES IDX 74 36 28 37 79 38 73 39 75 40 29 41 78 42 72 43 71 44 30 46
REMARK SMILES IDX 60 47 41 48 59 49 42 50 45 51 58 52 76 53 43 54 44 55 57 57
REMARK SMILES IDX 77 58 46 59 31 60 32 61 40 62 33 63 39 64 34 65 35 66 36 67
REMARK SMILES IDX 37 68 38 69 61 70 62 71 70 72 63 73 69 74 64 75 65 76 66 77
REMARK SMILES IDX 67 78 68 79 47 80 48 81 56 82 49 83 55 84 50 85 51 86 52 87
REMARK SMILES IDX 53 88 54 89
REMARK H PARENT 15 5 84 21 19 26 75 45 45 56
REMARK Flexibility Score: inf
ROOT
ATOM      1  C   UNL A   1      38.012  21.868  25.439  1.00  0.00     0.117 C 
ENDROOT
BRANCH   1   2
ATOM      2  N   UNL A   1      36.919  22.462  26.195  1.00  0.00    -0.356 N 
ATOM      3  C   UNL A   1      35.589  22.542  25.906  1.00  0.00     0.221 C 
ATOM      4  O   UNL A   1      34.864  23.182  26.673  1.00  0.00    -0.275 OA
ATOM      5  H   UNL A   1      37.182  22.872  27.050  1.00  0.00     0.163 HD
BRANCH   3   6
ATOM      6  C   UNL A   1      34.997  21.822  24.713  1.00  0.00     0.121 C 
BRANCH   6   7
ATOM      7  C   UNL A   1      33.598  21.257  24.985  1.00  0.00     0.129 C 
BRANCH   7   8
ATOM      8  N   UNL A   1      32.558  21.825  24.112  1.00  0.00    -0.341 N 
ATOM      9  C   UNL A   1      32.242  21.068  22.912  1.00  0.00     0.147 C 
BRANCH   8  10
ATOM     10  C   UNL A   1      31.843  22.947  24.562  1.00  0.00     0.253 C 
ATOM     11  O   UNL A   1      31.204  22.911  25.616  1.00  0.00    -0.269 OA
BRANCH  10  12
ATOM     12  C   UNL A   1      32.034  24.296  23.923  1.00  0.00     0.043 A 
ATOM     13  C   UNL A   1      33.121  26.469  22.513  1.00  0.00     0.160 A 
ATOM     14  C   UNL A   1      33.579  26.168  23.784  1.00  0.00     0.051 A 
ATOM     15  C   UNL A   1      32.035  25.769  22.007  1.00  0.00     0.158 A 
ATOM     16  C   UNL A   1      33.042  25.092  24.493  1.00  0.00     0.018 A 
ATOM     17  C   UNL A   1      31.454  24.728  22.729  1.00  0.00     0.064 A 
BRANCH  13  18
ATOM     18  O   UNL A   1      33.857  27.285  21.702  1.00  0.00    -0.493 OA
ATOM     19  C   UNL A   1      34.152  28.548  22.290  1.00  0.00     0.278 C 
ENDBRANCH  13  18
BRANCH  15  20
ATOM     20  O   UNL A   1      31.561  26.020  20.751  1.00  0.00    -0.504 OA
ATOM     21  H   UNL A   1      31.561  26.894  20.416  1.00  0.00     0.293 HD
ENDBRANCH  15  20
ENDBRANCH  10  12
ENDBRANCH   8  10
ENDBRANCH   7   8
ENDBRANCH   6   7
ENDBRANCH   3   6
ENDBRANCH   1   2
BRANCH   1  22
ATOM     22  C   UNL A   1      39.318  21.882  26.227  1.00  0.00     0.042 C 
BRANCH  22  23
ATOM     23  C   UNL A   1      39.667  23.199  26.923  1.00  0.00     0.118 C 
BRANCH  23  24
ATOM     24  N   UNL A   1      40.329  24.160  26.050  1.00  0.00    -0.352 N 
ATOM     25  C   UNL A   1      40.757  25.461  26.206  1.00  0.00     0.251 C 
ATOM     26  H   UNL A   1      40.511  23.802  25.151  1.00  0.00     0.163 HD
ATOM     27  O   UNL A   1      41.232  26.011  25.209  1.00  0.00    -0.269 OA
BRANCH  25  28
ATOM     28  C   UNL A   1      40.638  26.255  27.466  1.00  0.00     0.039 A 
ATOM     29  C   UNL A   1      41.588  27.273  27.681  1.00  0.00     0.014 A 
ATOM     30  C   UNL A   1      39.678  26.040  28.456  1.00  0.00     0.014 A 
ATOM     31  C   UNL A   1      41.518  28.118  28.803  1.00  0.00     0.010 A 
ATOM     32  C   UNL A   1      39.572  26.918  29.552  1.00  0.00     0.010 A 
ATOM     33  C   UNL A   1      40.481  27.977  29.732  1.00  0.00    -0.014 A 
BRANCH  33  34
ATOM     34  C   UNL A   1      40.392  28.856  30.937  1.00  0.00     0.031 A 
ATOM     35  C   UNL A   1      39.365  29.955  30.963  1.00  0.00     0.074 A 
ATOM     36  C   UNL A   1      41.217  28.714  31.997  1.00  0.00     0.049 A 
ATOM     37  N   UNL A   1      39.124  30.843  31.893  1.00  0.00    -0.248 NA
ATOM     38  C   UNL A   1      38.505  30.069  29.777  1.00  0.00     0.031 C 
ATOM     39  C   UNL A   1      42.250  27.692  32.142  1.00  0.00     0.029 A 
ATOM     40  N   UNL A   1      41.317  29.444  33.161  1.00  0.00    -0.354 N 
ATOM     41  C   UNL A   1      38.088  31.629  31.401  1.00  0.00     0.074 A 
ATOM     42  C   UNL A   1      37.789  31.142  30.071  1.00  0.00     0.031 C 
ATOM     43  C   UNL A   1      42.871  27.851  33.323  1.00  0.00     0.029 A 
ATOM     44  C   UNL A   1      42.304  29.005  34.017  1.00  0.00     0.049 A 
ATOM     45  H   UNL A   1      40.735  30.212  33.365  1.00  0.00     0.167 HD
ATOM     46  C   UNL A   1      37.432  32.652  31.998  1.00  0.00     0.031 A 
ATOM     47  C   UNL A   1      42.709  29.473  35.217  1.00  0.00     0.031 A 
ATOM     48  C   UNL A   1      37.734  33.167  33.305  1.00  0.00     0.049 A 
ATOM     49  C   UNL A   1      42.028  30.676  35.823  1.00  0.00     0.074 A 
ATOM     50  C   UNL A   1      37.099  34.184  33.996  1.00  0.00     0.029 A 
ATOM     51  N   UNL A   1      38.772  32.726  34.110  1.00  0.00    -0.354 N 
ATOM     52  N   UNL A   1      41.007  31.362  35.370  1.00  0.00    -0.248 NA
ATOM     53  C   UNL A   1      42.554  31.162  37.110  1.00  0.00     0.031 C 
ATOM     54  C   UNL A   1      37.794  34.402  35.190  1.00  0.00     0.029 A 
ATOM     55  C   UNL A   1      38.820  33.475  35.274  1.00  0.00     0.049 A 
ATOM     56  H   UNL A   1      39.385  31.987  33.889  1.00  0.00     0.167 HD
ATOM     57  C   UNL A   1      40.746  32.336  36.332  1.00  0.00     0.074 A 
ATOM     58  C   UNL A   1      41.712  32.148  37.392  1.00  0.00     0.031 C 
ATOM     59  C   UNL A   1      39.783  33.292  36.333  1.00  0.00     0.031 A 
BRANCH  46  60
ATOM     60  C   UNL A   1      36.339  33.307  31.194  1.00  0.00    -0.014 A 
ATOM     61  C   UNL A   1      36.610  33.911  29.953  1.00  0.00     0.010 A 
ATOM     62  C   UNL A   1      35.031  33.353  31.709  1.00  0.00     0.010 A 
ATOM     63  C   UNL A   1      35.613  34.622  29.282  1.00  0.00     0.020 A 
ATOM     64  C   UNL A   1      34.023  34.032  31.023  1.00  0.00     0.020 A 
ATOM     65  C   UNL A   1      34.329  34.690  29.830  1.00  0.00     0.054 A 
BRANCH  65  66
ATOM     66  S   UNL A   1      33.068  35.660  28.963  1.00  0.00     0.124 S 
ATOM     67  O   UNL A   1      33.886  36.602  28.203  1.00  0.00    -0.237 OA
ATOM     68  O   UNL A   1      32.371  34.652  28.173  1.00  0.00    -0.237 OA
ATOM     69  O   UNL A   1      32.282  36.253  30.047  1.00  0.00    -0.744 OA
ENDBRANCH  65  66
ENDBRANCH  46  60
BRANCH  47  70
ATOM     70  C   UNL A   1      43.807  28.788  35.960  1.00  0.00    -0.014 A 
ATOM     71  C   UNL A   1      43.507  27.778  36.893  1.00  0.00     0.010 A 
ATOM     72  C   UNL A   1      45.153  29.143  35.754  1.00  0.00     0.010 A 
ATOM     73  C   UNL A   1      44.527  27.139  37.605  1.00  0.00     0.020 A 
ATOM     74  C   UNL A   1      46.178  28.489  36.446  1.00  0.00     0.020 A 
ATOM     75  C   UNL A   1      45.859  27.493  37.371  1.00  0.00     0.054 A 
BRANCH  75  76
ATOM     76  S   UNL A   1      47.166  26.593  38.253  1.00  0.00     0.124 S 
ATOM     77  O   UNL A   1      48.093  27.664  38.603  1.00  0.00    -0.237 OA
ATOM     78  O   UNL A   1      46.436  25.998  39.369  1.00  0.00    -0.237 OA
ATOM     79  O   UNL A   1      47.655  25.639  37.260  1.00  0.00    -0.744 OA
ENDBRANCH  75  76
ENDBRANCH  47  70
BRANCH  59  80
ATOM     80  C   UNL A   1      39.685  34.201  37.534  1.00  0.00    -0.014 A 
ATOM     81  C   UNL A   1      38.924  33.849  38.663  1.00  0.00     0.010 A 
ATOM     82  C   UNL A   1      40.435  35.392  37.563  1.00  0.00     0.010 A 
ATOM     83  C   UNL A   1      38.903  34.679  39.791  1.00  0.00     0.020 A 
ATOM     84  C   UNL A   1      40.440  36.208  38.697  1.00  0.00     0.020 A 
ATOM     85  C   UNL A   1      39.665  35.852  39.802  1.00  0.00     0.054 A 
BRANCH  85  86
ATOM     86  S   UNL A   1      39.673  36.876  41.301  1.00  0.00     0.124 S 
ATOM     87  O   UNL A   1      39.013  38.095  40.841  1.00  0.00    -0.237 OA
ATOM     88  O   UNL A   1      38.909  36.066  42.246  1.00  0.00    -0.237 OA
ATOM     89  O   UNL A   1      41.092  37.017  41.616  1.00  0.00    -0.744 OA
ENDBRANCH  85  86
ENDBRANCH  59  80
ENDBRANCH  33  34
ENDBRANCH  25  28
ENDBRANCH  23  24
ENDBRANCH  22  23
ENDBRANCH   1  22
TORSDOF 19
ENDMDL
