MODEL 1
REMARK VINA RESULT:     -10.9      0.000      0.000
REMARK SMILES CCS(=O)(=O)c1ccccc1NC[C@H]1CC[C@H](C(=O)NCCCNC(=O)c2ccc(-c3c4nc(c(-c5ccc(S(=O)(=O)[O-])cc5)c5ccc([nH]5)c(-c5ccc(S(=O)(=O)[O-])cc5)c5nc(c(-c6ccc(S(=O)(=O)[O-])cc6)c6ccc3[nH]6)C=C5)C=C4)cc2)O1
REMARK SMILES IDX 21 1 20 2 18 3 19 4 17 6 14 7 15 8 87 9 16 10 13 11 12 12
REMARK SMILES IDX 11 14 6 15 7 16 8 17 10 18 9 19 3 20 4 21 5 22 2 23 1 24
REMARK SMILES IDX 22 25 23 26 24 27 25 28 26 30 27 31 28 32 86 33 29 34 85 35
REMARK SMILES IDX 30 36 31 37 32 38 79 39 33 40 84 41 78 42 80 43 34 44 83 45
REMARK SMILES IDX 77 46 76 47 35 49 65 50 46 51 64 52 47 53 50 54 63 55 81 56
REMARK SMILES IDX 48 57 49 58 62 60 82 61 51 62 36 63 37 64 45 65 38 66 44 67
REMARK SMILES IDX 39 68 40 69 41 70 42 71 43 72 66 73 67 74 75 75 68 76 74 77
REMARK SMILES IDX 69 78 70 79 71 80 72 81 73 82 52 83 53 84 61 85 54 86 60 87
REMARK SMILES IDX 55 88 56 89 57 90 58 91 59 92
REMARK H PARENT 20 5 12 13 24 29 80 48 50 59
REMARK Flexibility Score: inf
ROOT
ATOM      1  C   UNL A   1      33.187  28.569  23.767  1.00  0.00     0.117 C 
ENDROOT
BRANCH   1   2
ATOM      2  N   UNL A   1      33.381  27.726  22.605  1.00  0.00    -0.354 N 
ATOM      3  C   UNL A   1      33.048  26.419  22.404  1.00  0.00     0.249 C 
ATOM      4  O   UNL A   1      33.314  25.927  21.303  1.00  0.00    -0.272 OA
ATOM      5  H   UNL A   1      33.823  28.164  21.842  1.00  0.00     0.163 HD
BRANCH   3   6
ATOM      6  C   UNL A   1      32.422  25.551  23.519  1.00  0.00     0.207 C 
ATOM      7  C   UNL A   1      31.542  23.385  23.697  1.00  0.00     0.138 C 
ATOM      8  C   UNL A   1      30.430  24.291  23.195  1.00  0.00     0.037 C 
ATOM      9  O   UNL A   1      32.753  24.156  23.514  1.00  0.00    -0.363 OA
ATOM     10  C   UNL A   1      30.906  25.673  23.558  1.00  0.00     0.045 C 
BRANCH   7  11
ATOM     11  C   UNL A   1      31.454  22.954  25.176  1.00  0.00     0.145 C 
BRANCH  11  12
ATOM     12  N   UNL A   1      32.200  21.737  25.459  1.00  0.00    -0.381 N 
ATOM     13  H   UNL A   1      31.676  20.937  25.689  1.00  0.00     0.160 HD
BRANCH  12  14
ATOM     14  C   UNL A   1      33.581  21.597  25.436  1.00  0.00     0.053 A 
ATOM     15  C   UNL A   1      34.188  20.378  25.061  1.00  0.00     0.090 A 
ATOM     16  C   UNL A   1      35.583  20.211  25.067  1.00  0.00     0.022 A 
ATOM     17  C   UNL A   1      36.404  21.249  25.492  1.00  0.00     0.001 A 
ATOM     18  C   UNL A   1      34.441  22.614  25.878  1.00  0.00     0.027 A 
ATOM     19  C   UNL A   1      35.833  22.448  25.903  1.00  0.00     0.002 A 
BRANCH  15  20
ATOM     20  S   UNL A   1      33.200  18.999  24.506  1.00  0.00     0.180 S 
ATOM     21  O   UNL A   1      32.557  19.361  23.263  1.00  0.00    -0.224 OA
ATOM     22  O   UNL A   1      32.409  18.559  25.647  1.00  0.00    -0.224 OA
BRANCH  20  23
ATOM     23  C   UNL A   1      34.353  17.693  24.157  1.00  0.00     0.139 C 
ATOM     24  C   UNL A   1      33.942  16.811  23.002  1.00  0.00     0.021 C 
ENDBRANCH  20  23
ENDBRANCH  15  20
ENDBRANCH  12  14
ENDBRANCH  11  12
ENDBRANCH   7  11
ENDBRANCH   3   6
ENDBRANCH   1   2
BRANCH   1  25
ATOM     25  C   UNL A   1      34.228  28.298  24.847  1.00  0.00     0.042 C 
BRANCH  25  26
ATOM     26  C   UNL A   1      33.668  28.367  26.259  1.00  0.00     0.118 C 
BRANCH  26  27
ATOM     27  N   UNL A   1      33.465  29.742  26.691  1.00  0.00    -0.352 N 
ATOM     28  C   UNL A   1      34.205  30.520  27.544  1.00  0.00     0.251 C 
ATOM     29  H   UNL A   1      32.672  30.184  26.310  1.00  0.00     0.163 HD
ATOM     30  O   UNL A   1      33.728  31.572  27.962  1.00  0.00    -0.269 OA
BRANCH  28  31
ATOM     31  C   UNL A   1      35.561  30.101  27.965  1.00  0.00     0.039 A 
ATOM     32  C   UNL A   1      36.603  30.155  27.034  1.00  0.00     0.014 A 
ATOM     33  C   UNL A   1      35.800  29.616  29.253  1.00  0.00     0.014 A 
ATOM     34  C   UNL A   1      37.890  29.766  27.411  1.00  0.00     0.010 A 
ATOM     35  C   UNL A   1      37.098  29.317  29.653  1.00  0.00     0.010 A 
ATOM     36  C   UNL A   1      38.153  29.369  28.731  1.00  0.00    -0.014 A 
BRANCH  36  37
ATOM     37  C   UNL A   1      39.518  28.985  29.166  1.00  0.00     0.031 A 
ATOM     38  C   UNL A   1      40.388  29.977  29.888  1.00  0.00     0.074 A 
ATOM     39  C   UNL A   1      40.000  27.769  28.843  1.00  0.00     0.049 A 
ATOM     40  N   UNL A   1      41.627  29.851  30.290  1.00  0.00    -0.248 NA
ATOM     41  C   UNL A   1      39.799  31.297  30.166  1.00  0.00     0.031 C 
ATOM     42  C   UNL A   1      39.272  26.742  28.095  1.00  0.00     0.029 A 
ATOM     43  N   UNL A   1      41.222  27.198  29.091  1.00  0.00    -0.354 N 
ATOM     44  C   UNL A   1      41.971  31.077  30.846  1.00  0.00     0.074 A 
ATOM     45  C   UNL A   1      40.831  31.951  30.677  1.00  0.00     0.031 C 
ATOM     46  C   UNL A   1      40.056  25.661  27.958  1.00  0.00     0.029 A 
ATOM     47  C   UNL A   1      41.351  25.931  28.574  1.00  0.00     0.049 A 
ATOM     48  H   UNL A   1      41.938  27.652  29.592  1.00  0.00     0.167 HD
ATOM     49  C   UNL A   1      43.124  31.440  31.458  1.00  0.00     0.031 A 
ATOM     50  C   UNL A   1      42.397  25.083  28.586  1.00  0.00     0.031 A 
ATOM     51  C   UNL A   1      44.253  30.564  31.622  1.00  0.00     0.049 A 
ATOM     52  C   UNL A   1      43.663  25.494  29.282  1.00  0.00     0.074 A 
ATOM     53  C   UNL A   1      45.445  30.807  32.280  1.00  0.00     0.029 A 
ATOM     54  N   UNL A   1      44.332  29.274  31.116  1.00  0.00    -0.354 N 
ATOM     55  N   UNL A   1      43.944  26.631  29.873  1.00  0.00    -0.248 NA
ATOM     56  C   UNL A   1      44.746  24.504  29.328  1.00  0.00     0.031 C 
ATOM     57  C   UNL A   1      46.266  29.684  32.125  1.00  0.00     0.029 A 
ATOM     58  C   UNL A   1      45.562  28.717  31.424  1.00  0.00     0.049 A 
ATOM     59  H   UNL A   1      43.618  28.820  30.611  1.00  0.00     0.167 HD
ATOM     60  C   UNL A   1      45.231  26.488  30.378  1.00  0.00     0.074 A 
ATOM     61  C   UNL A   1      45.665  25.147  30.037  1.00  0.00     0.031 C 
ATOM     62  C   UNL A   1      45.983  27.385  31.063  1.00  0.00     0.031 A 
BRANCH  49  63
ATOM     63  C   UNL A   1      43.212  32.854  31.974  1.00  0.00    -0.014 A 
ATOM     64  C   UNL A   1      43.688  33.900  31.159  1.00  0.00     0.010 A 
ATOM     65  C   UNL A   1      42.829  33.141  33.296  1.00  0.00     0.010 A 
ATOM     66  C   UNL A   1      43.849  35.186  31.679  1.00  0.00     0.020 A 
ATOM     67  C   UNL A   1      42.957  34.436  33.810  1.00  0.00     0.020 A 
ATOM     68  C   UNL A   1      43.494  35.444  33.006  1.00  0.00     0.054 A 
BRANCH  68  69
ATOM     69  S   UNL A   1      43.740  37.115  33.665  1.00  0.00     0.124 S 
ATOM     70  O   UNL A   1      44.967  36.953  34.442  1.00  0.00    -0.237 OA
ATOM     71  O   UNL A   1      43.867  37.924  32.456  1.00  0.00    -0.237 OA
ATOM     72  O   UNL A   1      42.533  37.360  34.451  1.00  0.00    -0.744 OA
ENDBRANCH  68  69
ENDBRANCH  49  63
BRANCH  50  73
ATOM     73  C   UNL A   1      42.262  23.756  27.926  1.00  0.00    -0.014 A 
ATOM     74  C   UNL A   1      42.710  23.564  26.609  1.00  0.00     0.010 A 
ATOM     75  C   UNL A   1      41.754  22.657  28.644  1.00  0.00     0.010 A 
ATOM     76  C   UNL A   1      42.658  22.296  26.022  1.00  0.00     0.020 A 
ATOM     77  C   UNL A   1      41.724  21.383  28.069  1.00  0.00     0.020 A 
ATOM     78  C   UNL A   1      42.175  21.212  26.759  1.00  0.00     0.054 A 
BRANCH  78  79
ATOM     79  S   UNL A   1      42.212  19.559  26.010  1.00  0.00     0.124 S 
ATOM     80  O   UNL A   1      43.141  19.749  24.900  1.00  0.00    -0.237 OA
ATOM     81  O   UNL A   1      42.701  18.727  27.107  1.00  0.00    -0.237 OA
ATOM     82  O   UNL A   1      40.821  19.323  25.631  1.00  0.00    -0.744 OA
ENDBRANCH  78  79
ENDBRANCH  50  73
BRANCH  62  83
ATOM     83  C   UNL A   1      47.352  26.941  31.507  1.00  0.00    -0.014 A 
ATOM     84  C   UNL A   1      47.532  26.217  32.699  1.00  0.00     0.010 A 
ATOM     85  C   UNL A   1      48.465  27.202  30.687  1.00  0.00     0.010 A 
ATOM     86  C   UNL A   1      48.806  25.788  33.078  1.00  0.00     0.020 A 
ATOM     87  C   UNL A   1      49.737  26.751  31.050  1.00  0.00     0.020 A 
ATOM     88  C   UNL A   1      49.901  26.058  32.250  1.00  0.00     0.054 A 
BRANCH  88  89
ATOM     89  S   UNL A   1      51.538  25.452  32.742  1.00  0.00     0.124 S 
ATOM     90  O   UNL A   1      52.053  26.568  33.529  1.00  0.00    -0.237 OA
ATOM     91  O   UNL A   1      51.218  24.243  33.499  1.00  0.00    -0.237 OA
ATOM     92  O   UNL A   1      52.219  25.220  31.470  1.00  0.00    -0.744 OA
ENDBRANCH  88  89
ENDBRANCH  62  83
ENDBRANCH  36  37
ENDBRANCH  28  31
ENDBRANCH  26  27
ENDBRANCH  25  26
ENDBRANCH   1  25
TORSDOF 18
ENDMDL
MODEL 2
REMARK VINA RESULT:     -10.7      1.362      1.953
REMARK SMILES CCS(=O)(=O)c1ccccc1NC[C@H]1CC[C@H](C(=O)NCCCNC(=O)c2ccc(-c3c4nc(c(-c5ccc(S(=O)(=O)[O-])cc5)c5ccc([nH]5)c(-c5ccc(S(=O)(=O)[O-])cc5)c5nc(c(-c6ccc(S(=O)(=O)[O-])cc6)c6ccc3[nH]6)C=C5)C=C4)cc2)O1
REMARK SMILES IDX 21 1 20 2 18 3 19 4 17 6 14 7 15 8 87 9 16 10 13 11 12 12
REMARK SMILES IDX 11 14 6 15 7 16 8 17 10 18 9 19 3 20 4 21 5 22 2 23 1 24
REMARK SMILES IDX 22 25 23 26 24 27 25 28 26 30 27 31 28 32 86 33 29 34 85 35
REMARK SMILES IDX 30 36 31 37 32 38 79 39 33 40 84 41 78 42 80 43 34 44 83 45
REMARK SMILES IDX 77 46 76 47 35 49 65 50 46 51 64 52 47 53 50 54 63 55 81 56
REMARK SMILES IDX 48 57 49 58 62 60 82 61 51 62 36 63 37 64 45 65 38 66 44 67
REMARK SMILES IDX 39 68 40 69 41 70 42 71 43 72 66 73 67 74 75 75 68 76 74 77
REMARK SMILES IDX 69 78 70 79 71 80 72 81 73 82 52 83 53 84 61 85 54 86 60 87
REMARK SMILES IDX 55 88 56 89 57 90 58 91 59 92
REMARK H PARENT 20 5 12 13 24 29 80 48 50 59
REMARK Flexibility Score: inf
ROOT
ATOM      1  C   UNL A   1      33.028  28.737  23.875  1.00  0.00     0.117 C 
ENDROOT
BRANCH   1   2
ATOM      2  N   UNL A   1      31.775  28.926  23.173  1.00  0.00    -0.354 N 
ATOM      3  C   UNL A   1      30.932  28.008  22.621  1.00  0.00     0.249 C 
ATOM      4  O   UNL A   1      29.905  28.430  22.081  1.00  0.00    -0.272 OA
ATOM      5  H   UNL A   1      31.487  29.863  23.080  1.00  0.00     0.163 HD
BRANCH   3   6
ATOM      6  C   UNL A   1      31.264  26.499  22.600  1.00  0.00     0.207 C 
ATOM      7  C   UNL A   1      32.833  25.087  23.622  1.00  0.00     0.138 C 
ATOM      8  C   UNL A   1      33.488  25.679  22.385  1.00  0.00     0.037 C 
ATOM      9  O   UNL A   1      31.662  25.907  23.845  1.00  0.00    -0.363 OA
ATOM     10  C   UNL A   1      32.322  26.159  21.561  1.00  0.00     0.045 C 
BRANCH   7  11
ATOM     11  C   UNL A   1      32.388  23.613  23.518  1.00  0.00     0.145 C 
BRANCH  11  12
ATOM     12  N   UNL A   1      32.752  22.826  24.686  1.00  0.00    -0.381 N 
ATOM     13  H   UNL A   1      32.653  23.259  25.563  1.00  0.00     0.160 HD
BRANCH  12  14
ATOM     14  C   UNL A   1      33.226  21.521  24.681  1.00  0.00     0.053 A 
ATOM     15  C   UNL A   1      34.602  21.241  24.830  1.00  0.00     0.090 A 
ATOM     16  C   UNL A   1      35.101  19.928  24.792  1.00  0.00     0.022 A 
ATOM     17  C   UNL A   1      34.237  18.864  24.559  1.00  0.00     0.001 A 
ATOM     18  C   UNL A   1      32.389  20.423  24.428  1.00  0.00     0.027 A 
ATOM     19  C   UNL A   1      32.882  19.113  24.372  1.00  0.00     0.002 A 
BRANCH  15  20
ATOM     20  S   UNL A   1      35.774  22.554  25.130  1.00  0.00     0.180 S 
ATOM     21  O   UNL A   1      35.419  23.219  26.363  1.00  0.00    -0.224 OA
ATOM     22  O   UNL A   1      35.890  23.308  23.889  1.00  0.00    -0.224 OA
BRANCH  20  23
ATOM     23  C   UNL A   1      37.339  21.752  25.381  1.00  0.00     0.139 C 
ATOM     24  C   UNL A   1      38.363  22.619  26.073  1.00  0.00     0.021 C 
ENDBRANCH  20  23
ENDBRANCH  15  20
ENDBRANCH  12  14
ENDBRANCH  11  12
ENDBRANCH   7  11
ENDBRANCH   3   6
ENDBRANCH   1   2
BRANCH   1  25
ATOM     25  C   UNL A   1      32.816  28.497  25.365  1.00  0.00     0.042 C 
BRANCH  25  26
ATOM     26  C   UNL A   1      34.015  28.880  26.217  1.00  0.00     0.118 C 
BRANCH  26  27
ATOM     27  N   UNL A   1      33.849  30.193  26.822  1.00  0.00    -0.352 N 
ATOM     28  C   UNL A   1      34.590  30.823  27.788  1.00  0.00     0.251 C 
ATOM     29  H   UNL A   1      33.083  30.712  26.484  1.00  0.00     0.163 HD
ATOM     30  O   UNL A   1      34.138  31.829  28.330  1.00  0.00    -0.269 OA
BRANCH  28  31
ATOM     31  C   UNL A   1      35.917  30.300  28.184  1.00  0.00     0.039 A 
ATOM     32  C   UNL A   1      36.975  30.388  27.275  1.00  0.00     0.014 A 
ATOM     33  C   UNL A   1      36.112  29.686  29.424  1.00  0.00     0.014 A 
ATOM     34  C   UNL A   1      38.236  29.903  27.628  1.00  0.00     0.010 A 
ATOM     35  C   UNL A   1      37.387  29.287  29.809  1.00  0.00     0.010 A 
ATOM     36  C   UNL A   1      38.457  29.372  28.908  1.00  0.00    -0.014 A 
BRANCH  36  37
ATOM     37  C   UNL A   1      39.796  28.881  29.320  1.00  0.00     0.031 A 
ATOM     38  C   UNL A   1      40.741  29.793  30.053  1.00  0.00     0.074 A 
ATOM     39  C   UNL A   1      40.185  27.640  28.968  1.00  0.00     0.049 A 
ATOM     40  N   UNL A   1      41.971  29.569  30.439  1.00  0.00    -0.248 NA
ATOM     41  C   UNL A   1      40.252  31.145  30.364  1.00  0.00     0.031 C 
ATOM     42  C   UNL A   1      39.378  26.684  28.207  1.00  0.00     0.029 A 
ATOM     43  N   UNL A   1      41.365  26.978  29.192  1.00  0.00    -0.354 N 
ATOM     44  C   UNL A   1      42.408  30.756  31.016  1.00  0.00     0.074 A 
ATOM     45  C   UNL A   1      41.332  31.713  30.877  1.00  0.00     0.031 C 
ATOM     46  C   UNL A   1      40.081  25.553  28.041  1.00  0.00     0.029 A 
ATOM     47  C   UNL A   1      41.397  25.716  28.649  1.00  0.00     0.049 A 
ATOM     48  H   UNL A   1      42.116  27.369  29.694  1.00  0.00     0.167 HD
ATOM     49  C   UNL A   1      43.590  31.021  31.623  1.00  0.00     0.031 A 
ATOM     50  C   UNL A   1      42.379  24.795  28.632  1.00  0.00     0.031 A 
ATOM     51  C   UNL A   1      44.655  30.063  31.758  1.00  0.00     0.049 A 
ATOM     52  C   UNL A   1      43.678  25.099  29.323  1.00  0.00     0.074 A 
ATOM     53  C   UNL A   1      45.867  30.207  32.408  1.00  0.00     0.029 A 
ATOM     54  N   UNL A   1      44.635  28.782  31.225  1.00  0.00    -0.354 N 
ATOM     55  N   UNL A   1      44.046  26.200  29.933  1.00  0.00    -0.248 NA
ATOM     56  C   UNL A   1      44.687  24.033  29.337  1.00  0.00     0.031 C 
ATOM     57  C   UNL A   1      46.602  29.030  32.222  1.00  0.00     0.029 A 
ATOM     58  C   UNL A   1      45.824  28.132  31.509  1.00  0.00     0.049 A 
ATOM     59  H   UNL A   1      43.886  28.391  30.719  1.00  0.00     0.167 HD
ATOM     60  C   UNL A   1      45.323  25.955  30.422  1.00  0.00     0.074 A 
ATOM     61  C   UNL A   1      45.656  24.593  30.050  1.00  0.00     0.031 C 
ATOM     62  C   UNL A   1      46.145  26.781  31.117  1.00  0.00     0.031 A 
BRANCH  49  63
ATOM     63  C   UNL A   1      43.785  32.414  32.166  1.00  0.00    -0.014 A 
ATOM     64  C   UNL A   1      44.342  33.436  31.373  1.00  0.00     0.010 A 
ATOM     65  C   UNL A   1      43.420  32.705  33.493  1.00  0.00     0.010 A 
ATOM     66  C   UNL A   1      44.599  34.696  31.917  1.00  0.00     0.020 A 
ATOM     67  C   UNL A   1      43.645  33.976  34.032  1.00  0.00     0.020 A 
ATOM     68  C   UNL A   1      44.261  34.955  33.249  1.00  0.00     0.054 A 
BRANCH  68  69
ATOM     69  S   UNL A   1      44.633  36.590  33.940  1.00  0.00     0.124 S 
ATOM     70  O   UNL A   1      46.089  36.541  34.058  1.00  0.00    -0.237 OA
ATOM     71  O   UNL A   1      44.117  37.497  32.919  1.00  0.00    -0.237 OA
ATOM     72  O   UNL A   1      43.906  36.604  35.208  1.00  0.00    -0.744 OA
ENDBRANCH  68  69
ENDBRANCH  49  63
BRANCH  50  73
ATOM     73  C   UNL A   1      42.143  23.495  27.947  1.00  0.00    -0.014 A 
ATOM     74  C   UNL A   1      42.655  23.262  26.660  1.00  0.00     0.010 A 
ATOM     75  C   UNL A   1      41.468  22.456  28.615  1.00  0.00     0.010 A 
ATOM     76  C   UNL A   1      42.503  22.010  26.055  1.00  0.00     0.020 A 
ATOM     77  C   UNL A   1      41.336  21.196  28.023  1.00  0.00     0.020 A 
ATOM     78  C   UNL A   1      41.853  20.983  26.744  1.00  0.00     0.054 A 
BRANCH  78  79
ATOM     79  S   UNL A   1      41.757  19.341  25.977  1.00  0.00     0.124 S 
ATOM     80  O   UNL A   1      42.616  19.501  24.807  1.00  0.00    -0.237 OA
ATOM     81  O   UNL A   1      42.279  18.471  27.029  1.00  0.00    -0.237 OA
ATOM     82  O   UNL A   1      40.334  19.177  25.693  1.00  0.00    -0.744 OA
ENDBRANCH  78  79
ENDBRANCH  50  73
BRANCH  62  83
ATOM     83  C   UNL A   1      47.482  26.230  31.538  1.00  0.00    -0.014 A 
ATOM     84  C   UNL A   1      47.694  25.746  32.840  1.00  0.00     0.010 A 
ATOM     85  C   UNL A   1      48.522  26.141  30.595  1.00  0.00     0.010 A 
ATOM     86  C   UNL A   1      48.933  25.212  33.202  1.00  0.00     0.020 A 
ATOM     87  C   UNL A   1      49.754  25.582  30.945  1.00  0.00     0.020 A 
ATOM     88  C   UNL A   1      49.955  25.133  32.252  1.00  0.00     0.054 A 
BRANCH  88  89
ATOM     89  S   UNL A   1      51.540  24.394  32.733  1.00  0.00     0.124 S 
ATOM     90  O   UNL A   1      52.500  25.292  32.099  1.00  0.00    -0.237 OA
ATOM     91  O   UNL A   1      51.492  24.453  34.192  1.00  0.00    -0.237 OA
ATOM     92  O   UNL A   1      51.481  23.047  32.168  1.00  0.00    -0.744 OA
ENDBRANCH  88  89
ENDBRANCH  62  83
ENDBRANCH  36  37
ENDBRANCH  28  31
ENDBRANCH  26  27
ENDBRANCH  25  26
ENDBRANCH   1  25
TORSDOF 18
ENDMDL
MODEL 3
REMARK VINA RESULT:     -10.7      3.457      4.388
REMARK SMILES CCS(=O)(=O)c1ccccc1NC[C@H]1CC[C@H](C(=O)NCCCNC(=O)c2ccc(-c3c4nc(c(-c5ccc(S(=O)(=O)[O-])cc5)c5ccc([nH]5)c(-c5ccc(S(=O)(=O)[O-])cc5)c5nc(c(-c6ccc(S(=O)(=O)[O-])cc6)c6ccc3[nH]6)C=C5)C=C4)cc2)O1
REMARK SMILES IDX 21 1 20 2 18 3 19 4 17 6 14 7 15 8 87 9 16 10 13 11 12 12
REMARK SMILES IDX 11 14 6 15 7 16 8 17 10 18 9 19 3 20 4 21 5 22 2 23 1 24
REMARK SMILES IDX 22 25 23 26 24 27 25 28 26 30 27 31 28 32 86 33 29 34 85 35
REMARK SMILES IDX 30 36 31 37 32 38 79 39 33 40 84 41 78 42 80 43 34 44 83 45
REMARK SMILES IDX 77 46 76 47 35 49 65 50 46 51 64 52 47 53 50 54 63 55 81 56
REMARK SMILES IDX 48 57 49 58 62 60 82 61 51 62 36 63 37 64 45 65 38 66 44 67
REMARK SMILES IDX 39 68 40 69 41 70 42 71 43 72 66 73 67 74 75 75 68 76 74 77
REMARK SMILES IDX 69 78 70 79 71 80 72 81 73 82 52 83 53 84 61 85 54 86 60 87
REMARK SMILES IDX 55 88 56 89 57 90 58 91 59 92
REMARK H PARENT 20 5 12 13 24 29 80 48 50 59
REMARK Flexibility Score: inf
ROOT
ATOM      1  C   UNL A   1      33.685  29.055  25.289  1.00  0.00     0.117 C 
ENDROOT
BRANCH   1   2
ATOM      2  N   UNL A   1      32.379  29.575  24.938  1.00  0.00    -0.354 N 
ATOM      3  C   UNL A   1      31.334  28.967  24.308  1.00  0.00     0.249 C 
ATOM      4  O   UNL A   1      30.309  29.634  24.135  1.00  0.00    -0.272 OA
ATOM      5  H   UNL A   1      32.222  30.512  25.195  1.00  0.00     0.163 HD
BRANCH   3   6
ATOM      6  C   UNL A   1      31.432  27.525  23.762  1.00  0.00     0.207 C 
ATOM      7  C   UNL A   1      33.139  25.965  23.372  1.00  0.00     0.138 C 
ATOM      8  C   UNL A   1      33.062  26.872  22.156  1.00  0.00     0.037 C 
ATOM      9  O   UNL A   1      32.383  26.658  24.394  1.00  0.00    -0.363 OA
ATOM     10  C   UNL A   1      31.695  27.496  22.263  1.00  0.00     0.045 C 
BRANCH   7  11
ATOM     11  C   UNL A   1      32.552  24.548  23.204  1.00  0.00     0.145 C 
BRANCH  11  12
ATOM     12  N   UNL A   1      33.573  23.527  23.026  1.00  0.00    -0.381 N 
ATOM     13  H   UNL A   1      34.275  23.711  22.361  1.00  0.00     0.160 HD
BRANCH  12  14
ATOM     14  C   UNL A   1      33.652  22.317  23.702  1.00  0.00     0.053 A 
ATOM     15  C   UNL A   1      34.874  21.853  24.235  1.00  0.00     0.090 A 
ATOM     16  C   UNL A   1      34.976  20.615  24.891  1.00  0.00     0.022 A 
ATOM     17  C   UNL A   1      33.862  19.789  24.991  1.00  0.00     0.001 A 
ATOM     18  C   UNL A   1      32.555  21.447  23.804  1.00  0.00     0.027 A 
ATOM     19  C   UNL A   1      32.654  20.203  24.443  1.00  0.00     0.002 A 
BRANCH  15  20
ATOM     20  S   UNL A   1      36.349  22.856  24.145  1.00  0.00     0.180 S 
ATOM     21  O   UNL A   1      36.162  24.029  24.969  1.00  0.00    -0.224 OA
ATOM     22  O   UNL A   1      36.683  22.989  22.733  1.00  0.00    -0.224 OA
BRANCH  20  23
ATOM     23  C   UNL A   1      37.639  21.880  24.879  1.00  0.00     0.139 C 
ATOM     24  C   UNL A   1      38.438  22.617  25.927  1.00  0.00     0.021 C 
ENDBRANCH  20  23
ENDBRANCH  15  20
ENDBRANCH  12  14
ENDBRANCH  11  12
ENDBRANCH   7  11
ENDBRANCH   3   6
ENDBRANCH   1   2
BRANCH   1  25
ATOM     25  C   UNL A   1      33.814  28.802  26.786  1.00  0.00     0.042 C 
BRANCH  25  26
ATOM     26  C   UNL A   1      35.217  29.036  27.322  1.00  0.00     0.118 C 
BRANCH  26  27
ATOM     27  N   UNL A   1      35.212  29.919  28.479  1.00  0.00    -0.352 N 
ATOM     28  C   UNL A   1      36.212  30.218  29.368  1.00  0.00     0.251 C 
ATOM     29  H   UNL A   1      34.355  30.373  28.651  1.00  0.00     0.163 HD
ATOM     30  O   UNL A   1      35.930  30.799  30.413  1.00  0.00    -0.269 OA
BRANCH  28  31
ATOM     31  C   UNL A   1      37.615  29.845  29.082  1.00  0.00     0.039 A 
ATOM     32  C   UNL A   1      38.451  29.497  30.146  1.00  0.00     0.014 A 
ATOM     33  C   UNL A   1      38.120  29.877  27.779  1.00  0.00     0.014 A 
ATOM     34  C   UNL A   1      39.778  29.140  29.899  1.00  0.00     0.010 A 
ATOM     35  C   UNL A   1      39.413  29.433  27.524  1.00  0.00     0.010 A 
ATOM     36  C   UNL A   1      40.262  29.080  28.582  1.00  0.00    -0.014 A 
BRANCH  36  37
ATOM     37  C   UNL A   1      41.657  28.669  28.289  1.00  0.00     0.031 A 
ATOM     38  C   UNL A   1      42.754  29.698  28.250  1.00  0.00     0.074 A 
ATOM     39  C   UNL A   1      41.921  27.384  27.983  1.00  0.00     0.049 A 
ATOM     40  N   UNL A   1      44.019  29.545  27.951  1.00  0.00    -0.248 NA
ATOM     41  C   UNL A   1      42.373  31.085  28.558  1.00  0.00     0.031 C 
ATOM     42  C   UNL A   1      40.931  26.306  27.931  1.00  0.00     0.029 A 
ATOM     43  N   UNL A   1      43.099  26.770  27.644  1.00  0.00    -0.354 N 
ATOM     44  C   UNL A   1      44.577  30.817  28.011  1.00  0.00     0.074 A 
ATOM     45  C   UNL A   1      43.503  31.734  28.319  1.00  0.00     0.031 C 
ATOM     46  C   UNL A   1      41.546  25.162  27.595  1.00  0.00     0.029 A 
ATOM     47  C   UNL A   1      42.963  25.431  27.373  1.00  0.00     0.049 A 
ATOM     48  H   UNL A   1      43.961  27.245  27.599  1.00  0.00     0.167 HD
ATOM     49  C   UNL A   1      45.870  31.186  27.844  1.00  0.00     0.031 A 
ATOM     50  C   UNL A   1      43.873  24.519  26.980  1.00  0.00     0.031 A 
ATOM     51  C   UNL A   1      46.933  30.266  27.539  1.00  0.00     0.049 A 
ATOM     52  C   UNL A   1      45.305  24.942  26.814  1.00  0.00     0.074 A 
ATOM     53  C   UNL A   1      48.286  30.524  27.410  1.00  0.00     0.029 A 
ATOM     54  N   UNL A   1      46.759  28.909  27.307  1.00  0.00    -0.354 N 
ATOM     55  N   UNL A   1      45.831  26.135  26.953  1.00  0.00    -0.248 NA
ATOM     56  C   UNL A   1      46.269  23.893  26.455  1.00  0.00     0.031 C 
ATOM     57  C   UNL A   1      48.923  29.331  27.048  1.00  0.00     0.029 A 
ATOM     58  C   UNL A   1      47.977  28.319  27.011  1.00  0.00     0.049 A 
ATOM     59  H   UNL A   1      45.898  28.434  27.347  1.00  0.00     0.167 HD
ATOM     60  C   UNL A   1      47.192  25.981  26.716  1.00  0.00     0.074 A 
ATOM     61  C   UNL A   1      47.408  24.573  26.443  1.00  0.00     0.031 C 
ATOM     62  C   UNL A   1      48.172  26.918  26.726  1.00  0.00     0.031 A 
BRANCH  49  63
ATOM     63  C   UNL A   1      46.186  32.655  27.973  1.00  0.00    -0.014 A 
ATOM     64  C   UNL A   1      46.114  33.518  26.862  1.00  0.00     0.010 A 
ATOM     65  C   UNL A   1      46.576  33.180  29.218  1.00  0.00     0.010 A 
ATOM     66  C   UNL A   1      46.496  34.856  26.978  1.00  0.00     0.020 A 
ATOM     67  C   UNL A   1      46.928  34.527  29.346  1.00  0.00     0.020 A 
ATOM     68  C   UNL A   1      46.914  35.350  28.217  1.00  0.00     0.054 A 
BRANCH  68  69
ATOM     69  S   UNL A   1      47.433  37.084  28.333  1.00  0.00     0.124 S 
ATOM     70  O   UNL A   1      46.281  37.698  28.991  1.00  0.00    -0.237 OA
ATOM     71  O   UNL A   1      48.647  37.004  29.141  1.00  0.00    -0.237 OA
ATOM     72  O   UNL A   1      47.639  37.478  26.942  1.00  0.00    -0.744 OA
ENDBRANCH  68  69
ENDBRANCH  49  63
BRANCH  50  73
ATOM     73  C   UNL A   1      43.439  23.116  26.741  1.00  0.00    -0.014 A 
ATOM     74  C   UNL A   1      43.694  22.489  25.510  1.00  0.00     0.010 A 
ATOM     75  C   UNL A   1      42.835  22.376  27.775  1.00  0.00     0.010 A 
ATOM     76  C   UNL A   1      43.360  21.145  25.318  1.00  0.00     0.020 A 
ATOM     77  C   UNL A   1      42.521  21.025  27.595  1.00  0.00     0.020 A 
ATOM     78  C   UNL A   1      42.785  20.419  26.365  1.00  0.00     0.054 A 
BRANCH  78  79
ATOM     79  S   UNL A   1      42.452  18.651  26.124  1.00  0.00     0.124 S 
ATOM     80  O   UNL A   1      42.764  18.101  27.440  1.00  0.00    -0.237 OA
ATOM     81  O   UNL A   1      41.038  18.645  25.755  1.00  0.00    -0.237 OA
ATOM     82  O   UNL A   1      43.370  18.273  25.052  1.00  0.00    -0.744 OA
ENDBRANCH  78  79
ENDBRANCH  50  73
BRANCH  62  83
ATOM     83  C   UNL A   1      49.576  26.450  26.450  1.00  0.00    -0.014 A 
ATOM     84  C   UNL A   1      50.417  26.013  27.488  1.00  0.00     0.010 A 
ATOM     85  C   UNL A   1      50.039  26.393  25.122  1.00  0.00     0.010 A 
ATOM     86  C   UNL A   1      51.706  25.555  27.207  1.00  0.00     0.020 A 
ATOM     87  C   UNL A   1      51.318  25.910  24.834  1.00  0.00     0.020 A 
ATOM     88  C   UNL A   1      52.149  25.506  25.881  1.00  0.00     0.054 A 
BRANCH  88  89
ATOM     89  S   UNL A   1      53.810  24.865  25.537  1.00  0.00     0.124 S 
ATOM     90  O   UNL A   1      53.522  23.521  25.047  1.00  0.00    -0.237 OA
ATOM     91  O   UNL A   1      54.316  25.804  24.538  1.00  0.00    -0.237 OA
ATOM     92  O   UNL A   1      54.480  24.924  26.834  1.00  0.00    -0.744 OA
ENDBRANCH  88  89
ENDBRANCH  62  83
ENDBRANCH  36  37
ENDBRANCH  28  31
ENDBRANCH  26  27
ENDBRANCH  25  26
ENDBRANCH   1  25
TORSDOF 18
ENDMDL
