MODEL 1
REMARK VINA RESULT:      -8.6      0.000      0.000
REMARK SMILES O=C(CCc1ccc(S(=O)(=O)Nc2cccc(I)c2)cc1)NCCCNC(=O)c1ccc(-c2c3nc(c(-c4ccc(S(=O)(=O)[O-])cc4)c4ccc([nH]4)c(-c4ccc(S(=O)(=O)[O-])cc4)c4nc(c(-c5ccc(S(=O)(=O)[O-])cc5)c5ccc2[nH]5)C=C4)C=C3)cc1
REMARK SMILES IDX 23 1 22 2 1 3 2 4 3 6 4 7 5 8 6 9 21 10 7 11 20 12 8 13 9 14
REMARK SMILES IDX 10 15 11 16 12 17 13 19 14 20 19 21 15 22 17 23 16 24 18 25
REMARK SMILES IDX 24 26 25 27 26 28 27 29 28 31 29 32 30 33 88 34 31 35 87 36
REMARK SMILES IDX 32 37 33 38 34 39 81 40 35 41 86 42 80 43 82 44 36 45 85 46
REMARK SMILES IDX 79 47 78 48 37 50 67 51 48 52 66 53 49 54 52 55 65 56 83 57
REMARK SMILES IDX 50 58 51 59 64 61 84 62 53 63 38 64 39 65 47 66 40 67 46 68
REMARK SMILES IDX 41 69 42 70 43 71 44 72 45 73 68 74 69 75 77 76 70 77 76 78
REMARK SMILES IDX 71 79 72 80 73 81 74 82 75 83 54 84 55 85 63 86 56 87 62 88
REMARK SMILES IDX 57 89 58 90 59 91 60 92 61 93
REMARK H PARENT 22 5 12 18 26 30 82 49 52 60
REMARK Flexibility Score: inf
ROOT
ATOM      1  C   UNL A   1      43.801  20.877  25.367  1.00  0.00     0.117 C 
ENDROOT
BRANCH   1   2
ATOM      2  N   UNL A   1      44.902  21.733  25.755  1.00  0.00    -0.356 N 
ATOM      3  O   UNL A   1      45.062  22.886  23.770  1.00  0.00    -0.275 OA
ATOM      4  C   UNL A   1      45.409  22.713  24.933  1.00  0.00     0.220 C 
ATOM      5  H   UNL A   1      45.304  21.608  26.645  1.00  0.00     0.163 HD
BRANCH   4   6
ATOM      6  C   UNL A   1      46.421  23.611  25.614  1.00  0.00     0.105 C 
BRANCH   6   7
ATOM      7  C   UNL A   1      45.845  24.210  26.897  1.00  0.00     0.045 C 
BRANCH   7   8
ATOM      8  C   UNL A   1      45.436  25.662  26.779  1.00  0.00    -0.047 A 
ATOM      9  C   UNL A   1      46.169  26.660  27.437  1.00  0.00     0.005 A 
ATOM     10  C   UNL A   1      44.328  26.034  26.007  1.00  0.00     0.005 A 
ATOM     11  C   UNL A   1      45.774  27.998  27.360  1.00  0.00     0.022 A 
ATOM     12  C   UNL A   1      43.968  27.376  25.878  1.00  0.00     0.022 A 
ATOM     13  C   UNL A   1      44.656  28.353  26.597  1.00  0.00     0.087 A 
BRANCH  13  14
ATOM     14  S   UNL A   1      44.102  30.045  26.716  1.00  0.00     0.261 S 
ATOM     15  O   UNL A   1      45.151  30.867  26.147  1.00  0.00    -0.201 OA
ATOM     16  O   UNL A   1      42.760  30.070  26.187  1.00  0.00    -0.201 OA
BRANCH  14  17
ATOM     17  N   UNL A   1      43.948  30.418  28.339  1.00  0.00    -0.280 N 
ATOM     18  H   UNL A   1      43.547  29.734  28.921  1.00  0.00     0.180 HD
BRANCH  17  19
ATOM     19  C   UNL A   1      44.346  31.639  28.949  1.00  0.00     0.050 A 
ATOM     20  C   UNL A   1      45.671  31.714  29.395  1.00  0.00     0.027 A 
ATOM     21  C   UNL A   1      43.527  32.766  29.034  1.00  0.00     0.041 A 
ATOM     22  C   UNL A   1      46.201  32.927  29.834  1.00  0.00     0.003 A 
ATOM     23  C   UNL A   1      44.068  33.982  29.456  1.00  0.00     0.015 A 
ATOM     24  C   UNL A   1      45.404  34.070  29.845  1.00  0.00     0.015 A 
ATOM     25  I   UNL A   1      42.887  35.693  29.435  1.00  0.00    -0.044 I 
ENDBRANCH  17  19
ENDBRANCH  14  17
ENDBRANCH  13  14
ENDBRANCH   7   8
ENDBRANCH   6   7
ENDBRANCH   4   6
ENDBRANCH   1   2
BRANCH   1  26
ATOM     26  C   UNL A   1      42.586  21.043  26.271  1.00  0.00     0.042 C 
BRANCH  26  27
ATOM     27  C   UNL A   1      41.835  22.366  26.117  1.00  0.00     0.118 C 
BRANCH  27  28
ATOM     28  N   UNL A   1      40.426  22.200  25.800  1.00  0.00    -0.352 N 
ATOM     29  C   UNL A   1      39.349  22.977  26.167  1.00  0.00     0.251 C 
ATOM     30  H   UNL A   1      40.210  21.419  25.243  1.00  0.00     0.163 HD
ATOM     31  O   UNL A   1      38.210  22.545  26.010  1.00  0.00    -0.269 OA
BRANCH  29  32
ATOM     32  C   UNL A   1      39.556  24.301  26.803  1.00  0.00     0.039 A 
ATOM     33  C   UNL A   1      39.079  24.497  28.103  1.00  0.00     0.014 A 
ATOM     34  C   UNL A   1      40.224  25.339  26.147  1.00  0.00     0.014 A 
ATOM     35  C   UNL A   1      39.364  25.685  28.782  1.00  0.00     0.010 A 
ATOM     36  C   UNL A   1      40.560  26.500  26.845  1.00  0.00     0.010 A 
ATOM     37  C   UNL A   1      40.156  26.673  28.177  1.00  0.00    -0.014 A 
BRANCH  37  38
ATOM     38  C   UNL A   1      40.632  27.856  28.942  1.00  0.00     0.031 A 
ATOM     39  C   UNL A   1      41.963  27.839  29.637  1.00  0.00     0.074 A 
ATOM     40  C   UNL A   1      39.816  28.921  29.085  1.00  0.00     0.049 A 
ATOM     41  N   UNL A   1      42.485  28.732  30.439  1.00  0.00    -0.248 NA
ATOM     42  C   UNL A   1      42.812  26.658  29.419  1.00  0.00     0.031 C 
ATOM     43  C   UNL A   1      38.483  29.053  28.492  1.00  0.00     0.029 A 
ATOM     44  N   UNL A   1      39.982  30.090  29.786  1.00  0.00    -0.354 N 
ATOM     45  C   UNL A   1      43.708  28.213  30.843  1.00  0.00     0.074 A 
ATOM     46  C   UNL A   1      43.840  26.914  30.216  1.00  0.00     0.031 C 
ATOM     47  C   UNL A   1      37.961  30.240  28.841  1.00  0.00     0.029 A 
ATOM     48  C   UNL A   1      38.901  30.936  29.714  1.00  0.00     0.049 A 
ATOM     49  H   UNL A   1      40.799  30.302  30.292  1.00  0.00     0.167 HD
ATOM     50  C   UNL A   1      44.642  28.769  31.652  1.00  0.00     0.031 A 
ATOM     51  C   UNL A   1      38.679  32.132  30.292  1.00  0.00     0.031 A 
ATOM     52  C   UNL A   1      44.524  30.069  32.258  1.00  0.00     0.049 A 
ATOM     53  C   UNL A   1      39.730  32.731  31.182  1.00  0.00     0.074 A 
ATOM     54  C   UNL A   1      45.443  30.734  33.053  1.00  0.00     0.029 A 
ATOM     55  N   UNL A   1      43.424  30.903  32.137  1.00  0.00    -0.354 N 
ATOM     56  N   UNL A   1      40.898  32.239  31.518  1.00  0.00    -0.248 NA
ATOM     57  C   UNL A   1      39.436  34.047  31.767  1.00  0.00     0.031 C 
ATOM     58  C   UNL A   1      44.884  31.957  33.438  1.00  0.00     0.029 A 
ATOM     59  C   UNL A   1      43.634  32.070  32.852  1.00  0.00     0.049 A 
ATOM     60  H   UNL A   1      42.613  30.697  31.618  1.00  0.00     0.167 HD
ATOM     61  C   UNL A   1      41.488  33.195  32.336  1.00  0.00     0.074 A 
ATOM     62  C   UNL A   1      40.553  34.296  32.441  1.00  0.00     0.031 C 
ATOM     63  C   UNL A   1      42.699  33.161  32.944  1.00  0.00     0.031 A 
BRANCH  50  64
ATOM     64  C   UNL A   1      45.876  27.961  31.939  1.00  0.00    -0.014 A 
ATOM     65  C   UNL A   1      45.893  27.008  32.973  1.00  0.00     0.010 A 
ATOM     66  C   UNL A   1      47.024  28.134  31.146  1.00  0.00     0.010 A 
ATOM     67  C   UNL A   1      47.052  26.275  33.239  1.00  0.00     0.020 A 
ATOM     68  C   UNL A   1      48.178  27.388  31.394  1.00  0.00     0.020 A 
ATOM     69  C   UNL A   1      48.191  26.477  32.454  1.00  0.00     0.054 A 
BRANCH  69  70
ATOM     70  S   UNL A   1      49.687  25.517  32.817  1.00  0.00     0.124 S 
ATOM     71  O   UNL A   1      50.010  24.964  31.504  1.00  0.00    -0.237 OA
ATOM     72  O   UNL A   1      50.610  26.531  33.318  1.00  0.00    -0.237 OA
ATOM     73  O   UNL A   1      49.238  24.544  33.810  1.00  0.00    -0.744 OA
ENDBRANCH  69  70
ENDBRANCH  50  64
BRANCH  51  74
ATOM     74  C   UNL A   1      37.401  32.847  30.040  1.00  0.00    -0.014 A 
ATOM     75  C   UNL A   1      37.207  33.548  28.837  1.00  0.00     0.010 A 
ATOM     76  C   UNL A   1      36.362  32.807  30.988  1.00  0.00     0.010 A 
ATOM     77  C   UNL A   1      35.999  34.207  28.591  1.00  0.00     0.020 A 
ATOM     78  C   UNL A   1      35.147  33.447  30.736  1.00  0.00     0.020 A 
ATOM     79  C   UNL A   1      34.976  34.152  29.542  1.00  0.00     0.054 A 
BRANCH  79  80
ATOM     80  S   UNL A   1      33.392  34.960  29.178  1.00  0.00     0.124 S 
ATOM     81  O   UNL A   1      33.826  36.234  28.613  1.00  0.00    -0.237 OA
ATOM     82  O   UNL A   1      32.767  34.031  28.240  1.00  0.00    -0.237 OA
ATOM     83  O   UNL A   1      32.746  35.040  30.486  1.00  0.00    -0.744 OA
ENDBRANCH  79  80
ENDBRANCH  51  74
BRANCH  63  84
ATOM     84  C   UNL A   1      43.103  34.361  33.753  1.00  0.00    -0.014 A 
ATOM     85  C   UNL A   1      42.656  34.525  35.076  1.00  0.00     0.010 A 
ATOM     86  C   UNL A   1      44.002  35.295  33.208  1.00  0.00     0.010 A 
ATOM     87  C   UNL A   1      43.093  35.613  35.836  1.00  0.00     0.020 A 
ATOM     88  C   UNL A   1      44.454  36.374  33.972  1.00  0.00     0.020 A 
ATOM     89  C   UNL A   1      43.991  36.530  35.280  1.00  0.00     0.054 A 
BRANCH  89  90
ATOM     90  S   UNL A   1      44.602  37.894  36.308  1.00  0.00     0.124 S 
ATOM     91  O   UNL A   1      46.047  37.703  36.238  1.00  0.00    -0.237 OA
ATOM     92  O   UNL A   1      44.090  39.075  35.617  1.00  0.00    -0.237 OA
ATOM     93  O   UNL A   1      44.001  37.636  37.616  1.00  0.00    -0.744 OA
ENDBRANCH  89  90
ENDBRANCH  63  84
ENDBRANCH  37  38
ENDBRANCH  29  32
ENDBRANCH  27  28
ENDBRANCH  26  27
ENDBRANCH   1  26
TORSDOF 18
ENDMDL
MODEL 2
REMARK VINA RESULT:      -8.3      5.489     12.686
REMARK SMILES O=C(CCc1ccc(S(=O)(=O)Nc2cccc(I)c2)cc1)NCCCNC(=O)c1ccc(-c2c3nc(c(-c4ccc(S(=O)(=O)[O-])cc4)c4ccc([nH]4)c(-c4ccc(S(=O)(=O)[O-])cc4)c4nc(c(-c5ccc(S(=O)(=O)[O-])cc5)c5ccc2[nH]5)C=C4)C=C3)cc1
REMARK SMILES IDX 23 1 22 2 1 3 2 4 3 6 4 7 5 8 6 9 21 10 7 11 20 12 8 13 9 14
REMARK SMILES IDX 10 15 11 16 12 17 13 19 14 20 19 21 15 22 17 23 16 24 18 25
REMARK SMILES IDX 24 26 25 27 26 28 27 29 28 31 29 32 30 33 88 34 31 35 87 36
REMARK SMILES IDX 32 37 33 38 34 39 81 40 35 41 86 42 80 43 82 44 36 45 85 46
REMARK SMILES IDX 79 47 78 48 37 50 67 51 48 52 66 53 49 54 52 55 65 56 83 57
REMARK SMILES IDX 50 58 51 59 64 61 84 62 53 63 38 64 39 65 47 66 40 67 46 68
REMARK SMILES IDX 41 69 42 70 43 71 44 72 45 73 68 74 69 75 77 76 70 77 76 78
REMARK SMILES IDX 71 79 72 80 73 81 74 82 75 83 54 84 55 85 63 86 56 87 62 88
REMARK SMILES IDX 57 89 58 90 59 91 60 92 61 93
REMARK H PARENT 22 5 12 18 26 30 82 49 52 60
REMARK Flexibility Score: inf
ROOT
ATOM      1  C   UNL A   1      34.257  32.000  28.171  1.00  0.00     0.117 C 
ENDROOT
BRANCH   1   2
ATOM      2  N   UNL A   1      34.303  30.562  28.005  1.00  0.00    -0.356 N 
ATOM      3  O   UNL A   1      32.923  30.455  26.167  1.00  0.00    -0.275 OA
ATOM      4  C   UNL A   1      33.668  29.910  26.973  1.00  0.00     0.220 C 
ATOM      5  H   UNL A   1      34.811  30.029  28.659  1.00  0.00     0.163 HD
BRANCH   4   6
ATOM      6  C   UNL A   1      34.011  28.437  26.884  1.00  0.00     0.105 C 
BRANCH   6   7
ATOM      7  C   UNL A   1      33.023  27.698  25.981  1.00  0.00     0.045 C 
BRANCH   7   8
ATOM      8  C   UNL A   1      33.200  26.196  25.961  1.00  0.00    -0.047 A 
ATOM      9  C   UNL A   1      32.191  25.357  26.454  1.00  0.00     0.005 A 
ATOM     10  C   UNL A   1      34.367  25.618  25.442  1.00  0.00     0.005 A 
ATOM     11  C   UNL A   1      32.366  23.971  26.470  1.00  0.00     0.022 A 
ATOM     12  C   UNL A   1      34.517  24.231  25.399  1.00  0.00     0.022 A 
ATOM     13  C   UNL A   1      33.542  23.408  25.963  1.00  0.00     0.087 A 
BRANCH  13  14
ATOM     14  S   UNL A   1      33.770  21.655  26.206  1.00  0.00     0.261 S 
ATOM     15  O   UNL A   1      34.915  21.270  25.404  1.00  0.00    -0.201 OA
ATOM     16  O   UNL A   1      33.747  21.437  27.632  1.00  0.00    -0.201 OA
BRANCH  14  17
ATOM     17  N   UNL A   1      32.413  20.877  25.614  1.00  0.00    -0.280 N 
ATOM     18  H   UNL A   1      31.540  21.288  25.807  1.00  0.00     0.180 HD
BRANCH  17  19
ATOM     19  C   UNL A   1      32.413  19.674  24.857  1.00  0.00     0.050 A 
ATOM     20  C   UNL A   1      32.296  19.807  23.468  1.00  0.00     0.027 A 
ATOM     21  C   UNL A   1      32.615  18.410  25.412  1.00  0.00     0.041 A 
ATOM     22  C   UNL A   1      32.472  18.703  22.635  1.00  0.00     0.003 A 
ATOM     23  C   UNL A   1      32.810  17.311  24.573  1.00  0.00     0.015 A 
ATOM     24  C   UNL A   1      32.752  17.454  23.187  1.00  0.00     0.015 A 
ATOM     25  I   UNL A   1      33.265  15.457  25.399  1.00  0.00    -0.044 I 
ENDBRANCH  17  19
ENDBRANCH  14  17
ENDBRANCH  13  14
ENDBRANCH   7   8
ENDBRANCH   6   7
ENDBRANCH   4   6
ENDBRANCH   1   2
BRANCH   1  26
ATOM     26  C   UNL A   1      35.586  32.668  27.841  1.00  0.00     0.042 C 
BRANCH  26  27
ATOM     27  C   UNL A   1      36.578  32.754  29.001  1.00  0.00     0.118 C 
BRANCH  27  28
ATOM     28  N   UNL A   1      36.095  32.136  30.224  1.00  0.00    -0.352 N 
ATOM     29  C   UNL A   1      36.524  30.988  30.854  1.00  0.00     0.251 C 
ATOM     30  H   UNL A   1      35.352  32.605  30.668  1.00  0.00     0.163 HD
ATOM     31  O   UNL A   1      35.837  30.491  31.742  1.00  0.00    -0.269 OA
BRANCH  29  32
ATOM     32  C   UNL A   1      37.776  30.317  30.426  1.00  0.00     0.039 A 
ATOM     33  C   UNL A   1      38.023  30.178  29.056  1.00  0.00     0.014 A 
ATOM     34  C   UNL A   1      38.712  29.842  31.350  1.00  0.00     0.014 A 
ATOM     35  C   UNL A   1      39.247  29.666  28.614  1.00  0.00     0.010 A 
ATOM     36  C   UNL A   1      39.956  29.387  30.909  1.00  0.00     0.010 A 
ATOM     37  C   UNL A   1      40.245  29.320  29.538  1.00  0.00    -0.014 A 
BRANCH  37  38
ATOM     38  C   UNL A   1      41.616  28.956  29.093  1.00  0.00     0.031 A 
ATOM     39  C   UNL A   1      42.700  29.992  29.013  1.00  0.00     0.074 A 
ATOM     40  C   UNL A   1      41.860  27.698  28.672  1.00  0.00     0.049 A 
ATOM     41  N   UNL A   1      43.915  29.878  28.539  1.00  0.00    -0.248 NA
ATOM     42  C   UNL A   1      42.372  31.337  29.510  1.00  0.00     0.031 C 
ATOM     43  C   UNL A   1      40.888  26.602  28.663  1.00  0.00     0.029 A 
ATOM     44  N   UNL A   1      43.000  27.130  28.155  1.00  0.00    -0.354 N 
ATOM     45  C   UNL A   1      44.489  31.138  28.657  1.00  0.00     0.074 A 
ATOM     46  C   UNL A   1      43.480  32.008  29.224  1.00  0.00     0.031 C 
ATOM     47  C   UNL A   1      41.475  25.495  28.182  1.00  0.00     0.029 A 
ATOM     48  C   UNL A   1      42.851  25.809  27.809  1.00  0.00     0.049 A 
ATOM     49  H   UNL A   1      43.844  27.625  28.043  1.00  0.00     0.167 HD
ATOM     50  C   UNL A   1      45.744  31.532  28.334  1.00  0.00     0.031 A 
ATOM     51  C   UNL A   1      43.715  24.944  27.245  1.00  0.00     0.031 A 
ATOM     52  C   UNL A   1      46.757  30.665  27.791  1.00  0.00     0.049 A 
ATOM     53  C   UNL A   1      45.103  25.403  26.898  1.00  0.00     0.074 A 
ATOM     54  C   UNL A   1      48.072  30.969  27.480  1.00  0.00     0.029 A 
ATOM     55  N   UNL A   1      46.571  29.327  27.482  1.00  0.00    -0.354 N 
ATOM     56  N   UNL A   1      45.637  26.590  27.056  1.00  0.00    -0.248 NA
ATOM     57  C   UNL A   1      46.005  24.407  26.303  1.00  0.00     0.031 C 
ATOM     58  C   UNL A   1      48.672  29.820  26.952  1.00  0.00     0.029 A 
ATOM     59  C   UNL A   1      47.742  28.793  26.971  1.00  0.00     0.049 A 
ATOM     60  H   UNL A   1      45.731  28.829  27.608  1.00  0.00     0.167 HD
ATOM     61  C   UNL A   1      46.945  26.478  26.600  1.00  0.00     0.074 A 
ATOM     62  C   UNL A   1      47.124  25.108  26.166  1.00  0.00     0.031 C 
ATOM     63  C   UNL A   1      47.910  27.427  26.548  1.00  0.00     0.031 A 
BRANCH  50  64
ATOM     64  C   UNL A   1      46.089  32.980  28.549  1.00  0.00    -0.014 A 
ATOM     65  C   UNL A   1      46.611  33.425  29.777  1.00  0.00     0.010 A 
ATOM     66  C   UNL A   1      45.918  33.900  27.501  1.00  0.00     0.010 A 
ATOM     67  C   UNL A   1      46.911  34.775  29.967  1.00  0.00     0.020 A 
ATOM     68  C   UNL A   1      46.239  35.249  27.680  1.00  0.00     0.020 A 
ATOM     69  C   UNL A   1      46.714  35.681  28.921  1.00  0.00     0.054 A 
BRANCH  69  70
ATOM     70  S   UNL A   1      47.109  37.431  29.190  1.00  0.00     0.124 S 
ATOM     71  O   UNL A   1      46.696  37.618  30.579  1.00  0.00    -0.237 OA
ATOM     72  O   UNL A   1      48.549  37.479  28.950  1.00  0.00    -0.237 OA
ATOM     73  O   UNL A   1      46.292  38.125  28.198  1.00  0.00    -0.744 OA
ENDBRANCH  69  70
ENDBRANCH  50  64
BRANCH  51  74
ATOM     74  C   UNL A   1      43.290  23.545  26.975  1.00  0.00    -0.014 A 
ATOM     75  C   UNL A   1      43.091  23.107  25.655  1.00  0.00     0.010 A 
ATOM     76  C   UNL A   1      43.108  22.639  28.035  1.00  0.00     0.010 A 
ATOM     77  C   UNL A   1      42.707  21.788  25.399  1.00  0.00     0.020 A 
ATOM     78  C   UNL A   1      42.744  21.314  27.781  1.00  0.00     0.020 A 
ATOM     79  C   UNL A   1      42.537  20.899  26.464  1.00  0.00     0.054 A 
BRANCH  79  80
ATOM     80  S   UNL A   1      42.100  19.174  26.109  1.00  0.00     0.124 S 
ATOM     81  O   UNL A   1      43.011  18.850  25.016  1.00  0.00    -0.237 OA
ATOM     82  O   UNL A   1      42.372  18.508  27.379  1.00  0.00    -0.237 OA
ATOM     83  O   UNL A   1      40.686  19.252  25.746  1.00  0.00    -0.744 OA
ENDBRANCH  79  80
ENDBRANCH  51  74
BRANCH  63  84
ATOM     84  C   UNL A   1      49.261  27.017  26.033  1.00  0.00    -0.014 A 
ATOM     85  C   UNL A   1      49.583  27.138  24.670  1.00  0.00     0.010 A 
ATOM     86  C   UNL A   1      50.244  26.577  26.938  1.00  0.00     0.010 A 
ATOM     87  C   UNL A   1      50.865  26.813  24.219  1.00  0.00     0.020 A 
ATOM     88  C   UNL A   1      51.532  26.268  26.491  1.00  0.00     0.020 A 
ATOM     89  C   UNL A   1      51.832  26.381  25.132  1.00  0.00     0.054 A 
BRANCH  89  90
ATOM     90  S   UNL A   1      53.510  26.034  24.536  1.00  0.00     0.124 S 
ATOM     91  O   UNL A   1      53.542  24.575  24.555  1.00  0.00    -0.237 OA
ATOM     92  O   UNL A   1      53.515  26.646  23.209  1.00  0.00    -0.237 OA
ATOM     93  O   UNL A   1      54.368  26.690  25.521  1.00  0.00    -0.744 OA
ENDBRANCH  89  90
ENDBRANCH  63  84
ENDBRANCH  37  38
ENDBRANCH  29  32
ENDBRANCH  27  28
ENDBRANCH  26  27
ENDBRANCH   1  26
TORSDOF 18
ENDMDL
MODEL 3
REMARK VINA RESULT:      -7.9      4.604     10.635
REMARK SMILES O=C(CCc1ccc(S(=O)(=O)Nc2cccc(I)c2)cc1)NCCCNC(=O)c1ccc(-c2c3nc(c(-c4ccc(S(=O)(=O)[O-])cc4)c4ccc([nH]4)c(-c4ccc(S(=O)(=O)[O-])cc4)c4nc(c(-c5ccc(S(=O)(=O)[O-])cc5)c5ccc2[nH]5)C=C4)C=C3)cc1
REMARK SMILES IDX 23 1 22 2 1 3 2 4 3 6 4 7 5 8 6 9 21 10 7 11 20 12 8 13 9 14
REMARK SMILES IDX 10 15 11 16 12 17 13 19 14 20 19 21 15 22 17 23 16 24 18 25
REMARK SMILES IDX 24 26 25 27 26 28 27 29 28 31 29 32 30 33 88 34 31 35 87 36
REMARK SMILES IDX 32 37 33 38 34 39 81 40 35 41 86 42 80 43 82 44 36 45 85 46
REMARK SMILES IDX 79 47 78 48 37 50 67 51 48 52 66 53 49 54 52 55 65 56 83 57
REMARK SMILES IDX 50 58 51 59 64 61 84 62 53 63 38 64 39 65 47 66 40 67 46 68
REMARK SMILES IDX 41 69 42 70 43 71 44 72 45 73 68 74 69 75 77 76 70 77 76 78
REMARK SMILES IDX 71 79 72 80 73 81 74 82 75 83 54 84 55 85 63 86 56 87 62 88
REMARK SMILES IDX 57 89 58 90 59 91 60 92 61 93
REMARK H PARENT 22 5 12 18 26 30 82 49 52 60
REMARK Flexibility Score: inf
ROOT
ATOM      1  C   UNL A   1      42.019  22.175  27.727  1.00  0.00     0.117 C 
ENDROOT
BRANCH   1   2
ATOM      2  N   UNL A   1      40.751  22.494  27.106  1.00  0.00    -0.356 N 
ATOM      3  O   UNL A   1      40.333  20.401  26.248  1.00  0.00    -0.275 OA
ATOM      4  C   UNL A   1      39.981  21.556  26.458  1.00  0.00     0.220 C 
ATOM      5  H   UNL A   1      40.426  23.423  27.150  1.00  0.00     0.163 HD
BRANCH   4   6
ATOM      6  C   UNL A   1      38.612  22.067  26.058  1.00  0.00     0.105 C 
BRANCH   6   7
ATOM      7  C   UNL A   1      37.962  21.142  25.028  1.00  0.00     0.045 C 
BRANCH   7   8
ATOM      8  C   UNL A   1      36.561  21.545  24.624  1.00  0.00    -0.047 A 
ATOM      9  C   UNL A   1      36.354  22.664  23.806  1.00  0.00     0.005 A 
ATOM     10  C   UNL A   1      35.451  20.805  25.052  1.00  0.00     0.005 A 
ATOM     11  C   UNL A   1      35.060  23.061  23.460  1.00  0.00     0.022 A 
ATOM     12  C   UNL A   1      34.161  21.163  24.656  1.00  0.00     0.022 A 
ATOM     13  C   UNL A   1      33.959  22.321  23.907  1.00  0.00     0.087 A 
BRANCH  13  14
ATOM     14  S   UNL A   1      32.343  23.008  23.592  1.00  0.00     0.261 S 
ATOM     15  O   UNL A   1      31.667  22.087  22.700  1.00  0.00    -0.201 OA
ATOM     16  O   UNL A   1      31.788  23.346  24.881  1.00  0.00    -0.201 OA
BRANCH  14  17
ATOM     17  N   UNL A   1      32.553  24.466  22.801  1.00  0.00    -0.280 N 
ATOM     18  H   UNL A   1      32.912  24.433  21.885  1.00  0.00     0.180 HD
BRANCH  17  19
ATOM     19  C   UNL A   1      32.257  25.749  23.337  1.00  0.00     0.050 A 
ATOM     20  C   UNL A   1      31.031  26.315  22.969  1.00  0.00     0.027 A 
ATOM     21  C   UNL A   1      33.070  26.408  24.261  1.00  0.00     0.041 A 
ATOM     22  C   UNL A   1      30.576  27.479  23.589  1.00  0.00     0.003 A 
ATOM     23  C   UNL A   1      32.601  27.562  24.892  1.00  0.00     0.015 A 
ATOM     24  C   UNL A   1      31.353  28.093  24.569  1.00  0.00     0.015 A 
ATOM     25  I   UNL A   1      33.746  28.455  26.381  1.00  0.00    -0.044 I 
ENDBRANCH  17  19
ENDBRANCH  14  17
ENDBRANCH  13  14
ENDBRANCH   7   8
ENDBRANCH   6   7
ENDBRANCH   4   6
ENDBRANCH   1   2
BRANCH   1  26
ATOM     26  C   UNL A   1      43.201  22.410  26.794  1.00  0.00     0.042 C 
BRANCH  26  27
ATOM     27  C   UNL A   1      43.706  23.852  26.733  1.00  0.00     0.118 C 
BRANCH  27  28
ATOM     28  N   UNL A   1      42.988  24.678  25.776  1.00  0.00    -0.352 N 
ATOM     29  C   UNL A   1      42.145  25.744  26.000  1.00  0.00     0.251 C 
ATOM     30  H   UNL A   1      43.123  24.441  24.831  1.00  0.00     0.163 HD
ATOM     31  O   UNL A   1      41.441  26.162  25.084  1.00  0.00    -0.269 OA
BRANCH  29  32
ATOM     32  C   UNL A   1      42.038  26.351  27.349  1.00  0.00     0.039 A 
ATOM     33  C   UNL A   1      42.883  27.419  27.668  1.00  0.00     0.014 A 
ATOM     34  C   UNL A   1      41.110  25.898  28.291  1.00  0.00     0.014 A 
ATOM     35  C   UNL A   1      42.728  28.097  28.880  1.00  0.00     0.010 A 
ATOM     36  C   UNL A   1      40.914  26.612  29.474  1.00  0.00     0.010 A 
ATOM     37  C   UNL A   1      41.703  27.734  29.768  1.00  0.00    -0.014 A 
BRANCH  37  38
ATOM     38  C   UNL A   1      41.394  28.556  30.968  1.00  0.00     0.031 A 
ATOM     39  C   UNL A   1      40.279  29.561  30.948  1.00  0.00     0.074 A 
ATOM     40  C   UNL A   1      42.185  28.456  32.056  1.00  0.00     0.049 A 
ATOM     41  N   UNL A   1      39.945  30.440  31.859  1.00  0.00    -0.248 NA
ATOM     42  C   UNL A   1      39.442  29.600  29.739  1.00  0.00     0.031 C 
ATOM     43  C   UNL A   1      43.325  27.545  32.197  1.00  0.00     0.029 A 
ATOM     44  N   UNL A   1      42.161  29.139  33.248  1.00  0.00    -0.354 N 
ATOM     45  C   UNL A   1      38.878  31.153  31.326  1.00  0.00     0.074 A 
ATOM     46  C   UNL A   1      38.636  30.620  30.002  1.00  0.00     0.031 C 
ATOM     47  C   UNL A   1      43.878  27.715  33.408  1.00  0.00     0.029 A 
ATOM     48  C   UNL A   1      43.163  28.772  34.115  1.00  0.00     0.049 A 
ATOM     49  H   UNL A   1      41.490  29.827  33.460  1.00  0.00     0.167 HD
ATOM     50  C   UNL A   1      38.158  32.152  31.892  1.00  0.00     0.031 A 
ATOM     51  C   UNL A   1      43.483  29.239  35.338  1.00  0.00     0.031 A 
ATOM     52  C   UNL A   1      38.381  32.667  33.217  1.00  0.00     0.049 A 
ATOM     53  C   UNL A   1      42.668  30.344  35.946  1.00  0.00     0.074 A 
ATOM     54  C   UNL A   1      37.668  33.645  33.890  1.00  0.00     0.029 A 
ATOM     55  N   UNL A   1      39.389  32.249  34.071  1.00  0.00    -0.354 N 
ATOM     56  N   UNL A   1      41.637  30.976  35.440  1.00  0.00    -0.248 NA
ATOM     57  C   UNL A   1      43.055  30.795  37.290  1.00  0.00     0.031 C 
ATOM     58  C   UNL A   1      38.265  33.839  35.141  1.00  0.00     0.029 A 
ATOM     59  C   UNL A   1      39.326  32.956  35.260  1.00  0.00     0.049 A 
ATOM     60  H   UNL A   1      40.051  31.550  33.864  1.00  0.00     0.167 HD
ATOM     61  C   UNL A   1      41.238  31.885  36.413  1.00  0.00     0.074 A 
ATOM     62  C   UNL A   1      42.134  31.718  37.539  1.00  0.00     0.031 C 
ATOM     63  C   UNL A   1      40.219  32.777  36.375  1.00  0.00     0.031 A 
BRANCH  50  64
ATOM     64  C   UNL A   1      37.061  32.764  31.067  1.00  0.00    -0.014 A 
ATOM     65  C   UNL A   1      35.709  32.494  31.345  1.00  0.00     0.010 A 
ATOM     66  C   UNL A   1      37.384  33.643  30.019  1.00  0.00     0.010 A 
ATOM     67  C   UNL A   1      34.701  33.057  30.560  1.00  0.00     0.020 A 
ATOM     68  C   UNL A   1      36.378  34.227  29.245  1.00  0.00     0.020 A 
ATOM     69  C   UNL A   1      35.042  33.912  29.508  1.00  0.00     0.054 A 
BRANCH  69  70
ATOM     70  S   UNL A   1      33.717  34.631  28.498  1.00  0.00     0.124 S 
ATOM     71  O   UNL A   1      33.627  33.672  27.400  1.00  0.00    -0.237 OA
ATOM     72  O   UNL A   1      32.581  34.646  29.416  1.00  0.00    -0.237 OA
ATOM     73  O   UNL A   1      34.237  35.947  28.135  1.00  0.00    -0.744 OA
ENDBRANCH  69  70
ENDBRANCH  50  64
BRANCH  51  74
ATOM     74  C   UNL A   1      44.635  28.652  36.072  1.00  0.00    -0.014 A 
ATOM     75  C   UNL A   1      45.915  29.220  35.952  1.00  0.00     0.010 A 
ATOM     76  C   UNL A   1      44.451  27.543  36.917  1.00  0.00     0.010 A 
ATOM     77  C   UNL A   1      46.996  28.680  36.655  1.00  0.00     0.020 A 
ATOM     78  C   UNL A   1      45.525  27.014  37.636  1.00  0.00     0.020 A 
ATOM     79  C   UNL A   1      46.794  27.581  37.494  1.00  0.00     0.054 A 
BRANCH  79  80
ATOM     80  S   UNL A   1      48.195  26.933  38.447  1.00  0.00     0.124 S 
ATOM     81  O   UNL A   1      49.319  27.206  37.557  1.00  0.00    -0.237 OA
ATOM     82  O   UNL A   1      48.146  27.732  39.669  1.00  0.00    -0.237 OA
ATOM     83  O   UNL A   1      47.861  25.521  38.622  1.00  0.00    -0.744 OA
ENDBRANCH  79  80
ENDBRANCH  51  74
BRANCH  63  84
ATOM     84  C   UNL A   1      39.990  33.623  37.595  1.00  0.00    -0.014 A 
ATOM     85  C   UNL A   1      40.542  34.912  37.696  1.00  0.00     0.010 A 
ATOM     86  C   UNL A   1      39.151  33.150  38.620  1.00  0.00     0.010 A 
ATOM     87  C   UNL A   1      40.266  35.711  38.809  1.00  0.00     0.020 A 
ATOM     88  C   UNL A   1      38.859  33.954  39.726  1.00  0.00     0.020 A 
ATOM     89  C   UNL A   1      39.425  35.228  39.816  1.00  0.00     0.054 A 
BRANCH  89  90
ATOM     90  S   UNL A   1      39.023  36.308  41.217  1.00  0.00     0.124 S 
ATOM     91  O   UNL A   1      37.881  35.620  41.812  1.00  0.00    -0.237 OA
ATOM     92  O   UNL A   1      40.252  36.286  42.006  1.00  0.00    -0.237 OA
ATOM     93  O   UNL A   1      38.719  37.591  40.586  1.00  0.00    -0.744 OA
ENDBRANCH  89  90
ENDBRANCH  63  84
ENDBRANCH  37  38
ENDBRANCH  29  32
ENDBRANCH  27  28
ENDBRANCH  26  27
ENDBRANCH   1  26
TORSDOF 18
ENDMDL
