MODEL 1
REMARK VINA RESULT:      -9.7      0.000      0.000
REMARK SMILES Cn1ncc(SCC(=O)NCCCNC(=O)c2ccc(-c3c4nc(c(-c5ccc(S(=O)(=O)[O-])cc5)c5ccc([nH]5)c(-c5ccc(S(=O)(=O)[O-])cc5)c5nc(c(-c6ccc(S(=O)(=O)[O-])cc6)c6ccc3[nH]6)C=C5)C=C4)cc2)c(Cl)c1=O
REMARK SMILES IDX 12 1 11 2 10 3 8 4 9 5 7 7 6 8 5 9 1 10 2 11 3 12 79 13 4 14
REMARK SMILES IDX 77 15 80 16 78 17 13 18 14 19 15 20 16 22 17 23 18 24 76 25
REMARK SMILES IDX 19 26 75 27 20 28 21 29 22 30 69 31 23 32 74 33 68 34 70 35
REMARK SMILES IDX 24 36 73 37 67 38 66 39 25 41 55 42 36 43 54 44 37 45 40 46
REMARK SMILES IDX 53 47 71 48 38 49 39 50 52 52 72 53 41 54 26 55 27 56 35 57
REMARK SMILES IDX 28 58 34 59 29 60 30 61 31 62 32 63 33 64 56 65 57 66 65 67
REMARK SMILES IDX 58 68 64 69 59 70 60 71 61 72 62 73 63 74 42 75 43 76 51 77
REMARK SMILES IDX 44 78 50 79 45 80 46 81 47 82 48 83 49 84
REMARK H PARENT 10 6 14 21 70 40 40 51
REMARK Flexibility Score: inf
ROOT
ATOM      1  C   UNL A   1      41.338  20.401  26.403  1.00  0.00     0.042 C 
ENDROOT
BRANCH   1   2
ATOM      2  C   UNL A   1      42.826  20.736  26.447  1.00  0.00     0.117 C 
BRANCH   2   3
ATOM      3  N   UNL A   1      43.295  21.231  25.166  1.00  0.00    -0.355 N 
ATOM      4  C   UNL A   1      44.176  22.227  24.876  1.00  0.00     0.230 C 
ATOM      5  O   UNL A   1      44.317  22.534  23.691  1.00  0.00    -0.274 OA
ATOM      6  H   UNL A   1      42.915  20.772  24.381  1.00  0.00     0.163 HD
BRANCH   4   7
ATOM      7  C   UNL A   1      45.000  22.874  25.966  1.00  0.00     0.175 C 
BRANCH   7   8
ATOM      8  S   UNL A   1      44.518  24.555  26.395  1.00  0.00    -0.113 SA
BRANCH   8   9
ATOM      9  C   UNL A   1      45.606  25.657  25.624  1.00  0.00     0.052 A 
ATOM     10  C   UNL A   1      48.493  27.484  23.095  1.00  0.00     0.178 C 
ATOM     11  N   UNL A   1      47.522  26.884  23.991  1.00  0.00    -0.232 N 
ATOM     12  N   UNL A   1      47.627  25.536  24.186  1.00  0.00    -0.177 NA
ATOM     13  C   UNL A   1      46.568  27.688  24.602  1.00  0.00     0.286 A 
ATOM     14  C   UNL A   1      46.744  24.986  24.950  1.00  0.00     0.150 A 
ATOM     15  C   UNL A   1      45.517  26.974  25.400  1.00  0.00     0.123 A 
ATOM     16  O   UNL A   1      46.552  28.913  24.474  1.00  0.00    -0.266 OA
ATOM     17  Cl  UNL A   1      44.180  27.960  25.884  1.00  0.00    -0.077 Cl
ENDBRANCH   8   9
ENDBRANCH   7   8
ENDBRANCH   4   7
ENDBRANCH   2   3
ENDBRANCH   1   2
BRANCH   1  18
ATOM     18  C   UNL A   1      40.442  21.465  27.036  1.00  0.00     0.118 C 
BRANCH  18  19
ATOM     19  N   UNL A   1      39.290  21.789  26.206  1.00  0.00    -0.352 N 
ATOM     20  C   UNL A   1      38.577  22.959  26.126  1.00  0.00     0.251 C 
ATOM     21  H   UNL A   1      38.977  21.064  25.619  1.00  0.00     0.163 HD
ATOM     22  O   UNL A   1      37.510  22.986  25.520  1.00  0.00    -0.269 OA
BRANCH  20  23
ATOM     23  C   UNL A   1      39.090  24.178  26.783  1.00  0.00     0.039 A 
ATOM     24  C   UNL A   1      39.904  25.049  26.055  1.00  0.00     0.014 A 
ATOM     25  C   UNL A   1      38.780  24.449  28.120  1.00  0.00     0.014 A 
ATOM     26  C   UNL A   1      40.365  26.223  26.652  1.00  0.00     0.010 A 
ATOM     27  C   UNL A   1      39.196  25.646  28.696  1.00  0.00     0.010 A 
ATOM     28  C   UNL A   1      39.998  26.539  27.970  1.00  0.00    -0.014 A 
BRANCH  28  29
ATOM     29  C   UNL A   1      40.481  27.783  28.617  1.00  0.00     0.031 A 
ATOM     30  C   UNL A   1      41.889  27.851  29.140  1.00  0.00     0.074 A 
ATOM     31  C   UNL A   1      39.649  28.833  28.763  1.00  0.00     0.049 A 
ATOM     32  N   UNL A   1      42.484  28.833  29.765  1.00  0.00    -0.248 NA
ATOM     33  C   UNL A   1      42.733  26.658  28.951  1.00  0.00     0.031 C 
ATOM     34  C   UNL A   1      38.253  28.876  28.321  1.00  0.00     0.029 A 
ATOM     35  N   UNL A   1      39.856  30.065  29.331  1.00  0.00    -0.354 N 
ATOM     36  C   UNL A   1      43.765  28.376  30.050  1.00  0.00     0.074 A 
ATOM     37  C   UNL A   1      43.852  27.017  29.565  1.00  0.00     0.031 C 
ATOM     38  C   UNL A   1      37.735  30.079  28.623  1.00  0.00     0.029 A 
ATOM     39  C   UNL A   1      38.750  30.882  29.301  1.00  0.00     0.049 A 
ATOM     40  H   UNL A   1      40.716  30.339  29.725  1.00  0.00     0.167 HD
ATOM     41  C   UNL A   1      44.783  29.040  30.643  1.00  0.00     0.031 A 
ATOM     42  C   UNL A   1      38.570  32.132  29.769  1.00  0.00     0.031 A 
ATOM     43  C   UNL A   1      44.705  30.400  31.097  1.00  0.00     0.049 A 
ATOM     44  C   UNL A   1      39.716  32.843  30.435  1.00  0.00     0.074 A 
ATOM     45  C   UNL A   1      45.708  31.173  31.655  1.00  0.00     0.029 A 
ATOM     46  N   UNL A   1      43.569  31.189  31.047  1.00  0.00    -0.354 N 
ATOM     47  N   UNL A   1      40.937  32.412  30.643  1.00  0.00    -0.248 NA
ATOM     48  C   UNL A   1      39.467  34.207  30.923  1.00  0.00     0.031 C 
ATOM     49  C   UNL A   1      45.167  32.418  31.979  1.00  0.00     0.029 A 
ATOM     50  C   UNL A   1      43.839  32.434  31.585  1.00  0.00     0.049 A 
ATOM     51  H   UNL A   1      42.699  30.906  30.683  1.00  0.00     0.167 HD
ATOM     52  C   UNL A   1      41.604  33.457  31.273  1.00  0.00     0.074 A 
ATOM     53  C   UNL A   1      40.657  34.544  31.402  1.00  0.00     0.031 C 
ATOM     54  C   UNL A   1      42.887  33.507  31.703  1.00  0.00     0.031 A 
BRANCH  41  55
ATOM     55  C   UNL A   1      46.087  28.318  30.822  1.00  0.00    -0.014 A 
ATOM     56  C   UNL A   1      47.098  28.418  29.852  1.00  0.00     0.010 A 
ATOM     57  C   UNL A   1      46.345  27.630  32.021  1.00  0.00     0.010 A 
ATOM     58  C   UNL A   1      48.350  27.841  30.078  1.00  0.00     0.020 A 
ATOM     59  C   UNL A   1      47.602  27.066  32.258  1.00  0.00     0.020 A 
ATOM     60  C   UNL A   1      48.597  27.181  31.285  1.00  0.00     0.054 A 
BRANCH  60  61
ATOM     61  S   UNL A   1      50.255  26.504  31.573  1.00  0.00     0.124 S 
ATOM     62  O   UNL A   1      50.054  25.081  31.309  1.00  0.00    -0.237 OA
ATOM     63  O   UNL A   1      51.059  27.218  30.585  1.00  0.00    -0.237 OA
ATOM     64  O   UNL A   1      50.533  26.842  32.966  1.00  0.00    -0.744 OA
ENDBRANCH  60  61
ENDBRANCH  41  55
BRANCH  42  65
ATOM     65  C   UNL A   1      37.247  32.795  29.619  1.00  0.00    -0.014 A 
ATOM     66  C   UNL A   1      36.246  32.620  30.589  1.00  0.00     0.010 A 
ATOM     67  C   UNL A   1      36.992  33.625  28.513  1.00  0.00     0.010 A 
ATOM     68  C   UNL A   1      35.010  33.259  30.454  1.00  0.00     0.020 A 
ATOM     69  C   UNL A   1      35.765  34.281  28.383  1.00  0.00     0.020 A 
ATOM     70  C   UNL A   1      34.781  34.093  29.354  1.00  0.00     0.054 A 
BRANCH  70  71
ATOM     71  S   UNL A   1      33.185  34.945  29.229  1.00  0.00     0.124 S 
ATOM     72  O   UNL A   1      33.571  36.248  28.698  1.00  0.00    -0.237 OA
ATOM     73  O   UNL A   1      32.446  34.081  28.312  1.00  0.00    -0.237 OA
ATOM     74  O   UNL A   1      32.689  34.953  30.605  1.00  0.00    -0.744 OA
ENDBRANCH  70  71
ENDBRANCH  42  65
BRANCH  54  75
ATOM     75  C   UNL A   1      43.369  34.775  32.349  1.00  0.00    -0.014 A 
ATOM     76  C   UNL A   1      44.016  35.763  31.589  1.00  0.00     0.010 A 
ATOM     77  C   UNL A   1      43.051  35.036  33.694  1.00  0.00     0.010 A 
ATOM     78  C   UNL A   1      44.332  36.996  32.163  1.00  0.00     0.020 A 
ATOM     79  C   UNL A   1      43.347  36.275  34.266  1.00  0.00     0.020 A 
ATOM     80  C   UNL A   1      43.983  37.249  33.494  1.00  0.00     0.054 A 
BRANCH  80  81
ATOM     81  S   UNL A   1      44.336  38.889  34.184  1.00  0.00     0.124 S 
ATOM     82  O   UNL A   1      43.064  39.582  33.999  1.00  0.00    -0.237 OA
ATOM     83  O   UNL A   1      44.688  38.579  35.567  1.00  0.00    -0.237 OA
ATOM     84  O   UNL A   1      45.437  39.384  33.359  1.00  0.00    -0.744 OA
ENDBRANCH  80  81
ENDBRANCH  54  75
ENDBRANCH  28  29
ENDBRANCH  20  23
ENDBRANCH  18  19
ENDBRANCH   1  18
TORSDOF 15
ENDMDL
MODEL 2
REMARK VINA RESULT:      -9.6      3.655      6.252
REMARK SMILES Cn1ncc(SCC(=O)NCCCNC(=O)c2ccc(-c3c4nc(c(-c5ccc(S(=O)(=O)[O-])cc5)c5ccc([nH]5)c(-c5ccc(S(=O)(=O)[O-])cc5)c5nc(c(-c6ccc(S(=O)(=O)[O-])cc6)c6ccc3[nH]6)C=C5)C=C4)cc2)c(Cl)c1=O
REMARK SMILES IDX 12 1 11 2 10 3 8 4 9 5 7 7 6 8 5 9 1 10 2 11 3 12 79 13 4 14
REMARK SMILES IDX 77 15 80 16 78 17 13 18 14 19 15 20 16 22 17 23 18 24 76 25
REMARK SMILES IDX 19 26 75 27 20 28 21 29 22 30 69 31 23 32 74 33 68 34 70 35
REMARK SMILES IDX 24 36 73 37 67 38 66 39 25 41 55 42 36 43 54 44 37 45 40 46
REMARK SMILES IDX 53 47 71 48 38 49 39 50 52 52 72 53 41 54 26 55 27 56 35 57
REMARK SMILES IDX 28 58 34 59 29 60 30 61 31 62 32 63 33 64 56 65 57 66 65 67
REMARK SMILES IDX 58 68 64 69 59 70 60 71 61 72 62 73 63 74 42 75 43 76 51 77
REMARK SMILES IDX 44 78 50 79 45 80 46 81 47 82 48 83 49 84
REMARK H PARENT 10 6 14 21 70 40 40 51
REMARK Flexibility Score: inf
ROOT
ATOM      1  C   UNL A   1      35.089  23.315  26.101  1.00  0.00     0.042 C 
ENDROOT
BRANCH   1   2
ATOM      2  C   UNL A   1      34.555  22.409  24.996  1.00  0.00     0.117 C 
BRANCH   2   3
ATOM      3  N   UNL A   1      34.361  23.141  23.758  1.00  0.00    -0.355 N 
ATOM      4  C   UNL A   1      33.227  23.378  23.044  1.00  0.00     0.230 C 
ATOM      5  O   UNL A   1      33.348  23.933  21.951  1.00  0.00    -0.274 OA
ATOM      6  H   UNL A   1      35.181  23.528  23.373  1.00  0.00     0.163 HD
BRANCH   4   7
ATOM      7  C   UNL A   1      31.868  23.036  23.612  1.00  0.00     0.175 C 
BRANCH   7   8
ATOM      8  S   UNL A   1      30.566  24.227  23.254  1.00  0.00    -0.113 SA
BRANCH   8   9
ATOM      9  C   UNL A   1      30.765  25.595  24.294  1.00  0.00     0.052 A 
ATOM     10  C   UNL A   1      31.740  28.208  27.502  1.00  0.00     0.178 C 
ATOM     11  N   UNL A   1      31.371  27.338  26.400  1.00  0.00    -0.232 N 
ATOM     12  N   UNL A   1      31.167  26.023  26.707  1.00  0.00    -0.177 NA
ATOM     13  C   UNL A   1      31.233  27.873  25.125  1.00  0.00     0.286 A 
ATOM     14  C   UNL A   1      30.877  25.233  25.728  1.00  0.00     0.150 A 
ATOM     15  C   UNL A   1      30.989  26.887  24.021  1.00  0.00     0.123 A 
ATOM     16  O   UNL A   1      31.339  29.078  24.896  1.00  0.00    -0.266 OA
ATOM     17  Cl  UNL A   1      31.131  27.539  22.424  1.00  0.00    -0.077 Cl
ENDBRANCH   8   9
ENDBRANCH   7   8
ENDBRANCH   4   7
ENDBRANCH   2   3
ENDBRANCH   1   2
BRANCH   1  18
ATOM     18  C   UNL A   1      36.486  23.872  25.826  1.00  0.00     0.118 C 
BRANCH  18  19
ATOM     19  N   UNL A   1      37.518  22.849  25.903  1.00  0.00    -0.352 N 
ATOM     20  C   UNL A   1      38.828  22.962  26.298  1.00  0.00     0.251 C 
ATOM     21  H   UNL A   1      37.237  21.945  25.631  1.00  0.00     0.163 HD
ATOM     22  O   UNL A   1      39.609  22.034  26.105  1.00  0.00    -0.269 OA
BRANCH  20  23
ATOM     23  C   UNL A   1      39.296  24.207  26.939  1.00  0.00     0.039 A 
ATOM     24  C   UNL A   1      40.039  25.119  26.185  1.00  0.00     0.014 A 
ATOM     25  C   UNL A   1      39.017  24.463  28.285  1.00  0.00     0.014 A 
ATOM     26  C   UNL A   1      40.457  26.317  26.767  1.00  0.00     0.010 A 
ATOM     27  C   UNL A   1      39.388  25.681  28.848  1.00  0.00     0.010 A 
ATOM     28  C   UNL A   1      40.117  26.614  28.097  1.00  0.00    -0.014 A 
BRANCH  28  29
ATOM     29  C   UNL A   1      40.554  27.882  28.728  1.00  0.00     0.031 A 
ATOM     30  C   UNL A   1      41.948  27.996  29.281  1.00  0.00     0.074 A 
ATOM     31  C   UNL A   1      39.694  28.914  28.835  1.00  0.00     0.049 A 
ATOM     32  N   UNL A   1      42.505  29.005  29.899  1.00  0.00    -0.248 NA
ATOM     33  C   UNL A   1      42.826  26.821  29.136  1.00  0.00     0.031 C 
ATOM     34  C   UNL A   1      38.307  28.913  28.361  1.00  0.00     0.029 A 
ATOM     35  N   UNL A   1      39.857  30.162  29.381  1.00  0.00    -0.354 N 
ATOM     36  C   UNL A   1      43.789  28.587  30.221  1.00  0.00     0.074 A 
ATOM     37  C   UNL A   1      43.921  27.221  29.767  1.00  0.00     0.031 C 
ATOM     38  C   UNL A   1      37.753  30.108  28.627  1.00  0.00     0.029 A 
ATOM     39  C   UNL A   1      38.732  30.950  29.310  1.00  0.00     0.049 A 
ATOM     40  H   UNL A   1      40.701  30.466  29.788  1.00  0.00     0.167 HD
ATOM     41  C   UNL A   1      44.777  29.288  30.822  1.00  0.00     0.031 A 
ATOM     42  C   UNL A   1      38.511  32.204  29.748  1.00  0.00     0.031 A 
ATOM     43  C   UNL A   1      44.656  30.653  31.246  1.00  0.00     0.049 A 
ATOM     44  C   UNL A   1      39.624  32.957  30.424  1.00  0.00     0.074 A 
ATOM     45  C   UNL A   1      45.627  31.462  31.810  1.00  0.00     0.029 A 
ATOM     46  N   UNL A   1      43.502  31.413  31.156  1.00  0.00    -0.354 N 
ATOM     47  N   UNL A   1      40.851  32.562  30.668  1.00  0.00    -0.248 NA
ATOM     48  C   UNL A   1      39.330  34.324  30.879  1.00  0.00     0.031 C 
ATOM     49  C   UNL A   1      45.048  32.700  32.097  1.00  0.00     0.029 A 
ATOM     50  C   UNL A   1      43.729  32.675  31.673  1.00  0.00     0.049 A 
ATOM     51  H   UNL A   1      42.647  31.101  30.778  1.00  0.00     0.167 HD
ATOM     52  C   UNL A   1      41.477  33.635  31.290  1.00  0.00     0.074 A 
ATOM     53  C   UNL A   1      40.501  34.701  31.377  1.00  0.00     0.031 C 
ATOM     54  C   UNL A   1      42.748  33.726  31.748  1.00  0.00     0.031 A 
BRANCH  41  55
ATOM     55  C   UNL A   1      46.094  28.602  31.045  1.00  0.00    -0.014 A 
ATOM     56  C   UNL A   1      46.299  27.800  32.180  1.00  0.00     0.010 A 
ATOM     57  C   UNL A   1      47.092  28.668  30.056  1.00  0.00     0.010 A 
ATOM     58  C   UNL A   1      47.482  27.072  32.323  1.00  0.00     0.020 A 
ATOM     59  C   UNL A   1      48.270  27.928  30.188  1.00  0.00     0.020 A 
ATOM     60  C   UNL A   1      48.454  27.131  31.320  1.00  0.00     0.054 A 
BRANCH  60  61
ATOM     61  S   UNL A   1      49.947  26.118  31.506  1.00  0.00     0.124 S 
ATOM     62  O   UNL A   1      49.541  25.162  32.534  1.00  0.00    -0.237 OA
ATOM     63  O   UNL A   1      50.119  25.566  30.167  1.00  0.00    -0.237 OA
ATOM     64  O   UNL A   1      50.968  27.076  31.923  1.00  0.00    -0.744 OA
ENDBRANCH  60  61
ENDBRANCH  41  55
BRANCH  42  65
ATOM     65  C   UNL A   1      37.176  32.831  29.555  1.00  0.00    -0.014 A 
ATOM     66  C   UNL A   1      36.186  32.722  30.546  1.00  0.00     0.010 A 
ATOM     67  C   UNL A   1      36.898  33.560  28.386  1.00  0.00     0.010 A 
ATOM     68  C   UNL A   1      34.939  33.327  30.369  1.00  0.00     0.020 A 
ATOM     69  C   UNL A   1      35.660  34.184  28.212  1.00  0.00     0.020 A 
ATOM     70  C   UNL A   1      34.687  34.062  29.206  1.00  0.00     0.054 A 
BRANCH  70  71
ATOM     71  S   UNL A   1      33.075  34.874  29.025  1.00  0.00     0.124 S 
ATOM     72  O   UNL A   1      32.393  33.999  28.076  1.00  0.00    -0.237 OA
ATOM     73  O   UNL A   1      32.562  34.847  30.392  1.00  0.00    -0.237 OA
ATOM     74  O   UNL A   1      33.413  36.203  28.517  1.00  0.00    -0.744 OA
ENDBRANCH  70  71
ENDBRANCH  42  65
BRANCH  54  75
ATOM     75  C   UNL A   1      43.184  35.018  32.378  1.00  0.00    -0.014 A 
ATOM     76  C   UNL A   1      43.762  36.035  31.599  1.00  0.00     0.010 A 
ATOM     77  C   UNL A   1      42.889  35.268  33.730  1.00  0.00     0.010 A 
ATOM     78  C   UNL A   1      44.031  37.284  32.161  1.00  0.00     0.020 A 
ATOM     79  C   UNL A   1      43.139  36.522  34.291  1.00  0.00     0.020 A 
ATOM     80  C   UNL A   1      43.706  37.524  33.501  1.00  0.00     0.054 A 
BRANCH  80  81
ATOM     81  S   UNL A   1      43.996  39.181  34.177  1.00  0.00     0.124 S 
ATOM     82  O   UNL A   1      45.271  39.546  33.564  1.00  0.00    -0.237 OA
ATOM     83  O   UNL A   1      42.833  39.924  33.699  1.00  0.00    -0.237 OA
ATOM     84  O   UNL A   1      44.043  38.964  35.622  1.00  0.00    -0.744 OA
ENDBRANCH  80  81
ENDBRANCH  54  75
ENDBRANCH  28  29
ENDBRANCH  20  23
ENDBRANCH  18  19
ENDBRANCH   1  18
TORSDOF 15
ENDMDL
MODEL 3
REMARK VINA RESULT:      -9.5      3.768     10.584
REMARK SMILES Cn1ncc(SCC(=O)NCCCNC(=O)c2ccc(-c3c4nc(c(-c5ccc(S(=O)(=O)[O-])cc5)c5ccc([nH]5)c(-c5ccc(S(=O)(=O)[O-])cc5)c5nc(c(-c6ccc(S(=O)(=O)[O-])cc6)c6ccc3[nH]6)C=C5)C=C4)cc2)c(Cl)c1=O
REMARK SMILES IDX 12 1 11 2 10 3 8 4 9 5 7 7 6 8 5 9 1 10 2 11 3 12 79 13 4 14
REMARK SMILES IDX 77 15 80 16 78 17 13 18 14 19 15 20 16 22 17 23 18 24 76 25
REMARK SMILES IDX 19 26 75 27 20 28 21 29 22 30 69 31 23 32 74 33 68 34 70 35
REMARK SMILES IDX 24 36 73 37 67 38 66 39 25 41 55 42 36 43 54 44 37 45 40 46
REMARK SMILES IDX 53 47 71 48 38 49 39 50 52 52 72 53 41 54 26 55 27 56 35 57
REMARK SMILES IDX 28 58 34 59 29 60 30 61 31 62 32 63 33 64 56 65 57 66 65 67
REMARK SMILES IDX 58 68 64 69 59 70 60 71 61 72 62 73 63 74 42 75 43 76 51 77
REMARK SMILES IDX 44 78 50 79 45 80 46 81 47 82 48 83 49 84
REMARK H PARENT 10 6 14 21 70 40 40 51
REMARK Flexibility Score: inf
ROOT
ATOM      1  C   UNL A   1      32.851  27.192  25.666  1.00  0.00     0.042 C 
ENDROOT
BRANCH   1   2
ATOM      2  C   UNL A   1      31.331  27.197  25.803  1.00  0.00     0.117 C 
BRANCH   2   3
ATOM      3  N   UNL A   1      30.869  26.087  26.615  1.00  0.00    -0.355 N 
ATOM      4  C   UNL A   1      30.725  24.769  26.305  1.00  0.00     0.230 C 
ATOM      5  O   UNL A   1      30.195  24.042  27.146  1.00  0.00    -0.274 OA
ATOM      6  H   UNL A   1      30.619  26.324  27.539  1.00  0.00     0.163 HD
BRANCH   4   7
ATOM      7  C   UNL A   1      31.266  24.216  25.006  1.00  0.00     0.175 C 
BRANCH   7   8
ATOM      8  S   UNL A   1      31.829  22.507  25.076  1.00  0.00    -0.113 SA
BRANCH   8   9
ATOM      9  C   UNL A   1      33.538  22.476  24.812  1.00  0.00     0.052 A 
ATOM     10  C   UNL A   1      37.683  21.530  24.844  1.00  0.00     0.178 C 
ATOM     11  N   UNL A   1      36.278  21.895  24.831  1.00  0.00    -0.232 N 
ATOM     12  N   UNL A   1      35.554  21.562  25.939  1.00  0.00    -0.177 NA
ATOM     13  C   UNL A   1      35.755  22.558  23.727  1.00  0.00     0.286 A 
ATOM     14  C   UNL A   1      34.294  21.847  25.922  1.00  0.00     0.150 A 
ATOM     15  C   UNL A   1      34.270  22.773  23.730  1.00  0.00     0.123 A 
ATOM     16  O   UNL A   1      36.452  22.922  22.779  1.00  0.00    -0.266 OA
ATOM     17  Cl  UNL A   1      33.613  23.315  22.224  1.00  0.00    -0.077 Cl
ENDBRANCH   8   9
ENDBRANCH   7   8
ENDBRANCH   4   7
ENDBRANCH   2   3
ENDBRANCH   1   2
BRANCH   1  18
ATOM     18  C   UNL A   1      33.582  27.828  26.848  1.00  0.00     0.118 C 
BRANCH  18  19
ATOM     19  N   UNL A   1      33.278  29.244  26.995  1.00  0.00    -0.352 N 
ATOM     20  C   UNL A   1      34.022  30.237  27.582  1.00  0.00     0.251 C 
ATOM     21  H   UNL A   1      32.414  29.530  26.621  1.00  0.00     0.163 HD
ATOM     22  O   UNL A   1      33.518  31.336  27.795  1.00  0.00    -0.269 OA
BRANCH  20  23
ATOM     23  C   UNL A   1      35.423  29.974  27.969  1.00  0.00     0.039 A 
ATOM     24  C   UNL A   1      35.706  29.628  29.293  1.00  0.00     0.014 A 
ATOM     25  C   UNL A   1      36.453  30.087  27.031  1.00  0.00     0.014 A 
ATOM     26  C   UNL A   1      37.020  29.340  29.664  1.00  0.00     0.010 A 
ATOM     27  C   UNL A   1      37.755  29.747  27.390  1.00  0.00     0.010 A 
ATOM     28  C   UNL A   1      38.050  29.379  28.711  1.00  0.00    -0.014 A 
BRANCH  28  29
ATOM     29  C   UNL A   1      39.451  29.077  29.092  1.00  0.00     0.031 A 
ATOM     30  C   UNL A   1      40.278  30.126  29.781  1.00  0.00     0.074 A 
ATOM     31  C   UNL A   1      39.988  27.878  28.789  1.00  0.00     0.049 A 
ATOM     32  N   UNL A   1      41.527  30.066  30.162  1.00  0.00    -0.248 NA
ATOM     33  C   UNL A   1      39.623  31.415  30.068  1.00  0.00     0.031 C 
ATOM     34  C   UNL A   1      39.294  26.789  28.097  1.00  0.00     0.029 A 
ATOM     35  N   UNL A   1      41.244  27.377  29.021  1.00  0.00    -0.354 N 
ATOM     36  C   UNL A   1      41.809  31.304  30.724  1.00  0.00     0.074 A 
ATOM     37  C   UNL A   1      40.616  32.112  30.603  1.00  0.00     0.031 C 
ATOM     38  C   UNL A   1      40.130  25.745  27.973  1.00  0.00     0.029 A 
ATOM     39  C   UNL A   1      41.425  26.096  28.552  1.00  0.00     0.049 A 
ATOM     40  H   UNL A   1      41.951  27.886  29.479  1.00  0.00     0.167 HD
ATOM     41  C   UNL A   1      42.955  31.722  31.308  1.00  0.00     0.031 A 
ATOM     42  C   UNL A   1      42.509  25.298  28.580  1.00  0.00     0.031 A 
ATOM     43  C   UNL A   1      44.130  30.911  31.455  1.00  0.00     0.049 A 
ATOM     44  C   UNL A   1      43.774  25.791  29.226  1.00  0.00     0.074 A 
ATOM     45  C   UNL A   1      45.317  31.233  32.090  1.00  0.00     0.029 A 
ATOM     46  N   UNL A   1      44.270  29.623  30.968  1.00  0.00    -0.354 N 
ATOM     47  N   UNL A   1      44.002  26.947  29.803  1.00  0.00    -0.248 NA
ATOM     48  C   UNL A   1      44.925  24.878  29.233  1.00  0.00     0.031 C 
ATOM     49  C   UNL A   1      46.191  30.153  31.951  1.00  0.00     0.029 A 
ATOM     50  C   UNL A   1      45.532  29.143  31.268  1.00  0.00     0.049 A 
ATOM     51  H   UNL A   1      43.576  29.123  30.481  1.00  0.00     0.167 HD
ATOM     52  C   UNL A   1      45.316  26.892  30.253  1.00  0.00     0.074 A 
ATOM     53  C   UNL A   1      45.831  25.589  29.893  1.00  0.00     0.031 C 
ATOM     54  C   UNL A   1      46.029  27.841  30.906  1.00  0.00     0.031 A 
BRANCH  41  55
ATOM     55  C   UNL A   1      42.999  33.119  31.858  1.00  0.00    -0.014 A 
ATOM     56  C   UNL A   1      42.728  33.362  33.215  1.00  0.00     0.010 A 
ATOM     57  C   UNL A   1      43.426  34.179  31.037  1.00  0.00     0.010 A 
ATOM     58  C   UNL A   1      42.883  34.644  33.745  1.00  0.00     0.020 A 
ATOM     59  C   UNL A   1      43.599  35.460  31.569  1.00  0.00     0.020 A 
ATOM     60  C   UNL A   1      43.331  35.681  32.921  1.00  0.00     0.054 A 
BRANCH  60  61
ATOM     61  S   UNL A   1      43.588  37.318  33.660  1.00  0.00     0.124 S 
ATOM     62  O   UNL A   1      43.813  38.153  32.482  1.00  0.00    -0.237 OA
ATOM     63  O   UNL A   1      42.328  37.546  34.360  1.00  0.00    -0.237 OA
ATOM     64  O   UNL A   1      44.756  37.133  34.519  1.00  0.00    -0.744 OA
ENDBRANCH  60  61
ENDBRANCH  41  55
BRANCH  42  65
ATOM     65  C   UNL A   1      42.442  23.939  27.979  1.00  0.00    -0.014 A 
ATOM     66  C   UNL A   1      42.205  22.812  28.783  1.00  0.00     0.010 A 
ATOM     67  C   UNL A   1      42.594  23.770  26.591  1.00  0.00     0.010 A 
ATOM     68  C   UNL A   1      42.125  21.539  28.212  1.00  0.00     0.020 A 
ATOM     69  C   UNL A   1      42.495  22.502  26.012  1.00  0.00     0.020 A 
ATOM     70  C   UNL A   1      42.262  21.394  26.828  1.00  0.00     0.054 A 
BRANCH  70  71
ATOM     71  S   UNL A   1      42.108  19.735  26.110  1.00  0.00     0.124 S 
ATOM     72  O   UNL A   1      42.467  18.877  27.235  1.00  0.00    -0.237 OA
ATOM     73  O   UNL A   1      40.703  19.701  25.712  1.00  0.00    -0.237 OA
ATOM     74  O   UNL A   1      43.063  19.747  25.004  1.00  0.00    -0.744 OA
ENDBRANCH  70  71
ENDBRANCH  42  65
BRANCH  54  75
ATOM     75  C   UNL A   1      47.444  27.521  31.296  1.00  0.00    -0.014 A 
ATOM     76  C   UNL A   1      47.719  26.835  32.490  1.00  0.00     0.010 A 
ATOM     77  C   UNL A   1      48.491  27.789  30.395  1.00  0.00     0.010 A 
ATOM     78  C   UNL A   1      49.020  26.415  32.775  1.00  0.00     0.020 A 
ATOM     79  C   UNL A   1      49.789  27.353  30.668  1.00  0.00     0.020 A 
ATOM     80  C   UNL A   1      50.044  26.665  31.856  1.00  0.00     0.054 A 
BRANCH  80  81
ATOM     81  S   UNL A   1      51.706  26.036  32.221  1.00  0.00     0.124 S 
ATOM     82  O   UNL A   1      51.589  24.626  31.858  1.00  0.00    -0.237 OA
ATOM     83  O   UNL A   1      52.548  26.844  31.342  1.00  0.00    -0.237 OA
ATOM     84  O   UNL A   1      51.871  26.297  33.650  1.00  0.00    -0.744 OA
ENDBRANCH  80  81
ENDBRANCH  54  75
ENDBRANCH  28  29
ENDBRANCH  20  23
ENDBRANCH  18  19
ENDBRANCH   1  18
TORSDOF 15
ENDMDL
