MODEL 1
REMARK VINA RESULT:     -11.6      0.000      0.000
REMARK SMILES O=C(CNc1nc(-c2ccccc2)c(-c2ccccc2)s1)NCCCNC(=O)c1ccc(-c2c3nc(c(-c4ccc(S(=O)(=O)[O-])cc4)c4ccc([nH]4)c(-c4ccc(S(=O)(=O)[O-])cc4)c4nc(c(-c5ccc(S(=O)(=O)[O-])cc5)c5ccc2[nH]5)C=C4)C=C3)cc1
REMARK SMILES IDX 24 1 23 2 22 3 1 4 2 5 3 7 4 8 5 10 6 11 21 12 7 13 14 14
REMARK SMILES IDX 8 15 9 16 13 17 10 18 12 19 11 20 15 21 16 22 20 23 17 24
REMARK SMILES IDX 19 25 18 26 25 27 26 28 27 29 28 31 29 32 30 33 88 34 31 35
REMARK SMILES IDX 87 36 32 37 33 38 34 39 81 40 35 41 86 42 80 43 82 44 36 45
REMARK SMILES IDX 85 46 79 47 78 48 37 50 67 51 48 52 66 53 49 54 52 55 65 56
REMARK SMILES IDX 83 57 50 58 51 59 64 61 84 62 53 63 38 64 39 65 47 66 40 67
REMARK SMILES IDX 46 68 41 69 42 70 43 71 44 72 45 73 68 74 69 75 77 76 70 77
REMARK SMILES IDX 76 78 71 79 72 80 73 81 74 82 75 83 54 84 55 85 63 86 56 87
REMARK SMILES IDX 62 88 57 89 58 90 59 91 60 92 61 93
REMARK H PARENT 22 6 4 9 26 30 82 49 52 60
REMARK Flexibility Score: inf
ROOT
ATOM      1  C   UNL A   1      32.034  27.990  26.910  1.00  0.00     0.042 C 
ENDROOT
BRANCH   1   2
ATOM      2  C   UNL A   1      31.420  28.547  25.631  1.00  0.00     0.117 C 
BRANCH   2   3
ATOM      3  N   UNL A   1      31.755  27.766  24.459  1.00  0.00    -0.355 N 
ATOM      4  O   UNL A   1      29.770  28.051  23.322  1.00  0.00    -0.273 OA
ATOM      5  C   UNL A   1      30.913  27.610  23.371  1.00  0.00     0.239 C 
ATOM      6  H   UNL A   1      32.632  27.319  24.435  1.00  0.00     0.163 HD
BRANCH   5   7
ATOM      7  C   UNL A   1      31.557  26.814  22.221  1.00  0.00     0.215 C 
BRANCH   7   8
ATOM      8  N   UNL A   1      31.205  25.406  22.369  1.00  0.00    -0.352 N 
ATOM      9  H   UNL A   1      30.314  25.104  22.081  1.00  0.00     0.163 HD
BRANCH   8  10
ATOM     10  C   UNL A   1      32.062  24.511  22.888  1.00  0.00     0.184 A 
ATOM     11  N   UNL A   1      31.784  23.268  23.195  1.00  0.00    -0.220 NA
ATOM     12  S   UNL A   1      33.674  25.007  23.221  1.00  0.00    -0.096 S 
ATOM     13  C   UNL A   1      32.895  22.658  23.758  1.00  0.00     0.091 A 
ATOM     14  C   UNL A   1      34.012  23.469  23.902  1.00  0.00     0.064 A 
BRANCH  13  15
ATOM     15  C   UNL A   1      32.877  21.248  24.120  1.00  0.00     0.002 A 
ATOM     16  C   UNL A   1      32.581  20.259  23.173  1.00  0.00     0.010 A 
ATOM     17  C   UNL A   1      33.086  20.880  25.455  1.00  0.00     0.010 A 
ATOM     18  C   UNL A   1      32.458  18.924  23.566  1.00  0.00     0.001 A 
ATOM     19  C   UNL A   1      32.958  19.545  25.846  1.00  0.00     0.001 A 
ATOM     20  C   UNL A   1      32.636  18.570  24.903  1.00  0.00     0.000 A 
ENDBRANCH  13  15
BRANCH  14  21
ATOM     21  C   UNL A   1      35.336  23.200  24.461  1.00  0.00    -0.006 A 
ATOM     22  C   UNL A   1      35.801  23.927  25.568  1.00  0.00     0.009 A 
ATOM     23  C   UNL A   1      36.138  22.179  23.933  1.00  0.00     0.009 A 
ATOM     24  C   UNL A   1      37.040  23.633  26.137  1.00  0.00     0.001 A 
ATOM     25  C   UNL A   1      37.378  21.886  24.505  1.00  0.00     0.001 A 
ATOM     26  C   UNL A   1      37.827  22.612  25.607  1.00  0.00     0.000 A 
ENDBRANCH  14  21
ENDBRANCH   8  10
ENDBRANCH   7   8
ENDBRANCH   5   7
ENDBRANCH   2   3
ENDBRANCH   1   2
BRANCH   1  27
ATOM     27  C   UNL A   1      33.415  28.544  27.251  1.00  0.00     0.118 C 
BRANCH  27  28
ATOM     28  N   UNL A   1      33.403  29.951  27.629  1.00  0.00    -0.352 N 
ATOM     29  C   UNL A   1      34.395  30.717  28.195  1.00  0.00     0.251 C 
ATOM     30  H   UNL A   1      32.557  30.424  27.455  1.00  0.00     0.163 HD
ATOM     31  O   UNL A   1      34.148  31.871  28.543  1.00  0.00    -0.269 OA
BRANCH  29  32
ATOM     32  C   UNL A   1      35.745  30.153  28.417  1.00  0.00     0.039 A 
ATOM     33  C   UNL A   1      36.659  30.145  27.358  1.00  0.00     0.014 A 
ATOM     34  C   UNL A   1      36.115  29.638  29.662  1.00  0.00     0.014 A 
ATOM     35  C   UNL A   1      37.970  29.705  27.571  1.00  0.00     0.010 A 
ATOM     36  C   UNL A   1      37.437  29.259  29.889  1.00  0.00     0.010 A 
ATOM     37  C   UNL A   1      38.382  29.301  28.850  1.00  0.00    -0.014 A 
BRANCH  37  38
ATOM     38  C   UNL A   1      39.795  28.944  29.147  1.00  0.00     0.031 A 
ATOM     39  C   UNL A   1      40.740  29.985  29.679  1.00  0.00     0.074 A 
ATOM     40  C   UNL A   1      40.253  27.714  28.838  1.00  0.00     0.049 A 
ATOM     41  N   UNL A   1      42.037  29.917  29.840  1.00  0.00    -0.248 NA
ATOM     42  C   UNL A   1      40.154  31.281  30.056  1.00  0.00     0.031 C 
ATOM     43  C   UNL A   1      39.447  26.618  28.295  1.00  0.00     0.029 A 
ATOM     44  N   UNL A   1      41.520  27.187  28.912  1.00  0.00    -0.354 N 
ATOM     45  C   UNL A   1      42.426  31.167  30.306  1.00  0.00     0.074 A 
ATOM     46  C   UNL A   1      41.232  31.983  30.375  1.00  0.00     0.031 C 
ATOM     47  C   UNL A   1      40.235  25.549  28.093  1.00  0.00     0.029 A 
ATOM     48  C   UNL A   1      41.609  25.897  28.443  1.00  0.00     0.049 A 
ATOM     49  H   UNL A   1      42.291  27.686  29.266  1.00  0.00     0.167 HD
ATOM     50  C   UNL A   1      43.664  31.595  30.652  1.00  0.00     0.031 A 
ATOM     51  C   UNL A   1      42.677  25.089  28.289  1.00  0.00     0.031 A 
ATOM     52  C   UNL A   1      44.848  30.780  30.598  1.00  0.00     0.049 A 
ATOM     53  C   UNL A   1      44.043  25.590  28.671  1.00  0.00     0.074 A 
ATOM     54  C   UNL A   1      46.139  31.112  30.971  1.00  0.00     0.029 A 
ATOM     55  N   UNL A   1      44.886  29.469  30.149  1.00  0.00    -0.354 N 
ATOM     56  N   UNL A   1      44.386  26.764  29.142  1.00  0.00    -0.248 NA
ATOM     57  C   UNL A   1      45.165  24.654  28.508  1.00  0.00     0.031 C 
ATOM     58  C   UNL A   1      46.966  30.015  30.709  1.00  0.00     0.029 A 
ATOM     59  C   UNL A   1      46.180  28.982  30.224  1.00  0.00     0.049 A 
ATOM     60  H   UNL A   1      44.109  28.959  29.825  1.00  0.00     0.167 HD
ATOM     61  C   UNL A   1      45.756  26.697  29.366  1.00  0.00     0.074 A 
ATOM     62  C   UNL A   1      46.180  25.367  28.979  1.00  0.00     0.031 C 
ATOM     63  C   UNL A   1      46.586  27.650  29.853  1.00  0.00     0.031 A 
BRANCH  50  64
ATOM     64  C   UNL A   1      43.802  33.022  31.111  1.00  0.00    -0.014 A 
ATOM     65  C   UNL A   1      43.810  33.349  32.478  1.00  0.00     0.010 A 
ATOM     66  C   UNL A   1      43.962  34.049  30.162  1.00  0.00     0.010 A 
ATOM     67  C   UNL A   1      43.928  34.679  32.888  1.00  0.00     0.020 A 
ATOM     68  C   UNL A   1      44.108  35.379  30.567  1.00  0.00     0.020 A 
ATOM     69  C   UNL A   1      44.070  35.686  31.928  1.00  0.00     0.054 A 
BRANCH  69  70
ATOM     70  S   UNL A   1      44.232  37.405  32.487  1.00  0.00     0.124 S 
ATOM     71  O   UNL A   1      43.177  37.493  33.494  1.00  0.00    -0.237 OA
ATOM     72  O   UNL A   1      45.597  37.449  33.003  1.00  0.00    -0.237 OA
ATOM     73  O   UNL A   1      44.002  38.187  31.275  1.00  0.00    -0.744 OA
ENDBRANCH  69  70
ENDBRANCH  50  64
BRANCH  51  74
ATOM     74  C   UNL A   1      42.494  23.714  27.749  1.00  0.00    -0.014 A 
ATOM     75  C   UNL A   1      42.519  23.487  26.362  1.00  0.00     0.010 A 
ATOM     76  C   UNL A   1      42.311  22.623  28.618  1.00  0.00     0.010 A 
ATOM     77  C   UNL A   1      42.349  22.197  25.852  1.00  0.00     0.020 A 
ATOM     78  C   UNL A   1      42.166  21.328  28.113  1.00  0.00     0.020 A 
ATOM     79  C   UNL A   1      42.175  21.124  26.732  1.00  0.00     0.054 A 
BRANCH  79  80
ATOM     80  S   UNL A   1      42.012  19.451  26.050  1.00  0.00     0.124 S 
ATOM     81  O   UNL A   1      42.530  18.629  27.139  1.00  0.00    -0.237 OA
ATOM     82  O   UNL A   1      40.576  19.347  25.806  1.00  0.00    -0.237 OA
ATOM     83  O   UNL A   1      42.839  19.492  24.846  1.00  0.00    -0.744 OA
ENDBRANCH  79  80
ENDBRANCH  51  74
BRANCH  63  84
ATOM     84  C   UNL A   1      48.031  27.285  30.056  1.00  0.00    -0.014 A 
ATOM     85  C   UNL A   1      48.999  27.553  29.074  1.00  0.00     0.010 A 
ATOM     86  C   UNL A   1      48.435  26.742  31.290  1.00  0.00     0.010 A 
ATOM     87  C   UNL A   1      50.347  27.274  29.318  1.00  0.00     0.020 A 
ATOM     88  C   UNL A   1      49.784  26.482  31.545  1.00  0.00     0.020 A 
ATOM     89  C   UNL A   1      50.732  26.744  30.554  1.00  0.00     0.054 A 
BRANCH  89  90
ATOM     90  S   UNL A   1      52.495  26.461  30.876  1.00  0.00     0.124 S 
ATOM     91  O   UNL A   1      53.026  26.292  29.527  1.00  0.00    -0.237 OA
ATOM     92  O   UNL A   1      52.897  27.686  31.562  1.00  0.00    -0.237 OA
ATOM     93  O   UNL A   1      52.506  25.258  31.707  1.00  0.00    -0.744 OA
ENDBRANCH  89  90
ENDBRANCH  63  84
ENDBRANCH  37  38
ENDBRANCH  29  32
ENDBRANCH  27  28
ENDBRANCH   1  27
TORSDOF 17
ENDMDL
MODEL 2
REMARK VINA RESULT:     -11.4      0.491      2.095
REMARK SMILES O=C(CNc1nc(-c2ccccc2)c(-c2ccccc2)s1)NCCCNC(=O)c1ccc(-c2c3nc(c(-c4ccc(S(=O)(=O)[O-])cc4)c4ccc([nH]4)c(-c4ccc(S(=O)(=O)[O-])cc4)c4nc(c(-c5ccc(S(=O)(=O)[O-])cc5)c5ccc2[nH]5)C=C4)C=C3)cc1
REMARK SMILES IDX 24 1 23 2 22 3 1 4 2 5 3 7 4 8 5 10 6 11 21 12 7 13 14 14
REMARK SMILES IDX 8 15 9 16 13 17 10 18 12 19 11 20 15 21 16 22 20 23 17 24
REMARK SMILES IDX 19 25 18 26 25 27 26 28 27 29 28 31 29 32 30 33 88 34 31 35
REMARK SMILES IDX 87 36 32 37 33 38 34 39 81 40 35 41 86 42 80 43 82 44 36 45
REMARK SMILES IDX 85 46 79 47 78 48 37 50 67 51 48 52 66 53 49 54 52 55 65 56
REMARK SMILES IDX 83 57 50 58 51 59 64 61 84 62 53 63 38 64 39 65 47 66 40 67
REMARK SMILES IDX 46 68 41 69 42 70 43 71 44 72 45 73 68 74 69 75 77 76 70 77
REMARK SMILES IDX 76 78 71 79 72 80 73 81 74 82 75 83 54 84 55 85 63 86 56 87
REMARK SMILES IDX 62 88 57 89 58 90 59 91 60 92 61 93
REMARK H PARENT 22 6 4 9 26 30 82 49 52 60
REMARK Flexibility Score: inf
ROOT
ATOM      1  C   UNL A   1      32.088  28.018  26.889  1.00  0.00     0.042 C 
ENDROOT
BRANCH   1   2
ATOM      2  C   UNL A   1      31.439  28.748  25.720  1.00  0.00     0.117 C 
BRANCH   2   3
ATOM      3  N   UNL A   1      31.804  28.189  24.435  1.00  0.00    -0.355 N 
ATOM      4  O   UNL A   1      29.822  27.095  24.001  1.00  0.00    -0.273 OA
ATOM      5  C   UNL A   1      30.948  27.434  23.652  1.00  0.00     0.239 C 
ATOM      6  H   UNL A   1      32.714  28.356  24.098  1.00  0.00     0.163 HD
BRANCH   5   7
ATOM      7  C   UNL A   1      31.556  27.051  22.291  1.00  0.00     0.215 C 
BRANCH   7   8
ATOM      8  N   UNL A   1      31.347  25.625  22.067  1.00  0.00    -0.352 N 
ATOM      9  H   UNL A   1      30.671  25.339  21.411  1.00  0.00     0.163 HD
BRANCH   8  10
ATOM     10  C   UNL A   1      32.050  24.691  22.730  1.00  0.00     0.184 A 
ATOM     11  N   UNL A   1      33.309  24.781  23.080  1.00  0.00    -0.220 NA
ATOM     12  S   UNL A   1      31.273  23.217  23.152  1.00  0.00    -0.096 S 
ATOM     13  C   UNL A   1      33.715  23.607  23.699  1.00  0.00     0.091 A 
ATOM     14  C   UNL A   1      32.749  22.614  23.783  1.00  0.00     0.064 A 
BRANCH  13  15
ATOM     15  C   UNL A   1      35.053  23.473  24.254  1.00  0.00     0.002 A 
ATOM     16  C   UNL A   1      36.004  22.632  23.662  1.00  0.00     0.010 A 
ATOM     17  C   UNL A   1      35.372  24.140  25.443  1.00  0.00     0.010 A 
ATOM     18  C   UNL A   1      37.244  22.432  24.273  1.00  0.00     0.001 A 
ATOM     19  C   UNL A   1      36.611  23.934  26.055  1.00  0.00     0.001 A 
ATOM     20  C   UNL A   1      37.542  23.074  25.474  1.00  0.00     0.000 A 
ENDBRANCH  13  15
BRANCH  14  21
ATOM     21  C   UNL A   1      32.802  21.259  24.333  1.00  0.00    -0.006 A 
ATOM     22  C   UNL A   1      33.139  21.052  25.679  1.00  0.00     0.009 A 
ATOM     23  C   UNL A   1      32.468  20.155  23.538  1.00  0.00     0.009 A 
ATOM     24  C   UNL A   1      33.135  19.766  26.219  1.00  0.00     0.001 A 
ATOM     25  C   UNL A   1      32.463  18.868  24.081  1.00  0.00     0.001 A 
ATOM     26  C   UNL A   1      32.796  18.675  25.420  1.00  0.00     0.000 A 
ENDBRANCH  14  21
ENDBRANCH   8  10
ENDBRANCH   7   8
ENDBRANCH   5   7
ENDBRANCH   2   3
ENDBRANCH   1   2
BRANCH   1  27
ATOM     27  C   UNL A   1      33.458  28.556  27.299  1.00  0.00     0.118 C 
BRANCH  27  28
ATOM     28  N   UNL A   1      33.434  29.949  27.725  1.00  0.00    -0.352 N 
ATOM     29  C   UNL A   1      34.423  30.707  28.307  1.00  0.00     0.251 C 
ATOM     30  H   UNL A   1      32.581  30.419  27.574  1.00  0.00     0.163 HD
ATOM     31  O   UNL A   1      34.167  31.845  28.696  1.00  0.00    -0.269 OA
BRANCH  29  32
ATOM     32  C   UNL A   1      35.782  30.151  28.496  1.00  0.00     0.039 A 
ATOM     33  C   UNL A   1      36.661  30.123  27.409  1.00  0.00     0.014 A 
ATOM     34  C   UNL A   1      36.193  29.663  29.739  1.00  0.00     0.014 A 
ATOM     35  C   UNL A   1      37.979  29.690  27.589  1.00  0.00     0.010 A 
ATOM     36  C   UNL A   1      37.522  29.291  29.931  1.00  0.00     0.010 A 
ATOM     37  C   UNL A   1      38.434  29.315  28.861  1.00  0.00    -0.014 A 
BRANCH  37  38
ATOM     38  C   UNL A   1      39.856  28.967  29.120  1.00  0.00     0.031 A 
ATOM     39  C   UNL A   1      40.811  30.017  29.616  1.00  0.00     0.074 A 
ATOM     40  C   UNL A   1      40.312  27.737  28.807  1.00  0.00     0.049 A 
ATOM     41  N   UNL A   1      42.112  29.957  29.739  1.00  0.00    -0.248 NA
ATOM     42  C   UNL A   1      40.229  31.313  29.999  1.00  0.00     0.031 C 
ATOM     43  C   UNL A   1      39.496  26.632  28.297  1.00  0.00     0.029 A 
ATOM     44  N   UNL A   1      41.583  27.217  28.848  1.00  0.00    -0.354 N 
ATOM     45  C   UNL A   1      42.509  31.213  30.184  1.00  0.00     0.074 A 
ATOM     46  C   UNL A   1      41.313  32.023  30.281  1.00  0.00     0.031 C 
ATOM     47  C   UNL A   1      40.284  25.566  28.081  1.00  0.00     0.029 A 
ATOM     48  C   UNL A   1      41.665  25.923  28.388  1.00  0.00     0.049 A 
ATOM     49  H   UNL A   1      42.361  27.722  29.176  1.00  0.00     0.167 HD
ATOM     50  C   UNL A   1      43.753  31.650  30.490  1.00  0.00     0.031 A 
ATOM     51  C   UNL A   1      42.733  25.119  28.209  1.00  0.00     0.031 A 
ATOM     52  C   UNL A   1      44.940  30.840  30.408  1.00  0.00     0.049 A 
ATOM     53  C   UNL A   1      44.106  25.630  28.547  1.00  0.00     0.074 A 
ATOM     54  C   UNL A   1      46.239  31.182  30.740  1.00  0.00     0.029 A 
ATOM     55  N   UNL A   1      44.972  29.526  29.969  1.00  0.00    -0.354 N 
ATOM     56  N   UNL A   1      44.457  26.810  28.999  1.00  0.00    -0.248 NA
ATOM     57  C   UNL A   1      45.228  24.699  28.359  1.00  0.00     0.031 C 
ATOM     58  C   UNL A   1      47.064  30.087  30.464  1.00  0.00     0.029 A 
ATOM     59  C   UNL A   1      46.270  29.046  30.009  1.00  0.00     0.049 A 
ATOM     60  H   UNL A   1      44.188  29.009  29.672  1.00  0.00     0.167 HD
ATOM     61  C   UNL A   1      45.833  26.751  29.183  1.00  0.00     0.074 A 
ATOM     62  C   UNL A   1      46.253  25.421  28.794  1.00  0.00     0.031 C 
ATOM     63  C   UNL A   1      46.672  27.713  29.638  1.00  0.00     0.031 A 
BRANCH  50  64
ATOM     64  C   UNL A   1      43.897  33.081  30.933  1.00  0.00    -0.014 A 
ATOM     65  C   UNL A   1      44.021  34.123  29.997  1.00  0.00     0.010 A 
ATOM     66  C   UNL A   1      43.871  33.394  32.305  1.00  0.00     0.010 A 
ATOM     67  C   UNL A   1      44.164  35.445  30.424  1.00  0.00     0.020 A 
ATOM     68  C   UNL A   1      43.986  34.719  32.737  1.00  0.00     0.020 A 
ATOM     69  C   UNL A   1      44.152  35.734  31.792  1.00  0.00     0.054 A 
BRANCH  69  70
ATOM     70  S   UNL A   1      44.329  37.460  32.321  1.00  0.00     0.124 S 
ATOM     71  O   UNL A   1      45.692  37.474  32.846  1.00  0.00    -0.237 OA
ATOM     72  O   UNL A   1      44.129  38.200  31.078  1.00  0.00    -0.237 OA
ATOM     73  O   UNL A   1      43.275  37.628  33.318  1.00  0.00    -0.744 OA
ENDBRANCH  69  70
ENDBRANCH  50  64
BRANCH  51  74
ATOM     74  C   UNL A   1      42.541  23.739  27.686  1.00  0.00    -0.014 A 
ATOM     75  C   UNL A   1      42.561  23.496  26.302  1.00  0.00     0.010 A 
ATOM     76  C   UNL A   1      42.356  22.659  28.568  1.00  0.00     0.010 A 
ATOM     77  C   UNL A   1      42.383  22.200  25.807  1.00  0.00     0.020 A 
ATOM     78  C   UNL A   1      42.203  21.359  28.079  1.00  0.00     0.020 A 
ATOM     79  C   UNL A   1      42.207  21.139  26.700  1.00  0.00     0.054 A 
BRANCH  79  80
ATOM     80  S   UNL A   1      42.033  19.459  26.039  1.00  0.00     0.124 S 
ATOM     81  O   UNL A   1      40.600  19.381  25.781  1.00  0.00    -0.237 OA
ATOM     82  O   UNL A   1      42.889  19.494  24.856  1.00  0.00    -0.237 OA
ATOM     83  O   UNL A   1      42.523  18.613  27.125  1.00  0.00    -0.744 OA
ENDBRANCH  79  80
ENDBRANCH  51  74
BRANCH  63  84
ATOM     84  C   UNL A   1      48.124  27.357  29.802  1.00  0.00    -0.014 A 
ATOM     85  C   UNL A   1      49.090  27.773  28.870  1.00  0.00     0.010 A 
ATOM     86  C   UNL A   1      48.536  26.665  30.957  1.00  0.00     0.010 A 
ATOM     87  C   UNL A   1      50.443  27.495  29.085  1.00  0.00     0.020 A 
ATOM     88  C   UNL A   1      49.889  26.405  31.185  1.00  0.00     0.020 A 
ATOM     89  C   UNL A   1      50.834  26.816  30.244  1.00  0.00     0.054 A 
BRANCH  89  90
ATOM     90  S   UNL A   1      52.602  26.533  30.539  1.00  0.00     0.124 S 
ATOM     91  O   UNL A   1      53.062  26.090  29.226  1.00  0.00    -0.237 OA
ATOM     92  O   UNL A   1      53.073  27.850  30.959  1.00  0.00    -0.237 OA
ATOM     93  O   UNL A   1      52.619  25.510  31.583  1.00  0.00    -0.744 OA
ENDBRANCH  89  90
ENDBRANCH  63  84
ENDBRANCH  37  38
ENDBRANCH  29  32
ENDBRANCH  27  28
ENDBRANCH   1  27
TORSDOF 17
ENDMDL
MODEL 3
REMARK VINA RESULT:     -11.2      2.798      9.464
REMARK SMILES O=C(CNc1nc(-c2ccccc2)c(-c2ccccc2)s1)NCCCNC(=O)c1ccc(-c2c3nc(c(-c4ccc(S(=O)(=O)[O-])cc4)c4ccc([nH]4)c(-c4ccc(S(=O)(=O)[O-])cc4)c4nc(c(-c5ccc(S(=O)(=O)[O-])cc5)c5ccc2[nH]5)C=C4)C=C3)cc1
REMARK SMILES IDX 24 1 23 2 22 3 1 4 2 5 3 7 4 8 5 10 6 11 21 12 7 13 14 14
REMARK SMILES IDX 8 15 9 16 13 17 10 18 12 19 11 20 15 21 16 22 20 23 17 24
REMARK SMILES IDX 19 25 18 26 25 27 26 28 27 29 28 31 29 32 30 33 88 34 31 35
REMARK SMILES IDX 87 36 32 37 33 38 34 39 81 40 35 41 86 42 80 43 82 44 36 45
REMARK SMILES IDX 85 46 79 47 78 48 37 50 67 51 48 52 66 53 49 54 52 55 65 56
REMARK SMILES IDX 83 57 50 58 51 59 64 61 84 62 53 63 38 64 39 65 47 66 40 67
REMARK SMILES IDX 46 68 41 69 42 70 43 71 44 72 45 73 68 74 69 75 77 76 70 77
REMARK SMILES IDX 76 78 71 79 72 80 73 81 74 82 75 83 54 84 55 85 63 86 56 87
REMARK SMILES IDX 62 88 57 89 58 90 59 91 60 92 61 93
REMARK H PARENT 22 6 4 9 26 30 82 49 52 60
REMARK Flexibility Score: inf
ROOT
ATOM      1  C   UNL A   1      36.126  23.269  23.936  1.00  0.00     0.042 C 
ENDROOT
BRANCH   1   2
ATOM      2  C   UNL A   1      35.593  21.842  23.990  1.00  0.00     0.117 C 
BRANCH   2   3
ATOM      3  N   UNL A   1      34.211  21.773  24.417  1.00  0.00    -0.355 N 
ATOM      4  O   UNL A   1      34.600  21.360  26.651  1.00  0.00    -0.273 OA
ATOM      5  C   UNL A   1      33.820  21.574  25.729  1.00  0.00     0.239 C 
ATOM      6  H   UNL A   1      33.510  21.871  23.733  1.00  0.00     0.163 HD
BRANCH   5   7
ATOM      7  C   UNL A   1      32.294  21.644  25.919  1.00  0.00     0.215 C 
BRANCH   7   8
ATOM      8  N   UNL A   1      31.708  22.328  24.771  1.00  0.00    -0.352 N 
ATOM      9  H   UNL A   1      31.391  21.794  24.007  1.00  0.00     0.163 HD
BRANCH   8  10
ATOM     10  C   UNL A   1      31.590  23.666  24.727  1.00  0.00     0.184 A 
ATOM     11  N   UNL A   1      32.106  24.513  25.583  1.00  0.00    -0.220 NA
ATOM     12  S   UNL A   1      30.660  24.372  23.464  1.00  0.00    -0.096 S 
ATOM     13  C   UNL A   1      31.732  25.808  25.254  1.00  0.00     0.091 A 
ATOM     14  C   UNL A   1      30.896  25.925  24.152  1.00  0.00     0.064 A 
BRANCH  13  15
ATOM     15  C   UNL A   1      32.235  26.949  26.004  1.00  0.00     0.002 A 
ATOM     16  C   UNL A   1      31.390  27.709  26.824  1.00  0.00     0.010 A 
ATOM     17  C   UNL A   1      33.570  27.339  25.845  1.00  0.00     0.010 A 
ATOM     18  C   UNL A   1      31.867  28.865  27.445  1.00  0.00     0.001 A 
ATOM     19  C   UNL A   1      34.043  28.499  26.464  1.00  0.00     0.001 A 
ATOM     20  C   UNL A   1      33.189  29.265  27.256  1.00  0.00     0.000 A 
ENDBRANCH  13  15
BRANCH  14  21
ATOM     21  C   UNL A   1      30.283  27.095  23.525  1.00  0.00    -0.006 A 
ATOM     22  C   UNL A   1      28.895  27.287  23.584  1.00  0.00     0.009 A 
ATOM     23  C   UNL A   1      31.078  28.067  22.902  1.00  0.00     0.009 A 
ATOM     24  C   UNL A   1      28.315  28.431  23.034  1.00  0.00     0.001 A 
ATOM     25  C   UNL A   1      30.496  29.211  22.354  1.00  0.00     0.001 A 
ATOM     26  C   UNL A   1      29.116  29.393  22.421  1.00  0.00     0.000 A 
ENDBRANCH  14  21
ENDBRANCH   8  10
ENDBRANCH   7   8
ENDBRANCH   5   7
ENDBRANCH   2   3
ENDBRANCH   1   2
BRANCH   1  27
ATOM     27  C   UNL A   1      36.972  23.682  25.139  1.00  0.00     0.118 C 
BRANCH  27  28
ATOM     28  N   UNL A   1      38.031  22.734  25.461  1.00  0.00    -0.352 N 
ATOM     29  C   UNL A   1      39.207  22.930  26.147  1.00  0.00     0.251 C 
ATOM     30  H   UNL A   1      37.884  21.815  25.137  1.00  0.00     0.163 HD
ATOM     31  O   UNL A   1      40.028  22.018  26.219  1.00  0.00    -0.269 OA
BRANCH  29  32
ATOM     32  C   UNL A   1      39.502  24.240  26.771  1.00  0.00     0.039 A 
ATOM     33  C   UNL A   1      39.047  24.490  28.070  1.00  0.00     0.014 A 
ATOM     34  C   UNL A   1      40.229  25.216  26.085  1.00  0.00     0.014 A 
ATOM     35  C   UNL A   1      39.396  25.682  28.713  1.00  0.00     0.010 A 
ATOM     36  C   UNL A   1      40.627  26.375  26.749  1.00  0.00     0.010 A 
ATOM     37  C   UNL A   1      40.228  26.614  28.075  1.00  0.00    -0.014 A 
BRANCH  37  38
ATOM     38  C   UNL A   1      40.723  27.834  28.767  1.00  0.00     0.031 A 
ATOM     39  C   UNL A   1      42.083  27.838  29.408  1.00  0.00     0.074 A 
ATOM     40  C   UNL A   1      39.908  28.898  28.911  1.00  0.00     0.049 A 
ATOM     41  N   UNL A   1      42.622  28.734  30.195  1.00  0.00    -0.248 NA
ATOM     42  C   UNL A   1      42.940  26.669  29.150  1.00  0.00     0.031 C 
ATOM     43  C   UNL A   1      38.556  29.016  28.358  1.00  0.00     0.029 A 
ATOM     44  N   UNL A   1      40.090  30.078  29.592  1.00  0.00    -0.354 N 
ATOM     45  C   UNL A   1      43.865  28.225  30.551  1.00  0.00     0.074 A 
ATOM     46  C   UNL A   1      43.989  26.929  29.917  1.00  0.00     0.031 C 
ATOM     47  C   UNL A   1      38.036  30.202  28.714  1.00  0.00     0.029 A 
ATOM     48  C   UNL A   1      38.993  30.907  29.561  1.00  0.00     0.049 A 
ATOM     49  H   UNL A   1      40.925  30.307  30.058  1.00  0.00     0.167 HD
ATOM     50  C   UNL A   1      44.821  28.789  31.329  1.00  0.00     0.031 A 
ATOM     51  C   UNL A   1      38.769  32.093  30.163  1.00  0.00     0.031 A 
ATOM     52  C   UNL A   1      44.703  30.083  31.946  1.00  0.00     0.049 A 
ATOM     53  C   UNL A   1      39.841  32.694  31.030  1.00  0.00     0.074 A 
ATOM     54  C   UNL A   1      45.637  30.756  32.715  1.00  0.00     0.029 A 
ATOM     55  N   UNL A   1      43.589  30.903  31.860  1.00  0.00    -0.354 N 
ATOM     56  N   UNL A   1      41.024  32.213  31.328  1.00  0.00    -0.248 NA
ATOM     57  C   UNL A   1      39.552  34.002  31.637  1.00  0.00     0.031 C 
ATOM     58  C   UNL A   1      45.071  31.967  33.128  1.00  0.00     0.029 A 
ATOM     59  C   UNL A   1      43.806  32.070  32.572  1.00  0.00     0.049 A 
ATOM     60  H   UNL A   1      42.765  30.688  31.366  1.00  0.00     0.167 HD
ATOM     61  C   UNL A   1      41.633  33.175  32.126  1.00  0.00     0.074 A 
ATOM     62  C   UNL A   1      40.690  34.265  32.265  1.00  0.00     0.031 C 
ATOM     63  C   UNL A   1      42.866  33.156  32.688  1.00  0.00     0.031 A 
BRANCH  50  64
ATOM     64  C   UNL A   1      46.078  27.996  31.568  1.00  0.00    -0.014 A 
ATOM     65  C   UNL A   1      46.190  27.124  32.664  1.00  0.00     0.010 A 
ATOM     66  C   UNL A   1      47.150  28.097  30.661  1.00  0.00     0.010 A 
ATOM     67  C   UNL A   1      47.367  26.403  32.878  1.00  0.00     0.020 A 
ATOM     68  C   UNL A   1      48.320  27.357  30.856  1.00  0.00     0.020 A 
ATOM     69  C   UNL A   1      48.428  26.530  31.975  1.00  0.00     0.054 A 
BRANCH  69  70
ATOM     70  S   UNL A   1      49.942  25.575  32.270  1.00  0.00     0.124 S 
ATOM     71  O   UNL A   1      50.844  26.599  32.793  1.00  0.00    -0.237 OA
ATOM     72  O   UNL A   1      49.507  24.570  33.236  1.00  0.00    -0.237 OA
ATOM     73  O   UNL A   1      50.288  25.056  30.950  1.00  0.00    -0.744 OA
ENDBRANCH  69  70
ENDBRANCH  50  64
BRANCH  51  74
ATOM     74  C   UNL A   1      37.472  32.794  29.960  1.00  0.00    -0.014 A 
ATOM     75  C   UNL A   1      37.307  33.681  28.882  1.00  0.00     0.010 A 
ATOM     76  C   UNL A   1      36.391  32.565  30.830  1.00  0.00     0.010 A 
ATOM     77  C   UNL A   1      36.089  34.340  28.688  1.00  0.00     0.020 A 
ATOM     78  C   UNL A   1      35.165  33.202  30.625  1.00  0.00     0.020 A 
ATOM     79  C   UNL A   1      35.025  34.094  29.560  1.00  0.00     0.054 A 
BRANCH  79  80
ATOM     80  S   UNL A   1      33.436  34.917  29.256  1.00  0.00     0.124 S 
ATOM     81  O   UNL A   1      32.782  33.986  28.343  1.00  0.00    -0.237 OA
ATOM     82  O   UNL A   1      32.861  35.001  30.596  1.00  0.00    -0.237 OA
ATOM     83  O   UNL A   1      33.824  36.200  28.673  1.00  0.00    -0.744 OA
ENDBRANCH  79  80
ENDBRANCH  51  74
BRANCH  63  84
ATOM     84  C   UNL A   1      43.303  34.371  33.460  1.00  0.00    -0.014 A 
ATOM     85  C   UNL A   1      43.916  35.462  32.823  1.00  0.00     0.010 A 
ATOM     86  C   UNL A   1      43.012  34.451  34.835  1.00  0.00     0.010 A 
ATOM     87  C   UNL A   1      44.243  36.610  33.550  1.00  0.00     0.020 A 
ATOM     88  C   UNL A   1      43.318  35.606  35.560  1.00  0.00     0.020 A 
ATOM     89  C   UNL A   1      43.938  36.677  34.914  1.00  0.00     0.054 A 
BRANCH  89  90
ATOM     90  S   UNL A   1      44.302  38.206  35.820  1.00  0.00     0.124 S 
ATOM     91  O   UNL A   1      43.763  39.225  34.925  1.00  0.00    -0.237 OA
ATOM     92  O   UNL A   1      43.573  38.019  37.072  1.00  0.00    -0.237 OA
ATOM     93  O   UNL A   1      45.758  38.194  35.947  1.00  0.00    -0.744 OA
ENDBRANCH  89  90
ENDBRANCH  63  84
ENDBRANCH  37  38
ENDBRANCH  29  32
ENDBRANCH  27  28
ENDBRANCH   1  27
TORSDOF 17
ENDMDL
