MODEL 1
REMARK VINA RESULT:     -12.6      0.000      0.000
REMARK SMILES Cc1cc(C(=O)NCCCNC(=O)c2ccc(-c3c4nc(c(-c5ccc(S(=O)(=O)[O-])cc5)c5ccc([nH]5)c(-c5ccc(S(=O)(=O)[O-])cc5)c5nc(c(-c6ccc(S(=O)(=O)[O-])cc6)c6ccc3[nH]6)C=C5)C=C4)cc2)ccc1NS(=O)(=O)c1c(F)cccc1F
REMARK SMILES IDX 9 1 8 2 7 3 5 4 6 5 4 7 1 8 2 9 3 10 76 11 75 12 74 13 77 14
REMARK SMILES IDX 78 16 79 17 80 18 81 19 82 20 87 21 83 22 84 23 86 24 88 25
REMARK SMILES IDX 85 26 10 27 11 28 12 29 13 31 14 32 15 33 73 34 16 35 72 36
REMARK SMILES IDX 17 37 18 38 19 39 66 40 20 41 71 42 65 43 67 44 21 45 70 46
REMARK SMILES IDX 64 47 63 48 22 50 52 51 33 52 51 53 34 54 37 55 50 56 68 57
REMARK SMILES IDX 35 58 36 59 49 61 69 62 38 63 23 64 24 65 32 66 25 67 31 68
REMARK SMILES IDX 26 69 27 70 28 71 29 72 30 73 53 74 54 75 62 76 55 77 61 78
REMARK SMILES IDX 56 79 57 80 58 81 59 82 60 83 39 84 40 85 48 86 41 87 47 88
REMARK SMILES IDX 42 89 43 90 44 91 45 92 46 93
REMARK H PARENT 7 6 77 15 11 30 67 49 37 60
REMARK Flexibility Score: inf
ROOT
ATOM      1  C   UNL A   1      34.158  32.411  27.895  1.00  0.00     0.042 C 
ENDROOT
BRANCH   1   2
ATOM      2  C   UNL A   1      34.234  30.797  27.778  1.00  0.00     0.118 C 
BRANCH   2   3
ATOM      3  N   UNL A   1      32.960  30.001  27.759  1.00  0.00    -0.352 N 
ATOM      4  C   UNL A   1      32.455  28.834  27.202  1.00  0.00     0.251 C 
ATOM      5  O   UNL A   1      31.439  28.292  27.641  1.00  0.00    -0.269 OA
ATOM      6  H   UNL A   1      32.273  30.442  28.309  1.00  0.00     0.163 HD
BRANCH   4   7
ATOM      7  C   UNL A   1      33.085  28.203  26.020  1.00  0.00     0.040 A 
ATOM      8  C   UNL A   1      34.696  24.958  24.826  1.00  0.00     0.046 C 
ATOM      9  C   UNL A   1      34.083  26.332  24.806  1.00  0.00    -0.026 A 
ATOM     10  C   UNL A   1      33.720  26.948  26.033  1.00  0.00     0.019 A 
ATOM     11  C   UNL A   1      33.869  27.045  23.611  1.00  0.00     0.052 A 
ATOM     12  C   UNL A   1      33.594  28.388  23.683  1.00  0.00     0.028 A 
ATOM     13  C   UNL A   1      32.974  28.848  24.814  1.00  0.00     0.016 A 
BRANCH  11  14
ATOM     14  N   UNL A   1      33.595  26.370  22.379  1.00  0.00    -0.279 N 
ATOM     15  H   UNL A   1      34.293  26.402  21.684  1.00  0.00     0.180 HD
BRANCH  14  16
ATOM     16  S   UNL A   1      32.177  25.525  22.014  1.00  0.00     0.267 S 
ATOM     17  O   UNL A   1      31.395  26.444  21.194  1.00  0.00    -0.201 OA
ATOM     18  O   UNL A   1      32.596  24.250  21.489  1.00  0.00    -0.201 OA
BRANCH  16  19
ATOM     19  C   UNL A   1      31.213  25.179  23.463  1.00  0.00     0.158 A 
ATOM     20  C   UNL A   1      30.487  26.226  24.034  1.00  0.00     0.146 A 
ATOM     21  C   UNL A   1      31.289  23.976  24.156  1.00  0.00     0.146 A 
ATOM     22  F   UNL A   1      30.312  27.385  23.384  1.00  0.00    -0.205 F 
ATOM     23  C   UNL A   1      29.922  26.113  25.307  1.00  0.00     0.041 A 
ATOM     24  C   UNL A   1      30.749  23.861  25.447  1.00  0.00     0.041 A 
ATOM     25  F   UNL A   1      31.955  22.929  23.652  1.00  0.00    -0.205 F 
ATOM     26  C   UNL A   1      30.080  24.937  26.032  1.00  0.00     0.006 A 
ENDBRANCH  16  19
ENDBRANCH  14  16
ENDBRANCH  11  14
ENDBRANCH   4   7
ENDBRANCH   2   3
ENDBRANCH   1   2
BRANCH   1  27
ATOM     27  C   UNL A   1      34.976  33.030  29.132  1.00  0.00     0.118 C 
BRANCH  27  28
ATOM     28  N   UNL A   1      35.931  32.302  30.118  1.00  0.00    -0.352 N 
ATOM     29  C   UNL A   1      37.206  31.621  29.871  1.00  0.00     0.251 C 
ATOM     30  H   UNL A   1      35.633  32.296  31.056  1.00  0.00     0.163 HD
ATOM     31  O   UNL A   1      38.210  32.292  30.158  1.00  0.00    -0.269 OA
BRANCH  29  32
ATOM     32  C   UNL A   1      37.524  30.126  29.399  1.00  0.00     0.039 A 
ATOM     33  C   UNL A   1      37.618  29.056  30.349  1.00  0.00     0.014 A 
ATOM     34  C   UNL A   1      37.866  29.720  28.111  1.00  0.00     0.014 A 
ATOM     35  C   UNL A   1      38.487  27.900  30.123  1.00  0.00     0.010 A 
ATOM     36  C   UNL A   1      38.727  28.585  27.886  1.00  0.00     0.010 A 
ATOM     37  C   UNL A   1      39.246  27.807  28.937  1.00  0.00    -0.014 A 
BRANCH  37  38
ATOM     38  C   UNL A   1      40.694  27.265  28.861  1.00  0.00     0.031 A 
ATOM     39  C   UNL A   1      40.987  25.887  28.476  1.00  0.00     0.074 A 
ATOM     40  C   UNL A   1      41.886  27.941  28.953  1.00  0.00     0.049 A 
ATOM     41  N   UNL A   1      41.753  25.075  29.137  1.00  0.00    -0.248 NA
ATOM     42  C   UNL A   1      40.542  25.402  27.182  1.00  0.00     0.031 C 
ATOM     43  C   UNL A   1      43.306  27.575  28.762  1.00  0.00     0.029 A 
ATOM     44  N   UNL A   1      42.080  29.272  29.216  1.00  0.00    -0.354 N 
ATOM     45  C   UNL A   1      42.156  24.133  28.211  1.00  0.00     0.074 A 
ATOM     46  C   UNL A   1      41.221  24.256  27.104  1.00  0.00     0.031 C 
ATOM     47  C   UNL A   1      44.107  28.529  29.304  1.00  0.00     0.029 A 
ATOM     48  C   UNL A   1      43.252  29.527  29.912  1.00  0.00     0.049 A 
ATOM     49  H   UNL A   1      41.450  29.976  28.938  1.00  0.00     0.167 HD
ATOM     50  C   UNL A   1      43.395  23.551  28.243  1.00  0.00     0.031 A 
ATOM     51  C   UNL A   1      43.184  29.997  31.203  1.00  0.00     0.031 A 
ATOM     52  C   UNL A   1      44.328  24.216  29.174  1.00  0.00     0.049 A 
ATOM     53  C   UNL A   1      43.646  28.933  32.150  1.00  0.00     0.074 A 
ATOM     54  C   UNL A   1      45.505  24.929  28.973  1.00  0.00     0.029 A 
ATOM     55  N   UNL A   1      43.966  24.470  30.494  1.00  0.00    -0.354 N 
ATOM     56  N   UNL A   1      44.101  27.789  31.743  1.00  0.00    -0.248 NA
ATOM     57  C   UNL A   1      43.577  29.009  33.602  1.00  0.00     0.031 C 
ATOM     58  C   UNL A   1      45.830  25.624  30.172  1.00  0.00     0.029 A 
ATOM     59  C   UNL A   1      44.876  25.311  31.122  1.00  0.00     0.049 A 
ATOM     60  H   UNL A   1      43.165  24.099  30.930  1.00  0.00     0.167 HD
ATOM     61  C   UNL A   1      44.310  26.950  32.787  1.00  0.00     0.074 A 
ATOM     62  C   UNL A   1      43.999  27.776  33.945  1.00  0.00     0.031 C 
ATOM     63  C   UNL A   1      44.699  25.664  32.538  1.00  0.00     0.031 A 
BRANCH  50  64
ATOM     64  C   UNL A   1      43.843  22.569  27.165  1.00  0.00    -0.014 A 
ATOM     65  C   UNL A   1      42.990  21.557  26.683  1.00  0.00     0.010 A 
ATOM     66  C   UNL A   1      45.110  22.643  26.546  1.00  0.00     0.010 A 
ATOM     67  C   UNL A   1      43.411  20.621  25.719  1.00  0.00     0.020 A 
ATOM     68  C   UNL A   1      45.570  21.678  25.637  1.00  0.00     0.020 A 
ATOM     69  C   UNL A   1      44.711  20.673  25.220  1.00  0.00     0.054 A 
BRANCH  69  70
ATOM     70  S   UNL A   1      45.246  19.474  23.971  1.00  0.00     0.124 S 
ATOM     71  O   UNL A   1      44.846  18.198  24.556  1.00  0.00    -0.237 OA
ATOM     72  O   UNL A   1      44.490  19.893  22.794  1.00  0.00    -0.237 OA
ATOM     73  O   UNL A   1      46.691  19.684  23.883  1.00  0.00    -0.744 OA
ENDBRANCH  69  70
ENDBRANCH  50  64
BRANCH  51  74
ATOM     74  C   UNL A   1      42.059  31.012  31.537  1.00  0.00    -0.014 A 
ATOM     75  C   UNL A   1      42.451  32.003  32.455  1.00  0.00     0.010 A 
ATOM     76  C   UNL A   1      41.437  31.504  30.401  1.00  0.00     0.010 A 
ATOM     77  C   UNL A   1      43.025  33.186  31.968  1.00  0.00     0.020 A 
ATOM     78  C   UNL A   1      41.999  32.706  29.929  1.00  0.00     0.020 A 
ATOM     79  C   UNL A   1      42.936  33.446  30.616  1.00  0.00     0.054 A 
BRANCH  79  80
ATOM     80  S   UNL A   1      44.339  34.477  29.646  1.00  0.00     0.124 S 
ATOM     81  O   UNL A   1      44.359  35.678  30.454  1.00  0.00    -0.237 OA
ATOM     82  O   UNL A   1      45.560  33.703  29.766  1.00  0.00    -0.237 OA
ATOM     83  O   UNL A   1      43.883  34.673  28.281  1.00  0.00    -0.744 OA
ENDBRANCH  79  80
ENDBRANCH  51  74
BRANCH  63  84
ATOM     84  C   UNL A   1      44.984  24.593  33.559  1.00  0.00    -0.014 A 
ATOM     85  C   UNL A   1      44.019  23.883  34.279  1.00  0.00     0.010 A 
ATOM     86  C   UNL A   1      46.339  24.286  33.844  1.00  0.00     0.010 A 
ATOM     87  C   UNL A   1      44.380  22.887  35.195  1.00  0.00     0.020 A 
ATOM     88  C   UNL A   1      46.715  23.292  34.742  1.00  0.00     0.020 A 
ATOM     89  C   UNL A   1      45.725  22.592  35.411  1.00  0.00     0.054 A 
BRANCH  89  90
ATOM     90  S   UNL A   1      46.153  21.284  36.576  1.00  0.00     0.124 S 
ATOM     91  O   UNL A   1      45.618  21.807  37.831  1.00  0.00    -0.237 OA
ATOM     92  O   UNL A   1      45.443  20.133  36.022  1.00  0.00    -0.237 OA
ATOM     93  O   UNL A   1      47.610  21.210  36.503  1.00  0.00    -0.744 OA
ENDBRANCH  89  90
ENDBRANCH  63  84
ENDBRANCH  37  38
ENDBRANCH  29  32
ENDBRANCH  27  28
ENDBRANCH   1  27
TORSDOF 16
ENDMDL
MODEL 2
REMARK VINA RESULT:     -12.3      5.966      8.649
REMARK SMILES Cc1cc(C(=O)NCCCNC(=O)c2ccc(-c3c4nc(c(-c5ccc(S(=O)(=O)[O-])cc5)c5ccc([nH]5)c(-c5ccc(S(=O)(=O)[O-])cc5)c5nc(c(-c6ccc(S(=O)(=O)[O-])cc6)c6ccc3[nH]6)C=C5)C=C4)cc2)ccc1NS(=O)(=O)c1c(F)cccc1F
REMARK SMILES IDX 9 1 8 2 7 3 5 4 6 5 4 7 1 8 2 9 3 10 76 11 75 12 74 13 77 14
REMARK SMILES IDX 78 16 79 17 80 18 81 19 82 20 87 21 83 22 84 23 86 24 88 25
REMARK SMILES IDX 85 26 10 27 11 28 12 29 13 31 14 32 15 33 73 34 16 35 72 36
REMARK SMILES IDX 17 37 18 38 19 39 66 40 20 41 71 42 65 43 67 44 21 45 70 46
REMARK SMILES IDX 64 47 63 48 22 50 52 51 33 52 51 53 34 54 37 55 50 56 68 57
REMARK SMILES IDX 35 58 36 59 49 61 69 62 38 63 23 64 24 65 32 66 25 67 31 68
REMARK SMILES IDX 26 69 27 70 28 71 29 72 30 73 53 74 54 75 62 76 55 77 61 78
REMARK SMILES IDX 56 79 57 80 58 81 59 82 60 83 39 84 40 85 48 86 41 87 47 88
REMARK SMILES IDX 42 89 43 90 44 91 45 92 46 93
REMARK H PARENT 7 6 77 15 11 30 67 49 37 60
REMARK Flexibility Score: inf
ROOT
ATOM      1  C   UNL A   1      33.660  27.605  25.157  1.00  0.00     0.042 C 
ENDROOT
BRANCH   1   2
ATOM      2  C   UNL A   1      33.680  28.846  24.116  1.00  0.00     0.118 C 
BRANCH   2   3
ATOM      3  N   UNL A   1      32.570  28.980  23.112  1.00  0.00    -0.352 N 
ATOM      4  C   UNL A   1      31.408  28.321  22.732  1.00  0.00     0.251 C 
ATOM      5  O   UNL A   1      30.541  28.874  22.053  1.00  0.00    -0.269 OA
ATOM      6  H   UNL A   1      32.709  29.778  22.553  1.00  0.00     0.163 HD
BRANCH   4   7
ATOM      7  C   UNL A   1      31.172  26.902  23.082  1.00  0.00     0.040 A 
ATOM      8  C   UNL A   1      32.575  23.391  22.574  1.00  0.00     0.046 C 
ATOM      9  C   UNL A   1      31.749  24.528  23.111  1.00  0.00    -0.026 A 
ATOM     10  C   UNL A   1      31.890  25.820  22.541  1.00  0.00     0.019 A 
ATOM     11  C   UNL A   1      30.819  24.356  24.156  1.00  0.00     0.052 A 
ATOM     12  C   UNL A   1      29.897  25.346  24.389  1.00  0.00     0.028 A 
ATOM     13  C   UNL A   1      30.245  26.627  24.056  1.00  0.00     0.016 A 
BRANCH  11  14
ATOM     14  N   UNL A   1      31.016  23.370  25.174  1.00  0.00    -0.279 N 
ATOM     15  H   UNL A   1      30.358  22.639  25.225  1.00  0.00     0.180 HD
BRANCH  14  16
ATOM     16  S   UNL A   1      32.280  23.354  26.297  1.00  0.00     0.267 S 
ATOM     17  O   UNL A   1      32.980  24.617  26.090  1.00  0.00    -0.201 OA
ATOM     18  O   UNL A   1      31.678  23.051  27.571  1.00  0.00    -0.201 OA
BRANCH  16  19
ATOM     19  C   UNL A   1      33.447  22.058  25.973  1.00  0.00     0.158 A 
ATOM     20  C   UNL A   1      34.788  22.288  26.289  1.00  0.00     0.146 A 
ATOM     21  C   UNL A   1      33.126  20.909  25.259  1.00  0.00     0.146 A 
ATOM     22  F   UNL A   1      35.155  23.336  27.038  1.00  0.00    -0.205 F 
ATOM     23  C   UNL A   1      35.801  21.442  25.830  1.00  0.00     0.041 A 
ATOM     24  C   UNL A   1      34.139  20.067  24.769  1.00  0.00     0.041 A 
ATOM     25  F   UNL A   1      31.857  20.624  24.942  1.00  0.00    -0.205 F 
ATOM     26  C   UNL A   1      35.480  20.343  25.040  1.00  0.00     0.006 A 
ENDBRANCH  16  19
ENDBRANCH  14  16
ENDBRANCH  11  14
ENDBRANCH   4   7
ENDBRANCH   2   3
ENDBRANCH   1   2
BRANCH   1  27
ATOM     27  C   UNL A   1      33.020  27.946  26.591  1.00  0.00     0.118 C 
BRANCH  27  28
ATOM     28  N   UNL A   1      33.475  29.016  27.620  1.00  0.00    -0.352 N 
ATOM     29  C   UNL A   1      34.693  29.831  27.662  1.00  0.00     0.251 C 
ATOM     30  H   UNL A   1      32.846  29.174  28.361  1.00  0.00     0.163 HD
ATOM     31  O   UNL A   1      34.549  30.993  27.249  1.00  0.00    -0.269 OA
BRANCH  29  32
ATOM     32  C   UNL A   1      36.148  29.514  28.247  1.00  0.00     0.039 A 
ATOM     33  C   UNL A   1      36.330  29.183  29.631  1.00  0.00     0.014 A 
ATOM     34  C   UNL A   1      37.359  29.647  27.573  1.00  0.00     0.014 A 
ATOM     35  C   UNL A   1      37.566  29.511  30.345  1.00  0.00     0.010 A 
ATOM     36  C   UNL A   1      38.577  29.976  28.273  1.00  0.00     0.010 A 
ATOM     37  C   UNL A   1      38.625  30.152  29.668  1.00  0.00    -0.014 A 
BRANCH  37  38
ATOM     38  C   UNL A   1      39.517  31.259  30.281  1.00  0.00     0.031 A 
ATOM     39  C   UNL A   1      40.953  31.077  30.476  1.00  0.00     0.074 A 
ATOM     40  C   UNL A   1      39.212  32.567  30.570  1.00  0.00     0.049 A 
ATOM     41  N   UNL A   1      41.589  31.306  31.583  1.00  0.00    -0.248 NA
ATOM     42  C   UNL A   1      41.793  30.780  29.331  1.00  0.00     0.031 C 
ATOM     43  C   UNL A   1      39.992  33.741  31.016  1.00  0.00     0.029 A 
ATOM     44  N   UNL A   1      37.999  33.193  30.453  1.00  0.00    -0.354 N 
ATOM     45  C   UNL A   1      42.901  31.511  31.204  1.00  0.00     0.074 A 
ATOM     46  C   UNL A   1      43.004  30.966  29.860  1.00  0.00     0.031 C 
ATOM     47  C   UNL A   1      39.153  34.705  31.478  1.00  0.00     0.029 A 
ATOM     48  C   UNL A   1      37.803  34.187  31.400  1.00  0.00     0.049 A 
ATOM     49  H   UNL A   1      37.333  32.961  29.765  1.00  0.00     0.167 HD
ATOM     50  C   UNL A   1      43.727  32.391  31.852  1.00  0.00     0.031 A 
ATOM     51  C   UNL A   1      36.839  34.020  32.367  1.00  0.00     0.031 A 
ATOM     52  C   UNL A   1      43.013  33.276  32.793  1.00  0.00     0.049 A 
ATOM     53  C   UNL A   1      37.493  33.816  33.699  1.00  0.00     0.074 A 
ATOM     54  C   UNL A   1      42.794  34.649  32.806  1.00  0.00     0.029 A 
ATOM     55  N   UNL A   1      42.146  32.756  33.750  1.00  0.00    -0.354 N 
ATOM     56  N   UNL A   1      38.780  33.874  33.858  1.00  0.00    -0.248 NA
ATOM     57  C   UNL A   1      36.805  33.461  34.931  1.00  0.00     0.031 C 
ATOM     58  C   UNL A   1      41.779  34.942  33.761  1.00  0.00     0.029 A 
ATOM     59  C   UNL A   1      41.399  33.756  34.360  1.00  0.00     0.049 A 
ATOM     60  H   UNL A   1      42.071  31.799  33.968  1.00  0.00     0.167 HD
ATOM     61  C   UNL A   1      39.130  33.508  35.115  1.00  0.00     0.074 A 
ATOM     62  C   UNL A   1      37.847  33.290  35.768  1.00  0.00     0.031 C 
ATOM     63  C   UNL A   1      40.455  33.418  35.437  1.00  0.00     0.031 A 
BRANCH  50  64
ATOM     64  C   UNL A   1      45.149  32.654  31.366  1.00  0.00    -0.014 A 
ATOM     65  C   UNL A   1      45.437  33.664  30.428  1.00  0.00     0.010 A 
ATOM     66  C   UNL A   1      46.267  31.946  31.860  1.00  0.00     0.010 A 
ATOM     67  C   UNL A   1      46.740  33.884  29.944  1.00  0.00     0.020 A 
ATOM     68  C   UNL A   1      47.559  32.103  31.338  1.00  0.00     0.020 A 
ATOM     69  C   UNL A   1      47.792  33.083  30.385  1.00  0.00     0.054 A 
BRANCH  69  70
ATOM     70  S   UNL A   1      49.470  33.376  29.767  1.00  0.00     0.124 S 
ATOM     71  O   UNL A   1      50.306  32.915  30.872  1.00  0.00    -0.237 OA
ATOM     72  O   UNL A   1      49.506  32.552  28.562  1.00  0.00    -0.237 OA
ATOM     73  O   UNL A   1      49.506  34.819  29.530  1.00  0.00    -0.744 OA
ENDBRANCH  69  70
ENDBRANCH  50  64
BRANCH  51  74
ATOM     74  C   UNL A   1      35.516  33.327  31.947  1.00  0.00    -0.014 A 
ATOM     75  C   UNL A   1      34.550  33.294  32.970  1.00  0.00     0.010 A 
ATOM     76  C   UNL A   1      35.040  33.790  30.731  1.00  0.00     0.010 A 
ATOM     77  C   UNL A   1      33.655  34.367  33.088  1.00  0.00     0.020 A 
ATOM     78  C   UNL A   1      34.122  34.851  30.854  1.00  0.00     0.020 A 
ATOM     79  C   UNL A   1      33.578  35.270  32.049  1.00  0.00     0.054 A 
BRANCH  79  80
ATOM     80  S   UNL A   1      33.126  37.188  32.350  1.00  0.00     0.124 S 
ATOM     81  O   UNL A   1      31.899  37.032  33.102  1.00  0.00    -0.237 OA
ATOM     82  O   UNL A   1      34.206  37.734  33.149  1.00  0.00    -0.237 OA
ATOM     83  O   UNL A   1      32.963  37.816  31.051  1.00  0.00    -0.744 OA
ENDBRANCH  79  80
ENDBRANCH  51  74
BRANCH  63  84
ATOM     84  C   UNL A   1      41.037  33.037  36.773  1.00  0.00    -0.014 A 
ATOM     85  C   UNL A   1      42.284  32.437  36.971  1.00  0.00     0.010 A 
ATOM     86  C   UNL A   1      40.257  33.275  37.933  1.00  0.00     0.010 A 
ATOM     87  C   UNL A   1      42.751  32.137  38.257  1.00  0.00     0.020 A 
ATOM     88  C   UNL A   1      40.711  32.994  39.218  1.00  0.00     0.020 A 
ATOM     89  C   UNL A   1      41.966  32.429  39.371  1.00  0.00     0.054 A 
BRANCH  89  90
ATOM     90  S   UNL A   1      42.610  32.055  41.012  1.00  0.00     0.124 S 
ATOM     91  O   UNL A   1      43.027  33.374  41.484  1.00  0.00    -0.237 OA
ATOM     92  O   UNL A   1      41.441  31.491  41.682  1.00  0.00    -0.237 OA
ATOM     93  O   UNL A   1      43.697  31.112  40.758  1.00  0.00    -0.744 OA
ENDBRANCH  89  90
ENDBRANCH  63  84
ENDBRANCH  37  38
ENDBRANCH  29  32
ENDBRANCH  27  28
ENDBRANCH   1  27
TORSDOF 16
ENDMDL
MODEL 3
REMARK VINA RESULT:     -12.1      8.251     13.398
REMARK SMILES Cc1cc(C(=O)NCCCNC(=O)c2ccc(-c3c4nc(c(-c5ccc(S(=O)(=O)[O-])cc5)c5ccc([nH]5)c(-c5ccc(S(=O)(=O)[O-])cc5)c5nc(c(-c6ccc(S(=O)(=O)[O-])cc6)c6ccc3[nH]6)C=C5)C=C4)cc2)ccc1NS(=O)(=O)c1c(F)cccc1F
REMARK SMILES IDX 9 1 8 2 7 3 5 4 6 5 4 7 1 8 2 9 3 10 76 11 75 12 74 13 77 14
REMARK SMILES IDX 78 16 79 17 80 18 81 19 82 20 87 21 83 22 84 23 86 24 88 25
REMARK SMILES IDX 85 26 10 27 11 28 12 29 13 31 14 32 15 33 73 34 16 35 72 36
REMARK SMILES IDX 17 37 18 38 19 39 66 40 20 41 71 42 65 43 67 44 21 45 70 46
REMARK SMILES IDX 64 47 63 48 22 50 52 51 33 52 51 53 34 54 37 55 50 56 68 57
REMARK SMILES IDX 35 58 36 59 49 61 69 62 38 63 23 64 24 65 32 66 25 67 31 68
REMARK SMILES IDX 26 69 27 70 28 71 29 72 30 73 53 74 54 75 62 76 55 77 61 78
REMARK SMILES IDX 56 79 57 80 58 81 59 82 60 83 39 84 40 85 48 86 41 87 47 88
REMARK SMILES IDX 42 89 43 90 44 91 45 92 46 93
REMARK H PARENT 7 6 77 15 11 30 67 49 37 60
REMARK Flexibility Score: inf
ROOT
ATOM      1  C   UNL A   1      44.898  39.765  26.184  1.00  0.00     0.042 C 
ENDROOT
BRANCH   1   2
ATOM      2  C   UNL A   1      43.953  40.720  27.090  1.00  0.00     0.118 C 
BRANCH   2   3
ATOM      3  N   UNL A   1      42.525  40.942  26.681  1.00  0.00    -0.352 N 
ATOM      4  C   UNL A   1      41.797  41.338  25.566  1.00  0.00     0.251 C 
ATOM      5  O   UNL A   1      40.589  41.119  25.468  1.00  0.00    -0.269 OA
ATOM      6  H   UNL A   1      41.920  40.748  27.433  1.00  0.00     0.163 HD
BRANCH   4   7
ATOM      7  C   UNL A   1      42.428  42.088  24.456  1.00  0.00     0.040 A 
ATOM      8  C   UNL A   1      45.817  43.191  23.097  1.00  0.00     0.046 C 
ATOM      9  C   UNL A   1      44.340  42.920  23.182  1.00  0.00    -0.026 A 
ATOM     10  C   UNL A   1      43.796  42.408  24.390  1.00  0.00     0.019 A 
ATOM     11  C   UNL A   1      43.464  43.172  22.108  1.00  0.00     0.052 A 
ATOM     12  C   UNL A   1      42.113  43.191  22.349  1.00  0.00     0.028 A 
ATOM     13  C   UNL A   1      41.642  42.426  23.382  1.00  0.00     0.016 A 
BRANCH  11  14
ATOM     14  N   UNL A   1      43.902  43.073  20.750  1.00  0.00    -0.279 N 
ATOM     15  H   UNL A   1      43.808  42.196  20.310  1.00  0.00     0.180 HD
BRANCH  14  16
ATOM     16  S   UNL A   1      44.571  44.330  19.838  1.00  0.00     0.267 S 
ATOM     17  O   UNL A   1      44.920  45.356  20.814  1.00  0.00    -0.201 OA
ATOM     18  O   UNL A   1      45.588  43.727  19.013  1.00  0.00    -0.201 OA
BRANCH  16  19
ATOM     19  C   UNL A   1      43.390  45.053  18.729  1.00  0.00     0.158 A 
ATOM     20  C   UNL A   1      42.405  44.225  18.188  1.00  0.00     0.146 A 
ATOM     21  C   UNL A   1      43.506  46.348  18.235  1.00  0.00     0.146 A 
ATOM     22  F   UNL A   1      42.191  42.993  18.670  1.00  0.00    -0.205 F 
ATOM     23  C   UNL A   1      41.609  44.641  17.116  1.00  0.00     0.041 A 
ATOM     24  C   UNL A   1      42.731  46.767  17.142  1.00  0.00     0.041 A 
ATOM     25  F   UNL A   1      44.419  47.195  18.726  1.00  0.00    -0.205 F 
ATOM     26  C   UNL A   1      41.793  45.906  16.569  1.00  0.00     0.006 A 
ENDBRANCH  16  19
ENDBRANCH  14  16
ENDBRANCH  11  14
ENDBRANCH   4   7
ENDBRANCH   2   3
ENDBRANCH   1   2
BRANCH   1  27
ATOM     27  C   UNL A   1      45.340  38.394  26.896  1.00  0.00     0.118 C 
BRANCH  27  28
ATOM     28  N   UNL A   1      44.831  36.954  26.614  1.00  0.00    -0.352 N 
ATOM     29  C   UNL A   1      43.698  36.221  27.188  1.00  0.00     0.251 C 
ATOM     30  H   UNL A   1      45.351  36.453  25.945  1.00  0.00     0.163 HD
ATOM     31  O   UNL A   1      42.686  36.196  26.469  1.00  0.00    -0.269 OA
BRANCH  29  32
ATOM     32  C   UNL A   1      43.576  35.359  28.530  1.00  0.00     0.039 A 
ATOM     33  C   UNL A   1      44.550  34.356  28.853  1.00  0.00     0.014 A 
ATOM     34  C   UNL A   1      42.511  35.369  29.426  1.00  0.00     0.014 A 
ATOM     35  C   UNL A   1      44.199  33.166  29.630  1.00  0.00     0.010 A 
ATOM     36  C   UNL A   1      42.160  34.195  30.188  1.00  0.00     0.010 A 
ATOM     37  C   UNL A   1      42.880  32.990  30.098  1.00  0.00    -0.014 A 
BRANCH  37  38
ATOM     38  C   UNL A   1      42.135  31.634  30.133  1.00  0.00     0.031 A 
ATOM     39  C   UNL A   1      42.206  30.681  29.027  1.00  0.00     0.074 A 
ATOM     40  C   UNL A   1      41.472  31.027  31.172  1.00  0.00     0.049 A 
ATOM     41  N   UNL A   1      41.183  30.123  28.458  1.00  0.00    -0.248 NA
ATOM     42  C   UNL A   1      43.499  30.169  28.615  1.00  0.00     0.031 C 
ATOM     43  C   UNL A   1      40.852  29.701  31.376  1.00  0.00     0.029 A 
ATOM     44  N   UNL A   1      41.242  31.526  32.427  1.00  0.00    -0.354 N 
ATOM     45  C   UNL A   1      41.683  28.976  27.875  1.00  0.00     0.074 A 
ATOM     46  C   UNL A   1      43.123  29.168  27.816  1.00  0.00     0.031 C 
ATOM     47  C   UNL A   1      40.036  29.733  32.462  1.00  0.00     0.029 A 
ATOM     48  C   UNL A   1      40.049  31.084  32.981  1.00  0.00     0.049 A 
ATOM     49  H   UNL A   1      41.862  32.135  32.890  1.00  0.00     0.167 HD
ATOM     50  C   UNL A   1      40.955  27.819  27.781  1.00  0.00     0.031 A 
ATOM     51  C   UNL A   1      39.030  31.982  33.196  1.00  0.00     0.031 A 
ATOM     52  C   UNL A   1      39.720  27.840  28.591  1.00  0.00     0.049 A 
ATOM     53  C   UNL A   1      37.909  31.708  32.242  1.00  0.00     0.074 A 
ATOM     54  C   UNL A   1      39.315  27.109  29.702  1.00  0.00     0.029 A 
ATOM     55  N   UNL A   1      38.817  28.895  28.496  1.00  0.00    -0.354 N 
ATOM     56  N   UNL A   1      37.929  30.710  31.413  1.00  0.00    -0.248 NA
ATOM     57  C   UNL A   1      36.726  32.538  32.069  1.00  0.00     0.031 C 
ATOM     58  C   UNL A   1      38.180  27.744  30.280  1.00  0.00     0.029 A 
ATOM     59  C   UNL A   1      37.863  28.844  29.505  1.00  0.00     0.049 A 
ATOM     60  H   UNL A   1      38.849  29.591  27.800  1.00  0.00     0.167 HD
ATOM     61  C   UNL A   1      36.877  30.766  30.560  1.00  0.00     0.074 A 
ATOM     62  C   UNL A   1      36.124  31.918  31.035  1.00  0.00     0.031 C 
ATOM     63  C   UNL A   1      36.788  29.846  29.554  1.00  0.00     0.031 A 
BRANCH  50  64
ATOM     64  C   UNL A   1      41.556  26.543  27.200  1.00  0.00    -0.014 A 
ATOM     65  C   UNL A   1      41.869  26.427  25.832  1.00  0.00     0.010 A 
ATOM     66  C   UNL A   1      41.887  25.425  27.997  1.00  0.00     0.010 A 
ATOM     67  C   UNL A   1      42.385  25.238  25.282  1.00  0.00     0.020 A 
ATOM     68  C   UNL A   1      42.333  24.211  27.456  1.00  0.00     0.020 A 
ATOM     69  C   UNL A   1      42.590  24.126  26.096  1.00  0.00     0.054 A 
BRANCH  69  70
ATOM     70  S   UNL A   1      43.264  22.601  25.387  1.00  0.00     0.124 S 
ATOM     71  O   UNL A   1      44.479  22.390  26.169  1.00  0.00    -0.237 OA
ATOM     72  O   UNL A   1      42.187  21.645  25.625  1.00  0.00    -0.237 OA
ATOM     73  O   UNL A   1      43.489  22.940  23.982  1.00  0.00    -0.744 OA
ENDBRANCH  69  70
ENDBRANCH  50  64
BRANCH  51  74
ATOM     74  C   UNL A   1      39.419  33.406  33.674  1.00  0.00    -0.014 A 
ATOM     75  C   UNL A   1      38.311  34.223  33.965  1.00  0.00     0.010 A 
ATOM     76  C   UNL A   1      40.384  33.384  34.667  1.00  0.00     0.010 A 
ATOM     77  C   UNL A   1      37.781  34.207  35.263  1.00  0.00     0.020 A 
ATOM     78  C   UNL A   1      39.851  33.394  35.970  1.00  0.00     0.020 A 
ATOM     79  C   UNL A   1      38.521  33.608  36.262  1.00  0.00     0.054 A 
BRANCH  79  80
ATOM     80  S   UNL A   1      37.659  32.718  37.822  1.00  0.00     0.124 S 
ATOM     81  O   UNL A   1      38.395  33.349  38.898  1.00  0.00    -0.237 OA
ATOM     82  O   UNL A   1      36.264  33.116  37.791  1.00  0.00    -0.237 OA
ATOM     83  O   UNL A   1      37.879  31.288  37.696  1.00  0.00    -0.744 OA
ENDBRANCH  79  80
ENDBRANCH  51  74
BRANCH  63  84
ATOM     84  C   UNL A   1      35.698  29.742  28.519  1.00  0.00    -0.014 A 
ATOM     85  C   UNL A   1      35.331  28.574  27.844  1.00  0.00     0.010 A 
ATOM     86  C   UNL A   1      34.995  30.923  28.169  1.00  0.00     0.010 A 
ATOM     87  C   UNL A   1      34.287  28.570  26.911  1.00  0.00     0.020 A 
ATOM     88  C   UNL A   1      33.948  30.934  27.252  1.00  0.00     0.020 A 
ATOM     89  C   UNL A   1      33.596  29.749  26.630  1.00  0.00     0.054 A 
BRANCH  89  90
ATOM     90  S   UNL A   1      32.240  29.701  25.444  1.00  0.00     0.124 S 
ATOM     91  O   UNL A   1      32.951  29.701  24.167  1.00  0.00    -0.237 OA
ATOM     92  O   UNL A   1      31.572  28.449  25.789  1.00  0.00    -0.237 OA
ATOM     93  O   UNL A   1      31.478  30.913  25.732  1.00  0.00    -0.744 OA
ENDBRANCH  89  90
ENDBRANCH  63  84
ENDBRANCH  37  38
ENDBRANCH  29  32
ENDBRANCH  27  28
ENDBRANCH   1  27
TORSDOF 16
ENDMDL
