MODEL 1
REMARK VINA RESULT:      -9.4      0.000      0.000
REMARK SMILES C=CCN(CC(=O)NCCCNC(=O)c1ccc(-c2c3nc(c(-c4ccc(S(=O)(=O)[O-])cc4)c4ccc([nH]4)c(-c4ccc(S(=O)(=O)[O-])cc4)c4nc(c(-c5ccc(S(=O)(=O)[O-])cc5)c5ccc2[nH]5)C=C4)C=C3)cc1)C(=O)C1C[NH2+]C1
REMARK SMILES IDX 10 1 9 2 8 3 6 4 7 5 5 7 4 8 3 9 2 10 1 11 75 12 76 13 77 14
REMARK SMILES IDX 78 15 80 16 79 17 11 20 12 21 13 22 14 24 15 25 16 26 74 27
REMARK SMILES IDX 17 28 73 29 18 30 19 31 20 32 67 33 21 34 72 35 66 36 68 37
REMARK SMILES IDX 22 38 71 39 65 40 64 41 23 43 53 44 34 45 52 46 35 47 38 48
REMARK SMILES IDX 51 49 69 50 36 51 37 52 50 54 70 55 39 56 24 57 25 58 33 59
REMARK SMILES IDX 26 60 32 61 27 62 28 63 29 64 30 65 31 66 54 67 55 68 63 69
REMARK SMILES IDX 56 70 62 71 57 72 58 73 59 74 60 75 61 76 40 77 41 78 49 79
REMARK SMILES IDX 42 80 48 81 43 82 44 83 45 84 46 85 47 86
REMARK H PARENT 8 6 79 18 79 19 12 23 68 42 38 53
REMARK Flexibility Score: inf
ROOT
ATOM      1  C   UNL A   1      33.180  27.932  26.244  1.00  0.00     0.042 C 
ENDROOT
BRANCH   1   2
ATOM      2  C   UNL A   1      31.771  27.438  25.935  1.00  0.00     0.117 C 
BRANCH   2   3
ATOM      3  N   UNL A   1      31.409  26.239  26.662  1.00  0.00    -0.354 N 
ATOM      4  C   UNL A   1      31.668  24.932  26.382  1.00  0.00     0.239 C 
ATOM      5  O   UNL A   1      31.486  24.112  27.289  1.00  0.00    -0.273 OA
ATOM      6  H   UNL A   1      30.896  26.393  27.488  1.00  0.00     0.163 HD
BRANCH   4   7
ATOM      7  C   UNL A   1      32.272  24.475  25.040  1.00  0.00     0.219 C 
BRANCH   7   8
ATOM      8  N   UNL A   1      33.304  23.440  25.131  1.00  0.00    -0.329 N 
BRANCH   8   9
ATOM      9  C   UNL A   1      34.465  23.685  25.983  1.00  0.00     0.147 C 
BRANCH   9  10
ATOM     10  C   UNL A   1      35.736  23.600  25.196  1.00  0.00    -0.014 C 
ATOM     11  C   UNL A   1      36.922  23.987  25.688  1.00  0.00     0.006 C 
ENDBRANCH   9  10
ENDBRANCH   8   9
BRANCH   8  12
ATOM     12  C   UNL A   1      33.213  22.211  24.454  1.00  0.00     0.237 C 
ATOM     13  O   UNL A   1      32.989  22.188  23.238  1.00  0.00    -0.274 OA
BRANCH  12  14
ATOM     14  C   UNL A   1      33.357  20.908  25.277  1.00  0.00     0.188 C 
ATOM     15  C   UNL A   1      32.605  19.654  24.771  1.00  0.00     0.280 C 
ATOM     16  C   UNL A   1      34.608  20.031  25.064  1.00  0.00     0.280 C 
ATOM     17  N   UNL A   1      33.753  18.831  25.231  1.00  0.00    -0.345 N 
ATOM     18  H   UNL A   1      33.991  18.052  24.617  1.00  0.00     0.346 HD
ATOM     19  H   UNL A   1      33.723  18.316  26.111  1.00  0.00     0.346 HD
ENDBRANCH  12  14
ENDBRANCH   8  12
ENDBRANCH   7   8
ENDBRANCH   4   7
ENDBRANCH   2   3
ENDBRANCH   1   2
BRANCH   1  20
ATOM     20  C   UNL A   1      33.353  28.509  27.647  1.00  0.00     0.118 C 
BRANCH  20  21
ATOM     21  N   UNL A   1      33.505  29.959  27.649  1.00  0.00    -0.352 N 
ATOM     22  C   UNL A   1      34.573  30.744  28.011  1.00  0.00     0.251 C 
ATOM     23  H   UNL A   1      32.713  30.456  27.340  1.00  0.00     0.163 HD
ATOM     24  O   UNL A   1      34.416  31.960  28.115  1.00  0.00    -0.269 OA
BRANCH  22  25
ATOM     25  C   UNL A   1      35.892  30.142  28.296  1.00  0.00     0.039 A 
ATOM     26  C   UNL A   1      36.838  30.065  27.270  1.00  0.00     0.014 A 
ATOM     27  C   UNL A   1      36.196  29.640  29.564  1.00  0.00     0.014 A 
ATOM     28  C   UNL A   1      38.118  29.573  27.540  1.00  0.00     0.010 A 
ATOM     29  C   UNL A   1      37.491  29.215  29.849  1.00  0.00     0.010 A 
ATOM     30  C   UNL A   1      38.471  29.193  28.844  1.00  0.00    -0.014 A 
BRANCH  30  31
ATOM     31  C   UNL A   1      39.866  28.822  29.197  1.00  0.00     0.031 A 
ATOM     32  C   UNL A   1      40.796  29.835  29.805  1.00  0.00     0.074 A 
ATOM     33  C   UNL A   1      40.321  27.592  28.879  1.00  0.00     0.049 A 
ATOM     34  N   UNL A   1      42.071  29.725  30.074  1.00  0.00    -0.248 NA
ATOM     35  C   UNL A   1      40.223  31.151  30.134  1.00  0.00     0.031 C 
ATOM     36  C   UNL A   1      39.526  26.529  28.259  1.00  0.00     0.029 A 
ATOM     37  N   UNL A   1      41.568  27.033  29.017  1.00  0.00    -0.354 N 
ATOM     38  C   UNL A   1      42.459  30.956  30.589  1.00  0.00     0.074 A 
ATOM     39  C   UNL A   1      41.292  31.812  30.556  1.00  0.00     0.031 C 
ATOM     40  C   UNL A   1      40.299  25.446  28.085  1.00  0.00     0.029 A 
ATOM     41  C   UNL A   1      41.656  25.751  28.528  1.00  0.00     0.049 A 
ATOM     42  H   UNL A   1      42.328  27.506  29.426  1.00  0.00     0.167 HD
ATOM     43  C   UNL A   1      43.673  31.335  31.057  1.00  0.00     0.031 A 
ATOM     44  C   UNL A   1      42.711  24.918  28.421  1.00  0.00     0.031 A 
ATOM     45  C   UNL A   1      44.830  30.479  31.083  1.00  0.00     0.049 A 
ATOM     46  C   UNL A   1      44.058  25.381  28.901  1.00  0.00     0.074 A 
ATOM     47  C   UNL A   1      46.089  30.754  31.589  1.00  0.00     0.029 A 
ATOM     48  N   UNL A   1      44.877  29.191  30.573  1.00  0.00    -0.354 N 
ATOM     49  N   UNL A   1      44.387  26.524  29.454  1.00  0.00    -0.248 NA
ATOM     50  C   UNL A   1      45.179  24.443  28.742  1.00  0.00     0.031 C 
ATOM     51  C   UNL A   1      46.914  29.656  31.325  1.00  0.00     0.029 A 
ATOM     52  C   UNL A   1      46.153  28.672  30.715  1.00  0.00     0.049 A 
ATOM     53  H   UNL A   1      44.116  28.715  30.170  1.00  0.00     0.167 HD
ATOM     54  C   UNL A   1      45.748  26.434  29.727  1.00  0.00     0.074 A 
ATOM     55  C   UNL A   1      46.176  25.119  29.298  1.00  0.00     0.031 C 
ATOM     56  C   UNL A   1      46.568  27.361  30.282  1.00  0.00     0.031 A 
BRANCH  43  57
ATOM     57  C   UNL A   1      43.818  32.746  31.566  1.00  0.00    -0.014 A 
ATOM     58  C   UNL A   1      43.671  33.047  32.932  1.00  0.00     0.010 A 
ATOM     59  C   UNL A   1      44.160  33.780  30.673  1.00  0.00     0.010 A 
ATOM     60  C   UNL A   1      43.822  34.358  33.390  1.00  0.00     0.020 A 
ATOM     61  C   UNL A   1      44.342  35.088  31.132  1.00  0.00     0.020 A 
ATOM     62  C   UNL A   1      44.155  35.371  32.486  1.00  0.00     0.054 A 
BRANCH  62  63
ATOM     63  S   UNL A   1      44.368  37.059  33.114  1.00  0.00     0.124 S 
ATOM     64  O   UNL A   1      43.310  37.778  32.408  1.00  0.00    -0.237 OA
ATOM     65  O   UNL A   1      44.161  36.894  34.551  1.00  0.00    -0.237 OA
ATOM     66  O   UNL A   1      45.729  37.411  32.719  1.00  0.00    -0.744 OA
ENDBRANCH  62  63
ENDBRANCH  43  57
BRANCH  44  67
ATOM     67  C   UNL A   1      42.533  23.566  27.824  1.00  0.00    -0.014 A 
ATOM     68  C   UNL A   1      42.753  23.357  26.451  1.00  0.00     0.010 A 
ATOM     69  C   UNL A   1      42.156  22.474  28.628  1.00  0.00     0.010 A 
ATOM     70  C   UNL A   1      42.586  22.088  25.892  1.00  0.00     0.020 A 
ATOM     71  C   UNL A   1      42.017  21.196  28.077  1.00  0.00     0.020 A 
ATOM     72  C   UNL A   1      42.223  21.013  26.709  1.00  0.00     0.054 A 
BRANCH  72  73
ATOM     73  S   UNL A   1      42.066  19.365  25.967  1.00  0.00     0.124 S 
ATOM     74  O   UNL A   1      40.634  19.289  25.697  1.00  0.00    -0.237 OA
ATOM     75  O   UNL A   1      42.928  19.466  24.791  1.00  0.00    -0.237 OA
ATOM     76  O   UNL A   1      42.554  18.470  27.014  1.00  0.00    -0.744 OA
ENDBRANCH  72  73
ENDBRANCH  44  67
BRANCH  56  77
ATOM     77  C   UNL A   1      48.014  26.987  30.475  1.00  0.00    -0.014 A 
ATOM     78  C   UNL A   1      48.979  27.291  29.499  1.00  0.00     0.010 A 
ATOM     79  C   UNL A   1      48.425  26.403  31.688  1.00  0.00     0.010 A 
ATOM     80  C   UNL A   1      50.328  27.007  29.728  1.00  0.00     0.020 A 
ATOM     81  C   UNL A   1      49.776  26.145  31.932  1.00  0.00     0.020 A 
ATOM     82  C   UNL A   1      50.719  26.443  30.946  1.00  0.00     0.054 A 
BRANCH  82  83
ATOM     83  S   UNL A   1      52.486  26.160  31.247  1.00  0.00     0.124 S 
ATOM     84  O   UNL A   1      52.822  27.262  32.144  1.00  0.00    -0.237 OA
ATOM     85  O   UNL A   1      52.497  24.830  31.852  1.00  0.00    -0.237 OA
ATOM     86  O   UNL A   1      53.082  26.238  29.916  1.00  0.00    -0.744 OA
ENDBRANCH  82  83
ENDBRANCH  56  77
ENDBRANCH  30  31
ENDBRANCH  22  25
ENDBRANCH  20  21
ENDBRANCH   1  20
TORSDOF 18
ENDMDL
MODEL 2
REMARK VINA RESULT:      -9.3      2.706      9.301
REMARK SMILES C=CCN(CC(=O)NCCCNC(=O)c1ccc(-c2c3nc(c(-c4ccc(S(=O)(=O)[O-])cc4)c4ccc([nH]4)c(-c4ccc(S(=O)(=O)[O-])cc4)c4nc(c(-c5ccc(S(=O)(=O)[O-])cc5)c5ccc2[nH]5)C=C4)C=C3)cc1)C(=O)C1C[NH2+]C1
REMARK SMILES IDX 10 1 9 2 8 3 6 4 7 5 5 7 4 8 3 9 2 10 1 11 75 12 76 13 77 14
REMARK SMILES IDX 78 15 80 16 79 17 11 20 12 21 13 22 14 24 15 25 16 26 74 27
REMARK SMILES IDX 17 28 73 29 18 30 19 31 20 32 67 33 21 34 72 35 66 36 68 37
REMARK SMILES IDX 22 38 71 39 65 40 64 41 23 43 53 44 34 45 52 46 35 47 38 48
REMARK SMILES IDX 51 49 69 50 36 51 37 52 50 54 70 55 39 56 24 57 25 58 33 59
REMARK SMILES IDX 26 60 32 61 27 62 28 63 29 64 30 65 31 66 54 67 55 68 63 69
REMARK SMILES IDX 56 70 62 71 57 72 58 73 59 74 60 75 61 76 40 77 41 78 49 79
REMARK SMILES IDX 42 80 48 81 43 82 44 83 45 84 46 85 47 86
REMARK H PARENT 8 6 79 18 79 19 12 23 68 42 38 53
REMARK Flexibility Score: inf
ROOT
ATOM      1  C   UNL A   1      35.814  23.737  26.036  1.00  0.00     0.042 C 
ENDROOT
BRANCH   1   2
ATOM      2  C   UNL A   1      34.686  24.661  25.589  1.00  0.00     0.117 C 
BRANCH   2   3
ATOM      3  N   UNL A   1      34.459  24.641  24.158  1.00  0.00    -0.354 N 
ATOM      4  C   UNL A   1      33.663  25.429  23.385  1.00  0.00     0.239 C 
ATOM      5  O   UNL A   1      33.843  25.389  22.163  1.00  0.00    -0.273 OA
ATOM      6  H   UNL A   1      34.959  23.948  23.668  1.00  0.00     0.163 HD
BRANCH   4   7
ATOM      7  C   UNL A   1      32.651  26.426  23.983  1.00  0.00     0.219 C 
BRANCH   7   8
ATOM      8  N   UNL A   1      31.385  25.847  24.433  1.00  0.00    -0.329 N 
BRANCH   8   9
ATOM      9  C   UNL A   1      30.258  25.822  23.504  1.00  0.00     0.147 C 
BRANCH   9  10
ATOM     10  C   UNL A   1      29.435  27.067  23.624  1.00  0.00    -0.014 C 
ATOM     11  C   UNL A   1      29.671  28.168  22.896  1.00  0.00     0.006 C 
ENDBRANCH   9  10
ENDBRANCH   8   9
BRANCH   8  12
ATOM     12  C   UNL A   1      31.212  25.290  25.713  1.00  0.00     0.237 C 
ATOM     13  O   UNL A   1      31.436  25.971  26.721  1.00  0.00    -0.274 OA
BRANCH  12  14
ATOM     14  C   UNL A   1      30.785  23.806  25.816  1.00  0.00     0.188 C 
ATOM     15  C   UNL A   1      31.478  22.793  24.874  1.00  0.00     0.280 C 
ATOM     16  C   UNL A   1      31.403  22.932  26.928  1.00  0.00     0.280 C 
ATOM     17  N   UNL A   1      31.424  21.796  25.975  1.00  0.00    -0.345 N 
ATOM     18  H   UNL A   1      32.247  21.197  26.047  1.00  0.00     0.346 HD
ATOM     19  H   UNL A   1      30.712  21.066  25.999  1.00  0.00     0.346 HD
ENDBRANCH  12  14
ENDBRANCH   8  12
ENDBRANCH   7   8
ENDBRANCH   4   7
ENDBRANCH   2   3
ENDBRANCH   1   2
BRANCH   1  20
ATOM     20  C   UNL A   1      36.929  23.558  25.008  1.00  0.00     0.118 C 
BRANCH  20  21
ATOM     21  N   UNL A   1      37.956  22.618  25.443  1.00  0.00    -0.352 N 
ATOM     22  C   UNL A   1      39.129  22.833  26.124  1.00  0.00     0.251 C 
ATOM     23  H   UNL A   1      37.779  21.679  25.211  1.00  0.00     0.163 HD
ATOM     24  O   UNL A   1      39.943  21.914  26.220  1.00  0.00    -0.269 OA
BRANCH  22  25
ATOM     25  C   UNL A   1      39.431  24.152  26.718  1.00  0.00     0.039 A 
ATOM     26  C   UNL A   1      38.997  24.425  28.019  1.00  0.00     0.014 A 
ATOM     27  C   UNL A   1      40.124  25.126  25.995  1.00  0.00     0.014 A 
ATOM     28  C   UNL A   1      39.341  25.636  28.626  1.00  0.00     0.010 A 
ATOM     29  C   UNL A   1      40.525  26.302  26.624  1.00  0.00     0.010 A 
ATOM     30  C   UNL A   1      40.152  26.562  27.951  1.00  0.00    -0.014 A 
BRANCH  30  31
ATOM     31  C   UNL A   1      40.669  27.781  28.627  1.00  0.00     0.031 A 
ATOM     32  C   UNL A   1      42.050  27.797  29.223  1.00  0.00     0.074 A 
ATOM     33  C   UNL A   1      39.853  28.844  28.783  1.00  0.00     0.049 A 
ATOM     34  N   UNL A   1      42.625  28.726  29.942  1.00  0.00    -0.248 NA
ATOM     35  C   UNL A   1      42.884  26.605  29.001  1.00  0.00     0.031 C 
ATOM     36  C   UNL A   1      38.482  28.941  28.277  1.00  0.00     0.029 A 
ATOM     37  N   UNL A   1      40.051  30.040  29.429  1.00  0.00    -0.354 N 
ATOM     38  C   UNL A   1      43.880  28.228  30.272  1.00  0.00     0.074 A 
ATOM     39  C   UNL A   1      43.966  26.897  29.707  1.00  0.00     0.031 C 
ATOM     40  C   UNL A   1      37.970  30.134  28.617  1.00  0.00     0.029 A 
ATOM     41  C   UNL A   1      38.951  30.865  29.412  1.00  0.00     0.049 A 
ATOM     42  H   UNL A   1      40.899  30.283  29.865  1.00  0.00     0.167 HD
ATOM     43  C   UNL A   1      44.874  28.829  30.970  1.00  0.00     0.031 A 
ATOM     44  C   UNL A   1      38.741  32.065  29.989  1.00  0.00     0.031 A 
ATOM     45  C   UNL A   1      44.779  30.152  31.531  1.00  0.00     0.049 A 
ATOM     46  C   UNL A   1      39.842  32.689  30.801  1.00  0.00     0.074 A 
ATOM     47  C   UNL A   1      45.752  30.869  32.206  1.00  0.00     0.029 A 
ATOM     48  N   UNL A   1      43.646  30.951  31.495  1.00  0.00    -0.354 N 
ATOM     49  N   UNL A   1      41.049  32.234  31.037  1.00  0.00    -0.248 NA
ATOM     50  C   UNL A   1      39.553  33.988  31.426  1.00  0.00     0.031 C 
ATOM     51  C   UNL A   1      45.186  32.073  32.636  1.00  0.00     0.029 A 
ATOM     52  C   UNL A   1      43.882  32.136  32.171  1.00  0.00     0.049 A 
ATOM     53  H   UNL A   1      42.800  30.711  31.054  1.00  0.00     0.167 HD
ATOM     54  C   UNL A   1      41.670  33.200  31.822  1.00  0.00     0.074 A 
ATOM     55  C   UNL A   1      40.714  34.272  32.003  1.00  0.00     0.031 C 
ATOM     56  C   UNL A   1      42.921  33.196  32.347  1.00  0.00     0.031 A 
BRANCH  43  57
ATOM     57  C   UNL A   1      46.149  28.055  31.182  1.00  0.00    -0.014 A 
ATOM     58  C   UNL A   1      46.291  27.167  32.263  1.00  0.00     0.010 A 
ATOM     59  C   UNL A   1      47.203  28.176  30.256  1.00  0.00     0.010 A 
ATOM     60  C   UNL A   1      47.475  26.446  32.439  1.00  0.00     0.020 A 
ATOM     61  C   UNL A   1      48.378  27.435  30.411  1.00  0.00     0.020 A 
ATOM     62  C   UNL A   1      48.512  26.586  31.512  1.00  0.00     0.054 A 
BRANCH  62  63
ATOM     63  S   UNL A   1      50.028  25.620  31.753  1.00  0.00     0.124 S 
ATOM     64  O   UNL A   1      49.635  24.707  32.825  1.00  0.00    -0.237 OA
ATOM     65  O   UNL A   1      50.225  25.002  30.444  1.00  0.00    -0.237 OA
ATOM     66  O   UNL A   1      51.025  26.621  32.125  1.00  0.00    -0.744 OA
ENDBRANCH  62  63
ENDBRANCH  43  57
BRANCH  44  67
ATOM     67  C   UNL A   1      37.428  32.748  29.826  1.00  0.00    -0.014 A 
ATOM     68  C   UNL A   1      36.424  32.608  30.802  1.00  0.00     0.010 A 
ATOM     69  C   UNL A   1      37.176  33.555  28.701  1.00  0.00     0.010 A 
ATOM     70  C   UNL A   1      35.193  33.250  30.648  1.00  0.00     0.020 A 
ATOM     71  C   UNL A   1      35.956  34.223  28.559  1.00  0.00     0.020 A 
ATOM     72  C   UNL A   1      34.967  34.057  29.529  1.00  0.00     0.054 A 
BRANCH  72  73
ATOM     73  S   UNL A   1      33.379  34.922  29.381  1.00  0.00     0.124 S 
ATOM     74  O   UNL A   1      32.702  34.139  28.352  1.00  0.00    -0.237 OA
ATOM     75  O   UNL A   1      32.829  34.803  30.730  1.00  0.00    -0.237 OA
ATOM     76  O   UNL A   1      33.761  36.276  28.989  1.00  0.00    -0.744 OA
ENDBRANCH  72  73
ENDBRANCH  44  67
BRANCH  56  77
ATOM     77  C   UNL A   1      43.342  34.394  33.157  1.00  0.00    -0.014 A 
ATOM     78  C   UNL A   1      43.968  35.496  32.550  1.00  0.00     0.010 A 
ATOM     79  C   UNL A   1      43.029  34.451  34.528  1.00  0.00     0.010 A 
ATOM     80  C   UNL A   1      44.282  36.632  33.303  1.00  0.00     0.020 A 
ATOM     81  C   UNL A   1      43.315  35.595  35.276  1.00  0.00     0.020 A 
ATOM     82  C   UNL A   1      43.947  36.676  34.659  1.00  0.00     0.054 A 
BRANCH  82  83
ATOM     83  S   UNL A   1      44.294  38.194  35.592  1.00  0.00     0.124 S 
ATOM     84  O   UNL A   1      45.754  38.227  35.587  1.00  0.00    -0.237 OA
ATOM     85  O   UNL A   1      43.639  39.220  34.786  1.00  0.00    -0.237 OA
ATOM     86  O   UNL A   1      43.682  37.948  36.895  1.00  0.00    -0.744 OA
ENDBRANCH  82  83
ENDBRANCH  56  77
ENDBRANCH  30  31
ENDBRANCH  22  25
ENDBRANCH  20  21
ENDBRANCH   1  20
TORSDOF 18
ENDMDL
MODEL 3
REMARK VINA RESULT:      -9.3      2.893      9.599
REMARK SMILES C=CCN(CC(=O)NCCCNC(=O)c1ccc(-c2c3nc(c(-c4ccc(S(=O)(=O)[O-])cc4)c4ccc([nH]4)c(-c4ccc(S(=O)(=O)[O-])cc4)c4nc(c(-c5ccc(S(=O)(=O)[O-])cc5)c5ccc2[nH]5)C=C4)C=C3)cc1)C(=O)C1C[NH2+]C1
REMARK SMILES IDX 10 1 9 2 8 3 6 4 7 5 5 7 4 8 3 9 2 10 1 11 75 12 76 13 77 14
REMARK SMILES IDX 78 15 80 16 79 17 11 20 12 21 13 22 14 24 15 25 16 26 74 27
REMARK SMILES IDX 17 28 73 29 18 30 19 31 20 32 67 33 21 34 72 35 66 36 68 37
REMARK SMILES IDX 22 38 71 39 65 40 64 41 23 43 53 44 34 45 52 46 35 47 38 48
REMARK SMILES IDX 51 49 69 50 36 51 37 52 50 54 70 55 39 56 24 57 25 58 33 59
REMARK SMILES IDX 26 60 32 61 27 62 28 63 29 64 30 65 31 66 54 67 55 68 63 69
REMARK SMILES IDX 56 70 62 71 57 72 58 73 59 74 60 75 61 76 40 77 41 78 49 79
REMARK SMILES IDX 42 80 48 81 43 82 44 83 45 84 46 85 47 86
REMARK H PARENT 8 6 79 18 79 19 12 23 68 42 38 53
REMARK Flexibility Score: inf
ROOT
ATOM      1  C   UNL A   1      35.803  23.653  25.839  1.00  0.00     0.042 C 
ENDROOT
BRANCH   1   2
ATOM      2  C   UNL A   1      34.673  24.581  25.402  1.00  0.00     0.117 C 
BRANCH   2   3
ATOM      3  N   UNL A   1      34.646  24.820  23.974  1.00  0.00    -0.354 N 
ATOM      4  C   UNL A   1      33.668  25.358  23.193  1.00  0.00     0.239 C 
ATOM      5  O   UNL A   1      33.984  25.702  22.049  1.00  0.00    -0.273 OA
ATOM      6  H   UNL A   1      35.461  24.552  23.492  1.00  0.00     0.163 HD
BRANCH   4   7
ATOM      7  C   UNL A   1      32.250  25.645  23.720  1.00  0.00     0.219 C 
BRANCH   7   8
ATOM      8  N   UNL A   1      31.957  27.049  24.014  1.00  0.00    -0.329 N 
BRANCH   8   9
ATOM      9  C   UNL A   1      31.405  27.885  22.950  1.00  0.00     0.147 C 
BRANCH   9  10
ATOM     10  C   UNL A   1      30.234  28.678  23.443  1.00  0.00    -0.014 C 
ATOM     11  C   UNL A   1      29.113  28.839  22.725  1.00  0.00     0.006 C 
ENDBRANCH   9  10
ENDBRANCH   8   9
BRANCH   8  12
ATOM     12  C   UNL A   1      32.160  27.622  25.282  1.00  0.00     0.237 C 
ATOM     13  O   UNL A   1      31.517  27.214  26.257  1.00  0.00    -0.274 OA
BRANCH  12  14
ATOM     14  C   UNL A   1      33.166  28.792  25.406  1.00  0.00     0.188 C 
ATOM     15  C   UNL A   1      32.797  29.957  26.354  1.00  0.00     0.280 C 
ATOM     16  C   UNL A   1      34.374  28.633  26.353  1.00  0.00     0.280 C 
ATOM     17  N   UNL A   1      34.235  30.065  26.714  1.00  0.00    -0.345 N 
ATOM     18  H   UNL A   1      34.412  30.273  27.697  1.00  0.00     0.346 HD
ATOM     19  H   UNL A   1      34.836  30.779  26.305  1.00  0.00     0.346 HD
ENDBRANCH  12  14
ENDBRANCH   8  12
ENDBRANCH   7   8
ENDBRANCH   4   7
ENDBRANCH   2   3
ENDBRANCH   1   2
BRANCH   1  20
ATOM     20  C   UNL A   1      37.020  23.664  24.916  1.00  0.00     0.118 C 
BRANCH  20  21
ATOM     21  N   UNL A   1      38.056  22.726  25.335  1.00  0.00    -0.352 N 
ATOM     22  C   UNL A   1      39.200  22.931  26.067  1.00  0.00     0.251 C 
ATOM     23  H   UNL A   1      37.911  21.797  25.046  1.00  0.00     0.163 HD
ATOM     24  O   UNL A   1      40.033  22.029  26.142  1.00  0.00    -0.269 OA
BRANCH  22  25
ATOM     25  C   UNL A   1      39.447  24.222  26.742  1.00  0.00     0.039 A 
ATOM     26  C   UNL A   1      38.916  24.432  28.019  1.00  0.00     0.014 A 
ATOM     27  C   UNL A   1      40.184  25.231  26.118  1.00  0.00     0.014 A 
ATOM     28  C   UNL A   1      39.205  25.615  28.705  1.00  0.00     0.010 A 
ATOM     29  C   UNL A   1      40.529  26.378  26.830  1.00  0.00     0.010 A 
ATOM     30  C   UNL A   1      40.057  26.575  28.136  1.00  0.00    -0.014 A 
BRANCH  30  31
ATOM     31  C   UNL A   1      40.513  27.763  28.904  1.00  0.00     0.031 A 
ATOM     32  C   UNL A   1      41.828  27.742  29.634  1.00  0.00     0.074 A 
ATOM     33  C   UNL A   1      39.694  28.828  29.018  1.00  0.00     0.049 A 
ATOM     34  N   UNL A   1      42.336  28.638  30.440  1.00  0.00    -0.248 NA
ATOM     35  C   UNL A   1      42.672  26.550  29.451  1.00  0.00     0.031 C 
ATOM     36  C   UNL A   1      38.380  28.959  28.383  1.00  0.00     0.029 A 
ATOM     37  N   UNL A   1      39.835  29.998  29.724  1.00  0.00    -0.354 N 
ATOM     38  C   UNL A   1      43.549  28.116  30.873  1.00  0.00     0.074 A 
ATOM     39  C   UNL A   1      43.681  26.805  30.271  1.00  0.00     0.031 C 
ATOM     40  C   UNL A   1      37.846  30.144  28.714  1.00  0.00     0.029 A 
ATOM     41  C   UNL A   1      38.749  30.836  29.629  1.00  0.00     0.049 A 
ATOM     42  H   UNL A   1      40.639  30.216  30.250  1.00  0.00     0.167 HD
ATOM     43  C   UNL A   1      44.473  28.680  31.687  1.00  0.00     0.031 A 
ATOM     44  C   UNL A   1      38.492  32.016  30.226  1.00  0.00     0.031 A 
ATOM     45  C   UNL A   1      44.333  29.982  32.285  1.00  0.00     0.049 A 
ATOM     46  C   UNL A   1      39.511  32.599  31.165  1.00  0.00     0.074 A 
ATOM     47  C   UNL A   1      45.240  30.664  33.079  1.00  0.00     0.029 A 
ATOM     48  N   UNL A   1      43.215  30.795  32.167  1.00  0.00    -0.354 N 
ATOM     49  N   UNL A   1      40.686  32.122  31.503  1.00  0.00    -0.248 NA
ATOM     50  C   UNL A   1      39.171  33.877  31.807  1.00  0.00     0.031 C 
ATOM     51  C   UNL A   1      44.643  31.858  33.495  1.00  0.00     0.029 A 
ATOM     52  C   UNL A   1      43.392  31.952  32.906  1.00  0.00     0.049 A 
ATOM     53  H   UNL A   1      42.415  30.580  31.636  1.00  0.00     0.167 HD
ATOM     54  C   UNL A   1      41.233  33.052  32.380  1.00  0.00     0.074 A 
ATOM     55  C   UNL A   1      40.272  34.128  32.505  1.00  0.00     0.031 C 
ATOM     56  C   UNL A   1      42.426  33.016  33.025  1.00  0.00     0.031 A 
BRANCH  43  57
ATOM     57  C   UNL A   1      45.716  27.885  31.996  1.00  0.00    -0.014 A 
ATOM     58  C   UNL A   1      45.788  27.057  33.131  1.00  0.00     0.010 A 
ATOM     59  C   UNL A   1      46.809  27.924  31.109  1.00  0.00     0.010 A 
ATOM     60  C   UNL A   1      46.942  26.315  33.396  1.00  0.00     0.020 A 
ATOM     61  C   UNL A   1      47.954  27.160  31.354  1.00  0.00     0.020 A 
ATOM     62  C   UNL A   1      48.019  26.373  32.506  1.00  0.00     0.054 A 
BRANCH  62  63
ATOM     63  S   UNL A   1      49.494  25.381  32.864  1.00  0.00     0.124 S 
ATOM     64  O   UNL A   1      49.990  25.085  31.522  1.00  0.00    -0.237 OA
ATOM     65  O   UNL A   1      50.316  26.302  33.646  1.00  0.00    -0.237 OA
ATOM     66  O   UNL A   1      48.974  24.233  33.602  1.00  0.00    -0.744 OA
ENDBRANCH  62  63
ENDBRANCH  43  57
BRANCH  44  67
ATOM     67  C   UNL A   1      37.206  32.719  29.960  1.00  0.00    -0.014 A 
ATOM     68  C   UNL A   1      36.098  32.526  30.805  1.00  0.00     0.010 A 
ATOM     69  C   UNL A   1      37.085  33.598  28.867  1.00  0.00     0.010 A 
ATOM     70  C   UNL A   1      34.893  33.186  30.554  1.00  0.00     0.020 A 
ATOM     71  C   UNL A   1      35.889  34.283  28.631  1.00  0.00     0.020 A 
ATOM     72  C   UNL A   1      34.796  34.064  29.470  1.00  0.00     0.054 A 
BRANCH  72  73
ATOM     73  S   UNL A   1      33.236  34.950  29.200  1.00  0.00     0.124 S 
ATOM     74  O   UNL A   1      32.655  34.957  30.539  1.00  0.00    -0.237 OA
ATOM     75  O   UNL A   1      33.692  36.245  28.700  1.00  0.00    -0.237 OA
ATOM     76  O   UNL A   1      32.538  34.122  28.218  1.00  0.00    -0.744 OA
ENDBRANCH  72  73
ENDBRANCH  44  67
BRANCH  56  77
ATOM     77  C   UNL A   1      42.774  34.178  33.916  1.00  0.00    -0.014 A 
ATOM     78  C   UNL A   1      42.534  34.128  35.300  1.00  0.00     0.010 A 
ATOM     79  C   UNL A   1      43.428  35.300  33.373  1.00  0.00     0.010 A 
ATOM     80  C   UNL A   1      42.934  35.184  36.125  1.00  0.00     0.020 A 
ATOM     81  C   UNL A   1      43.854  36.344  34.198  1.00  0.00     0.020 A 
ATOM     82  C   UNL A   1      43.598  36.282  35.569  1.00  0.00     0.054 A 
BRANCH  82  83
ATOM     83  S   UNL A   1      44.176  37.600  36.674  1.00  0.00     0.124 S 
ATOM     84  O   UNL A   1      43.146  37.604  37.709  1.00  0.00    -0.237 OA
ATOM     85  O   UNL A   1      45.487  37.112  37.093  1.00  0.00    -0.237 OA
ATOM     86  O   UNL A   1      44.203  38.784  35.818  1.00  0.00    -0.744 OA
ENDBRANCH  82  83
ENDBRANCH  56  77
ENDBRANCH  30  31
ENDBRANCH  22  25
ENDBRANCH  20  21
ENDBRANCH   1  20
TORSDOF 18
ENDMDL
