MODEL 1
REMARK VINA RESULT:     -10.3      0.000      0.000
REMARK SMILES CC(C)(C)c1cc(NC(=O)CSC[C@H]([NH3+])C(=O)NCCCNC(=O)c2ccc(-c3c4nc(c(-c5ccc(S(=O)(=O)[O-])cc5)c5ccc([nH]5)c(-c5ccc(S(=O)(=O)[O-])cc5)c5nc(c(-c6ccc(S(=O)(=O)[O-])cc6)c6ccc3[nH]6)C=C5)C=C4)cc2)on1
REMARK SMILES IDX 16 1 17 2 18 3 14 5 13 6 12 7 11 8 9 9 8 10 10 12 7 13 5 14
REMARK SMILES IDX 6 15 86 16 85 17 2 18 1 19 3 20 4 21 15 22 19 26 20 27 21 28
REMARK SMILES IDX 22 29 23 30 24 32 25 33 26 34 84 35 27 36 83 37 28 38 29 39
REMARK SMILES IDX 30 40 77 41 31 42 82 43 76 44 78 45 32 46 81 47 75 48 74 49
REMARK SMILES IDX 33 51 63 52 44 53 62 54 45 55 48 56 61 57 79 58 46 59 47 60
REMARK SMILES IDX 60 62 80 63 49 64 34 65 35 66 43 67 36 68 42 69 37 70 38 71
REMARK SMILES IDX 39 72 40 73 41 74 64 75 65 76 73 77 66 78 72 79 67 80 68 81
REMARK SMILES IDX 69 82 70 83 71 84 50 85 51 86 59 87 52 88 58 89 53 90 54 91
REMARK SMILES IDX 55 92 56 93 57 94
REMARK H PARENT 18 4 8 11 15 23 15 24 15 25 22 31 78 50 48 61
REMARK Flexibility Score: inf
ROOT
ATOM      1  C   UNL A   1      31.367  24.096  26.864  1.00  0.00     0.279 C 
ATOM      2  O   UNL A   1      30.320  23.583  27.264  1.00  0.00    -0.268 OA
ATOM      3  N   UNL A   1      31.359  25.429  26.570  1.00  0.00    -0.351 N 
ATOM      4  H   UNL A   1      30.483  25.862  26.687  1.00  0.00     0.163 HD
ENDROOT
BRANCH   1   5
ATOM      5  C   UNL A   1      32.658  23.277  26.731  1.00  0.00     0.280 C 
BRANCH   5   6
ATOM      6  C   UNL A   1      32.745  22.600  25.348  1.00  0.00     0.145 C 
BRANCH   6   7
ATOM      7  S   UNL A   1      34.317  22.864  24.452  1.00  0.00    -0.145 SA
BRANCH   7   8
ATOM      8  C   UNL A   1      33.997  24.378  23.476  1.00  0.00     0.170 C 
BRANCH   8   9
ATOM      9  C   UNL A   1      33.360  24.161  22.113  1.00  0.00     0.236 C 
ATOM     10  N   UNL A   1      32.579  25.080  21.485  1.00  0.00    -0.294 N 
ATOM     11  H   UNL A   1      32.267  24.828  20.586  1.00  0.00     0.173 HD
ATOM     12  O   UNL A   1      33.510  23.087  21.514  1.00  0.00    -0.274 OA
BRANCH  10  13
ATOM     13  C   UNL A   1      32.170  26.306  21.926  1.00  0.00     0.231 A 
ATOM     14  C   UNL A   1      31.080  28.108  22.587  1.00  0.00     0.091 A 
ATOM     15  C   UNL A   1      30.902  26.762  22.174  1.00  0.00     0.097 A 
ATOM     16  N   UNL A   1      32.383  28.418  22.626  1.00  0.00    -0.082 NA
ATOM     17  O   UNL A   1      33.056  27.285  22.221  1.00  0.00    -0.338 OA
BRANCH  14  18
ATOM     18  C   UNL A   1      30.017  29.114  22.971  1.00  0.00     0.008 C 
ATOM     19  C   UNL A   1      30.449  29.886  24.235  1.00  0.00     0.018 C 
ATOM     20  C   UNL A   1      28.661  28.440  23.268  1.00  0.00     0.018 C 
ATOM     21  C   UNL A   1      29.815  30.114  21.816  1.00  0.00     0.018 C 
ENDBRANCH  14  18
ENDBRANCH  10  13
ENDBRANCH   8   9
ENDBRANCH   7   8
ENDBRANCH   6   7
ENDBRANCH   5   6
BRANCH   5  22
ATOM     22  N   UNL A   1      32.777  22.343  27.877  1.00  0.00    -0.347 N 
ATOM     23  H   UNL A   1      33.531  21.679  27.696  1.00  0.00     0.345 HD
ATOM     24  H   UNL A   1      31.900  21.837  27.995  1.00  0.00     0.345 HD
ATOM     25  H   UNL A   1      32.984  22.869  28.725  1.00  0.00     0.345 HD
ENDBRANCH   5  22
ENDBRANCH   1   5
BRANCH   3  26
ATOM     26  C   UNL A   1      32.411  26.322  26.114  1.00  0.00     0.118 C 
BRANCH  26  27
ATOM     27  C   UNL A   1      32.355  27.661  26.830  1.00  0.00     0.042 C 
BRANCH  27  28
ATOM     28  C   UNL A   1      33.725  28.276  27.075  1.00  0.00     0.118 C 
BRANCH  28  29
ATOM     29  N   UNL A   1      33.650  29.684  27.440  1.00  0.00    -0.352 N 
ATOM     30  C   UNL A   1      34.560  30.471  28.102  1.00  0.00     0.251 C 
ATOM     31  H   UNL A   1      32.821  30.141  27.169  1.00  0.00     0.163 HD
ATOM     32  O   UNL A   1      34.220  31.584  28.500  1.00  0.00    -0.269 OA
BRANCH  30  33
ATOM     33  C   UNL A   1      35.930  29.975  28.358  1.00  0.00     0.039 A 
ATOM     34  C   UNL A   1      36.885  30.066  27.343  1.00  0.00     0.014 A 
ATOM     35  C   UNL A   1      36.276  29.416  29.592  1.00  0.00     0.014 A 
ATOM     36  C   UNL A   1      38.197  29.654  27.589  1.00  0.00     0.010 A 
ATOM     37  C   UNL A   1      37.604  29.103  29.867  1.00  0.00     0.010 A 
ATOM     38  C   UNL A   1      38.579  29.205  28.865  1.00  0.00    -0.014 A 
BRANCH  38  39
ATOM     39  C   UNL A   1      39.989  28.839  29.161  1.00  0.00     0.031 A 
ATOM     40  C   UNL A   1      40.917  29.833  29.809  1.00  0.00     0.074 A 
ATOM     41  C   UNL A   1      40.448  27.625  28.797  1.00  0.00     0.049 A 
ATOM     42  N   UNL A   1      42.176  29.690  30.136  1.00  0.00    -0.248 NA
ATOM     43  C   UNL A   1      40.370  31.168  30.101  1.00  0.00     0.031 C 
ATOM     44  C   UNL A   1      39.669  26.595  28.106  1.00  0.00     0.029 A 
ATOM     45  N   UNL A   1      41.686  27.052  28.956  1.00  0.00    -0.354 N 
ATOM     46  C   UNL A   1      42.575  30.918  30.654  1.00  0.00     0.074 A 
ATOM     47  C   UNL A   1      41.441  31.809  30.544  1.00  0.00     0.031 C 
ATOM     48  C   UNL A   1      40.434  25.506  27.932  1.00  0.00     0.029 A 
ATOM     49  C   UNL A   1      41.768  25.771  28.460  1.00  0.00     0.049 A 
ATOM     50  H   UNL A   1      42.442  27.513  29.385  1.00  0.00     0.167 HD
ATOM     51  C   UNL A   1      43.769  31.268  31.188  1.00  0.00     0.031 A 
ATOM     52  C   UNL A   1      42.801  24.907  28.428  1.00  0.00     0.031 A 
ATOM     53  C   UNL A   1      44.894  30.377  31.299  1.00  0.00     0.049 A 
ATOM     54  C   UNL A   1      44.114  25.311  29.040  1.00  0.00     0.074 A 
ATOM     55  C   UNL A   1      46.123  30.612  31.891  1.00  0.00     0.029 A 
ATOM     56  N   UNL A   1      44.933  29.083  30.800  1.00  0.00    -0.354 N 
ATOM     57  N   UNL A   1      44.442  26.448  29.607  1.00  0.00    -0.248 NA
ATOM     58  C   UNL A   1      45.187  24.310  29.024  1.00  0.00     0.031 C 
ATOM     59  C   UNL A   1      46.928  29.485  31.690  1.00  0.00     0.029 A 
ATOM     60  C   UNL A   1      46.176  28.520  31.038  1.00  0.00     0.049 A 
ATOM     61  H   UNL A   1      44.186  28.632  30.342  1.00  0.00     0.167 HD
ATOM     62  C   UNL A   1      45.756  26.290  30.036  1.00  0.00     0.074 A 
ATOM     63  C   UNL A   1      46.149  24.940  29.684  1.00  0.00     0.031 C 
ATOM     64  C   UNL A   1      46.563  27.182  30.664  1.00  0.00     0.031 A 
BRANCH  51  65
ATOM     65  C   UNL A   1      43.925  32.687  31.677  1.00  0.00    -0.014 A 
ATOM     66  C   UNL A   1      44.247  33.736  30.795  1.00  0.00     0.010 A 
ATOM     67  C   UNL A   1      43.719  32.981  33.038  1.00  0.00     0.010 A 
ATOM     68  C   UNL A   1      44.412  35.039  31.272  1.00  0.00     0.020 A 
ATOM     69  C   UNL A   1      43.848  34.290  33.513  1.00  0.00     0.020 A 
ATOM     70  C   UNL A   1      44.214  35.307  32.631  1.00  0.00     0.054 A 
BRANCH  70  71
ATOM     71  S   UNL A   1      44.421  37.010  33.219  1.00  0.00     0.124 S 
ATOM     72  O   UNL A   1      45.703  37.381  32.622  1.00  0.00    -0.237 OA
ATOM     73  O   UNL A   1      43.252  37.685  32.663  1.00  0.00    -0.237 OA
ATOM     74  O   UNL A   1      44.428  36.877  34.673  1.00  0.00    -0.744 OA
ENDBRANCH  70  71
ENDBRANCH  51  65
BRANCH  52  75
ATOM     75  C   UNL A   1      42.621  23.566  27.804  1.00  0.00    -0.014 A 
ATOM     76  C   UNL A   1      42.984  23.343  26.463  1.00  0.00     0.010 A 
ATOM     77  C   UNL A   1      42.116  22.494  28.562  1.00  0.00     0.010 A 
ATOM     78  C   UNL A   1      42.834  22.076  25.891  1.00  0.00     0.020 A 
ATOM     79  C   UNL A   1      41.994  21.220  28.003  1.00  0.00     0.020 A 
ATOM     80  C   UNL A   1      42.347  21.021  26.668  1.00  0.00     0.054 A 
BRANCH  80  81
ATOM     81  S   UNL A   1      42.231  19.369  25.925  1.00  0.00     0.124 S 
ATOM     82  O   UNL A   1      43.071  19.508  24.740  1.00  0.00    -0.237 OA
ATOM     83  O   UNL A   1      42.762  18.512  26.983  1.00  0.00    -0.237 OA
ATOM     84  O   UNL A   1      40.801  19.210  25.665  1.00  0.00    -0.744 OA
ENDBRANCH  80  81
ENDBRANCH  52  75
BRANCH  64  85
ATOM     85  C   UNL A   1      47.949  26.715  31.032  1.00  0.00    -0.014 A 
ATOM     86  C   UNL A   1      48.185  25.968  32.201  1.00  0.00     0.010 A 
ATOM     87  C   UNL A   1      49.028  27.011  30.181  1.00  0.00     0.010 A 
ATOM     88  C   UNL A   1      49.482  25.574  32.538  1.00  0.00     0.020 A 
ATOM     89  C   UNL A   1      50.322  26.589  30.496  1.00  0.00     0.020 A 
ATOM     90  C   UNL A   1      50.545  25.892  31.685  1.00  0.00     0.054 A 
BRANCH  90  91
ATOM     91  S   UNL A   1      52.218  25.364  32.140  1.00  0.00     0.124 S 
ATOM     92  O   UNL A   1      52.494  26.202  33.304  1.00  0.00    -0.237 OA
ATOM     93  O   UNL A   1      52.041  23.941  32.418  1.00  0.00    -0.237 OA
ATOM     94  O   UNL A   1      53.013  25.667  30.952  1.00  0.00    -0.744 OA
ENDBRANCH  90  91
ENDBRANCH  64  85
ENDBRANCH  38  39
ENDBRANCH  30  33
ENDBRANCH  28  29
ENDBRANCH  27  28
ENDBRANCH  26  27
ENDBRANCH   3  26
TORSDOF 20
ENDMDL
MODEL 2
REMARK VINA RESULT:     -10.2      4.727     10.936
REMARK SMILES CC(C)(C)c1cc(NC(=O)CSC[C@H]([NH3+])C(=O)NCCCNC(=O)c2ccc(-c3c4nc(c(-c5ccc(S(=O)(=O)[O-])cc5)c5ccc([nH]5)c(-c5ccc(S(=O)(=O)[O-])cc5)c5nc(c(-c6ccc(S(=O)(=O)[O-])cc6)c6ccc3[nH]6)C=C5)C=C4)cc2)on1
REMARK SMILES IDX 16 1 17 2 18 3 14 5 13 6 12 7 11 8 9 9 8 10 10 12 7 13 5 14
REMARK SMILES IDX 6 15 86 16 85 17 2 18 1 19 3 20 4 21 15 22 19 26 20 27 21 28
REMARK SMILES IDX 22 29 23 30 24 32 25 33 26 34 84 35 27 36 83 37 28 38 29 39
REMARK SMILES IDX 30 40 77 41 31 42 82 43 76 44 78 45 32 46 81 47 75 48 74 49
REMARK SMILES IDX 33 51 63 52 44 53 62 54 45 55 48 56 61 57 79 58 46 59 47 60
REMARK SMILES IDX 60 62 80 63 49 64 34 65 35 66 43 67 36 68 42 69 37 70 38 71
REMARK SMILES IDX 39 72 40 73 41 74 64 75 65 76 73 77 66 78 72 79 67 80 68 81
REMARK SMILES IDX 69 82 70 83 71 84 50 85 51 86 59 87 52 88 58 89 53 90 54 91
REMARK SMILES IDX 55 92 56 93 57 94
REMARK H PARENT 18 4 8 11 15 23 15 24 15 25 22 31 78 50 48 61
REMARK Flexibility Score: inf
ROOT
ATOM      1  C   UNL A   1      41.570  21.094  27.553  1.00  0.00     0.279 C 
ATOM      2  O   UNL A   1      41.291  19.894  27.538  1.00  0.00    -0.268 OA
ATOM      3  N   UNL A   1      42.540  21.518  28.414  1.00  0.00    -0.351 N 
ATOM      4  H   UNL A   1      42.921  20.805  28.975  1.00  0.00     0.163 HD
ENDROOT
BRANCH   1   5
ATOM      5  C   UNL A   1      40.878  22.087  26.610  1.00  0.00     0.280 C 
BRANCH   5   6
ATOM      6  C   UNL A   1      39.396  21.714  26.402  1.00  0.00     0.145 C 
BRANCH   6   7
ATOM      7  S   UNL A   1      38.272  23.127  26.114  1.00  0.00    -0.145 SA
BRANCH   7   8
ATOM      8  C   UNL A   1      36.710  22.326  25.598  1.00  0.00     0.170 C 
BRANCH   8   9
ATOM      9  C   UNL A   1      35.566  23.268  25.260  1.00  0.00     0.236 C 
ATOM     10  N   UNL A   1      34.290  22.861  25.030  1.00  0.00    -0.294 N 
ATOM     11  H   UNL A   1      33.638  23.580  24.866  1.00  0.00     0.173 HD
ATOM     12  O   UNL A   1      35.768  24.485  25.148  1.00  0.00    -0.274 OA
BRANCH  10  13
ATOM     13  C   UNL A   1      33.785  21.592  24.999  1.00  0.00     0.231 A 
ATOM     14  C   UNL A   1      33.373  19.440  24.734  1.00  0.00     0.091 A 
ATOM     15  C   UNL A   1      34.362  20.438  24.539  1.00  0.00     0.097 A 
ATOM     16  N   UNL A   1      32.287  19.964  25.318  1.00  0.00    -0.082 NA
ATOM     17  O   UNL A   1      32.557  21.306  25.488  1.00  0.00    -0.338 OA
BRANCH  14  18
ATOM     18  C   UNL A   1      33.450  17.969  24.388  1.00  0.00     0.008 C 
ATOM     19  C   UNL A   1      32.663  17.138  25.421  1.00  0.00     0.018 C 
ATOM     20  C   UNL A   1      34.905  17.452  24.373  1.00  0.00     0.018 C 
ATOM     21  C   UNL A   1      32.843  17.738  22.990  1.00  0.00     0.018 C 
ENDBRANCH  14  18
ENDBRANCH  10  13
ENDBRANCH   8   9
ENDBRANCH   7   8
ENDBRANCH   6   7
ENDBRANCH   5   6
BRANCH   5  22
ATOM     22  N   UNL A   1      41.658  22.212  25.354  1.00  0.00    -0.347 N 
ATOM     23  H   UNL A   1      42.568  22.623  25.560  1.00  0.00     0.345 HD
ATOM     24  H   UNL A   1      41.154  22.809  24.700  1.00  0.00     0.345 HD
ATOM     25  H   UNL A   1      41.787  21.288  24.941  1.00  0.00     0.345 HD
ENDBRANCH   5  22
ENDBRANCH   1   5
BRANCH   3  26
ATOM     26  C   UNL A   1      43.111  22.833  28.651  1.00  0.00     0.118 C 
BRANCH  26  27
ATOM     27  C   UNL A   1      44.379  23.045  27.842  1.00  0.00     0.042 C 
BRANCH  27  28
ATOM     28  C   UNL A   1      44.539  24.467  27.324  1.00  0.00     0.118 C 
BRANCH  28  29
ATOM     29  N   UNL A   1      43.692  24.741  26.171  1.00  0.00    -0.352 N 
ATOM     30  C   UNL A   1      42.578  25.537  26.068  1.00  0.00     0.251 C 
ATOM     31  H   UNL A   1      43.960  24.287  25.339  1.00  0.00     0.163 HD
ATOM     32  O   UNL A   1      41.879  25.471  25.057  1.00  0.00    -0.269 OA
BRANCH  30  33
ATOM     33  C   UNL A   1      42.206  26.449  27.172  1.00  0.00     0.039 A 
ATOM     34  C   UNL A   1      41.263  26.028  28.111  1.00  0.00     0.014 A 
ATOM     35  C   UNL A   1      42.778  27.721  27.280  1.00  0.00     0.014 A 
ATOM     36  C   UNL A   1      40.943  26.856  29.190  1.00  0.00     0.010 A 
ATOM     37  C   UNL A   1      42.535  28.499  28.408  1.00  0.00     0.010 A 
ATOM     38  C   UNL A   1      41.604  28.083  29.371  1.00  0.00    -0.014 A 
BRANCH  38  39
ATOM     39  C   UNL A   1      41.330  28.936  30.556  1.00  0.00     0.031 A 
ATOM     40  C   UNL A   1      42.164  28.803  31.804  1.00  0.00     0.074 A 
ATOM     41  C   UNL A   1      40.293  29.798  30.528  1.00  0.00     0.049 A 
ATOM     42  N   UNL A   1      42.067  29.458  32.932  1.00  0.00    -0.248 NA
ATOM     43  C   UNL A   1      43.225  27.782  31.794  1.00  0.00     0.031 C 
ATOM     44  C   UNL A   1      39.371  29.976  29.404  1.00  0.00     0.029 A 
ATOM     45  N   UNL A   1      39.839  30.683  31.473  1.00  0.00    -0.354 N 
ATOM     46  C   UNL A   1      43.038  28.919  33.770  1.00  0.00     0.074 A 
ATOM     47  C   UNL A   1      43.674  27.845  33.038  1.00  0.00     0.031 C 
ATOM     48  C   UNL A   1      38.484  30.937  29.711  1.00  0.00     0.029 A 
ATOM     49  C   UNL A   1      38.746  31.413  31.065  1.00  0.00     0.049 A 
ATOM     50  H   UNL A   1      40.256  30.788  32.358  1.00  0.00     0.167 HD
ATOM     51  C   UNL A   1      43.382  29.293  35.025  1.00  0.00     0.031 A 
ATOM     52  C   UNL A   1      38.031  32.357  31.707  1.00  0.00     0.031 A 
ATOM     53  C   UNL A   1      42.749  30.366  35.747  1.00  0.00     0.049 A 
ATOM     54  C   UNL A   1      38.440  32.767  33.095  1.00  0.00     0.074 A 
ATOM     55  C   UNL A   1      43.073  30.871  36.994  1.00  0.00     0.029 A 
ATOM     56  N   UNL A   1      41.657  31.092  35.293  1.00  0.00    -0.354 N 
ATOM     57  N   UNL A   1      39.421  32.307  33.834  1.00  0.00    -0.248 NA
ATOM     58  C   UNL A   1      37.657  33.837  33.725  1.00  0.00     0.031 C 
ATOM     59  C   UNL A   1      42.135  31.856  37.323  1.00  0.00     0.029 A 
ATOM     60  C   UNL A   1      41.272  32.016  36.250  1.00  0.00     0.049 A 
ATOM     61  H   UNL A   1      41.220  30.966  34.420  1.00  0.00     0.167 HD
ATOM     62  C   UNL A   1      39.386  33.047  35.012  1.00  0.00     0.074 A 
ATOM     63  C   UNL A   1      38.304  34.001  34.871  1.00  0.00     0.031 C 
ATOM     64  C   UNL A   1      40.179  32.947  36.108  1.00  0.00     0.031 A 
BRANCH  51  65
ATOM     65  C   UNL A   1      44.485  28.522  35.704  1.00  0.00    -0.014 A 
ATOM     66  C   UNL A   1      45.833  28.918  35.597  1.00  0.00     0.010 A 
ATOM     67  C   UNL A   1      44.168  27.396  36.487  1.00  0.00     0.010 A 
ATOM     68  C   UNL A   1      46.843  28.174  36.214  1.00  0.00     0.020 A 
ATOM     69  C   UNL A   1      45.173  26.670  37.134  1.00  0.00     0.020 A 
ATOM     70  C   UNL A   1      46.505  27.052  36.977  1.00  0.00     0.054 A 
BRANCH  70  71
ATOM     71  S   UNL A   1      47.836  26.114  37.777  1.00  0.00     0.124 S 
ATOM     72  O   UNL A   1      49.008  26.554  37.024  1.00  0.00    -0.237 OA
ATOM     73  O   UNL A   1      47.767  26.579  39.160  1.00  0.00    -0.237 OA
ATOM     74  O   UNL A   1      47.451  24.720  37.571  1.00  0.00    -0.744 OA
ENDBRANCH  70  71
ENDBRANCH  51  65
BRANCH  52  75
ATOM     75  C   UNL A   1      36.863  32.985  31.029  1.00  0.00    -0.014 A 
ATOM     76  C   UNL A   1      35.549  32.670  31.422  1.00  0.00     0.010 A 
ATOM     77  C   UNL A   1      37.062  33.930  30.006  1.00  0.00     0.010 A 
ATOM     78  C   UNL A   1      34.458  33.282  30.796  1.00  0.00     0.020 A 
ATOM     79  C   UNL A   1      35.976  34.566  29.400  1.00  0.00     0.020 A 
ATOM     80  C   UNL A   1      34.679  34.231  29.795  1.00  0.00     0.054 A 
BRANCH  80  81
ATOM     81  S   UNL A   1      33.250  35.066  29.050  1.00  0.00     0.124 S 
ATOM     82  O   UNL A   1      32.758  34.055  28.119  1.00  0.00    -0.237 OA
ATOM     83  O   UNL A   1      32.401  35.327  30.209  1.00  0.00    -0.237 OA
ATOM     84  O   UNL A   1      33.833  36.257  28.434  1.00  0.00    -0.744 OA
ENDBRANCH  80  81
ENDBRANCH  52  75
BRANCH  64  85
ATOM     85  C   UNL A   1      39.918  33.912  37.236  1.00  0.00    -0.014 A 
ATOM     86  C   UNL A   1      39.002  33.611  38.261  1.00  0.00     0.010 A 
ATOM     87  C   UNL A   1      40.619  35.130  37.283  1.00  0.00     0.010 A 
ATOM     88  C   UNL A   1      38.753  34.535  39.279  1.00  0.00     0.020 A 
ATOM     89  C   UNL A   1      40.398  36.041  38.318  1.00  0.00     0.020 A 
ATOM     90  C   UNL A   1      39.449  35.747  39.299  1.00  0.00     0.054 A 
BRANCH  90  91
ATOM     91  S   UNL A   1      39.114  36.927  40.634  1.00  0.00     0.124 S 
ATOM     92  O   UNL A   1      40.453  37.417  40.949  1.00  0.00    -0.237 OA
ATOM     93  O   UNL A   1      38.225  37.893  39.993  1.00  0.00    -0.237 OA
ATOM     94  O   UNL A   1      38.490  36.108  41.672  1.00  0.00    -0.744 OA
ENDBRANCH  90  91
ENDBRANCH  64  85
ENDBRANCH  38  39
ENDBRANCH  30  33
ENDBRANCH  28  29
ENDBRANCH  27  28
ENDBRANCH  26  27
ENDBRANCH   3  26
TORSDOF 20
ENDMDL
MODEL 3
REMARK VINA RESULT:     -10.2      3.101      4.894
REMARK SMILES CC(C)(C)c1cc(NC(=O)CSC[C@H]([NH3+])C(=O)NCCCNC(=O)c2ccc(-c3c4nc(c(-c5ccc(S(=O)(=O)[O-])cc5)c5ccc([nH]5)c(-c5ccc(S(=O)(=O)[O-])cc5)c5nc(c(-c6ccc(S(=O)(=O)[O-])cc6)c6ccc3[nH]6)C=C5)C=C4)cc2)on1
REMARK SMILES IDX 16 1 17 2 18 3 14 5 13 6 12 7 11 8 9 9 8 10 10 12 7 13 5 14
REMARK SMILES IDX 6 15 86 16 85 17 2 18 1 19 3 20 4 21 15 22 19 26 20 27 21 28
REMARK SMILES IDX 22 29 23 30 24 32 25 33 26 34 84 35 27 36 83 37 28 38 29 39
REMARK SMILES IDX 30 40 77 41 31 42 82 43 76 44 78 45 32 46 81 47 75 48 74 49
REMARK SMILES IDX 33 51 63 52 44 53 62 54 45 55 48 56 61 57 79 58 46 59 47 60
REMARK SMILES IDX 60 62 80 63 49 64 34 65 35 66 43 67 36 68 42 69 37 70 38 71
REMARK SMILES IDX 39 72 40 73 41 74 64 75 65 76 73 77 66 78 72 79 67 80 68 81
REMARK SMILES IDX 69 82 70 83 71 84 50 85 51 86 59 87 52 88 58 89 53 90 54 91
REMARK SMILES IDX 55 92 56 93 57 94
REMARK H PARENT 18 4 8 11 15 23 15 24 15 25 22 31 78 50 48 61
REMARK Flexibility Score: inf
ROOT
ATOM      1  C   UNL A   1      33.354  28.368  24.895  1.00  0.00     0.279 C 
ATOM      2  O   UNL A   1      34.046  27.640  24.180  1.00  0.00    -0.268 OA
ATOM      3  N   UNL A   1      33.960  29.015  25.932  1.00  0.00    -0.351 N 
ATOM      4  H   UNL A   1      34.918  28.815  26.028  1.00  0.00     0.163 HD
ENDROOT
BRANCH   1   5
ATOM      5  C   UNL A   1      31.860  28.574  24.614  1.00  0.00     0.280 C 
BRANCH   5   6
ATOM      6  C   UNL A   1      31.097  27.235  24.655  1.00  0.00     0.145 C 
BRANCH   6   7
ATOM      7  S   UNL A   1      31.469  26.171  26.095  1.00  0.00    -0.145 SA
BRANCH   7   8
ATOM      8  C   UNL A   1      30.809  24.540  25.597  1.00  0.00     0.170 C 
BRANCH   8   9
ATOM      9  C   UNL A   1      30.824  23.466  26.673  1.00  0.00     0.236 C 
ATOM     10  N   UNL A   1      31.803  22.531  26.799  1.00  0.00    -0.294 N 
ATOM     11  H   UNL A   1      31.712  21.922  27.568  1.00  0.00     0.173 HD
ATOM     12  O   UNL A   1      29.895  23.382  27.488  1.00  0.00    -0.274 OA
BRANCH  10  13
ATOM     13  C   UNL A   1      32.896  22.320  26.009  1.00  0.00     0.231 A 
ATOM     14  C   UNL A   1      34.883  22.245  25.050  1.00  0.00     0.091 A 
ATOM     15  C   UNL A   1      34.192  22.727  26.191  1.00  0.00     0.097 A 
ATOM     16  N   UNL A   1      34.054  21.552  24.258  1.00  0.00    -0.082 NA
ATOM     17  O   UNL A   1      32.818  21.596  24.869  1.00  0.00    -0.338 OA
BRANCH  14  18
ATOM     18  C   UNL A   1      36.346  22.416  24.703  1.00  0.00     0.008 C 
ATOM     19  C   UNL A   1      37.080  21.064  24.815  1.00  0.00     0.018 C 
ATOM     20  C   UNL A   1      37.051  23.418  25.642  1.00  0.00     0.018 C 
ATOM     21  C   UNL A   1      36.473  22.939  23.258  1.00  0.00     0.018 C 
ENDBRANCH  14  18
ENDBRANCH  10  13
ENDBRANCH   8   9
ENDBRANCH   7   8
ENDBRANCH   6   7
ENDBRANCH   5   6
BRANCH   5  22
ATOM     22  N   UNL A   1      31.689  29.335  23.352  1.00  0.00    -0.347 N 
ATOM     23  H   UNL A   1      30.912  29.989  23.453  1.00  0.00     0.345 HD
ATOM     24  H   UNL A   1      31.493  28.688  22.589  1.00  0.00     0.345 HD
ATOM     25  H   UNL A   1      32.544  29.853  23.149  1.00  0.00     0.345 HD
ENDBRANCH   5  22
ENDBRANCH   1   5
BRANCH   3  26
ATOM     26  C   UNL A   1      33.443  29.947  26.921  1.00  0.00     0.118 C 
BRANCH  26  27
ATOM     27  C   UNL A   1      34.554  30.775  27.541  1.00  0.00     0.042 C 
BRANCH  27  28
ATOM     28  C   UNL A   1      35.623  29.939  28.232  1.00  0.00     0.118 C 
BRANCH  28  29
ATOM     29  N   UNL A   1      35.606  30.095  29.680  1.00  0.00    -0.352 N 
ATOM     30  C   UNL A   1      36.603  29.882  30.599  1.00  0.00     0.251 C 
ATOM     31  H   UNL A   1      34.749  30.401  30.057  1.00  0.00     0.163 HD
ATOM     32  O   UNL A   1      36.328  29.867  31.798  1.00  0.00    -0.269 OA
BRANCH  30  33
ATOM     33  C   UNL A   1      37.994  29.646  30.152  1.00  0.00     0.039 A 
ATOM     34  C   UNL A   1      38.958  29.284  31.095  1.00  0.00     0.014 A 
ATOM     35  C   UNL A   1      38.353  29.787  28.808  1.00  0.00     0.014 A 
ATOM     36  C   UNL A   1      40.262  29.003  30.679  1.00  0.00     0.010 A 
ATOM     37  C   UNL A   1      39.623  29.409  28.383  1.00  0.00     0.010 A 
ATOM     38  C   UNL A   1      40.597  29.025  29.315  1.00  0.00    -0.014 A 
BRANCH  38  39
ATOM     39  C   UNL A   1      41.960  28.652  28.853  1.00  0.00     0.031 A 
ATOM     40  C   UNL A   1      43.056  29.683  28.796  1.00  0.00     0.074 A 
ATOM     41  C   UNL A   1      42.197  27.393  28.434  1.00  0.00     0.049 A 
ATOM     42  N   UNL A   1      44.301  29.541  28.417  1.00  0.00    -0.248 NA
ATOM     43  C   UNL A   1      42.704  31.058  29.188  1.00  0.00     0.031 C 
ATOM     44  C   UNL A   1      41.204  26.317  28.379  1.00  0.00     0.029 A 
ATOM     45  N   UNL A   1      43.348  26.805  27.971  1.00  0.00    -0.354 N 
ATOM     46  C   UNL A   1      44.873  30.806  28.506  1.00  0.00     0.074 A 
ATOM     47  C   UNL A   1      43.825  31.712  28.921  1.00  0.00     0.031 C 
ATOM     48  C   UNL A   1      41.796  25.193  27.943  1.00  0.00     0.029 A 
ATOM     49  C   UNL A   1      43.197  25.476  27.648  1.00  0.00     0.049 A 
ATOM     50  H   UNL A   1      44.200  27.288  27.879  1.00  0.00     0.167 HD
ATOM     51  C   UNL A   1      46.155  31.178  28.282  1.00  0.00     0.031 A 
ATOM     52  C   UNL A   1      44.083  24.583  27.166  1.00  0.00     0.031 A 
ATOM     53  C   UNL A   1      47.196  30.271  27.873  1.00  0.00     0.049 A 
ATOM     54  C   UNL A   1      45.506  25.014  26.937  1.00  0.00     0.074 A 
ATOM     55  C   UNL A   1      48.543  30.534  27.690  1.00  0.00     0.029 A 
ATOM     56  N   UNL A   1      47.008  28.930  27.573  1.00  0.00    -0.354 N 
ATOM     57  N   UNL A   1      46.047  26.196  27.117  1.00  0.00    -0.248 NA
ATOM     58  C   UNL A   1      46.439  23.986  26.461  1.00  0.00     0.031 C 
ATOM     59  C   UNL A   1      49.155  29.369  27.215  1.00  0.00     0.029 A 
ATOM     60  C   UNL A   1      48.205  28.360  27.172  1.00  0.00     0.049 A 
ATOM     61  H   UNL A   1      46.148  28.453  27.634  1.00  0.00     0.167 HD
ATOM     62  C   UNL A   1      47.392  26.048  26.794  1.00  0.00     0.074 A 
ATOM     63  C   UNL A   1      47.583  24.657  26.435  1.00  0.00     0.031 C 
ATOM     64  C   UNL A   1      48.379  26.979  26.797  1.00  0.00     0.031 A 
BRANCH  51  65
ATOM     65  C   UNL A   1      46.499  32.636  28.457  1.00  0.00    -0.014 A 
ATOM     66  C   UNL A   1      46.378  33.551  27.393  1.00  0.00     0.010 A 
ATOM     67  C   UNL A   1      46.926  33.105  29.713  1.00  0.00     0.010 A 
ATOM     68  C   UNL A   1      46.726  34.894  27.569  1.00  0.00     0.020 A 
ATOM     69  C   UNL A   1      47.241  34.455  29.901  1.00  0.00     0.020 A 
ATOM     70  C   UNL A   1      47.159  35.336  28.823  1.00  0.00     0.054 A 
BRANCH  70  71
ATOM     71  S   UNL A   1      47.591  37.086  29.025  1.00  0.00     0.124 S 
ATOM     72  O   UNL A   1      48.067  37.434  27.688  1.00  0.00    -0.237 OA
ATOM     73  O   UNL A   1      46.317  37.686  29.413  1.00  0.00    -0.237 OA
ATOM     74  O   UNL A   1      48.614  37.074  30.066  1.00  0.00    -0.744 OA
ENDBRANCH  70  71
ENDBRANCH  51  65
BRANCH  52  75
ATOM     75  C   UNL A   1      43.644  23.189  26.881  1.00  0.00    -0.014 A 
ATOM     76  C   UNL A   1      43.930  22.583  25.645  1.00  0.00     0.010 A 
ATOM     77  C   UNL A   1      42.964  22.447  27.865  1.00  0.00     0.010 A 
ATOM     78  C   UNL A   1      43.535  21.265  25.395  1.00  0.00     0.020 A 
ATOM     79  C   UNL A   1      42.596  21.120  27.630  1.00  0.00     0.020 A 
ATOM     80  C   UNL A   1      42.877  20.540  26.392  1.00  0.00     0.054 A 
BRANCH  80  81
ATOM     81  S   UNL A   1      42.441  18.808  26.071  1.00  0.00     0.124 S 
ATOM     82  O   UNL A   1      41.028  18.909  25.722  1.00  0.00    -0.237 OA
ATOM     83  O   UNL A   1      43.341  18.455  24.976  1.00  0.00    -0.237 OA
ATOM     84  O   UNL A   1      42.727  18.142  27.341  1.00  0.00    -0.744 OA
ENDBRANCH  80  81
ENDBRANCH  52  75
BRANCH  64  85
ATOM     85  C   UNL A   1      49.763  26.515  26.419  1.00  0.00    -0.014 A 
ATOM     86  C   UNL A   1      50.197  26.514  25.081  1.00  0.00     0.010 A 
ATOM     87  C   UNL A   1      50.652  26.095  27.425  1.00  0.00     0.010 A 
ATOM     88  C   UNL A   1      51.472  26.050  24.752  1.00  0.00     0.020 A 
ATOM     89  C   UNL A   1      51.941  25.663  27.104  1.00  0.00     0.020 A 
ATOM     90  C   UNL A   1      52.336  25.622  25.766  1.00  0.00     0.054 A 
BRANCH  90  91
ATOM     91  S   UNL A   1      53.989  25.031  25.314  1.00  0.00     0.124 S 
ATOM     92  O   UNL A   1      54.353  25.944  24.235  1.00  0.00    -0.237 OA
ATOM     93  O   UNL A   1      54.739  25.195  26.558  1.00  0.00    -0.237 OA
ATOM     94  O   UNL A   1      53.763  23.645  24.909  1.00  0.00    -0.744 OA
ENDBRANCH  90  91
ENDBRANCH  64  85
ENDBRANCH  38  39
ENDBRANCH  30  33
ENDBRANCH  28  29
ENDBRANCH  27  28
ENDBRANCH  26  27
ENDBRANCH   3  26
TORSDOF 20
ENDMDL
