MODEL 1
REMARK VINA RESULT:     -10.8      0.000      0.000
REMARK SMILES CC(C)CS(=O)(=O)Cc1c(C(=O)NCCCNC(=O)c2ccc(-c3c4nc(c(-c5ccc(S(=O)(=O)[O-])cc5)c5ccc([nH]5)c(-c5ccc(S(=O)(=O)[O-])cc5)c5nc(c(-c6ccc(S(=O)(=O)[O-])cc6)c6ccc3[nH]6)C=C5)C=C4)cc2)oc2ccccc12
REMARK SMILES IDX 14 1 13 2 11 3 12 4 10 6 9 7 86 8 80 9 81 10 85 11 82 12
REMARK SMILES IDX 84 13 83 14 8 15 5 16 6 17 7 18 4 19 2 20 1 21 3 22 15 23
REMARK SMILES IDX 16 24 17 25 18 26 19 28 20 29 21 30 79 31 22 32 78 33 23 34
REMARK SMILES IDX 24 35 25 36 72 37 26 38 77 39 71 40 73 41 27 42 76 43 70 44
REMARK SMILES IDX 69 45 28 47 58 48 39 49 57 50 40 51 43 52 56 53 74 54 41 55
REMARK SMILES IDX 42 56 55 58 75 59 44 60 29 61 30 62 38 63 31 64 37 65 32 66
REMARK SMILES IDX 33 67 34 68 35 69 36 70 59 71 60 72 68 73 61 74 67 75 62 76
REMARK SMILES IDX 63 77 64 78 65 79 66 80 45 81 46 82 54 83 47 84 53 85 48 86
REMARK SMILES IDX 49 87 50 88 51 89 52 90
REMARK H PARENT 13 5 17 27 73 46 43 57
REMARK Flexibility Score: inf
ROOT
ATOM      1  C   UNL A   1      33.074  28.763  24.347  1.00  0.00     0.118 C 
ENDROOT
BRANCH   1   2
ATOM      2  N   UNL A   1      33.228  28.058  23.096  1.00  0.00    -0.349 N 
ATOM      3  C   UNL A   1      33.454  26.745  22.825  1.00  0.00     0.287 C 
ATOM      4  O   UNL A   1      33.964  26.543  21.726  1.00  0.00    -0.266 OA
ATOM      5  H   UNL A   1      33.156  28.629  22.298  1.00  0.00     0.163 HD
BRANCH   3   6
ATOM      6  C   UNL A   1      33.061  25.652  23.672  1.00  0.00     0.196 A 
ATOM      7  C   UNL A   1      31.800  25.071  23.837  1.00  0.00     0.027 A 
ATOM      8  C   UNL A   1      31.943  24.185  24.966  1.00  0.00     0.025 A 
ATOM      9  O   UNL A   1      33.942  25.141  24.573  1.00  0.00    -0.451 OA
ATOM     10  C   UNL A   1      33.261  24.296  25.384  1.00  0.00     0.135 A 
ATOM     11  C   UNL A   1      31.081  23.375  25.734  1.00  0.00     0.012 A 
ATOM     12  C   UNL A   1      33.793  23.676  26.512  1.00  0.00     0.048 A 
ATOM     13  C   UNL A   1      31.582  22.744  26.884  1.00  0.00     0.001 A 
ATOM     14  C   UNL A   1      32.915  22.898  27.268  1.00  0.00     0.004 A 
BRANCH   7  15
ATOM     15  C   UNL A   1      30.488  25.490  23.223  1.00  0.00     0.177 C 
BRANCH  15  16
ATOM     16  S   UNL A   1      29.544  26.896  23.822  1.00  0.00     0.154 S 
ATOM     17  O   UNL A   1      30.206  27.329  25.046  1.00  0.00    -0.228 OA
ATOM     18  O   UNL A   1      28.151  26.486  23.899  1.00  0.00    -0.228 OA
BRANCH  16  19
ATOM     19  C   UNL A   1      29.610  28.303  22.721  1.00  0.00     0.140 C 
BRANCH  19  20
ATOM     20  C   UNL A   1      28.740  29.554  22.980  1.00  0.00    -0.002 C 
ATOM     21  C   UNL A   1      29.363  30.752  23.693  1.00  0.00     0.008 C 
ATOM     22  C   UNL A   1      28.123  30.025  21.648  1.00  0.00     0.008 C 
ENDBRANCH  19  20
ENDBRANCH  16  19
ENDBRANCH  15  16
ENDBRANCH   7  15
ENDBRANCH   3   6
ENDBRANCH   1   2
BRANCH   1  23
ATOM     23  C   UNL A   1      34.133  28.300  25.345  1.00  0.00     0.042 C 
BRANCH  23  24
ATOM     24  C   UNL A   1      33.694  28.398  26.809  1.00  0.00     0.118 C 
BRANCH  24  25
ATOM     25  N   UNL A   1      33.575  29.775  27.274  1.00  0.00    -0.352 N 
ATOM     26  C   UNL A   1      34.442  30.530  28.023  1.00  0.00     0.251 C 
ATOM     27  H   UNL A   1      32.744  30.233  27.010  1.00  0.00     0.163 HD
ATOM     28  O   UNL A   1      34.068  31.600  28.494  1.00  0.00    -0.269 OA
BRANCH  26  29
ATOM     29  C   UNL A   1      35.811  30.041  28.277  1.00  0.00     0.039 A 
ATOM     30  C   UNL A   1      36.765  30.135  27.262  1.00  0.00     0.014 A 
ATOM     31  C   UNL A   1      36.149  29.484  29.513  1.00  0.00     0.014 A 
ATOM     32  C   UNL A   1      38.079  29.734  27.511  1.00  0.00     0.010 A 
ATOM     33  C   UNL A   1      37.474  29.158  29.783  1.00  0.00     0.010 A 
ATOM     34  C   UNL A   1      38.453  29.278  28.785  1.00  0.00    -0.014 A 
BRANCH  34  35
ATOM     35  C   UNL A   1      39.859  28.917  29.100  1.00  0.00     0.031 A 
ATOM     36  C   UNL A   1      40.782  29.942  29.700  1.00  0.00     0.074 A 
ATOM     37  C   UNL A   1      40.324  27.693  28.775  1.00  0.00     0.049 A 
ATOM     38  N   UNL A   1      42.063  29.851  29.953  1.00  0.00    -0.248 NA
ATOM     39  C   UNL A   1      40.196  31.250  30.036  1.00  0.00     0.031 C 
ATOM     40  C   UNL A   1      39.537  26.622  28.159  1.00  0.00     0.029 A 
ATOM     41  N   UNL A   1      41.577  27.149  28.908  1.00  0.00    -0.354 N 
ATOM     42  C   UNL A   1      42.438  31.092  30.455  1.00  0.00     0.074 A 
ATOM     43  C   UNL A   1      41.262  31.933  30.428  1.00  0.00     0.031 C 
ATOM     44  C   UNL A   1      40.321  25.545  27.987  1.00  0.00     0.029 A 
ATOM     45  C   UNL A   1      41.673  25.861  28.436  1.00  0.00     0.049 A 
ATOM     46  H   UNL A   1      42.336  27.635  29.305  1.00  0.00     0.167 HD
ATOM     47  C   UNL A   1      43.649  31.490  30.914  1.00  0.00     0.031 A 
ATOM     48  C   UNL A   1      42.732  25.031  28.358  1.00  0.00     0.031 A 
ATOM     49  C   UNL A   1      44.813  30.645  30.952  1.00  0.00     0.049 A 
ATOM     50  C   UNL A   1      44.069  25.502  28.861  1.00  0.00     0.074 A 
ATOM     51  C   UNL A   1      46.072  30.940  31.445  1.00  0.00     0.029 A 
ATOM     52  N   UNL A   1      44.863  29.343  30.480  1.00  0.00    -0.354 N 
ATOM     53  N   UNL A   1      44.392  26.661  29.385  1.00  0.00    -0.248 NA
ATOM     54  C   UNL A   1      45.185  24.548  28.774  1.00  0.00     0.031 C 
ATOM     55  C   UNL A   1      46.896  29.831  31.227  1.00  0.00     0.029 A 
ATOM     56  C   UNL A   1      46.134  28.826  30.652  1.00  0.00     0.049 A 
ATOM     57  H   UNL A   1      44.105  28.857  30.081  1.00  0.00     0.167 HD
ATOM     58  C   UNL A   1      45.738  26.563  29.720  1.00  0.00     0.074 A 
ATOM     59  C   UNL A   1      46.166  25.231  29.350  1.00  0.00     0.031 C 
ATOM     60  C   UNL A   1      46.544  27.493  30.288  1.00  0.00     0.031 A 
BRANCH  47  61
ATOM     61  C   UNL A   1      43.777  32.907  31.408  1.00  0.00    -0.014 A 
ATOM     62  C   UNL A   1      43.557  33.226  32.761  1.00  0.00     0.010 A 
ATOM     63  C   UNL A   1      44.164  33.926  30.520  1.00  0.00     0.010 A 
ATOM     64  C   UNL A   1      43.682  34.544  33.207  1.00  0.00     0.020 A 
ATOM     65  C   UNL A   1      44.318  35.242  30.968  1.00  0.00     0.020 A 
ATOM     66  C   UNL A   1      44.060  35.545  32.306  1.00  0.00     0.054 A 
BRANCH  66  67
ATOM     67  S   UNL A   1      44.237  37.242  32.919  1.00  0.00     0.124 S 
ATOM     68  O   UNL A   1      45.556  37.199  33.546  1.00  0.00    -0.237 OA
ATOM     69  O   UNL A   1      44.151  38.035  31.695  1.00  0.00    -0.237 OA
ATOM     70  O   UNL A   1      43.114  37.399  33.840  1.00  0.00    -0.744 OA
ENDBRANCH  66  67
ENDBRANCH  47  61
BRANCH  48  71
ATOM     71  C   UNL A   1      42.568  23.665  27.791  1.00  0.00    -0.014 A 
ATOM     72  C   UNL A   1      42.826  23.422  26.430  1.00  0.00     0.010 A 
ATOM     73  C   UNL A   1      42.161  22.595  28.610  1.00  0.00     0.010 A 
ATOM     74  C   UNL A   1      42.658  22.141  25.893  1.00  0.00     0.020 A 
ATOM     75  C   UNL A   1      42.019  21.308  28.084  1.00  0.00     0.020 A 
ATOM     76  C   UNL A   1      42.257  21.092  26.725  1.00  0.00     0.054 A 
BRANCH  76  77
ATOM     77  S   UNL A   1      42.089  19.430  26.016  1.00  0.00     0.124 S 
ATOM     78  O   UNL A   1      42.915  19.526  24.818  1.00  0.00    -0.237 OA
ATOM     79  O   UNL A   1      42.614  18.579  27.081  1.00  0.00    -0.237 OA
ATOM     80  O   UNL A   1      40.653  19.303  25.781  1.00  0.00    -0.744 OA
ENDBRANCH  76  77
ENDBRANCH  48  71
BRANCH  60  81
ATOM     81  C   UNL A   1      47.964  27.094  30.594  1.00  0.00    -0.014 A 
ATOM     82  C   UNL A   1      49.021  27.426  29.729  1.00  0.00     0.010 A 
ATOM     83  C   UNL A   1      48.249  26.437  31.806  1.00  0.00     0.010 A 
ATOM     84  C   UNL A   1      50.336  27.088  30.061  1.00  0.00     0.020 A 
ATOM     85  C   UNL A   1      49.564  26.123  32.154  1.00  0.00     0.020 A 
ATOM     86  C   UNL A   1      50.599  26.441  31.273  1.00  0.00     0.054 A 
BRANCH  86  87
ATOM     87  S   UNL A   1      52.320  26.069  31.707  1.00  0.00     0.124 S 
ATOM     88  O   UNL A   1      52.187  24.793  32.407  1.00  0.00    -0.237 OA
ATOM     89  O   UNL A   1      52.974  26.005  30.403  1.00  0.00    -0.237 OA
ATOM     90  O   UNL A   1      52.719  27.198  32.544  1.00  0.00    -0.744 OA
ENDBRANCH  86  87
ENDBRANCH  60  81
ENDBRANCH  34  35
ENDBRANCH  26  29
ENDBRANCH  24  25
ENDBRANCH  23  24
ENDBRANCH   1  23
TORSDOF 17
ENDMDL
MODEL 2
REMARK VINA RESULT:     -10.7      2.735      3.382
REMARK SMILES CC(C)CS(=O)(=O)Cc1c(C(=O)NCCCNC(=O)c2ccc(-c3c4nc(c(-c5ccc(S(=O)(=O)[O-])cc5)c5ccc([nH]5)c(-c5ccc(S(=O)(=O)[O-])cc5)c5nc(c(-c6ccc(S(=O)(=O)[O-])cc6)c6ccc3[nH]6)C=C5)C=C4)cc2)oc2ccccc12
REMARK SMILES IDX 14 1 13 2 11 3 12 4 10 6 9 7 86 8 80 9 81 10 85 11 82 12
REMARK SMILES IDX 84 13 83 14 8 15 5 16 6 17 7 18 4 19 2 20 1 21 3 22 15 23
REMARK SMILES IDX 16 24 17 25 18 26 19 28 20 29 21 30 79 31 22 32 78 33 23 34
REMARK SMILES IDX 24 35 25 36 72 37 26 38 77 39 71 40 73 41 27 42 76 43 70 44
REMARK SMILES IDX 69 45 28 47 58 48 39 49 57 50 40 51 43 52 56 53 74 54 41 55
REMARK SMILES IDX 42 56 55 58 75 59 44 60 29 61 30 62 38 63 31 64 37 65 32 66
REMARK SMILES IDX 33 67 34 68 35 69 36 70 59 71 60 72 68 73 61 74 67 75 62 76
REMARK SMILES IDX 63 77 64 78 65 79 66 80 45 81 46 82 54 83 47 84 53 85 48 86
REMARK SMILES IDX 49 87 50 88 51 89 52 90
REMARK H PARENT 13 5 17 27 73 46 43 57
REMARK Flexibility Score: inf
ROOT
ATOM      1  C   UNL A   1      33.071  29.843  26.257  1.00  0.00     0.118 C 
ENDROOT
BRANCH   1   2
ATOM      2  N   UNL A   1      33.374  29.570  24.872  1.00  0.00    -0.349 N 
ATOM      3  C   UNL A   1      33.641  28.406  24.221  1.00  0.00     0.287 C 
ATOM      4  O   UNL A   1      34.275  28.552  23.179  1.00  0.00    -0.266 OA
ATOM      5  H   UNL A   1      33.388  30.367  24.296  1.00  0.00     0.163 HD
BRANCH   3   6
ATOM      6  C   UNL A   1      33.163  27.111  24.624  1.00  0.00     0.196 A 
ATOM      7  C   UNL A   1      31.850  26.683  24.843  1.00  0.00     0.027 A 
ATOM      8  C   UNL A   1      31.980  25.380  25.447  1.00  0.00     0.025 A 
ATOM      9  O   UNL A   1      34.047  26.148  24.999  1.00  0.00    -0.451 OA
ATOM     10  C   UNL A   1      33.341  25.127  25.539  1.00  0.00     0.135 A 
ATOM     11  C   UNL A   1      31.100  24.431  26.008  1.00  0.00     0.012 A 
ATOM     12  C   UNL A   1      33.903  24.011  26.155  1.00  0.00     0.048 A 
ATOM     13  C   UNL A   1      31.634  23.299  26.647  1.00  0.00     0.001 A 
ATOM     14  C   UNL A   1      33.013  23.098  26.723  1.00  0.00     0.004 A 
BRANCH   7  15
ATOM     15  C   UNL A   1      30.579  27.492  24.790  1.00  0.00     0.177 C 
BRANCH  15  16
ATOM     16  S   UNL A   1      29.778  27.935  23.245  1.00  0.00     0.154 S 
ATOM     17  O   UNL A   1      28.433  27.380  23.320  1.00  0.00    -0.228 OA
ATOM     18  O   UNL A   1      30.645  27.498  22.163  1.00  0.00    -0.228 OA
BRANCH  16  19
ATOM     19  C   UNL A   1      29.556  29.699  23.052  1.00  0.00     0.140 C 
BRANCH  19  20
ATOM     20  C   UNL A   1      28.185  30.286  22.651  1.00  0.00    -0.002 C 
ATOM     21  C   UNL A   1      27.543  31.343  23.548  1.00  0.00     0.008 C 
ATOM     22  C   UNL A   1      28.268  30.830  21.212  1.00  0.00     0.008 C 
ENDBRANCH  19  20
ENDBRANCH  16  19
ENDBRANCH  15  16
ENDBRANCH   7  15
ENDBRANCH   3   6
ENDBRANCH   1   2
BRANCH   1  23
ATOM     23  C   UNL A   1      33.921  28.957  27.165  1.00  0.00     0.042 C 
BRANCH  23  24
ATOM     24  C   UNL A   1      35.314  29.522  27.461  1.00  0.00     0.118 C 
BRANCH  24  25
ATOM     25  N   UNL A   1      35.367  30.272  28.711  1.00  0.00    -0.352 N 
ATOM     26  C   UNL A   1      36.377  30.377  29.633  1.00  0.00     0.251 C 
ATOM     27  H   UNL A   1      34.552  30.783  28.925  1.00  0.00     0.163 HD
ATOM     28  O   UNL A   1      36.154  30.885  30.728  1.00  0.00    -0.269 OA
BRANCH  26  29
ATOM     29  C   UNL A   1      37.721  29.856  29.313  1.00  0.00     0.039 A 
ATOM     30  C   UNL A   1      38.141  29.833  27.982  1.00  0.00     0.014 A 
ATOM     31  C   UNL A   1      38.560  29.385  30.326  1.00  0.00     0.014 A 
ATOM     32  C   UNL A   1      39.432  29.401  27.673  1.00  0.00     0.010 A 
ATOM     33  C   UNL A   1      39.871  29.029  30.025  1.00  0.00     0.010 A 
ATOM     34  C   UNL A   1      40.321  29.032  28.696  1.00  0.00    -0.014 A 
BRANCH  34  35
ATOM     35  C   UNL A   1      41.724  28.642  28.403  1.00  0.00     0.031 A 
ATOM     36  C   UNL A   1      42.806  29.688  28.378  1.00  0.00     0.074 A 
ATOM     37  C   UNL A   1      42.010  27.363  28.086  1.00  0.00     0.049 A 
ATOM     38  N   UNL A   1      44.065  29.564  28.048  1.00  0.00    -0.248 NA
ATOM     39  C   UNL A   1      42.414  31.059  28.747  1.00  0.00     0.031 C 
ATOM     40  C   UNL A   1      41.045  26.262  28.043  1.00  0.00     0.029 A 
ATOM     41  N   UNL A   1      43.198  26.776  27.727  1.00  0.00    -0.354 N 
ATOM     42  C   UNL A   1      44.610  30.839  28.148  1.00  0.00     0.074 A 
ATOM     43  C   UNL A   1      43.536  31.730  28.524  1.00  0.00     0.031 C 
ATOM     44  C   UNL A   1      41.682  25.132  27.698  1.00  0.00     0.029 A 
ATOM     45  C   UNL A   1      43.088  25.433  27.451  1.00  0.00     0.049 A 
ATOM     46  H   UNL A   1      44.048  27.269  27.671  1.00  0.00     0.167 HD
ATOM     47  C   UNL A   1      45.893  31.230  27.960  1.00  0.00     0.031 A 
ATOM     48  C   UNL A   1      44.012  24.545  27.032  1.00  0.00     0.031 A 
ATOM     49  C   UNL A   1      46.963  30.337  27.599  1.00  0.00     0.049 A 
ATOM     50  C   UNL A   1      45.427  25.007  26.817  1.00  0.00     0.074 A 
ATOM     51  C   UNL A   1      48.306  30.628  27.436  1.00  0.00     0.029 A 
ATOM     52  N   UNL A   1      46.812  28.982  27.346  1.00  0.00    -0.354 N 
ATOM     53  N   UNL A   1      45.935  26.206  26.971  1.00  0.00    -0.248 NA
ATOM     54  C   UNL A   1      46.398  23.992  26.383  1.00  0.00     0.031 C 
ATOM     55  C   UNL A   1      48.959  29.457  27.036  1.00  0.00     0.029 A 
ATOM     56  C   UNL A   1      48.034  28.426  27.010  1.00  0.00     0.049 A 
ATOM     57  H   UNL A   1      45.962  28.488  27.399  1.00  0.00     0.167 HD
ATOM     58  C   UNL A   1      47.291  26.083  26.685  1.00  0.00     0.074 A 
ATOM     59  C   UNL A   1      47.525  24.692  26.359  1.00  0.00     0.031 C 
ATOM     60  C   UNL A   1      48.254  27.037  26.698  1.00  0.00     0.031 A 
BRANCH  47  61
ATOM     61  C   UNL A   1      46.211  32.691  28.138  1.00  0.00    -0.014 A 
ATOM     62  C   UNL A   1      46.177  33.580  27.048  1.00  0.00     0.010 A 
ATOM     63  C   UNL A   1      46.505  33.193  29.419  1.00  0.00     0.010 A 
ATOM     64  C   UNL A   1      46.470  34.934  27.228  1.00  0.00     0.020 A 
ATOM     65  C   UNL A   1      46.770  34.553  29.609  1.00  0.00     0.020 A 
ATOM     66  C   UNL A   1      46.768  35.411  28.508  1.00  0.00     0.054 A 
BRANCH  66  67
ATOM     67  S   UNL A   1      47.121  37.178  28.716  1.00  0.00     0.124 S 
ATOM     68  O   UNL A   1      46.881  37.692  27.370  1.00  0.00    -0.237 OA
ATOM     69  O   UNL A   1      46.147  37.583  29.725  1.00  0.00    -0.237 OA
ATOM     70  O   UNL A   1      48.515  37.204  29.153  1.00  0.00    -0.744 OA
ENDBRANCH  66  67
ENDBRANCH  47  61
BRANCH  48  71
ATOM     71  C   UNL A   1      43.628  23.125  26.799  1.00  0.00    -0.014 A 
ATOM     72  C   UNL A   1      43.818  22.534  25.537  1.00  0.00     0.010 A 
ATOM     73  C   UNL A   1      43.079  22.354  27.839  1.00  0.00     0.010 A 
ATOM     74  C   UNL A   1      43.445  21.204  25.314  1.00  0.00     0.020 A 
ATOM     75  C   UNL A   1      42.731  21.016  27.628  1.00  0.00     0.020 A 
ATOM     76  C   UNL A   1      42.905  20.454  26.362  1.00  0.00     0.054 A 
BRANCH  76  77
ATOM     77  S   UNL A   1      42.470  18.719  26.061  1.00  0.00     0.124 S 
ATOM     78  O   UNL A   1      41.070  18.820  25.664  1.00  0.00    -0.237 OA
ATOM     79  O   UNL A   1      43.402  18.339  25.001  1.00  0.00    -0.237 OA
ATOM     80  O   UNL A   1      42.712  18.077  27.351  1.00  0.00    -0.744 OA
ENDBRANCH  76  77
ENDBRANCH  48  71
BRANCH  60  81
ATOM     81  C   UNL A   1      49.666  26.607  26.396  1.00  0.00    -0.014 A 
ATOM     82  C   UNL A   1      50.178  26.639  25.088  1.00  0.00     0.010 A 
ATOM     83  C   UNL A   1      50.513  26.234  27.457  1.00  0.00     0.010 A 
ATOM     84  C   UNL A   1      51.507  26.283  24.843  1.00  0.00     0.020 A 
ATOM     85  C   UNL A   1      51.849  25.906  27.219  1.00  0.00     0.020 A 
ATOM     86  C   UNL A   1      52.335  25.921  25.911  1.00  0.00     0.054 A 
BRANCH  86  87
ATOM     87  S   UNL A   1      54.072  25.523  25.573  1.00  0.00     0.124 S 
ATOM     88  O   UNL A   1      54.774  26.480  26.424  1.00  0.00    -0.237 OA
ATOM     89  O   UNL A   1      54.167  24.125  25.986  1.00  0.00    -0.237 OA
ATOM     90  O   UNL A   1      54.207  25.753  24.135  1.00  0.00    -0.744 OA
ENDBRANCH  86  87
ENDBRANCH  60  81
ENDBRANCH  34  35
ENDBRANCH  26  29
ENDBRANCH  24  25
ENDBRANCH  23  24
ENDBRANCH   1  23
TORSDOF 17
ENDMDL
MODEL 3
REMARK VINA RESULT:     -10.4      4.643     11.647
REMARK SMILES CC(C)CS(=O)(=O)Cc1c(C(=O)NCCCNC(=O)c2ccc(-c3c4nc(c(-c5ccc(S(=O)(=O)[O-])cc5)c5ccc([nH]5)c(-c5ccc(S(=O)(=O)[O-])cc5)c5nc(c(-c6ccc(S(=O)(=O)[O-])cc6)c6ccc3[nH]6)C=C5)C=C4)cc2)oc2ccccc12
REMARK SMILES IDX 14 1 13 2 11 3 12 4 10 6 9 7 86 8 80 9 81 10 85 11 82 12
REMARK SMILES IDX 84 13 83 14 8 15 5 16 6 17 7 18 4 19 2 20 1 21 3 22 15 23
REMARK SMILES IDX 16 24 17 25 18 26 19 28 20 29 21 30 79 31 22 32 78 33 23 34
REMARK SMILES IDX 24 35 25 36 72 37 26 38 77 39 71 40 73 41 27 42 76 43 70 44
REMARK SMILES IDX 69 45 28 47 58 48 39 49 57 50 40 51 43 52 56 53 74 54 41 55
REMARK SMILES IDX 42 56 55 58 75 59 44 60 29 61 30 62 38 63 31 64 37 65 32 66
REMARK SMILES IDX 33 67 34 68 35 69 36 70 59 71 60 72 68 73 61 74 67 75 62 76
REMARK SMILES IDX 63 77 64 78 65 79 66 80 45 81 46 82 54 83 47 84 53 85 48 86
REMARK SMILES IDX 49 87 50 88 51 89 52 90
REMARK H PARENT 13 5 17 27 73 46 43 57
REMARK Flexibility Score: inf
ROOT
ATOM      1  C   UNL A   1      43.304  22.898  26.819  1.00  0.00     0.118 C 
ENDROOT
BRANCH   1   2
ATOM      2  N   UNL A   1      44.391  22.996  25.873  1.00  0.00    -0.349 N 
ATOM      3  C   UNL A   1      44.803  24.020  25.078  1.00  0.00     0.287 C 
ATOM      4  O   UNL A   1      45.451  23.660  24.099  1.00  0.00    -0.266 OA
ATOM      5  H   UNL A   1      44.930  22.177  25.790  1.00  0.00     0.163 HD
BRANCH   3   6
ATOM      6  C   UNL A   1      44.608  25.414  25.368  1.00  0.00     0.196 A 
ATOM      7  C   UNL A   1      45.298  26.236  26.263  1.00  0.00     0.027 A 
ATOM      8  C   UNL A   1      44.536  27.459  26.309  1.00  0.00     0.025 A 
ATOM      9  O   UNL A   1      43.537  26.071  24.847  1.00  0.00    -0.451 OA
ATOM     10  C   UNL A   1      43.463  27.282  25.448  1.00  0.00     0.135 A 
ATOM     11  C   UNL A   1      44.585  28.656  27.054  1.00  0.00     0.012 A 
ATOM     12  C   UNL A   1      42.425  28.194  25.273  1.00  0.00     0.048 A 
ATOM     13  C   UNL A   1      43.548  29.593  26.909  1.00  0.00     0.001 A 
ATOM     14  C   UNL A   1      42.483  29.361  26.037  1.00  0.00     0.004 A 
BRANCH   7  15
ATOM     15  C   UNL A   1      46.393  25.858  27.229  1.00  0.00     0.177 C 
BRANCH  15  16
ATOM     16  S   UNL A   1      48.094  25.602  26.712  1.00  0.00     0.154 S 
ATOM     17  O   UNL A   1      48.075  25.620  25.255  1.00  0.00    -0.228 OA
ATOM     18  O   UNL A   1      48.577  24.404  27.380  1.00  0.00    -0.228 OA
BRANCH  16  19
ATOM     19  C   UNL A   1      49.181  26.937  27.193  1.00  0.00     0.140 C 
BRANCH  19  20
ATOM     20  C   UNL A   1      48.996  28.357  26.613  1.00  0.00    -0.002 C 
ATOM     21  C   UNL A   1      48.193  29.383  27.411  1.00  0.00     0.008 C 
ATOM     22  C   UNL A   1      50.378  28.950  26.279  1.00  0.00     0.008 C 
ENDBRANCH  19  20
ENDBRANCH  16  19
ENDBRANCH  15  16
ENDBRANCH   7  15
ENDBRANCH   3   6
ENDBRANCH   1   2
BRANCH   1  23
ATOM     23  C   UNL A   1      42.348  21.781  26.405  1.00  0.00     0.042 C 
BRANCH  23  24
ATOM     24  C   UNL A   1      41.059  21.726  27.231  1.00  0.00     0.118 C 
BRANCH  24  25
ATOM     25  N   UNL A   1      39.859  21.882  26.418  1.00  0.00    -0.352 N 
ATOM     26  C   UNL A   1      38.980  22.933  26.337  1.00  0.00     0.251 C 
ATOM     27  H   UNL A   1      39.646  21.115  25.837  1.00  0.00     0.163 HD
ATOM     28  O   UNL A   1      37.909  22.789  25.753  1.00  0.00    -0.269 OA
BRANCH  26  29
ATOM     29  C   UNL A   1      39.315  24.222  26.974  1.00  0.00     0.039 A 
ATOM     30  C   UNL A   1      38.898  24.460  28.285  1.00  0.00     0.014 A 
ATOM     31  C   UNL A   1      40.031  25.195  26.273  1.00  0.00     0.014 A 
ATOM     32  C   UNL A   1      39.262  25.649  28.919  1.00  0.00     0.010 A 
ATOM     33  C   UNL A   1      40.459  26.343  26.932  1.00  0.00     0.010 A 
ATOM     34  C   UNL A   1      40.078  26.584  28.261  1.00  0.00    -0.014 A 
BRANCH  34  35
ATOM     35  C   UNL A   1      40.543  27.822  28.937  1.00  0.00     0.031 A 
ATOM     36  C   UNL A   1      41.908  27.865  29.570  1.00  0.00     0.074 A 
ATOM     37  C   UNL A   1      39.711  28.877  29.047  1.00  0.00     0.049 A 
ATOM     38  N   UNL A   1      42.454  28.812  30.288  1.00  0.00    -0.248 NA
ATOM     39  C   UNL A   1      42.760  26.677  29.396  1.00  0.00     0.031 C 
ATOM     40  C   UNL A   1      38.352  28.947  28.505  1.00  0.00     0.029 A 
ATOM     41  N   UNL A   1      39.884  30.091  29.665  1.00  0.00    -0.354 N 
ATOM     42  C   UNL A   1      43.700  28.328  30.668  1.00  0.00     0.074 A 
ATOM     43  C   UNL A   1      43.812  26.986  30.142  1.00  0.00     0.031 C 
ATOM     44  C   UNL A   1      37.824  30.148  28.796  1.00  0.00     0.029 A 
ATOM     45  C   UNL A   1      38.785  30.913  29.584  1.00  0.00     0.049 A 
ATOM     46  H   UNL A   1      40.716  30.348  30.123  1.00  0.00     0.167 HD
ATOM     47  C   UNL A   1      44.672  28.950  31.378  1.00  0.00     0.031 A 
ATOM     48  C   UNL A   1      38.567  32.141  30.097  1.00  0.00     0.031 A 
ATOM     49  C   UNL A   1      44.562  30.291  31.889  1.00  0.00     0.049 A 
ATOM     50  C   UNL A   1      39.657  32.805  30.892  1.00  0.00     0.074 A 
ATOM     51  C   UNL A   1      45.512  31.028  32.575  1.00  0.00     0.029 A 
ATOM     52  N   UNL A   1      43.439  31.095  31.769  1.00  0.00    -0.354 N 
ATOM     53  N   UNL A   1      40.850  32.353  31.194  1.00  0.00    -0.248 NA
ATOM     54  C   UNL A   1      39.374  34.153  31.409  1.00  0.00     0.031 C 
ATOM     55  C   UNL A   1      44.944  32.261  32.913  1.00  0.00     0.029 A 
ATOM     56  C   UNL A   1      43.664  32.313  32.385  1.00  0.00     0.049 A 
ATOM     57  H   UNL A   1      42.605  30.838  31.313  1.00  0.00     0.167 HD
ATOM     58  C   UNL A   1      41.473  33.373  31.906  1.00  0.00     0.074 A 
ATOM     59  C   UNL A   1      40.529  34.468  31.981  1.00  0.00     0.031 C 
ATOM     60  C   UNL A   1      42.717  33.399  32.443  1.00  0.00     0.031 A 
BRANCH  47  61
ATOM     61  C   UNL A   1      45.940  28.183  31.648  1.00  0.00    -0.014 A 
ATOM     62  C   UNL A   1      46.124  27.488  32.857  1.00  0.00     0.010 A 
ATOM     63  C   UNL A   1      46.942  28.119  30.663  1.00  0.00     0.010 A 
ATOM     64  C   UNL A   1      47.304  26.777  33.092  1.00  0.00     0.020 A 
ATOM     65  C   UNL A   1      48.112  27.385  30.883  1.00  0.00     0.020 A 
ATOM     66  C   UNL A   1      48.293  26.733  32.104  1.00  0.00     0.054 A 
BRANCH  66  67
ATOM     67  S   UNL A   1      49.803  25.784  32.428  1.00  0.00     0.124 S 
ATOM     68  O   UNL A   1      49.299  24.412  32.436  1.00  0.00    -0.237 OA
ATOM     69  O   UNL A   1      50.651  26.133  31.292  1.00  0.00    -0.237 OA
ATOM     70  O   UNL A   1      50.259  26.287  33.721  1.00  0.00    -0.744 OA
ENDBRANCH  66  67
ENDBRANCH  47  61
BRANCH  48  71
ATOM     71  C   UNL A   1      37.266  32.826  29.863  1.00  0.00    -0.014 A 
ATOM     72  C   UNL A   1      37.024  33.503  28.655  1.00  0.00     0.010 A 
ATOM     73  C   UNL A   1      36.258  32.798  30.844  1.00  0.00     0.010 A 
ATOM     74  C   UNL A   1      35.807  34.159  28.440  1.00  0.00     0.020 A 
ATOM     75  C   UNL A   1      35.029  33.427  30.623  1.00  0.00     0.020 A 
ATOM     76  C   UNL A   1      34.817  34.115  29.426  1.00  0.00     0.054 A 
BRANCH  76  77
ATOM     77  S   UNL A   1      33.230  34.934  29.107  1.00  0.00     0.124 S 
ATOM     78  O   UNL A   1      32.594  34.888  30.420  1.00  0.00    -0.237 OA
ATOM     79  O   UNL A   1      33.645  36.260  28.652  1.00  0.00    -0.237 OA
ATOM     80  O   UNL A   1      32.614  34.097  28.081  1.00  0.00    -0.744 OA
ENDBRANCH  76  77
ENDBRANCH  48  71
BRANCH  60  81
ATOM     81  C   UNL A   1      43.158  34.670  33.122  1.00  0.00    -0.014 A 
ATOM     82  C   UNL A   1      43.157  34.791  34.522  1.00  0.00     0.010 A 
ATOM     83  C   UNL A   1      43.648  35.733  32.341  1.00  0.00     0.010 A 
ATOM     84  C   UNL A   1      43.618  35.963  35.128  1.00  0.00     0.020 A 
ATOM     85  C   UNL A   1      44.137  36.893  32.944  1.00  0.00     0.020 A 
ATOM     86  C   UNL A   1      44.108  37.006  34.335  1.00  0.00     0.054 A 
BRANCH  86  87
ATOM     87  S   UNL A   1      44.757  38.490  35.149  1.00  0.00     0.124 S 
ATOM     88  O   UNL A   1      43.892  38.597  36.321  1.00  0.00    -0.237 OA
ATOM     89  O   UNL A   1      46.145  38.125  35.424  1.00  0.00    -0.237 OA
ATOM     90  O   UNL A   1      44.582  39.540  34.147  1.00  0.00    -0.744 OA
ENDBRANCH  86  87
ENDBRANCH  60  81
ENDBRANCH  34  35
ENDBRANCH  26  29
ENDBRANCH  24  25
ENDBRANCH  23  24
ENDBRANCH   1  23
TORSDOF 17
ENDMDL
