MODEL 1
REMARK VINA RESULT:     -10.0      0.000      0.000
REMARK SMILES COc1ccc([C@H](C)NC(=O)c2cnn(C)c2C(=O)NCCCNC(=O)c2ccc(-c3c4nc(c(-c5ccc(S(=O)(=O)[O-])cc5)c5ccc([nH]5)c(-c5ccc(S(=O)(=O)[O-])cc5)c5nc(c(-c6ccc(S(=O)(=O)[O-])cc6)c6ccc3[nH]6)C=C5)C=C4)cc2)cc1
REMARK SMILES IDX 21 1 20 2 18 3 19 4 17 6 12 7 13 8 14 9 15 10 16 11 10 12
REMARK SMILES IDX 9 13 11 15 7 16 8 17 6 18 3 19 4 20 88 21 5 22 87 23 2 24
REMARK SMILES IDX 1 25 22 26 23 27 24 28 25 29 26 31 27 32 28 33 86 34 29 35
REMARK SMILES IDX 85 36 30 37 31 38 32 39 79 40 33 41 84 42 78 43 80 44 34 45
REMARK SMILES IDX 83 46 77 47 76 48 35 50 65 51 46 52 64 53 47 54 50 55 63 56
REMARK SMILES IDX 81 57 48 58 49 59 62 61 82 62 51 63 36 64 37 65 45 66 38 67
REMARK SMILES IDX 44 68 39 69 40 70 41 71 42 72 43 73 66 74 67 75 75 76 68 77
REMARK SMILES IDX 74 78 69 79 70 80 71 81 72 82 73 83 52 84 53 85 61 86 54 87
REMARK SMILES IDX 60 88 55 89 56 90 57 91 58 92 59 93
REMARK H PARENT 20 5 9 14 24 30 80 49 50 60
REMARK Flexibility Score: inf
ROOT
ATOM      1  C   UNL A   1      36.236  34.538  32.619  1.00  0.00     0.118 C 
ENDROOT
BRANCH   1   2
ATOM      2  N   UNL A   1      35.124  35.364  32.187  1.00  0.00    -0.351 N 
ATOM      3  C   UNL A   1      34.064  34.955  31.418  1.00  0.00     0.270 C 
ATOM      4  O   UNL A   1      32.964  34.992  31.973  1.00  0.00    -0.268 OA
ATOM      5  H   UNL A   1      35.132  36.306  32.471  1.00  0.00     0.163 HD
BRANCH   3   6
ATOM      6  C   UNL A   1      34.184  34.712  29.992  1.00  0.00     0.138 A 
ATOM      7  C   UNL A   1      34.543  33.472  29.442  1.00  0.00     0.090 A 
ATOM      8  C   UNL A   1      34.836  33.735  28.094  1.00  0.00     0.149 A 
ATOM      9  N   UNL A   1      34.536  34.979  27.750  1.00  0.00    -0.180 NA
ATOM     10  N   UNL A   1      34.051  35.525  28.886  1.00  0.00    -0.262 N 
ATOM     11  C   UNL A   1      33.490  36.844  28.740  1.00  0.00     0.174 C 
BRANCH   7  12
ATOM     12  C   UNL A   1      34.715  32.185  30.083  1.00  0.00     0.255 C 
ATOM     13  N   UNL A   1      35.026  31.082  29.333  1.00  0.00    -0.345 N 
ATOM     14  H   UNL A   1      35.106  30.249  29.852  1.00  0.00     0.164 HD
ATOM     15  O   UNL A   1      34.704  32.073  31.308  1.00  0.00    -0.269 OA
BRANCH  13  16
ATOM     16  C   UNL A   1      35.257  30.920  27.899  1.00  0.00     0.109 C 
ATOM     17  C   UNL A   1      36.644  30.292  27.710  1.00  0.00     0.036 C 
BRANCH  16  18
ATOM     18  C   UNL A   1      34.139  30.113  27.239  1.00  0.00    -0.026 A 
ATOM     19  C   UNL A   1      32.098  28.667  25.904  1.00  0.00     0.118 A 
ATOM     20  C   UNL A   1      33.360  28.106  26.088  1.00  0.00     0.047 A 
ATOM     21  C   UNL A   1      31.842  29.940  26.402  1.00  0.00     0.047 A 
ATOM     22  C   UNL A   1      34.375  28.825  26.732  1.00  0.00     0.009 A 
ATOM     23  C   UNL A   1      32.853  30.654  27.052  1.00  0.00     0.009 A 
BRANCH  19  24
ATOM     24  O   UNL A   1      31.184  27.884  25.256  1.00  0.00    -0.497 OA
ATOM     25  C   UNL A   1      31.593  27.417  23.974  1.00  0.00     0.278 C 
ENDBRANCH  19  24
ENDBRANCH  16  18
ENDBRANCH  13  16
ENDBRANCH   7  12
ENDBRANCH   3   6
ENDBRANCH   1   2
BRANCH   1  26
ATOM     26  C   UNL A   1      35.847  33.631  33.784  1.00  0.00     0.042 C 
BRANCH  26  27
ATOM     27  C   UNL A   1      36.915  32.605  34.156  1.00  0.00     0.118 C 
BRANCH  27  28
ATOM     28  N   UNL A   1      36.581  31.274  33.675  1.00  0.00    -0.352 N 
ATOM     29  C   UNL A   1      37.098  30.533  32.643  1.00  0.00     0.251 C 
ATOM     30  H   UNL A   1      35.860  30.828  34.177  1.00  0.00     0.163 HD
ATOM     31  O   UNL A   1      36.483  29.532  32.282  1.00  0.00    -0.269 OA
BRANCH  29  32
ATOM     32  C   UNL A   1      38.361  30.904  31.960  1.00  0.00     0.039 A 
ATOM     33  C   UNL A   1      39.568  30.678  32.632  1.00  0.00     0.014 A 
ATOM     34  C   UNL A   1      38.380  31.551  30.721  1.00  0.00     0.014 A 
ATOM     35  C   UNL A   1      40.780  31.067  32.054  1.00  0.00     0.010 A 
ATOM     36  C   UNL A   1      39.596  31.874  30.111  1.00  0.00     0.010 A 
ATOM     37  C   UNL A   1      40.808  31.653  30.779  1.00  0.00    -0.014 A 
BRANCH  37  38
ATOM     38  C   UNL A   1      42.101  32.043  30.156  1.00  0.00     0.031 A 
ATOM     39  C   UNL A   1      42.634  33.445  30.300  1.00  0.00     0.074 A 
ATOM     40  C   UNL A   1      42.789  31.136  29.435  1.00  0.00     0.049 A 
ATOM     41  N   UNL A   1      43.759  33.947  29.856  1.00  0.00    -0.248 NA
ATOM     42  C   UNL A   1      41.788  34.415  31.013  1.00  0.00     0.031 C 
ATOM     43  C   UNL A   1      42.354  29.763  29.163  1.00  0.00     0.029 A 
ATOM     44  N   UNL A   1      44.003  31.229  28.801  1.00  0.00    -0.354 N 
ATOM     45  C   UNL A   1      43.748  35.290  30.218  1.00  0.00     0.074 A 
ATOM     46  C   UNL A   1      42.486  35.535  30.881  1.00  0.00     0.031 C 
ATOM     47  C   UNL A   1      43.300  29.134  28.448  1.00  0.00     0.029 A 
ATOM     48  C   UNL A   1      44.398  30.062  28.191  1.00  0.00     0.049 A 
ATOM     49  H   UNL A   1      44.541  32.054  28.785  1.00  0.00     0.167 HD
ATOM     50  C   UNL A   1      44.706  36.231  30.033  1.00  0.00     0.031 A 
ATOM     51  C   UNL A   1      45.521  29.763  27.511  1.00  0.00     0.031 A 
ATOM     52  C   UNL A   1      45.973  35.983  29.396  1.00  0.00     0.049 A 
ATOM     53  C   UNL A   1      46.593  30.807  27.368  1.00  0.00     0.074 A 
ATOM     54  C   UNL A   1      47.038  36.852  29.229  1.00  0.00     0.029 A 
ATOM     55  N   UNL A   1      46.346  34.778  28.822  1.00  0.00    -0.354 N 
ATOM     56  N   UNL A   1      46.595  32.048  27.793  1.00  0.00    -0.248 NA
ATOM     57  C   UNL A   1      47.822  30.402  26.673  1.00  0.00     0.031 C 
ATOM     58  C   UNL A   1      48.041  36.183  28.519  1.00  0.00     0.029 A 
ATOM     59  C   UNL A   1      47.618  34.884  28.284  1.00  0.00     0.049 A 
ATOM     60  H   UNL A   1      45.790  33.967  28.799  1.00  0.00     0.167 HD
ATOM     61  C   UNL A   1      47.832  32.568  27.429  1.00  0.00     0.074 A 
ATOM     62  C   UNL A   1      48.559  31.499  26.773  1.00  0.00     0.031 C 
ATOM     63  C   UNL A   1      48.323  33.818  27.620  1.00  0.00     0.031 A 
BRANCH  50  64
ATOM     64  C   UNL A   1      44.419  37.624  30.529  1.00  0.00    -0.014 A 
ATOM     65  C   UNL A   1      43.879  38.603  29.676  1.00  0.00     0.010 A 
ATOM     66  C   UNL A   1      44.655  37.948  31.878  1.00  0.00     0.010 A 
ATOM     67  C   UNL A   1      43.618  39.891  30.152  1.00  0.00     0.020 A 
ATOM     68  C   UNL A   1      44.372  39.227  32.364  1.00  0.00     0.020 A 
ATOM     69  C   UNL A   1      43.871  40.197  31.492  1.00  0.00     0.054 A 
BRANCH  69  70
ATOM     70  S   UNL A   1      43.503  41.870  32.089  1.00  0.00     0.124 S 
ATOM     71  O   UNL A   1      42.329  41.638  32.927  1.00  0.00    -0.237 OA
ATOM     72  O   UNL A   1      44.724  42.232  32.805  1.00  0.00    -0.237 OA
ATOM     73  O   UNL A   1      43.256  42.628  30.865  1.00  0.00    -0.744 OA
ENDBRANCH  69  70
ENDBRANCH  50  64
BRANCH  51  74
ATOM     74  C   UNL A   1      45.701  28.402  26.942  1.00  0.00    -0.014 A 
ATOM     75  C   UNL A   1      46.497  27.451  27.604  1.00  0.00     0.010 A 
ATOM     76  C   UNL A   1      45.060  28.044  25.742  1.00  0.00     0.010 A 
ATOM     77  C   UNL A   1      46.662  26.170  27.068  1.00  0.00     0.020 A 
ATOM     78  C   UNL A   1      45.203  26.757  25.217  1.00  0.00     0.020 A 
ATOM     79  C   UNL A   1      46.012  25.832  25.878  1.00  0.00     0.054 A 
BRANCH  79  80
ATOM     80  S   UNL A   1      46.187  24.146  25.229  1.00  0.00     0.124 S 
ATOM     81  O   UNL A   1      46.659  23.417  26.401  1.00  0.00    -0.237 OA
ATOM     82  O   UNL A   1      44.828  23.830  24.792  1.00  0.00    -0.237 OA
ATOM     83  O   UNL A   1      47.159  24.297  24.148  1.00  0.00    -0.744 OA
ENDBRANCH  79  80
ENDBRANCH  51  74
BRANCH  63  84
ATOM     84  C   UNL A   1      49.715  34.087  27.120  1.00  0.00    -0.014 A 
ATOM     85  C   UNL A   1      50.828  33.952  27.969  1.00  0.00     0.010 A 
ATOM     86  C   UNL A   1      49.914  34.470  25.782  1.00  0.00     0.010 A 
ATOM     87  C   UNL A   1      52.112  34.245  27.502  1.00  0.00     0.020 A 
ATOM     88  C   UNL A   1      51.199  34.740  25.304  1.00  0.00     0.020 A 
ATOM     89  C   UNL A   1      52.288  34.647  26.174  1.00  0.00     0.054 A 
BRANCH  89  90
ATOM     90  S   UNL A   1      53.962  35.019  25.584  1.00  0.00     0.124 S 
ATOM     91  O   UNL A   1      53.919  36.472  25.450  1.00  0.00    -0.237 OA
ATOM     92  O   UNL A   1      54.806  34.512  26.663  1.00  0.00    -0.237 OA
ATOM     93  O   UNL A   1      54.057  34.278  24.328  1.00  0.00    -0.744 OA
ENDBRANCH  89  90
ENDBRANCH  63  84
ENDBRANCH  37  38
ENDBRANCH  29  32
ENDBRANCH  27  28
ENDBRANCH  26  27
ENDBRANCH   1  26
TORSDOF 17
ENDMDL
MODEL 2
REMARK VINA RESULT:      -9.8     10.698     17.145
REMARK SMILES COc1ccc([C@H](C)NC(=O)c2cnn(C)c2C(=O)NCCCNC(=O)c2ccc(-c3c4nc(c(-c5ccc(S(=O)(=O)[O-])cc5)c5ccc([nH]5)c(-c5ccc(S(=O)(=O)[O-])cc5)c5nc(c(-c6ccc(S(=O)(=O)[O-])cc6)c6ccc3[nH]6)C=C5)C=C4)cc2)cc1
REMARK SMILES IDX 21 1 20 2 18 3 19 4 17 6 12 7 13 8 14 9 15 10 16 11 10 12
REMARK SMILES IDX 9 13 11 15 7 16 8 17 6 18 3 19 4 20 88 21 5 22 87 23 2 24
REMARK SMILES IDX 1 25 22 26 23 27 24 28 25 29 26 31 27 32 28 33 86 34 29 35
REMARK SMILES IDX 85 36 30 37 31 38 32 39 79 40 33 41 84 42 78 43 80 44 34 45
REMARK SMILES IDX 83 46 77 47 76 48 35 50 65 51 46 52 64 53 47 54 50 55 63 56
REMARK SMILES IDX 81 57 48 58 49 59 62 61 82 62 51 63 36 64 37 65 45 66 38 67
REMARK SMILES IDX 44 68 39 69 40 70 41 71 42 72 43 73 66 74 67 75 75 76 68 77
REMARK SMILES IDX 74 78 69 79 70 80 71 81 72 82 73 83 52 84 53 85 61 86 54 87
REMARK SMILES IDX 60 88 55 89 56 90 57 91 58 92 59 93
REMARK H PARENT 20 5 9 14 24 30 80 49 50 60
REMARK Flexibility Score: inf
ROOT
ATOM      1  C   UNL A   1      46.150  21.782  39.505  1.00  0.00     0.118 C 
ENDROOT
BRANCH   1   2
ATOM      2  N   UNL A   1      46.136  21.034  40.748  1.00  0.00    -0.351 N 
ATOM      3  C   UNL A   1      46.515  19.725  40.910  1.00  0.00     0.270 C 
ATOM      4  O   UNL A   1      47.500  19.546  41.627  1.00  0.00    -0.268 OA
ATOM      5  H   UNL A   1      45.824  21.511  41.551  1.00  0.00     0.163 HD
BRANCH   3   6
ATOM      6  C   UNL A   1      45.693  18.616  40.461  1.00  0.00     0.138 A 
ATOM      7  C   UNL A   1      44.880  17.856  41.315  1.00  0.00     0.090 A 
ATOM      8  C   UNL A   1      44.504  16.730  40.565  1.00  0.00     0.149 A 
ATOM      9  N   UNL A   1      44.886  16.822  39.299  1.00  0.00    -0.180 NA
ATOM     10  N   UNL A   1      45.517  18.014  39.233  1.00  0.00    -0.262 N 
ATOM     11  C   UNL A   1      45.889  18.437  37.906  1.00  0.00     0.174 C 
BRANCH   7  12
ATOM     12  C   UNL A   1      44.552  18.059  42.711  1.00  0.00     0.255 C 
ATOM     13  N   UNL A   1      45.219  17.357  43.680  1.00  0.00    -0.345 N 
ATOM     14  H   UNL A   1      44.917  17.547  44.597  1.00  0.00     0.164 HD
ATOM     15  O   UNL A   1      43.763  18.933  43.063  1.00  0.00    -0.269 OA
BRANCH  13  16
ATOM     16  C   UNL A   1      46.299  16.376  43.595  1.00  0.00     0.109 C 
ATOM     17  C   UNL A   1      47.436  16.841  44.513  1.00  0.00     0.036 C 
BRANCH  16  18
ATOM     18  C   UNL A   1      45.802  14.968  43.922  1.00  0.00    -0.026 A 
ATOM     19  C   UNL A   1      44.871  12.391  44.651  1.00  0.00     0.118 A 
ATOM     20  C   UNL A   1      43.975  13.383  44.258  1.00  0.00     0.047 A 
ATOM     21  C   UNL A   1      46.232  12.672  44.663  1.00  0.00     0.047 A 
ATOM     22  C   UNL A   1      44.431  14.662  43.914  1.00  0.00     0.009 A 
ATOM     23  C   UNL A   1      46.688  13.946  44.312  1.00  0.00     0.009 A 
BRANCH  19  24
ATOM     24  O   UNL A   1      44.320  11.182  44.974  1.00  0.00    -0.497 OA
ATOM     25  C   UNL A   1      43.293  10.734  44.095  1.00  0.00     0.278 C 
ENDBRANCH  19  24
ENDBRANCH  16  18
ENDBRANCH  13  16
ENDBRANCH   7  12
ENDBRANCH   3   6
ENDBRANCH   1   2
BRANCH   1  26
ATOM     26  C   UNL A   1      45.241  23.005  39.569  1.00  0.00     0.042 C 
BRANCH  26  27
ATOM     27  C   UNL A   1      45.514  24.041  38.481  1.00  0.00     0.118 C 
BRANCH  27  28
ATOM     28  N   UNL A   1      46.570  24.965  38.863  1.00  0.00    -0.352 N 
ATOM     29  C   UNL A   1      46.853  26.237  38.434  1.00  0.00     0.251 C 
ATOM     30  H   UNL A   1      47.189  24.617  39.545  1.00  0.00     0.163 HD
ATOM     31  O   UNL A   1      47.944  26.721  38.729  1.00  0.00    -0.269 OA
BRANCH  29  32
ATOM     32  C   UNL A   1      45.891  27.032  37.633  1.00  0.00     0.039 A 
ATOM     33  C   UNL A   1      44.524  26.771  37.792  1.00  0.00     0.014 A 
ATOM     34  C   UNL A   1      46.303  27.956  36.668  1.00  0.00     0.014 A 
ATOM     35  C   UNL A   1      43.582  27.452  37.014  1.00  0.00     0.010 A 
ATOM     36  C   UNL A   1      45.358  28.688  35.943  1.00  0.00     0.010 A 
ATOM     37  C   UNL A   1      43.989  28.432  36.094  1.00  0.00    -0.014 A 
BRANCH  37  38
ATOM     38  C   UNL A   1      42.982  29.172  35.287  1.00  0.00     0.031 A 
ATOM     39  C   UNL A   1      42.641  28.730  33.887  1.00  0.00     0.074 A 
ATOM     40  C   UNL A   1      42.389  30.264  35.808  1.00  0.00     0.049 A 
ATOM     41  N   UNL A   1      41.763  29.234  33.056  1.00  0.00    -0.248 NA
ATOM     42  C   UNL A   1      43.396  27.592  33.340  1.00  0.00     0.031 C 
ATOM     43  C   UNL A   1      42.676  30.836  37.126  1.00  0.00     0.029 A 
ATOM     44  N   UNL A   1      41.418  31.087  35.295  1.00  0.00    -0.354 N 
ATOM     45  C   UNL A   1      41.872  28.490  31.886  1.00  0.00     0.074 A 
ATOM     46  C   UNL A   1      42.931  27.528  32.099  1.00  0.00     0.031 C 
ATOM     47  C   UNL A   1      41.875  31.894  37.330  1.00  0.00     0.029 A 
ATOM     48  C   UNL A   1      41.036  32.091  36.153  1.00  0.00     0.049 A 
ATOM     49  H   UNL A   1      41.031  30.969  34.397  1.00  0.00     0.167 HD
ATOM     50  C   UNL A   1      41.149  28.586  30.745  1.00  0.00     0.031 A 
ATOM     51  C   UNL A   1      40.106  33.056  36.016  1.00  0.00     0.031 A 
ATOM     52  C   UNL A   1      40.077  29.526  30.540  1.00  0.00     0.049 A 
ATOM     53  C   UNL A   1      39.277  33.105  34.764  1.00  0.00     0.074 A 
ATOM     54  C   UNL A   1      39.235  29.649  29.448  1.00  0.00     0.029 A 
ATOM     55  N   UNL A   1      39.700  30.503  31.447  1.00  0.00    -0.354 N 
ATOM     56  N   UNL A   1      39.341  32.336  33.703  1.00  0.00    -0.248 NA
ATOM     57  C   UNL A   1      38.234  34.138  34.701  1.00  0.00     0.031 C 
ATOM     58  C   UNL A   1      38.374  30.727  29.679  1.00  0.00     0.029 A 
ATOM     59  C   UNL A   1      38.650  31.246  30.934  1.00  0.00     0.049 A 
ATOM     60  H   UNL A   1      40.117  30.649  32.327  1.00  0.00     0.167 HD
ATOM     61  C   UNL A   1      38.338  32.784  32.851  1.00  0.00     0.074 A 
ATOM     62  C   UNL A   1      37.667  33.874  33.533  1.00  0.00     0.031 C 
ATOM     63  C   UNL A   1      38.002  32.336  31.616  1.00  0.00     0.031 A 
BRANCH  50  64
ATOM     64  C   UNL A   1      41.491  27.642  29.621  1.00  0.00    -0.014 A 
ATOM     65  C   UNL A   1      40.716  26.495  29.374  1.00  0.00     0.010 A 
ATOM     66  C   UNL A   1      42.579  27.928  28.775  1.00  0.00     0.010 A 
ATOM     67  C   UNL A   1      41.046  25.629  28.327  1.00  0.00     0.020 A 
ATOM     68  C   UNL A   1      42.897  27.078  27.712  1.00  0.00     0.020 A 
ATOM     69  C   UNL A   1      42.138  25.924  27.506  1.00  0.00     0.054 A 
BRANCH  69  70
ATOM     70  S   UNL A   1      42.532  24.795  26.141  1.00  0.00     0.124 S 
ATOM     71  O   UNL A   1      42.300  25.643  24.974  1.00  0.00    -0.237 OA
ATOM     72  O   UNL A   1      43.927  24.451  26.401  1.00  0.00    -0.237 OA
ATOM     73  O   UNL A   1      41.582  23.699  26.313  1.00  0.00    -0.744 OA
ENDBRANCH  69  70
ENDBRANCH  50  64
BRANCH  51  74
ATOM     74  C   UNL A   1      39.888  34.034  37.114  1.00  0.00    -0.014 A 
ATOM     75  C   UNL A   1      38.921  33.792  38.105  1.00  0.00     0.010 A 
ATOM     76  C   UNL A   1      40.664  35.205  37.185  1.00  0.00     0.010 A 
ATOM     77  C   UNL A   1      38.721  34.712  39.138  1.00  0.00     0.020 A 
ATOM     78  C   UNL A   1      40.483  36.114  38.229  1.00  0.00     0.020 A 
ATOM     79  C   UNL A   1      39.505  35.868  39.194  1.00  0.00     0.054 A 
BRANCH  79  80
ATOM     80  S   UNL A   1      39.276  37.020  40.577  1.00  0.00     0.124 S 
ATOM     81  O   UNL A   1      38.214  37.887  40.076  1.00  0.00    -0.237 OA
ATOM     82  O   UNL A   1      38.903  36.131  41.675  1.00  0.00    -0.237 OA
ATOM     83  O   UNL A   1      40.588  37.649  40.716  1.00  0.00    -0.744 OA
ENDBRANCH  79  80
ENDBRANCH  51  74
BRANCH  63  84
ATOM     84  C   UNL A   1      36.851  33.021  30.933  1.00  0.00    -0.014 A 
ATOM     85  C   UNL A   1      37.050  33.790  29.772  1.00  0.00     0.010 A 
ATOM     86  C   UNL A   1      35.551  32.885  31.452  1.00  0.00     0.010 A 
ATOM     87  C   UNL A   1      35.977  34.454  29.172  1.00  0.00     0.020 A 
ATOM     88  C   UNL A   1      34.472  33.527  30.841  1.00  0.00     0.020 A 
ATOM     89  C   UNL A   1      34.695  34.325  29.717  1.00  0.00     0.054 A 
BRANCH  89  90
ATOM     90  S   UNL A   1      33.314  35.191  28.922  1.00  0.00     0.124 S 
ATOM     91  O   UNL A   1      32.497  35.574  30.069  1.00  0.00    -0.237 OA
ATOM     92  O   UNL A   1      33.977  36.291  28.226  1.00  0.00    -0.237 OA
ATOM     93  O   UNL A   1      32.729  34.175  28.049  1.00  0.00    -0.744 OA
ENDBRANCH  89  90
ENDBRANCH  63  84
ENDBRANCH  37  38
ENDBRANCH  29  32
ENDBRANCH  27  28
ENDBRANCH  26  27
ENDBRANCH   1  26
TORSDOF 17
ENDMDL
MODEL 3
REMARK VINA RESULT:      -9.7      1.100      8.178
REMARK SMILES COc1ccc([C@H](C)NC(=O)c2cnn(C)c2C(=O)NCCCNC(=O)c2ccc(-c3c4nc(c(-c5ccc(S(=O)(=O)[O-])cc5)c5ccc([nH]5)c(-c5ccc(S(=O)(=O)[O-])cc5)c5nc(c(-c6ccc(S(=O)(=O)[O-])cc6)c6ccc3[nH]6)C=C5)C=C4)cc2)cc1
REMARK SMILES IDX 21 1 20 2 18 3 19 4 17 6 12 7 13 8 14 9 15 10 16 11 10 12
REMARK SMILES IDX 9 13 11 15 7 16 8 17 6 18 3 19 4 20 88 21 5 22 87 23 2 24
REMARK SMILES IDX 1 25 22 26 23 27 24 28 25 29 26 31 27 32 28 33 86 34 29 35
REMARK SMILES IDX 85 36 30 37 31 38 32 39 79 40 33 41 84 42 78 43 80 44 34 45
REMARK SMILES IDX 83 46 77 47 76 48 35 50 65 51 46 52 64 53 47 54 50 55 63 56
REMARK SMILES IDX 81 57 48 58 49 59 62 61 82 62 51 63 36 64 37 65 45 66 38 67
REMARK SMILES IDX 44 68 39 69 40 70 41 71 42 72 43 73 66 74 67 75 75 76 68 77
REMARK SMILES IDX 74 78 69 79 70 80 71 81 72 82 73 83 52 84 53 85 61 86 54 87
REMARK SMILES IDX 60 88 55 89 56 90 57 91 58 92 59 93
REMARK H PARENT 20 5 9 14 24 30 80 49 50 60
REMARK Flexibility Score: inf
ROOT
ATOM      1  C   UNL A   1      36.187  34.471  32.584  1.00  0.00     0.118 C 
ENDROOT
BRANCH   1   2
ATOM      2  N   UNL A   1      35.140  35.369  32.133  1.00  0.00    -0.351 N 
ATOM      3  C   UNL A   1      34.058  35.026  31.361  1.00  0.00     0.270 C 
ATOM      4  O   UNL A   1      32.960  35.148  31.907  1.00  0.00    -0.268 OA
ATOM      5  H   UNL A   1      35.212  36.311  32.407  1.00  0.00     0.163 HD
BRANCH   3   6
ATOM      6  C   UNL A   1      34.171  34.759  29.939  1.00  0.00     0.138 A 
ATOM      7  C   UNL A   1      34.462  33.493  29.407  1.00  0.00     0.090 A 
ATOM      8  C   UNL A   1      34.775  33.721  28.057  1.00  0.00     0.149 A 
ATOM      9  N   UNL A   1      34.546  34.976  27.695  1.00  0.00    -0.180 NA
ATOM     10  N   UNL A   1      34.087  35.563  28.822  1.00  0.00    -0.262 N 
ATOM     11  C   UNL A   1      33.601  36.909  28.655  1.00  0.00     0.174 C 
BRANCH   7  12
ATOM     12  C   UNL A   1      34.560  32.207  30.066  1.00  0.00     0.255 C 
ATOM     13  N   UNL A   1      34.912  31.095  29.348  1.00  0.00    -0.345 N 
ATOM     14  H   UNL A   1      34.936  30.264  29.875  1.00  0.00     0.164 HD
ATOM     15  O   UNL A   1      34.447  32.103  31.286  1.00  0.00    -0.269 OA
BRANCH  13  16
ATOM     16  C   UNL A   1      35.257  30.921  27.939  1.00  0.00     0.109 C 
ATOM     17  C   UNL A   1      36.669  30.325  27.865  1.00  0.00     0.036 C 
BRANCH  16  18
ATOM     18  C   UNL A   1      34.211  30.079  27.207  1.00  0.00    -0.026 A 
ATOM     19  C   UNL A   1      32.236  28.471  25.962  1.00  0.00     0.118 A 
ATOM     20  C   UNL A   1      31.943  29.775  26.355  1.00  0.00     0.047 A 
ATOM     21  C   UNL A   1      33.516  27.971  26.169  1.00  0.00     0.047 A 
ATOM     22  C   UNL A   1      32.913  30.566  26.986  1.00  0.00     0.009 A 
ATOM     23  C   UNL A   1      34.486  28.763  26.791  1.00  0.00     0.009 A 
BRANCH  19  24
ATOM     24  O   UNL A   1      31.216  27.784  25.365  1.00  0.00    -0.497 OA
ATOM     25  C   UNL A   1      30.845  28.260  24.074  1.00  0.00     0.278 C 
ENDBRANCH  19  24
ENDBRANCH  16  18
ENDBRANCH  13  16
ENDBRANCH   7  12
ENDBRANCH   3   6
ENDBRANCH   1   2
BRANCH   1  26
ATOM     26  C   UNL A   1      35.693  33.532  33.681  1.00  0.00     0.042 C 
BRANCH  26  27
ATOM     27  C   UNL A   1      36.712  32.474  34.099  1.00  0.00     0.118 C 
BRANCH  27  28
ATOM     28  N   UNL A   1      36.527  31.225  33.377  1.00  0.00    -0.352 N 
ATOM     29  C   UNL A   1      37.239  30.667  32.346  1.00  0.00     0.251 C 
ATOM     30  H   UNL A   1      35.759  30.689  33.681  1.00  0.00     0.163 HD
ATOM     31  O   UNL A   1      36.740  29.719  31.743  1.00  0.00    -0.269 OA
BRANCH  29  32
ATOM     32  C   UNL A   1      38.573  31.172  31.943  1.00  0.00     0.039 A 
ATOM     33  C   UNL A   1      38.662  31.957  30.787  1.00  0.00     0.014 A 
ATOM     34  C   UNL A   1      39.744  30.818  32.620  1.00  0.00     0.014 A 
ATOM     35  C   UNL A   1      39.907  32.405  30.333  1.00  0.00     0.010 A 
ATOM     36  C   UNL A   1      40.979  31.327  32.209  1.00  0.00     0.010 A 
ATOM     37  C   UNL A   1      41.077  32.110  31.051  1.00  0.00    -0.014 A 
BRANCH  37  38
ATOM     38  C   UNL A   1      42.396  32.610  30.580  1.00  0.00     0.031 A 
ATOM     39  C   UNL A   1      43.279  31.754  29.709  1.00  0.00     0.074 A 
ATOM     40  C   UNL A   1      42.814  33.834  30.958  1.00  0.00     0.049 A 
ATOM     41  N   UNL A   1      44.441  32.043  29.178  1.00  0.00    -0.248 NA
ATOM     42  C   UNL A   1      42.811  30.390  29.414  1.00  0.00     0.031 C 
ATOM     43  C   UNL A   1      42.085  34.740  31.851  1.00  0.00     0.029 A 
ATOM     44  N   UNL A   1      43.951  34.532  30.636  1.00  0.00    -0.354 N 
ATOM     45  C   UNL A   1      44.850  30.897  28.504  1.00  0.00     0.074 A 
ATOM     46  C   UNL A   1      43.833  29.894  28.729  1.00  0.00     0.031 C 
ATOM     47  C   UNL A   1      42.777  35.883  31.978  1.00  0.00     0.029 A 
ATOM     48  C   UNL A   1      44.006  35.786  31.197  1.00  0.00     0.049 A 
ATOM     49  H   UNL A   1      44.661  34.169  30.058  1.00  0.00     0.167 HD
ATOM     50  C   UNL A   1      45.960  30.701  27.754  1.00  0.00     0.031 A 
ATOM     51  C   UNL A   1      44.932  36.757  31.087  1.00  0.00     0.031 A 
ATOM     52  C   UNL A   1      46.961  31.706  27.507  1.00  0.00     0.049 A 
ATOM     53  C   UNL A   1      46.127  36.537  30.203  1.00  0.00     0.074 A 
ATOM     54  C   UNL A   1      48.082  31.627  26.699  1.00  0.00     0.029 A 
ATOM     55  N   UNL A   1      46.961  32.974  28.067  1.00  0.00    -0.354 N 
ATOM     56  N   UNL A   1      46.451  35.472  29.507  1.00  0.00    -0.248 NA
ATOM     57  C   UNL A   1      47.069  37.656  30.071  1.00  0.00     0.031 C 
ATOM     58  C   UNL A   1      48.781  32.835  26.800  1.00  0.00     0.029 A 
ATOM     59  C   UNL A   1      48.071  33.682  27.637  1.00  0.00     0.049 A 
ATOM     60  H   UNL A   1      46.274  33.322  28.680  1.00  0.00     0.167 HD
ATOM     61  C   UNL A   1      47.627  35.800  28.843  1.00  0.00     0.074 A 
ATOM     62  C   UNL A   1      47.943  37.169  29.202  1.00  0.00     0.031 C 
ATOM     63  C   UNL A   1      48.381  35.037  28.013  1.00  0.00     0.031 A 
BRANCH  50  64
ATOM     64  C   UNL A   1      46.153  29.339  27.138  1.00  0.00    -0.014 A 
ATOM     65  C   UNL A   1      45.613  29.030  25.876  1.00  0.00     0.010 A 
ATOM     66  C   UNL A   1      46.919  28.370  27.810  1.00  0.00     0.010 A 
ATOM     67  C   UNL A   1      45.801  27.762  25.317  1.00  0.00     0.020 A 
ATOM     68  C   UNL A   1      47.131  27.110  27.243  1.00  0.00     0.020 A 
ATOM     69  C   UNL A   1      46.555  26.808  26.007  1.00  0.00     0.054 A 
BRANCH  69  70
ATOM     70  S   UNL A   1      46.801  25.178  25.249  1.00  0.00     0.124 S 
ATOM     71  O   UNL A   1      45.449  24.846  24.806  1.00  0.00    -0.237 OA
ATOM     72  O   UNL A   1      47.760  25.459  24.185  1.00  0.00    -0.237 OA
ATOM     73  O   UNL A   1      47.315  24.361  26.346  1.00  0.00    -0.744 OA
ENDBRANCH  69  70
ENDBRANCH  50  64
BRANCH  51  74
ATOM     74  C   UNL A   1      44.747  38.043  31.811  1.00  0.00    -0.014 A 
ATOM     75  C   UNL A   1      44.038  39.101  31.217  1.00  0.00     0.010 A 
ATOM     76  C   UNL A   1      45.262  38.206  33.110  1.00  0.00     0.010 A 
ATOM     77  C   UNL A   1      43.862  40.307  31.901  1.00  0.00     0.020 A 
ATOM     78  C   UNL A   1      45.067  39.401  33.806  1.00  0.00     0.020 A 
ATOM     79  C   UNL A   1      44.377  40.449  33.193  1.00  0.00     0.054 A 
BRANCH  79  80
ATOM     80  S   UNL A   1      44.085  41.998  34.091  1.00  0.00     0.124 S 
ATOM     81  O   UNL A   1      44.858  41.792  35.311  1.00  0.00    -0.237 OA
ATOM     82  O   UNL A   1      44.611  43.004  33.170  1.00  0.00    -0.237 OA
ATOM     83  O   UNL A   1      42.634  42.023  34.262  1.00  0.00    -0.744 OA
ENDBRANCH  79  80
ENDBRANCH  51  74
BRANCH  63  84
ATOM     84  C   UNL A   1      49.611  35.675  27.430  1.00  0.00    -0.014 A 
ATOM     85  C   UNL A   1      50.818  35.714  28.151  1.00  0.00     0.010 A 
ATOM     86  C   UNL A   1      49.562  36.235  26.141  1.00  0.00     0.010 A 
ATOM     87  C   UNL A   1      51.941  36.348  27.613  1.00  0.00     0.020 A 
ATOM     88  C   UNL A   1      50.690  36.847  25.589  1.00  0.00     0.020 A 
ATOM     89  C   UNL A   1      51.867  36.919  26.338  1.00  0.00     0.054 A 
BRANCH  89  90
ATOM     90  S   UNL A   1      53.337  37.732  25.655  1.00  0.00     0.124 S 
ATOM     91  O   UNL A   1      53.066  37.690  24.221  1.00  0.00    -0.237 OA
ATOM     92  O   UNL A   1      53.288  39.058  26.266  1.00  0.00    -0.237 OA
ATOM     93  O   UNL A   1      54.439  36.886  26.107  1.00  0.00    -0.744 OA
ENDBRANCH  89  90
ENDBRANCH  63  84
ENDBRANCH  37  38
ENDBRANCH  29  32
ENDBRANCH  27  28
ENDBRANCH  26  27
ENDBRANCH   1  26
TORSDOF 17
ENDMDL
