MODEL 1
REMARK VINA RESULT:     -11.9      0.000      0.000
REMARK SMILES Cc1cc(Cl)c(C)c2c1O[C@H](C(F)(F)F)C(C(=O)NCCCNC(=O)c1ccc(-c3c4nc(c(-c5ccc(S(=O)(=O)[O-])cc5)c5ccc([nH]5)c(-c5ccc(S(=O)(=O)[O-])cc5)c5nc(c(-c6ccc(S(=O)(=O)[O-])cc6)c6ccc3[nH]6)C=C5)C=C4)cc1)=C2
REMARK SMILES IDX 22 1 21 2 20 3 19 4 17 5 18 6 16 8 1 9 2 10 3 11 9 12 4 13
REMARK SMILES IDX 8 14 10 15 5 16 6 17 86 18 11 19 7 20 12 21 13 22 14 23
REMARK SMILES IDX 15 24 23 25 24 26 25 28 26 29 27 30 85 31 28 32 84 33 29 34
REMARK SMILES IDX 30 35 31 36 78 37 32 38 83 39 77 40 79 41 33 42 82 43 76 44
REMARK SMILES IDX 75 45 34 47 64 48 45 49 63 50 46 51 49 52 62 53 80 54 47 55
REMARK SMILES IDX 48 56 61 58 81 59 50 60 35 61 36 62 44 63 37 64 43 65 38 66
REMARK SMILES IDX 39 67 40 68 41 69 42 70 65 71 66 72 74 73 67 74 73 75 68 76
REMARK SMILES IDX 69 77 70 78 71 79 72 80 51 81 52 82 60 83 53 84 59 85 54 86
REMARK SMILES IDX 55 87 56 88 57 89 58 90
REMARK H PARENT 19 7 23 27 79 46 49 57
REMARK Flexibility Score: inf
ROOT
ATOM      1  C   UNL A   1      33.934  28.089  26.348  1.00  0.00     0.118 C 
ENDROOT
BRANCH   1   2
ATOM      2  C   UNL A   1      33.995  27.903  24.837  1.00  0.00     0.042 C 
BRANCH   2   3
ATOM      3  C   UNL A   1      32.817  27.096  24.312  1.00  0.00     0.118 C 
BRANCH   3   4
ATOM      4  N   UNL A   1      31.992  26.574  25.392  1.00  0.00    -0.352 N 
ATOM      5  C   UNL A   1      31.809  25.389  26.018  1.00  0.00     0.251 C 
ATOM      6  O   UNL A   1      30.977  25.397  26.931  1.00  0.00    -0.270 OA
ATOM      7  H   UNL A   1      31.410  27.273  25.769  1.00  0.00     0.163 HD
BRANCH   5   8
ATOM      8  C   UNL A   1      32.533  24.127  25.689  1.00  0.00     0.067 C 
ATOM      9  C   UNL A   1      33.897  19.295  24.599  1.00  0.00     0.048 C 
ATOM     10  C   UNL A   1      34.619  20.553  24.995  1.00  0.00    -0.007 A 
ATOM     11  C   UNL A   1      36.014  20.543  25.060  1.00  0.00     0.028 A 
ATOM     12  C   UNL A   1      33.948  21.743  25.292  1.00  0.00     0.131 A 
ATOM     13  C   UNL A   1      36.725  21.695  25.420  1.00  0.00     0.045 A 
ATOM     14  C   UNL A   1      34.643  22.910  25.657  1.00  0.00     0.022 A 
ATOM     15  O   UNL A   1      32.583  21.693  25.260  1.00  0.00    -0.475 OA
ATOM     16  Cl  UNL A   1      38.449  21.549  25.469  1.00  0.00    -0.084 Cl
ATOM     17  C   UNL A   1      36.057  22.898  25.723  1.00  0.00    -0.021 A 
ATOM     18  C   UNL A   1      33.845  24.100  25.987  1.00  0.00     0.026 C 
ATOM     19  C   UNL A   1      31.891  22.943  25.038  1.00  0.00     0.314 C 
ATOM     20  C   UNL A   1      36.809  24.146  26.112  1.00  0.00     0.047 C 
BRANCH  19  21
ATOM     21  C   UNL A   1      31.653  23.145  23.530  1.00  0.00     0.429 C 
ATOM     22  F   UNL A   1      31.769  21.968  22.868  1.00  0.00    -0.167 F 
ATOM     23  F   UNL A   1      30.412  23.618  23.257  1.00  0.00    -0.167 F 
ATOM     24  F   UNL A   1      32.528  24.012  22.972  1.00  0.00    -0.167 F 
ENDBRANCH  19  21
ENDBRANCH   5   8
ENDBRANCH   3   4
ENDBRANCH   2   3
ENDBRANCH   1   2
BRANCH   1  25
ATOM     25  N   UNL A   1      33.680  29.482  26.709  1.00  0.00    -0.352 N 
ATOM     26  C   UNL A   1      34.364  30.310  27.561  1.00  0.00     0.251 C 
ATOM     27  H   UNL A   1      32.896  29.887  26.274  1.00  0.00     0.163 HD
ATOM     28  O   UNL A   1      33.831  31.343  27.963  1.00  0.00    -0.269 OA
BRANCH  26  29
ATOM     29  C   UNL A   1      35.732  29.963  27.987  1.00  0.00     0.039 A 
ATOM     30  C   UNL A   1      35.953  29.489  29.281  1.00  0.00     0.014 A 
ATOM     31  C   UNL A   1      36.804  30.131  27.107  1.00  0.00     0.014 A 
ATOM     32  C   UNL A   1      37.244  29.127  29.670  1.00  0.00     0.010 A 
ATOM     33  C   UNL A   1      38.065  29.673  27.458  1.00  0.00     0.010 A 
ATOM     34  C   UNL A   1      38.303  29.185  28.749  1.00  0.00    -0.014 A 
BRANCH  34  35
ATOM     35  C   UNL A   1      39.678  28.782  29.123  1.00  0.00     0.031 A 
ATOM     36  C   UNL A   1      40.558  29.746  29.873  1.00  0.00     0.074 A 
ATOM     37  C   UNL A   1      40.147  27.577  28.745  1.00  0.00     0.049 A 
ATOM     38  N   UNL A   1      41.803  29.601  30.247  1.00  0.00    -0.248 NA
ATOM     39  C   UNL A   1      39.975  31.053  30.225  1.00  0.00     0.031 C 
ATOM     40  C   UNL A   1      39.395  26.577  27.982  1.00  0.00     0.029 A 
ATOM     41  N   UNL A   1      41.366  26.986  28.954  1.00  0.00    -0.354 N 
ATOM     42  C   UNL A   1      42.150  30.796  30.866  1.00  0.00     0.074 A 
ATOM     43  C   UNL A   1      41.012  31.680  30.757  1.00  0.00     0.031 C 
ATOM     44  C   UNL A   1      40.153  25.480  27.829  1.00  0.00     0.029 A 
ATOM     45  C   UNL A   1      41.458  25.713  28.441  1.00  0.00     0.049 A 
ATOM     46  H   UNL A   1      42.106  27.430  29.427  1.00  0.00     0.167 HD
ATOM     47  C   UNL A   1      43.302  31.119  31.498  1.00  0.00     0.031 A 
ATOM     48  C   UNL A   1      42.477  24.834  28.465  1.00  0.00     0.031 A 
ATOM     49  C   UNL A   1      44.421  30.227  31.620  1.00  0.00     0.049 A 
ATOM     50  C   UNL A   1      43.758  25.223  29.151  1.00  0.00     0.074 A 
ATOM     51  C   UNL A   1      45.619  30.436  32.280  1.00  0.00     0.029 A 
ATOM     52  N   UNL A   1      44.480  28.954  31.074  1.00  0.00    -0.354 N 
ATOM     53  N   UNL A   1      44.048  26.340  29.777  1.00  0.00    -0.248 NA
ATOM     54  C   UNL A   1      44.845  24.236  29.140  1.00  0.00     0.031 C 
ATOM     55  C   UNL A   1      46.423  29.310  32.087  1.00  0.00     0.029 A 
ATOM     56  C   UNL A   1      45.703  28.374  31.359  1.00  0.00     0.049 A 
ATOM     57  H   UNL A   1      43.758  28.525  30.559  1.00  0.00     0.167 HD
ATOM     58  C   UNL A   1      45.345  26.180  30.251  1.00  0.00     0.074 A 
ATOM     59  C   UNL A   1      45.775  24.855  29.854  1.00  0.00     0.031 C 
ATOM     60  C   UNL A   1      46.111  27.054  30.950  1.00  0.00     0.031 A 
BRANCH  47  61
ATOM     61  C   UNL A   1      43.399  32.486  32.119  1.00  0.00    -0.014 A 
ATOM     62  C   UNL A   1      43.883  33.582  31.380  1.00  0.00     0.010 A 
ATOM     63  C   UNL A   1      42.959  32.693  33.440  1.00  0.00     0.010 A 
ATOM     64  C   UNL A   1      43.959  34.850  31.961  1.00  0.00     0.020 A 
ATOM     65  C   UNL A   1      43.004  33.966  34.014  1.00  0.00     0.020 A 
ATOM     66  C   UNL A   1      43.517  35.034  33.274  1.00  0.00     0.054 A 
BRANCH  66  67
ATOM     67  S   UNL A   1      43.595  36.701  33.985  1.00  0.00     0.124 S 
ATOM     68  O   UNL A   1      44.756  36.598  34.866  1.00  0.00    -0.237 OA
ATOM     69  O   UNL A   1      43.773  37.543  32.806  1.00  0.00    -0.237 OA
ATOM     70  O   UNL A   1      42.310  36.849  34.666  1.00  0.00    -0.744 OA
ENDBRANCH  66  67
ENDBRANCH  47  61
BRANCH  48  71
ATOM     71  C   UNL A   1      42.312  23.490  27.846  1.00  0.00    -0.014 A 
ATOM     72  C   UNL A   1      42.768  23.250  26.538  1.00  0.00     0.010 A 
ATOM     73  C   UNL A   1      41.733  22.433  28.572  1.00  0.00     0.010 A 
ATOM     74  C   UNL A   1      42.639  21.982  25.963  1.00  0.00     0.020 A 
ATOM     75  C   UNL A   1      41.626  21.156  28.010  1.00  0.00     0.020 A 
ATOM     76  C   UNL A   1      42.074  20.941  26.706  1.00  0.00     0.054 A 
BRANCH  76  77
ATOM     77  S   UNL A   1      41.975  19.291  25.957  1.00  0.00     0.124 S 
ATOM     78  O   UNL A   1      40.547  19.162  25.690  1.00  0.00    -0.237 OA
ATOM     79  O   UNL A   1      42.830  19.430  24.781  1.00  0.00    -0.237 OA
ATOM     80  O   UNL A   1      42.500  18.411  26.999  1.00  0.00    -0.744 OA
ENDBRANCH  76  77
ENDBRANCH  48  71
BRANCH  60  81
ATOM     81  C   UNL A   1      47.493  26.608  31.344  1.00  0.00    -0.014 A 
ATOM     82  C   UNL A   1      47.721  25.972  32.577  1.00  0.00     0.010 A 
ATOM     83  C   UNL A   1      48.554  26.738  30.429  1.00  0.00     0.010 A 
ATOM     84  C   UNL A   1      48.992  25.487  32.894  1.00  0.00     0.020 A 
ATOM     85  C   UNL A   1      49.819  26.229  30.732  1.00  0.00     0.020 A 
ATOM     86  C   UNL A   1      50.030  25.612  31.965  1.00  0.00     0.054 A 
BRANCH  86  87
ATOM     87  S   UNL A   1      51.651  24.909  32.377  1.00  0.00     0.124 S 
ATOM     88  O   UNL A   1      52.529  25.593  31.432  1.00  0.00    -0.237 OA
ATOM     89  O   UNL A   1      51.815  25.290  33.778  1.00  0.00    -0.237 OA
ATOM     90  O   UNL A   1      51.478  23.477  32.143  1.00  0.00    -0.744 OA
ENDBRANCH  86  87
ENDBRANCH  60  81
ENDBRANCH  34  35
ENDBRANCH  26  29
ENDBRANCH   1  25
TORSDOF 14
ENDMDL
MODEL 2
REMARK VINA RESULT:     -11.7      2.965      9.327
REMARK SMILES Cc1cc(Cl)c(C)c2c1O[C@H](C(F)(F)F)C(C(=O)NCCCNC(=O)c1ccc(-c3c4nc(c(-c5ccc(S(=O)(=O)[O-])cc5)c5ccc([nH]5)c(-c5ccc(S(=O)(=O)[O-])cc5)c5nc(c(-c6ccc(S(=O)(=O)[O-])cc6)c6ccc3[nH]6)C=C5)C=C4)cc1)=C2
REMARK SMILES IDX 22 1 21 2 20 3 19 4 17 5 18 6 16 8 1 9 2 10 3 11 9 12 4 13
REMARK SMILES IDX 8 14 10 15 5 16 6 17 86 18 11 19 7 20 12 21 13 22 14 23
REMARK SMILES IDX 15 24 23 25 24 26 25 28 26 29 27 30 85 31 28 32 84 33 29 34
REMARK SMILES IDX 30 35 31 36 78 37 32 38 83 39 77 40 79 41 33 42 82 43 76 44
REMARK SMILES IDX 75 45 34 47 64 48 45 49 63 50 46 51 49 52 62 53 80 54 47 55
REMARK SMILES IDX 48 56 61 58 81 59 50 60 35 61 36 62 44 63 37 64 43 65 38 66
REMARK SMILES IDX 39 67 40 68 41 69 42 70 65 71 66 72 74 73 67 74 73 75 68 76
REMARK SMILES IDX 69 77 70 78 71 79 72 80 51 81 52 82 60 83 53 84 59 85 54 86
REMARK SMILES IDX 55 87 56 88 57 89 58 90
REMARK H PARENT 19 7 23 27 79 46 49 57
REMARK Flexibility Score: inf
ROOT
ATOM      1  C   UNL A   1      36.190  23.761  25.994  1.00  0.00     0.118 C 
ENDROOT
BRANCH   1   2
ATOM      2  C   UNL A   1      34.938  23.278  26.715  1.00  0.00     0.042 C 
BRANCH   2   3
ATOM      3  C   UNL A   1      33.744  23.172  25.779  1.00  0.00     0.118 C 
BRANCH   3   4
ATOM      4  N   UNL A   1      34.112  23.442  24.397  1.00  0.00    -0.352 N 
ATOM      5  C   UNL A   1      33.904  24.422  23.487  1.00  0.00     0.251 C 
ATOM      6  O   UNL A   1      34.433  24.242  22.386  1.00  0.00    -0.270 OA
ATOM      7  H   UNL A   1      34.660  22.716  24.022  1.00  0.00     0.163 HD
BRANCH   5   8
ATOM      8  C   UNL A   1      33.114  25.663  23.732  1.00  0.00     0.067 C 
ATOM      9  C   UNL A   1      29.846  29.622  23.519  1.00  0.00     0.048 C 
ATOM     10  C   UNL A   1      31.067  29.278  24.325  1.00  0.00    -0.007 A 
ATOM     11  C   UNL A   1      31.481  30.148  25.337  1.00  0.00     0.028 A 
ATOM     12  C   UNL A   1      31.806  28.111  24.110  1.00  0.00     0.131 A 
ATOM     13  C   UNL A   1      32.610  29.862  26.114  1.00  0.00     0.045 A 
ATOM     14  C   UNL A   1      32.945  27.806  24.878  1.00  0.00     0.022 A 
ATOM     15  O   UNL A   1      31.392  27.313  23.081  1.00  0.00    -0.475 OA
ATOM     16  Cl  UNL A   1      33.019  31.024  27.330  1.00  0.00    -0.084 Cl
ATOM     17  C   UNL A   1      33.361  28.690  25.902  1.00  0.00    -0.021 A 
ATOM     18  C   UNL A   1      33.675  26.574  24.550  1.00  0.00     0.026 C 
ATOM     19  C   UNL A   1      31.758  25.916  23.152  1.00  0.00     0.314 C 
ATOM     20  C   UNL A   1      34.580  28.369  26.730  1.00  0.00     0.047 C 
BRANCH  19  21
ATOM     21  C   UNL A   1      30.645  25.122  23.862  1.00  0.00     0.429 C 
ATOM     22  F   UNL A   1      29.446  25.732  23.696  1.00  0.00    -0.167 F 
ATOM     23  F   UNL A   1      30.508  23.866  23.373  1.00  0.00    -0.167 F 
ATOM     24  F   UNL A   1      30.856  24.998  25.192  1.00  0.00    -0.167 F 
ENDBRANCH  19  21
ENDBRANCH   5   8
ENDBRANCH   3   4
ENDBRANCH   2   3
ENDBRANCH   1   2
BRANCH   1  25
ATOM     25  N   UNL A   1      37.245  22.750  26.011  1.00  0.00    -0.352 N 
ATOM     26  C   UNL A   1      38.593  22.886  26.222  1.00  0.00     0.251 C 
ATOM     27  H   UNL A   1      36.941  21.829  25.845  1.00  0.00     0.163 HD
ATOM     28  O   UNL A   1      39.354  21.974  25.903  1.00  0.00    -0.269 OA
BRANCH  26  29
ATOM     29  C   UNL A   1      39.123  24.120  26.831  1.00  0.00     0.039 A 
ATOM     30  C   UNL A   1      39.833  25.029  26.044  1.00  0.00     0.014 A 
ATOM     31  C   UNL A   1      38.938  24.364  28.193  1.00  0.00     0.014 A 
ATOM     32  C   UNL A   1      40.302  26.213  26.614  1.00  0.00     0.010 A 
ATOM     33  C   UNL A   1      39.311  25.586  28.734  1.00  0.00     0.010 A 
ATOM     34  C   UNL A   1      40.015  26.514  27.956  1.00  0.00    -0.014 A 
BRANCH  34  35
ATOM     35  C   UNL A   1      40.476  27.775  28.582  1.00  0.00     0.031 A 
ATOM     36  C   UNL A   1      41.892  27.884  29.082  1.00  0.00     0.074 A 
ATOM     37  C   UNL A   1      39.611  28.794  28.747  1.00  0.00     0.049 A 
ATOM     38  N   UNL A   1      42.471  28.879  29.701  1.00  0.00    -0.248 NA
ATOM     39  C   UNL A   1      42.764  26.712  28.885  1.00  0.00     0.031 C 
ATOM     40  C   UNL A   1      38.204  28.786  28.335  1.00  0.00     0.029 A 
ATOM     41  N   UNL A   1      39.787  30.037  29.299  1.00  0.00    -0.354 N 
ATOM     42  C   UNL A   1      43.764  28.451  29.974  1.00  0.00     0.074 A 
ATOM     43  C   UNL A   1      43.866  27.083  29.518  1.00  0.00     0.031 C 
ATOM     44  C   UNL A   1      37.660  29.982  28.607  1.00  0.00     0.029 A 
ATOM     45  C   UNL A   1      38.662  30.826  29.251  1.00  0.00     0.049 A 
ATOM     46  H   UNL A   1      40.638  30.335  29.692  1.00  0.00     0.167 HD
ATOM     47  C   UNL A   1      44.787  29.144  30.526  1.00  0.00     0.031 A 
ATOM     48  C   UNL A   1      38.463  32.089  29.676  1.00  0.00     0.031 A 
ATOM     49  C   UNL A   1      44.683  30.510  30.959  1.00  0.00     0.049 A 
ATOM     50  C   UNL A   1      39.607  32.832  30.310  1.00  0.00     0.074 A 
ATOM     51  C   UNL A   1      45.670  31.321  31.489  1.00  0.00     0.029 A 
ATOM     52  N   UNL A   1      43.523  31.268  30.907  1.00  0.00    -0.354 N 
ATOM     53  N   UNL A   1      40.839  32.427  30.511  1.00  0.00    -0.248 NA
ATOM     54  C   UNL A   1      39.338  34.200  30.769  1.00  0.00     0.031 C 
ATOM     55  C   UNL A   1      45.094  32.553  31.807  1.00  0.00     0.029 A 
ATOM     56  C   UNL A   1      43.762  32.531  31.419  1.00  0.00     0.049 A 
ATOM     57  H   UNL A   1      42.657  30.955  30.558  1.00  0.00     0.167 HD
ATOM     58  C   UNL A   1      41.497  33.499  31.102  1.00  0.00     0.074 A 
ATOM     59  C   UNL A   1      40.532  34.573  31.210  1.00  0.00     0.031 C 
ATOM     60  C   UNL A   1      42.784  33.584  31.520  1.00  0.00     0.031 A 
BRANCH  47  61
ATOM     61  C   UNL A   1      46.108  28.439  30.675  1.00  0.00    -0.014 A 
ATOM     62  C   UNL A   1      47.075  28.495  29.655  1.00  0.00     0.010 A 
ATOM     63  C   UNL A   1      46.408  27.751  31.865  1.00  0.00     0.010 A 
ATOM     64  C   UNL A   1      48.304  27.847  29.806  1.00  0.00     0.020 A 
ATOM     65  C   UNL A   1      47.648  27.127  32.033  1.00  0.00     0.020 A 
ATOM     66  C   UNL A   1      48.583  27.169  30.996  1.00  0.00     0.054 A 
BRANCH  66  67
ATOM     67  S   UNL A   1      50.201  26.369  31.175  1.00  0.00     0.124 S 
ATOM     68  O   UNL A   1      49.824  24.981  31.428  1.00  0.00    -0.237 OA
ATOM     69  O   UNL A   1      50.827  26.624  29.880  1.00  0.00    -0.237 OA
ATOM     70  O   UNL A   1      50.810  27.065  32.307  1.00  0.00    -0.744 OA
ENDBRANCH  66  67
ENDBRANCH  47  61
BRANCH  48  71
ATOM     71  C   UNL A   1      37.136  32.736  29.484  1.00  0.00    -0.014 A 
ATOM     72  C   UNL A   1      36.166  32.681  30.501  1.00  0.00     0.010 A 
ATOM     73  C   UNL A   1      36.846  33.439  28.301  1.00  0.00     0.010 A 
ATOM     74  C   UNL A   1      34.929  33.310  30.335  1.00  0.00     0.020 A 
ATOM     75  C   UNL A   1      35.619  34.093  28.142  1.00  0.00     0.020 A 
ATOM     76  C   UNL A   1      34.666  34.017  29.158  1.00  0.00     0.054 A 
BRANCH  76  77
ATOM     77  S   UNL A   1      33.075  34.875  28.996  1.00  0.00     0.124 S 
ATOM     78  O   UNL A   1      33.488  36.202  28.549  1.00  0.00    -0.237 OA
ATOM     79  O   UNL A   1      32.380  34.060  28.003  1.00  0.00    -0.237 OA
ATOM     80  O   UNL A   1      32.514  34.815  30.344  1.00  0.00    -0.744 OA
ENDBRANCH  76  77
ENDBRANCH  48  71
BRANCH  60  81
ATOM     81  C   UNL A   1      43.235  34.886  32.125  1.00  0.00    -0.014 A 
ATOM     82  C   UNL A   1      43.831  35.881  31.331  1.00  0.00     0.010 A 
ATOM     83  C   UNL A   1      42.969  35.153  33.481  1.00  0.00     0.010 A 
ATOM     84  C   UNL A   1      44.167  37.117  31.889  1.00  0.00     0.020 A 
ATOM     85  C   UNL A   1      43.278  36.397  34.033  1.00  0.00     0.020 A 
ATOM     86  C   UNL A   1      43.881  37.370  33.234  1.00  0.00     0.054 A 
BRANCH  86  87
ATOM     87  S   UNL A   1      44.264  39.009  33.909  1.00  0.00     0.124 S 
ATOM     88  O   UNL A   1      42.953  39.653  33.909  1.00  0.00    -0.237 OA
ATOM     89  O   UNL A   1      44.808  38.690  35.227  1.00  0.00    -0.237 OA
ATOM     90  O   UNL A   1      45.229  39.559  32.960  1.00  0.00    -0.744 OA
ENDBRANCH  86  87
ENDBRANCH  60  81
ENDBRANCH  34  35
ENDBRANCH  26  29
ENDBRANCH   1  25
TORSDOF 14
ENDMDL
MODEL 3
REMARK VINA RESULT:     -11.4      3.223      4.126
REMARK SMILES Cc1cc(Cl)c(C)c2c1O[C@H](C(F)(F)F)C(C(=O)NCCCNC(=O)c1ccc(-c3c4nc(c(-c5ccc(S(=O)(=O)[O-])cc5)c5ccc([nH]5)c(-c5ccc(S(=O)(=O)[O-])cc5)c5nc(c(-c6ccc(S(=O)(=O)[O-])cc6)c6ccc3[nH]6)C=C5)C=C4)cc1)=C2
REMARK SMILES IDX 22 1 21 2 20 3 19 4 17 5 18 6 16 8 1 9 2 10 3 11 9 12 4 13
REMARK SMILES IDX 8 14 10 15 5 16 6 17 86 18 11 19 7 20 12 21 13 22 14 23
REMARK SMILES IDX 15 24 23 25 24 26 25 28 26 29 27 30 85 31 28 32 84 33 29 34
REMARK SMILES IDX 30 35 31 36 78 37 32 38 83 39 77 40 79 41 33 42 82 43 76 44
REMARK SMILES IDX 75 45 34 47 64 48 45 49 63 50 46 51 49 52 62 53 80 54 47 55
REMARK SMILES IDX 48 56 61 58 81 59 50 60 35 61 36 62 44 63 37 64 43 65 38 66
REMARK SMILES IDX 39 67 40 68 41 69 42 70 65 71 66 72 74 73 67 74 73 75 68 76
REMARK SMILES IDX 69 77 70 78 71 79 72 80 51 81 52 82 60 83 53 84 59 85 54 86
REMARK SMILES IDX 55 87 56 88 57 89 58 90
REMARK H PARENT 19 7 23 27 79 46 49 57
REMARK Flexibility Score: inf
ROOT
ATOM      1  C   UNL A   1      35.442  30.379  27.945  1.00  0.00     0.118 C 
ENDROOT
BRANCH   1   2
ATOM      2  C   UNL A   1      34.388  29.368  27.515  1.00  0.00     0.042 C 
BRANCH   2   3
ATOM      3  C   UNL A   1      33.242  30.023  26.758  1.00  0.00     0.118 C 
BRANCH   3   4
ATOM      4  N   UNL A   1      33.291  29.726  25.334  1.00  0.00    -0.352 N 
ATOM      5  C   UNL A   1      33.058  28.661  24.533  1.00  0.00     0.251 C 
ATOM      6  O   UNL A   1      33.219  28.863  23.325  1.00  0.00    -0.270 OA
ATOM      7  H   UNL A   1      33.569  30.513  24.813  1.00  0.00     0.163 HD
BRANCH   5   8
ATOM      8  C   UNL A   1      32.625  27.315  25.005  1.00  0.00     0.067 C 
ATOM      9  C   UNL A   1      30.099  23.274  26.926  1.00  0.00     0.048 C 
ATOM     10  C   UNL A   1      31.521  23.567  26.537  1.00  0.00    -0.007 A 
ATOM     11  C   UNL A   1      32.473  22.548  26.623  1.00  0.00     0.028 A 
ATOM     12  C   UNL A   1      31.932  24.823  26.082  1.00  0.00     0.131 A 
ATOM     13  C   UNL A   1      33.807  22.778  26.266  1.00  0.00     0.045 A 
ATOM     14  C   UNL A   1      33.268  25.076  25.720  1.00  0.00     0.022 A 
ATOM     15  O   UNL A   1      30.978  25.801  26.059  1.00  0.00    -0.475 OA
ATOM     16  Cl  UNL A   1      34.886  21.435  26.422  1.00  0.00    -0.084 Cl
ATOM     17  C   UNL A   1      34.230  24.042  25.808  1.00  0.00    -0.021 A 
ATOM     18  C   UNL A   1      33.608  26.439  25.289  1.00  0.00     0.026 C 
ATOM     19  C   UNL A   1      31.194  26.900  25.144  1.00  0.00     0.314 C 
ATOM     20  C   UNL A   1      35.664  24.305  25.420  1.00  0.00     0.047 C 
BRANCH  19  21
ATOM     21  C   UNL A   1      30.527  26.589  23.791  1.00  0.00     0.429 C 
ATOM     22  F   UNL A   1      30.016  27.718  23.242  1.00  0.00    -0.167 F 
ATOM     23  F   UNL A   1      31.398  26.082  22.885  1.00  0.00    -0.167 F 
ATOM     24  F   UNL A   1      29.517  25.697  23.897  1.00  0.00    -0.167 F 
ENDBRANCH  19  21
ENDBRANCH   5   8
ENDBRANCH   3   4
ENDBRANCH   2   3
ENDBRANCH   1   2
BRANCH   1  25
ATOM     25  N   UNL A   1      35.467  30.547  29.397  1.00  0.00    -0.352 N 
ATOM     26  C   UNL A   1      36.388  30.121  30.318  1.00  0.00     0.251 C 
ATOM     27  H   UNL A   1      34.702  31.041  29.771  1.00  0.00     0.163 HD
ATOM     28  O   UNL A   1      36.089  30.095  31.511  1.00  0.00    -0.269 OA
BRANCH  26  29
ATOM     29  C   UNL A   1      37.731  29.701  29.878  1.00  0.00     0.039 A 
ATOM     30  C   UNL A   1      38.113  29.890  28.549  1.00  0.00     0.014 A 
ATOM     31  C   UNL A   1      38.605  29.092  30.781  1.00  0.00     0.014 A 
ATOM     32  C   UNL A   1      39.397  29.524  28.144  1.00  0.00     0.010 A 
ATOM     33  C   UNL A   1      39.914  28.827  30.405  1.00  0.00     0.010 A 
ATOM     34  C   UNL A   1      40.317  29.020  29.078  1.00  0.00    -0.014 A 
BRANCH  34  35
ATOM     35  C   UNL A   1      41.696  28.648  28.684  1.00  0.00     0.031 A 
ATOM     36  C   UNL A   1      42.784  29.688  28.706  1.00  0.00     0.074 A 
ATOM     37  C   UNL A   1      41.953  27.395  28.259  1.00  0.00     0.049 A 
ATOM     38  N   UNL A   1      44.037  29.573  28.352  1.00  0.00    -0.248 NA
ATOM     39  C   UNL A   1      42.409  31.040  29.158  1.00  0.00     0.031 C 
ATOM     40  C   UNL A   1      40.968  26.315  28.161  1.00  0.00     0.029 A 
ATOM     41  N   UNL A   1      43.122  26.816  27.836  1.00  0.00    -0.354 N 
ATOM     42  C   UNL A   1      44.593  30.834  28.529  1.00  0.00     0.074 A 
ATOM     43  C   UNL A   1      43.530  31.715  28.955  1.00  0.00     0.031 C 
ATOM     44  C   UNL A   1      41.584  25.194  27.751  1.00  0.00     0.029 A 
ATOM     45  C   UNL A   1      42.995  25.485  27.516  1.00  0.00     0.049 A 
ATOM     46  H   UNL A   1      43.973  27.308  27.769  1.00  0.00     0.167 HD
ATOM     47  C   UNL A   1      45.883  31.219  28.383  1.00  0.00     0.031 A 
ATOM     48  C   UNL A   1      43.913  24.600  27.084  1.00  0.00     0.031 A 
ATOM     49  C   UNL A   1      46.938  30.333  27.979  1.00  0.00     0.049 A 
ATOM     50  C   UNL A   1      45.335  25.056  26.904  1.00  0.00     0.074 A 
ATOM     51  C   UNL A   1      48.287  30.608  27.844  1.00  0.00     0.029 A 
ATOM     52  N   UNL A   1      46.765  28.997  27.649  1.00  0.00    -0.354 N 
ATOM     53  N   UNL A   1      45.853  26.241  27.128  1.00  0.00    -0.248 NA
ATOM     54  C   UNL A   1      46.297  24.058  26.418  1.00  0.00     0.031 C 
ATOM     55  C   UNL A   1      48.922  29.452  27.381  1.00  0.00     0.029 A 
ATOM     56  C   UNL A   1      47.978  28.440  27.286  1.00  0.00     0.049 A 
ATOM     57  H   UNL A   1      45.906  28.516  27.669  1.00  0.00     0.167 HD
ATOM     58  C   UNL A   1      47.205  26.124  26.830  1.00  0.00     0.074 A 
ATOM     59  C   UNL A   1      47.428  24.751  26.426  1.00  0.00     0.031 C 
ATOM     60  C   UNL A   1      48.175  27.071  26.883  1.00  0.00     0.031 A 
BRANCH  47  61
ATOM     61  C   UNL A   1      46.221  32.655  28.678  1.00  0.00    -0.014 A 
ATOM     62  C   UNL A   1      46.146  33.637  27.672  1.00  0.00     0.010 A 
ATOM     63  C   UNL A   1      46.573  33.041  29.985  1.00  0.00     0.010 A 
ATOM     64  C   UNL A   1      46.450  34.970  27.958  1.00  0.00     0.020 A 
ATOM     65  C   UNL A   1      46.848  34.379  30.282  1.00  0.00     0.020 A 
ATOM     66  C   UNL A   1      46.798  35.333  29.262  1.00  0.00     0.054 A 
BRANCH  66  67
ATOM     67  S   UNL A   1      47.152  37.078  29.607  1.00  0.00     0.124 S 
ATOM     68  O   UNL A   1      47.200  37.092  31.068  1.00  0.00    -0.237 OA
ATOM     69  O   UNL A   1      48.431  37.282  28.935  1.00  0.00    -0.237 OA
ATOM     70  O   UNL A   1      46.018  37.786  29.016  1.00  0.00    -0.744 OA
ENDBRANCH  66  67
ENDBRANCH  47  61
BRANCH  48  71
ATOM     71  C   UNL A   1      43.517  23.188  26.825  1.00  0.00    -0.014 A 
ATOM     72  C   UNL A   1      43.779  22.596  25.577  1.00  0.00     0.010 A 
ATOM     73  C   UNL A   1      42.911  22.417  27.833  1.00  0.00     0.010 A 
ATOM     74  C   UNL A   1      43.433  21.262  25.338  1.00  0.00     0.020 A 
ATOM     75  C   UNL A   1      42.588  21.074  27.608  1.00  0.00     0.020 A 
ATOM     76  C   UNL A   1      42.846  20.508  26.358  1.00  0.00     0.054 A 
BRANCH  76  77
ATOM     77  S   UNL A   1      42.464  18.763  26.041  1.00  0.00     0.124 S 
ATOM     78  O   UNL A   1      41.051  18.820  25.682  1.00  0.00    -0.237 OA
ATOM     79  O   UNL A   1      43.381  18.434  24.953  1.00  0.00    -0.237 OA
ATOM     80  O   UNL A   1      42.761  18.110  27.315  1.00  0.00    -0.744 OA
ENDBRANCH  76  77
ENDBRANCH  48  71
BRANCH  60  81
ATOM     81  C   UNL A   1      49.572  26.658  26.507  1.00  0.00    -0.014 A 
ATOM     82  C   UNL A   1      50.421  26.047  27.447  1.00  0.00     0.010 A 
ATOM     83  C   UNL A   1      50.003  26.793  25.174  1.00  0.00     0.010 A 
ATOM     84  C   UNL A   1      51.684  25.592  27.062  1.00  0.00     0.020 A 
ATOM     85  C   UNL A   1      51.254  26.314  24.781  1.00  0.00     0.020 A 
ATOM     86  C   UNL A   1      52.089  25.721  25.729  1.00  0.00     0.054 A 
BRANCH  86  87
ATOM     87  S   UNL A   1      53.706  25.057  25.246  1.00  0.00     0.124 S 
ATOM     88  O   UNL A   1      53.489  23.617  25.358  1.00  0.00    -0.237 OA
ATOM     89  O   UNL A   1      53.863  25.564  23.885  1.00  0.00    -0.237 OA
ATOM     90  O   UNL A   1      54.624  25.627  26.228  1.00  0.00    -0.744 OA
ENDBRANCH  86  87
ENDBRANCH  60  81
ENDBRANCH  34  35
ENDBRANCH  26  29
ENDBRANCH   1  25
TORSDOF 14
ENDMDL
