MODEL 1
REMARK VINA RESULT:     -12.3      0.000      0.000
REMARK SMILES CC(=O)N[C@H]1[C@@H](Oc2ccc(C)c(C)c2)O[C@H]2CO[C@H](c3ccco3)O[C@@H]2[C@H]1OCC(=O)NCCCNC(=O)c1ccc(-c2c3nc(c(-c4ccc(S(=O)(=O)[O-])cc4)c4ccc([nH]4)c(-c4ccc(S(=O)(=O)[O-])cc4)c4nc(c(-c5ccc(S(=O)(=O)[O-])cc5)c5ccc2[nH]5)C=C4)C=C3)cc1
REMARK SMILES IDX 34 1 33 2 31 3 32 4 30 6 29 7 28 8 5 9 6 10 16 11 27 12
REMARK SMILES IDX 17 13 26 14 18 15 20 16 19 17 4 18 1 19 2 20 3 21 7 23 8 24
REMARK SMILES IDX 9 25 15 26 10 27 13 28 11 29 14 30 12 31 21 32 22 33 25 34
REMARK SMILES IDX 23 35 24 36 35 37 36 38 37 39 38 40 39 42 40 43 41 44 99 45
REMARK SMILES IDX 42 46 98 47 43 48 44 49 45 50 92 51 46 52 97 53 91 54 93 55
REMARK SMILES IDX 47 56 96 57 90 58 89 59 48 61 78 62 59 63 77 64 60 65 63 66
REMARK SMILES IDX 76 67 94 68 61 69 62 70 75 72 95 73 64 74 49 75 50 76 58 77
REMARK SMILES IDX 51 78 57 79 52 80 53 81 54 82 55 83 56 84 79 85 80 86 88 87
REMARK SMILES IDX 81 88 87 89 82 90 83 91 84 92 85 93 86 94 65 95 66 96 74 97
REMARK SMILES IDX 67 98 73 99 68 100 69 101 70 102 71 103 72 104
REMARK H PARENT 33 5 4 22 37 41 93 60 63 71
REMARK Flexibility Score: inf
ROOT
ATOM      1  C   UNL A   1      38.934  22.870  26.493  1.00  0.00     0.117 C 
ENDROOT
BRANCH   1   2
ATOM      2  N   UNL A   1      38.442  21.904  25.523  1.00  0.00    -0.354 N 
ATOM      3  C   UNL A   1      37.432  22.039  24.619  1.00  0.00     0.246 C 
ATOM      4  O   UNL A   1      37.058  21.041  23.998  1.00  0.00    -0.272 OA
ATOM      5  H   UNL A   1      38.903  21.035  25.519  1.00  0.00     0.163 HD
BRANCH   3   6
ATOM      6  C   UNL A   1      36.797  23.413  24.383  1.00  0.00     0.260 C 
BRANCH   6   7
ATOM      7  O   UNL A   1      35.500  23.593  23.862  1.00  0.00    -0.363 OA
BRANCH   7   8
ATOM      8  C   UNL A   1      34.375  23.870  24.717  1.00  0.00     0.179 C 
ATOM      9  C   UNL A   1      33.980  25.377  24.913  1.00  0.00     0.182 C 
ATOM     10  C   UNL A   1      32.550  25.538  25.584  1.00  0.00     0.333 C 
ATOM     11  O   UNL A   1      31.602  24.509  25.326  1.00  0.00    -0.332 OA
ATOM     12  C   UNL A   1      33.192  22.893  24.534  1.00  0.00     0.184 C 
ATOM     13  C   UNL A   1      32.108  23.215  25.555  1.00  0.00     0.180 C 
ATOM     14  O   UNL A   1      33.617  21.537  24.720  1.00  0.00    -0.337 OA
ATOM     15  C   UNL A   1      30.980  22.204  25.394  1.00  0.00     0.199 C 
ATOM     16  C   UNL A   1      32.518  20.631  24.584  1.00  0.00     0.319 C 
ATOM     17  O   UNL A   1      31.487  20.889  25.532  1.00  0.00    -0.343 OA
BRANCH   9  18
ATOM     18  N   UNL A   1      34.207  26.252  23.750  1.00  0.00    -0.345 N 
ATOM     19  C   UNL A   1      32.369  25.432  22.303  1.00  0.00     0.114 C 
ATOM     20  C   UNL A   1      33.619  26.236  22.519  1.00  0.00     0.217 C 
ATOM     21  O   UNL A   1      34.093  26.924  21.616  1.00  0.00    -0.275 OA
ATOM     22  H   UNL A   1      34.885  26.953  23.880  1.00  0.00     0.164 HD
ENDBRANCH   9  18
BRANCH  10  23
ATOM     23  O   UNL A   1      31.949  26.831  25.398  1.00  0.00    -0.463 OA
BRANCH  23  24
ATOM     24  C   UNL A   1      32.333  27.879  26.194  1.00  0.00     0.123 A 
ATOM     25  C   UNL A   1      31.518  28.895  26.689  1.00  0.00     0.047 A 
ATOM     26  C   UNL A   1      33.705  27.951  26.434  1.00  0.00     0.050 A 
ATOM     27  C   UNL A   1      32.079  30.041  27.251  1.00  0.00     0.007 A 
ATOM     28  C   UNL A   1      34.285  29.081  27.041  1.00  0.00    -0.045 A 
ATOM     29  C   UNL A   1      33.466  30.170  27.384  1.00  0.00    -0.048 A 
ATOM     30  C   UNL A   1      35.770  29.064  27.270  1.00  0.00     0.045 C 
ATOM     31  C   UNL A   1      34.023  31.479  27.868  1.00  0.00     0.044 C 
ENDBRANCH  23  24
ENDBRANCH  10  23
BRANCH  16  32
ATOM     32  C   UNL A   1      32.973  19.240  24.864  1.00  0.00     0.159 A 
ATOM     33  C   UNL A   1      34.127  18.567  24.506  1.00  0.00     0.051 A 
ATOM     34  O   UNL A   1      32.169  18.410  25.596  1.00  0.00    -0.464 OA
ATOM     35  C   UNL A   1      33.995  17.249  24.995  1.00  0.00     0.042 A 
ATOM     36  C   UNL A   1      32.792  17.204  25.656  1.00  0.00     0.195 A 
ENDBRANCH  16  32
ENDBRANCH   7   8
ENDBRANCH   6   7
ENDBRANCH   3   6
ENDBRANCH   1   2
BRANCH   1  37
ATOM     37  C   UNL A   1      40.166  22.356  27.223  1.00  0.00     0.042 C 
BRANCH  37  38
ATOM     38  C   UNL A   1      41.222  23.427  27.482  1.00  0.00     0.118 C 
BRANCH  38  39
ATOM     39  N   UNL A   1      41.620  24.119  26.266  1.00  0.00    -0.352 N 
ATOM     40  C   UNL A   1      41.592  25.461  25.979  1.00  0.00     0.251 C 
ATOM     41  H   UNL A   1      41.959  23.542  25.543  1.00  0.00     0.163 HD
ATOM     42  O   UNL A   1      41.742  25.839  24.822  1.00  0.00    -0.269 OA
BRANCH  40  43
ATOM     43  C   UNL A   1      41.374  26.444  27.061  1.00  0.00     0.039 A 
ATOM     44  C   UNL A   1      40.325  26.242  27.961  1.00  0.00     0.014 A 
ATOM     45  C   UNL A   1      42.189  27.574  27.174  1.00  0.00     0.014 A 
ATOM     46  C   UNL A   1      40.130  27.142  29.013  1.00  0.00     0.010 A 
ATOM     47  C   UNL A   1      42.033  28.432  28.259  1.00  0.00     0.010 A 
ATOM     48  C   UNL A   1      41.007  28.224  29.196  1.00  0.00    -0.014 A 
BRANCH  48  49
ATOM     49  C   UNL A   1      40.901  29.127  30.374  1.00  0.00     0.031 A 
ATOM     50  C   UNL A   1      41.679  28.841  31.630  1.00  0.00     0.074 A 
ATOM     51  C   UNL A   1      40.011  30.140  30.358  1.00  0.00     0.049 A 
ATOM     52  N   UNL A   1      41.625  29.448  32.789  1.00  0.00    -0.248 NA
ATOM     53  C   UNL A   1      42.627  27.716  31.584  1.00  0.00     0.031 C 
ATOM     54  C   UNL A   1      39.154  30.505  29.227  1.00  0.00     0.029 A 
ATOM     55  N   UNL A   1      39.637  31.015  31.349  1.00  0.00    -0.354 N 
ATOM     56  C   UNL A   1      42.536  28.787  33.606  1.00  0.00     0.074 A 
ATOM     57  C   UNL A   1      43.069  27.685  32.834  1.00  0.00     0.031 C 
ATOM     58  C   UNL A   1      38.325  31.491  29.601  1.00  0.00     0.029 A 
ATOM     59  C   UNL A   1      38.582  31.824  30.998  1.00  0.00     0.049 A 
ATOM     60  H   UNL A   1      40.081  31.058  32.227  1.00  0.00     0.167 HD
ATOM     61  C   UNL A   1      42.925  29.090  34.868  1.00  0.00     0.031 A 
ATOM     62  C   UNL A   1      37.878  32.718  31.719  1.00  0.00     0.031 A 
ATOM     63  C   UNL A   1      42.393  30.184  35.638  1.00  0.00     0.049 A 
ATOM     64  C   UNL A   1      38.276  33.004  33.137  1.00  0.00     0.074 A 
ATOM     65  C   UNL A   1      42.787  30.629  36.889  1.00  0.00     0.029 A 
ATOM     66  N   UNL A   1      41.342  30.996  35.240  1.00  0.00    -0.354 N 
ATOM     67  N   UNL A   1      39.221  32.444  33.852  1.00  0.00    -0.248 NA
ATOM     68  C   UNL A   1      37.536  34.064  33.834  1.00  0.00     0.031 C 
ATOM     69  C   UNL A   1      41.937  31.675  37.268  1.00  0.00     0.029 A 
ATOM     70  C   UNL A   1      41.048  31.915  36.233  1.00  0.00     0.049 A 
ATOM     71  H   UNL A   1      40.873  30.928  34.377  1.00  0.00     0.167 HD
ATOM     72  C   UNL A   1      39.208  33.104  35.076  1.00  0.00     0.074 A 
ATOM     73  C   UNL A   1      38.167  34.107  35.000  1.00  0.00     0.031 C 
ATOM     74  C   UNL A   1      39.999  32.901  36.159  1.00  0.00     0.031 A 
BRANCH  61  75
ATOM     75  C   UNL A   1      43.995  28.227  35.486  1.00  0.00    -0.014 A 
ATOM     76  C   UNL A   1      45.356  28.562  35.351  1.00  0.00     0.010 A 
ATOM     77  C   UNL A   1      43.645  27.082  36.222  1.00  0.00     0.010 A 
ATOM     78  C   UNL A   1      46.347  27.736  35.885  1.00  0.00     0.020 A 
ATOM     79  C   UNL A   1      44.632  26.267  36.784  1.00  0.00     0.020 A 
ATOM     80  C   UNL A   1      45.979  26.587  36.590  1.00  0.00     0.054 A 
BRANCH  80  81
ATOM     81  S   UNL A   1      47.287  25.526  37.263  1.00  0.00     0.124 S 
ATOM     82  O   UNL A   1      47.239  24.382  36.355  1.00  0.00    -0.237 OA
ATOM     83  O   UNL A   1      48.475  26.368  37.150  1.00  0.00    -0.237 OA
ATOM     84  O   UNL A   1      46.846  25.256  38.629  1.00  0.00    -0.744 OA
ENDBRANCH  80  81
ENDBRANCH  61  75
BRANCH  62  85
ATOM     85  C   UNL A   1      36.727  33.415  31.087  1.00  0.00    -0.014 A 
ATOM     86  C   UNL A   1      36.932  34.308  30.022  1.00  0.00     0.010 A 
ATOM     87  C   UNL A   1      35.415  33.143  31.516  1.00  0.00     0.010 A 
ATOM     88  C   UNL A   1      35.843  34.921  29.398  1.00  0.00     0.020 A 
ATOM     89  C   UNL A   1      34.322  33.739  30.879  1.00  0.00     0.020 A 
ATOM     90  C   UNL A   1      34.544  34.628  29.825  1.00  0.00     0.054 A 
BRANCH  90  91
ATOM     91  S   UNL A   1      33.147  35.377  28.944  1.00  0.00     0.124 S 
ATOM     92  O   UNL A   1      33.816  36.331  28.066  1.00  0.00    -0.237 OA
ATOM     93  O   UNL A   1      32.541  34.224  28.281  1.00  0.00    -0.237 OA
ATOM     94  O   UNL A   1      32.342  35.964  30.013  1.00  0.00    -0.744 OA
ENDBRANCH  90  91
ENDBRANCH  62  85
BRANCH  74  95
ATOM     95  C   UNL A   1      39.783  33.794  37.351  1.00  0.00    -0.014 A 
ATOM     96  C   UNL A   1      40.329  35.089  37.396  1.00  0.00     0.010 A 
ATOM     97  C   UNL A   1      38.981  33.351  38.418  1.00  0.00     0.010 A 
ATOM     98  C   UNL A   1      40.094  35.917  38.496  1.00  0.00     0.020 A 
ATOM     99  C   UNL A   1      38.723  34.186  39.509  1.00  0.00     0.020 A 
ATOM    100  C   UNL A   1      39.290  35.461  39.546  1.00  0.00     0.054 A 
BRANCH 100 101
ATOM    101  S   UNL A   1      38.957  36.574  40.939  1.00  0.00     0.124 S 
ATOM    102  O   UNL A   1      40.263  36.651  41.587  1.00  0.00    -0.237 OA
ATOM    103  O   UNL A   1      38.513  37.796  40.273  1.00  0.00    -0.237 OA
ATOM    104  O   UNL A   1      37.923  35.876  41.700  1.00  0.00    -0.744 OA
ENDBRANCH 100 101
ENDBRANCH  74  95
ENDBRANCH  48  49
ENDBRANCH  40  43
ENDBRANCH  38  39
ENDBRANCH  37  38
ENDBRANCH   1  37
TORSDOF 19
ENDMDL
MODEL 2
REMARK VINA RESULT:     -11.9      0.707      7.611
REMARK SMILES CC(=O)N[C@H]1[C@@H](Oc2ccc(C)c(C)c2)O[C@H]2CO[C@H](c3ccco3)O[C@@H]2[C@H]1OCC(=O)NCCCNC(=O)c1ccc(-c2c3nc(c(-c4ccc(S(=O)(=O)[O-])cc4)c4ccc([nH]4)c(-c4ccc(S(=O)(=O)[O-])cc4)c4nc(c(-c5ccc(S(=O)(=O)[O-])cc5)c5ccc2[nH]5)C=C4)C=C3)cc1
REMARK SMILES IDX 34 1 33 2 31 3 32 4 30 6 29 7 28 8 5 9 6 10 16 11 27 12
REMARK SMILES IDX 17 13 26 14 18 15 20 16 19 17 4 18 1 19 2 20 3 21 7 23 8 24
REMARK SMILES IDX 9 25 15 26 10 27 13 28 11 29 14 30 12 31 21 32 22 33 25 34
REMARK SMILES IDX 23 35 24 36 35 37 36 38 37 39 38 40 39 42 40 43 41 44 99 45
REMARK SMILES IDX 42 46 98 47 43 48 44 49 45 50 92 51 46 52 97 53 91 54 93 55
REMARK SMILES IDX 47 56 96 57 90 58 89 59 48 61 78 62 59 63 77 64 60 65 63 66
REMARK SMILES IDX 76 67 94 68 61 69 62 70 75 72 95 73 64 74 49 75 50 76 58 77
REMARK SMILES IDX 51 78 57 79 52 80 53 81 54 82 55 83 56 84 79 85 80 86 88 87
REMARK SMILES IDX 81 88 87 89 82 90 83 91 84 92 85 93 86 94 65 95 66 96 74 97
REMARK SMILES IDX 67 98 73 99 68 100 69 101 70 102 71 103 72 104
REMARK H PARENT 33 5 4 22 37 41 93 60 63 71
REMARK Flexibility Score: inf
ROOT
ATOM      1  C   UNL A   1      38.186  21.949  26.148  1.00  0.00     0.117 C 
ENDROOT
BRANCH   1   2
ATOM      2  N   UNL A   1      37.946  21.834  24.718  1.00  0.00    -0.354 N 
ATOM      3  C   UNL A   1      37.125  22.579  23.927  1.00  0.00     0.246 C 
ATOM      4  O   UNL A   1      36.936  22.214  22.764  1.00  0.00    -0.272 OA
ATOM      5  H   UNL A   1      38.448  21.123  24.260  1.00  0.00     0.163 HD
BRANCH   3   6
ATOM      6  C   UNL A   1      36.472  23.848  24.484  1.00  0.00     0.260 C 
BRANCH   6   7
ATOM      7  O   UNL A   1      35.254  24.371  24.006  1.00  0.00    -0.363 OA
BRANCH   7   8
ATOM      8  C   UNL A   1      34.130  24.583  24.880  1.00  0.00     0.179 C 
ATOM      9  C   UNL A   1      33.697  26.070  25.142  1.00  0.00     0.182 C 
ATOM     10  C   UNL A   1      32.269  26.165  25.829  1.00  0.00     0.333 C 
ATOM     11  O   UNL A   1      31.346  25.123  25.534  1.00  0.00    -0.332 OA
ATOM     12  C   UNL A   1      32.971  23.584  24.664  1.00  0.00     0.184 C 
ATOM     13  C   UNL A   1      31.887  23.834  25.705  1.00  0.00     0.180 C 
ATOM     14  O   UNL A   1      33.433  22.233  24.790  1.00  0.00    -0.337 OA
ATOM     15  C   UNL A   1      30.784  22.801  25.509  1.00  0.00     0.199 C 
ATOM     16  C   UNL A   1      32.356  21.305  24.623  1.00  0.00     0.319 C 
ATOM     17  O   UNL A   1      31.326  21.496  25.588  1.00  0.00    -0.343 OA
BRANCH   9  18
ATOM     18  N   UNL A   1      33.892  26.998  24.015  1.00  0.00    -0.345 N 
ATOM     19  C   UNL A   1      32.321  25.961  22.402  1.00  0.00     0.114 C 
ATOM     20  C   UNL A   1      33.419  26.930  22.737  1.00  0.00     0.217 C 
ATOM     21  O   UNL A   1      33.863  27.703  21.888  1.00  0.00    -0.275 OA
ATOM     22  H   UNL A   1      34.447  27.786  24.214  1.00  0.00     0.164 HD
ENDBRANCH   9  18
BRANCH  10  23
ATOM     23  O   UNL A   1      31.633  27.448  25.701  1.00  0.00    -0.463 OA
BRANCH  23  24
ATOM     24  C   UNL A   1      32.148  28.530  26.367  1.00  0.00     0.123 A 
ATOM     25  C   UNL A   1      31.569  29.792  26.486  1.00  0.00     0.047 A 
ATOM     26  C   UNL A   1      33.428  28.335  26.886  1.00  0.00     0.050 A 
ATOM     27  C   UNL A   1      32.318  30.873  26.949  1.00  0.00     0.007 A 
ATOM     28  C   UNL A   1      34.183  29.406  27.399  1.00  0.00    -0.045 A 
ATOM     29  C   UNL A   1      33.645  30.704  27.359  1.00  0.00    -0.048 A 
ATOM     30  C   UNL A   1      35.547  29.099  27.949  1.00  0.00     0.045 C 
ATOM     31  C   UNL A   1      34.446  31.923  27.718  1.00  0.00     0.044 C 
ENDBRANCH  23  24
ENDBRANCH  10  23
BRANCH  16  32
ATOM     32  C   UNL A   1      32.849  19.915  24.841  1.00  0.00     0.159 A 
ATOM     33  C   UNL A   1      34.080  19.334  24.596  1.00  0.00     0.051 A 
ATOM     34  O   UNL A   1      32.001  18.983  25.372  1.00  0.00    -0.464 OA
ATOM     35  C   UNL A   1      33.959  17.971  24.941  1.00  0.00     0.042 A 
ATOM     36  C   UNL A   1      32.680  17.806  25.414  1.00  0.00     0.195 A 
ENDBRANCH  16  32
ENDBRANCH   7   8
ENDBRANCH   6   7
ENDBRANCH   3   6
ENDBRANCH   1   2
BRANCH   1  37
ATOM     37  C   UNL A   1      39.654  22.208  26.454  1.00  0.00     0.042 C 
BRANCH  37  38
ATOM     38  C   UNL A   1      39.950  23.640  26.893  1.00  0.00     0.118 C 
BRANCH  38  39
ATOM     39  N   UNL A   1      40.840  24.330  25.972  1.00  0.00    -0.352 N 
ATOM     40  C   UNL A   1      41.227  25.646  25.959  1.00  0.00     0.251 C 
ATOM     41  H   UNL A   1      41.221  23.773  25.255  1.00  0.00     0.163 HD
ATOM     42  O   UNL A   1      41.794  26.104  24.971  1.00  0.00    -0.269 OA
BRANCH  40  43
ATOM     43  C   UNL A   1      40.954  26.510  27.127  1.00  0.00     0.039 A 
ATOM     44  C   UNL A   1      39.959  26.133  28.032  1.00  0.00     0.014 A 
ATOM     45  C   UNL A   1      41.662  27.699  27.317  1.00  0.00     0.014 A 
ATOM     46  C   UNL A   1      39.716  26.918  29.163  1.00  0.00     0.010 A 
ATOM     47  C   UNL A   1      41.463  28.444  28.476  1.00  0.00     0.010 A 
ATOM     48  C   UNL A   1      40.493  28.061  29.416  1.00  0.00    -0.014 A 
BRANCH  48  49
ATOM     49  C   UNL A   1      40.342  28.847  30.670  1.00  0.00     0.031 A 
ATOM     50  C   UNL A   1      39.368  29.993  30.744  1.00  0.00     0.074 A 
ATOM     51  C   UNL A   1      41.169  28.609  31.709  1.00  0.00     0.049 A 
ATOM     52  N   UNL A   1      39.185  30.859  31.709  1.00  0.00    -0.248 NA
ATOM     53  C   UNL A   1      38.502  30.206  29.574  1.00  0.00     0.031 C 
ATOM     54  C   UNL A   1      42.194  27.563  31.760  1.00  0.00     0.029 A 
ATOM     55  N   UNL A   1      41.316  29.273  32.903  1.00  0.00    -0.354 N 
ATOM     56  C   UNL A   1      38.178  31.710  31.269  1.00  0.00     0.074 A 
ATOM     57  C   UNL A   1      37.846  31.305  29.919  1.00  0.00     0.031 C 
ATOM     58  C   UNL A   1      42.893  27.685  32.898  1.00  0.00     0.029 A 
ATOM     59  C   UNL A   1      42.376  28.821  33.655  1.00  0.00     0.049 A 
ATOM     60  H   UNL A   1      40.722  30.002  33.192  1.00  0.00     0.167 HD
ATOM     61  C   UNL A   1      37.557  32.712  31.938  1.00  0.00     0.031 A 
ATOM     62  C   UNL A   1      42.895  29.277  34.811  1.00  0.00     0.031 A 
ATOM     63  C   UNL A   1      37.888  33.118  33.278  1.00  0.00     0.049 A 
ATOM     64  C   UNL A   1      42.237  30.427  35.515  1.00  0.00     0.074 A 
ATOM     65  C   UNL A   1      37.256  34.058  34.074  1.00  0.00     0.029 A 
ATOM     66  N   UNL A   1      38.951  32.620  34.016  1.00  0.00    -0.354 N 
ATOM     67  N   UNL A   1      41.209  31.145  35.131  1.00  0.00    -0.248 NA
ATOM     68  C   UNL A   1      42.788  30.809  36.822  1.00  0.00     0.031 C 
ATOM     69  C   UNL A   1      37.971  34.167  35.273  1.00  0.00     0.029 A 
ATOM     70  C   UNL A   1      39.017  33.258  35.244  1.00  0.00     0.049 A 
ATOM     71  H   UNL A   1      39.569  31.917  33.712  1.00  0.00     0.167 HD
ATOM     72  C   UNL A   1      40.971  32.045  36.164  1.00  0.00     0.074 A 
ATOM     73  C   UNL A   1      41.959  31.777  37.189  1.00  0.00     0.031 C 
ATOM     74  C   UNL A   1      40.012  32.999  36.254  1.00  0.00     0.031 A 
BRANCH  61  75
ATOM     75  C   UNL A   1      36.438  33.426  31.224  1.00  0.00    -0.014 A 
ATOM     76  C   UNL A   1      36.665  34.066  29.990  1.00  0.00     0.010 A 
ATOM     77  C   UNL A   1      35.145  33.447  31.775  1.00  0.00     0.010 A 
ATOM     78  C   UNL A   1      35.637  34.765  29.354  1.00  0.00     0.020 A 
ATOM     79  C   UNL A   1      34.105  34.121  31.127  1.00  0.00     0.020 A 
ATOM     80  C   UNL A   1      34.366  34.797  29.932  1.00  0.00     0.054 A 
BRANCH  80  81
ATOM     81  S   UNL A   1      33.053  35.723  29.090  1.00  0.00     0.124 S 
ATOM     82  O   UNL A   1      33.820  36.719  28.346  1.00  0.00    -0.237 OA
ATOM     83  O   UNL A   1      32.405  34.696  28.277  1.00  0.00    -0.237 OA
ATOM     84  O   UNL A   1      32.242  36.250  30.185  1.00  0.00    -0.744 OA
ENDBRANCH  80  81
ENDBRANCH  61  75
BRANCH  62  85
ATOM     85  C   UNL A   1      44.103  28.619  35.374  1.00  0.00    -0.014 A 
ATOM     86  C   UNL A   1      45.386  29.097  35.061  1.00  0.00     0.010 A 
ATOM     87  C   UNL A   1      43.968  27.543  36.270  1.00  0.00     0.010 A 
ATOM     88  C   UNL A   1      46.516  28.508  35.633  1.00  0.00     0.020 A 
ATOM     89  C   UNL A   1      45.096  26.965  36.860  1.00  0.00     0.020 A 
ATOM     90  C   UNL A   1      46.365  27.450  36.534  1.00  0.00     0.054 A 
BRANCH  90  91
ATOM     91  S   UNL A   1      47.844  26.757  37.323  1.00  0.00     0.124 S 
ATOM     92  O   UNL A   1      47.630  27.099  38.725  1.00  0.00    -0.237 OA
ATOM     93  O   UNL A   1      47.739  25.337  36.993  1.00  0.00    -0.237 OA
ATOM     94  O   UNL A   1      48.944  27.461  36.665  1.00  0.00    -0.744 OA
ENDBRANCH  90  91
ENDBRANCH  62  85
BRANCH  74  95
ATOM     95  C   UNL A   1      39.968  33.819  37.516  1.00  0.00    -0.014 A 
ATOM     96  C   UNL A   1      40.642  35.049  37.605  1.00  0.00     0.010 A 
ATOM     97  C   UNL A   1      39.199  33.377  38.608  1.00  0.00     0.010 A 
ATOM     98  C   UNL A   1      40.567  35.813  38.773  1.00  0.00     0.020 A 
ATOM     99  C   UNL A   1      39.101  34.151  39.769  1.00  0.00     0.020 A 
ATOM    100  C   UNL A   1      39.794  35.359  39.847  1.00  0.00     0.054 A 
BRANCH 100 101
ATOM    101  S   UNL A   1      39.670  36.395  41.332  1.00  0.00     0.124 S 
ATOM    102  O   UNL A   1      39.743  37.741  40.771  1.00  0.00    -0.237 OA
ATOM    103  O   UNL A   1      38.372  36.012  41.881  1.00  0.00    -0.237 OA
ATOM    104  O   UNL A   1      40.823  35.990  42.134  1.00  0.00    -0.744 OA
ENDBRANCH 100 101
ENDBRANCH  74  95
ENDBRANCH  48  49
ENDBRANCH  40  43
ENDBRANCH  38  39
ENDBRANCH  37  38
ENDBRANCH   1  37
TORSDOF 19
ENDMDL
MODEL 3
REMARK VINA RESULT:     -11.4      5.473     13.252
REMARK SMILES CC(=O)N[C@H]1[C@@H](Oc2ccc(C)c(C)c2)O[C@H]2CO[C@H](c3ccco3)O[C@@H]2[C@H]1OCC(=O)NCCCNC(=O)c1ccc(-c2c3nc(c(-c4ccc(S(=O)(=O)[O-])cc4)c4ccc([nH]4)c(-c4ccc(S(=O)(=O)[O-])cc4)c4nc(c(-c5ccc(S(=O)(=O)[O-])cc5)c5ccc2[nH]5)C=C4)C=C3)cc1
REMARK SMILES IDX 34 1 33 2 31 3 32 4 30 6 29 7 28 8 5 9 6 10 16 11 27 12
REMARK SMILES IDX 17 13 26 14 18 15 20 16 19 17 4 18 1 19 2 20 3 21 7 23 8 24
REMARK SMILES IDX 9 25 15 26 10 27 13 28 11 29 14 30 12 31 21 32 22 33 25 34
REMARK SMILES IDX 23 35 24 36 35 37 36 38 37 39 38 40 39 42 40 43 41 44 99 45
REMARK SMILES IDX 42 46 98 47 43 48 44 49 45 50 92 51 46 52 97 53 91 54 93 55
REMARK SMILES IDX 47 56 96 57 90 58 89 59 48 61 78 62 59 63 77 64 60 65 63 66
REMARK SMILES IDX 76 67 94 68 61 69 62 70 75 72 95 73 64 74 49 75 50 76 58 77
REMARK SMILES IDX 51 78 57 79 52 80 53 81 54 82 55 83 56 84 79 85 80 86 88 87
REMARK SMILES IDX 81 88 87 89 82 90 83 91 84 92 85 93 86 94 65 95 66 96 74 97
REMARK SMILES IDX 67 98 73 99 68 100 69 101 70 102 71 103 72 104
REMARK H PARENT 33 5 4 22 37 41 93 60 63 71
REMARK Flexibility Score: inf
ROOT
ATOM      1  C   UNL A   1      37.858  32.740  37.065  1.00  0.00     0.117 C 
ENDROOT
BRANCH   1   2
ATOM      2  N   UNL A   1      38.619  31.552  36.715  1.00  0.00    -0.354 N 
ATOM      3  C   UNL A   1      38.830  31.002  35.487  1.00  0.00     0.246 C 
ATOM      4  O   UNL A   1      39.368  29.894  35.420  1.00  0.00    -0.272 OA
ATOM      5  H   UNL A   1      39.043  31.083  37.469  1.00  0.00     0.163 HD
BRANCH   3   6
ATOM      6  C   UNL A   1      38.411  31.766  34.227  1.00  0.00     0.260 C 
BRANCH   6   7
ATOM      7  O   UNL A   1      37.206  31.529  33.536  1.00  0.00    -0.363 OA
BRANCH   7   8
ATOM      8  C   UNL A   1      37.151  31.510  32.097  1.00  0.00     0.179 C 
ATOM      9  C   UNL A   1      37.747  30.250  31.375  1.00  0.00     0.182 C 
ATOM     10  C   UNL A   1      37.332  30.186  29.843  1.00  0.00     0.333 C 
ATOM     11  O   UNL A   1      36.082  30.769  29.495  1.00  0.00    -0.332 OA
ATOM     12  C   UNL A   1      35.824  32.043  31.513  1.00  0.00     0.184 C 
ATOM     13  C   UNL A   1      35.917  32.076  29.993  1.00  0.00     0.180 C 
ATOM     14  O   UNL A   1      35.552  33.367  31.990  1.00  0.00    -0.337 OA
ATOM     15  C   UNL A   1      34.621  32.658  29.444  1.00  0.00     0.199 C 
ATOM     16  C   UNL A   1      34.340  33.877  31.426  1.00  0.00     0.319 C 
ATOM     17  O   UNL A   1      34.391  33.938  30.004  1.00  0.00    -0.343 OA
BRANCH   9  18
ATOM     18  N   UNL A   1      37.603  28.974  32.097  1.00  0.00    -0.345 N 
ATOM     19  C   UNL A   1      40.006  28.425  32.365  1.00  0.00     0.114 C 
ATOM     20  C   UNL A   1      38.551  28.057  32.444  1.00  0.00     0.217 C 
ATOM     21  O   UNL A   1      38.199  26.956  32.867  1.00  0.00    -0.275 OA
ATOM     22  H   UNL A   1      36.685  28.750  32.370  1.00  0.00     0.164 HD
ENDBRANCH   9  18
BRANCH  10  23
ATOM     23  O   UNL A   1      37.462  28.885  29.246  1.00  0.00    -0.463 OA
BRANCH  23  24
ATOM     24  C   UNL A   1      38.604  28.566  28.557  1.00  0.00     0.123 A 
ATOM     25  C   UNL A   1      39.375  29.423  27.776  1.00  0.00     0.047 A 
ATOM     26  C   UNL A   1      38.942  27.213  28.592  1.00  0.00     0.050 A 
ATOM     27  C   UNL A   1      40.345  28.914  26.913  1.00  0.00     0.007 A 
ATOM     28  C   UNL A   1      39.949  26.688  27.761  1.00  0.00    -0.045 A 
ATOM     29  C   UNL A   1      40.605  27.540  26.857  1.00  0.00    -0.048 A 
ATOM     30  C   UNL A   1      40.253  25.221  27.877  1.00  0.00     0.045 C 
ATOM     31  C   UNL A   1      41.560  27.032  25.814  1.00  0.00     0.044 C 
ENDBRANCH  23  24
ENDBRANCH  10  23
BRANCH  16  32
ATOM     32  C   UNL A   1      34.127  35.283  31.874  1.00  0.00     0.159 A 
ATOM     33  C   UNL A   1      34.513  35.942  33.027  1.00  0.00     0.051 A 
ATOM     34  O   UNL A   1      33.436  36.143  31.065  1.00  0.00    -0.464 OA
ATOM     35  C   UNL A   1      33.985  37.248  32.941  1.00  0.00     0.042 A 
ATOM     36  C   UNL A   1      33.344  37.325  31.729  1.00  0.00     0.195 A 
ENDBRANCH  16  32
ENDBRANCH   7   8
ENDBRANCH   6   7
ENDBRANCH   3   6
ENDBRANCH   1   2
BRANCH   1  37
ATOM     37  C   UNL A   1      38.032  33.110  38.531  1.00  0.00     0.042 C 
BRANCH  37  38
ATOM     38  C   UNL A   1      39.362  33.790  38.842  1.00  0.00     0.118 C 
BRANCH  38  39
ATOM     39  N   UNL A   1      39.281  35.240  38.743  1.00  0.00    -0.352 N 
ATOM     40  C   UNL A   1      39.994  36.099  37.946  1.00  0.00     0.251 C 
ATOM     41  H   UNL A   1      38.617  35.666  39.333  1.00  0.00     0.163 HD
ATOM     42  O   UNL A   1      39.959  37.305  38.167  1.00  0.00    -0.269 OA
BRANCH  40  43
ATOM     43  C   UNL A   1      40.808  35.570  36.832  1.00  0.00     0.039 A 
ATOM     44  C   UNL A   1      42.197  35.527  36.966  1.00  0.00     0.014 A 
ATOM     45  C   UNL A   1      40.204  35.140  35.648  1.00  0.00     0.014 A 
ATOM     46  C   UNL A   1      42.979  34.993  35.937  1.00  0.00     0.010 A 
ATOM     47  C   UNL A   1      40.978  34.551  34.652  1.00  0.00     0.010 A 
ATOM     48  C   UNL A   1      42.373  34.464  34.786  1.00  0.00    -0.014 A 
BRANCH  48  49
ATOM     49  C   UNL A   1      43.166  33.779  33.729  1.00  0.00     0.031 A 
ATOM     50  C   UNL A   1      43.486  34.481  32.436  1.00  0.00     0.074 A 
ATOM     51  C   UNL A   1      43.497  32.480  33.881  1.00  0.00     0.049 A 
ATOM     52  N   UNL A   1      44.063  34.005  31.361  1.00  0.00    -0.248 NA
ATOM     53  C   UNL A   1      43.090  35.894  32.330  1.00  0.00     0.031 C 
ATOM     54  C   UNL A   1      43.209  31.660  35.061  1.00  0.00     0.029 A 
ATOM     55  N   UNL A   1      44.098  31.605  33.010  1.00  0.00    -0.354 N 
ATOM     56  C   UNL A   1      44.108  35.060  30.457  1.00  0.00     0.074 A 
ATOM     57  C   UNL A   1      43.430  36.176  31.080  1.00  0.00     0.031 C 
ATOM     58  C   UNL A   1      43.588  30.396  34.822  1.00  0.00     0.029 A 
ATOM     59  C   UNL A   1      44.137  30.310  33.472  1.00  0.00     0.049 A 
ATOM     60  H   UNL A   1      44.465  31.877  32.138  1.00  0.00     0.167 HD
ATOM     61  C   UNL A   1      44.694  35.111  29.235  1.00  0.00     0.031 A 
ATOM     62  C   UNL A   1      44.543  29.172  32.877  1.00  0.00     0.031 A 
ATOM     63  C   UNL A   1      45.366  34.001  28.613  1.00  0.00     0.049 A 
ATOM     64  C   UNL A   1      45.135  29.229  31.499  1.00  0.00     0.074 A 
ATOM     65  C   UNL A   1      46.070  33.978  27.421  1.00  0.00     0.029 A 
ATOM     66  N   UNL A   1      45.405  32.712  29.123  1.00  0.00    -0.354 N 
ATOM     67  N   UNL A   1      45.273  30.264  30.707  1.00  0.00    -0.248 NA
ATOM     68  C   UNL A   1      45.655  27.970  30.948  1.00  0.00     0.031 C 
ATOM     69  C   UNL A   1      46.488  32.663  27.185  1.00  0.00     0.029 A 
ATOM     70  C   UNL A   1      46.088  31.877  28.254  1.00  0.00     0.049 A 
ATOM     71  H   UNL A   1      45.005  32.431  29.977  1.00  0.00     0.167 HD
ATOM     72  C   UNL A   1      45.923  29.787  29.574  1.00  0.00     0.074 A 
ATOM     73  C   UNL A   1      46.154  28.374  29.787  1.00  0.00     0.031 C 
ATOM     74  C   UNL A   1      46.302  30.467  28.464  1.00  0.00     0.031 A 
BRANCH  61  75
ATOM     75  C   UNL A   1      44.645  36.427  28.502  1.00  0.00    -0.014 A 
ATOM     76  C   UNL A   1      43.562  36.740  27.658  1.00  0.00     0.010 A 
ATOM     77  C   UNL A   1      45.675  37.369  28.667  1.00  0.00     0.010 A 
ATOM     78  C   UNL A   1      43.542  37.940  26.945  1.00  0.00     0.020 A 
ATOM     79  C   UNL A   1      45.645  38.586  27.978  1.00  0.00     0.020 A 
ATOM     80  C   UNL A   1      44.589  38.852  27.102  1.00  0.00     0.054 A 
BRANCH  80  81
ATOM     81  S   UNL A   1      44.543  40.398  26.155  1.00  0.00     0.124 S 
ATOM     82  O   UNL A   1      44.776  41.394  27.199  1.00  0.00    -0.237 OA
ATOM     83  O   UNL A   1      45.633  40.224  25.200  1.00  0.00    -0.237 OA
ATOM     84  O   UNL A   1      43.203  40.408  25.572  1.00  0.00    -0.744 OA
ENDBRANCH  80  81
ENDBRANCH  61  75
BRANCH  62  85
ATOM     85  C   UNL A   1      44.410  27.884  33.606  1.00  0.00    -0.014 A 
ATOM     86  C   UNL A   1      43.186  27.195  33.619  1.00  0.00     0.010 A 
ATOM     87  C   UNL A   1      45.527  27.315  34.245  1.00  0.00     0.010 A 
ATOM     88  C   UNL A   1      43.080  25.959  34.261  1.00  0.00     0.020 A 
ATOM     89  C   UNL A   1      45.429  26.069  34.871  1.00  0.00     0.020 A 
ATOM     90  C   UNL A   1      44.203  25.400  34.878  1.00  0.00     0.054 A 
BRANCH  90  91
ATOM     91  S   UNL A   1      44.056  23.759  35.635  1.00  0.00     0.124 S 
ATOM     92  O   UNL A   1      45.071  22.999  34.914  1.00  0.00    -0.237 OA
ATOM     93  O   UNL A   1      44.350  24.034  37.040  1.00  0.00    -0.237 OA
ATOM     94  O   UNL A   1      42.672  23.378  35.361  1.00  0.00    -0.744 OA
ENDBRANCH  90  91
ENDBRANCH  62  85
BRANCH  74  95
ATOM     95  C   UNL A   1      47.026  29.696  27.393  1.00  0.00    -0.014 A 
ATOM     96  C   UNL A   1      48.422  29.533  27.434  1.00  0.00     0.010 A 
ATOM     97  C   UNL A   1      46.294  29.081  26.361  1.00  0.00     0.010 A 
ATOM     98  C   UNL A   1      49.076  28.789  26.449  1.00  0.00     0.020 A 
ATOM     99  C   UNL A   1      46.942  28.314  25.388  1.00  0.00     0.020 A 
ATOM    100  C   UNL A   1      48.331  28.182  25.433  1.00  0.00     0.054 A 
BRANCH 100 101
ATOM    101  S   UNL A   1      49.198  27.176  24.196  1.00  0.00     0.124 S 
ATOM    102  O   UNL A   1      50.193  28.114  23.684  1.00  0.00    -0.237 OA
ATOM    103  O   UNL A   1      49.726  26.072  24.994  1.00  0.00    -0.237 OA
ATOM    104  O   UNL A   1      48.146  26.806  23.252  1.00  0.00    -0.744 OA
ENDBRANCH 100 101
ENDBRANCH  74  95
ENDBRANCH  48  49
ENDBRANCH  40  43
ENDBRANCH  38  39
ENDBRANCH  37  38
ENDBRANCH   1  37
TORSDOF 19
ENDMDL
