MODEL 1
REMARK VINA RESULT:     -13.1      0.000      0.000
REMARK SMILES O=C(NCCCNC(=O)[C@H]1CCCN(c2cc(-c3ccccn3)nc(-c3ccccc3F)n2)C1)c1ccc(-c2c3nc(c(-c4ccc(S(=O)(=O)[O-])cc4)c4ccc([nH]4)c(-c4ccc(S(=O)(=O)[O-])cc4)c4nc(c(-c5ccc(S(=O)(=O)[O-])cc5)c5ccc2[nH]5)C=C4)C=C3)cc1
REMARK SMILES IDX 4 1 3 2 1 3 2 4 35 6 36 7 94 8 37 9 93 10 38 11 39 12 40 13
REMARK SMILES IDX 87 14 41 15 92 16 86 17 88 18 42 19 91 20 85 21 84 22 43 24
REMARK SMILES IDX 73 25 54 26 72 27 55 28 58 29 71 30 89 31 56 32 57 33 70 35
REMARK SMILES IDX 90 36 59 37 44 38 45 39 53 40 46 41 52 42 47 43 48 44 49 45
REMARK SMILES IDX 50 46 51 47 74 48 75 49 83 50 76 51 82 52 77 53 78 54 79 55
REMARK SMILES IDX 80 56 81 57 60 58 61 59 69 60 62 61 68 62 63 63 64 64 65 65
REMARK SMILES IDX 66 66 67 67 5 68 6 69 7 70 8 71 9 73 10 74 11 75 34 76 12 77
REMARK SMILES IDX 14 78 13 79 15 80 16 81 33 82 17 83 25 84 24 85 18 86 19 87
REMARK SMILES IDX 23 88 20 89 22 90 21 91 26 92 27 93 31 94 28 95 30 96 32 97
REMARK SMILES IDX 29 98
REMARK H PARENT 3 5 88 23 58 34 7 72
REMARK Flexibility Score: inf
ROOT
ATOM      1  C   UNL A   1      33.968  28.921  25.930  1.00  0.00     0.118 C 
ENDROOT
BRANCH   1   2
ATOM      2  N   UNL A   1      33.758  30.276  26.425  1.00  0.00    -0.352 N 
ATOM      3  O   UNL A   1      33.788  31.938  27.930  1.00  0.00    -0.269 OA
ATOM      4  C   UNL A   1      34.333  30.931  27.484  1.00  0.00     0.251 C 
ATOM      5  H   UNL A   1      33.100  30.803  25.920  1.00  0.00     0.163 HD
BRANCH   4   6
ATOM      6  C   UNL A   1      35.598  30.450  28.078  1.00  0.00     0.039 A 
ATOM      7  C   UNL A   1      36.832  30.825  27.540  1.00  0.00     0.014 A 
ATOM      8  C   UNL A   1      35.549  29.695  29.254  1.00  0.00     0.014 A 
ATOM      9  C   UNL A   1      38.013  30.366  28.117  1.00  0.00     0.010 A 
ATOM     10  C   UNL A   1      36.736  29.295  29.872  1.00  0.00     0.010 A 
ATOM     11  C   UNL A   1      37.977  29.616  29.301  1.00  0.00    -0.014 A 
BRANCH  11  12
ATOM     12  C   UNL A   1      39.238  29.231  29.980  1.00  0.00     0.031 A 
ATOM     13  C   UNL A   1      39.733  30.002  31.168  1.00  0.00     0.074 A 
ATOM     14  C   UNL A   1      39.954  28.199  29.492  1.00  0.00     0.049 A 
ATOM     15  N   UNL A   1      40.848  29.858  31.836  1.00  0.00    -0.248 NA
ATOM     16  C   UNL A   1      38.867  31.082  31.665  1.00  0.00     0.031 C 
ATOM     17  C   UNL A   1      39.570  27.379  28.340  1.00  0.00     0.029 A 
ATOM     18  N   UNL A   1      41.154  27.671  29.892  1.00  0.00    -0.354 N 
ATOM     19  C   UNL A   1      40.835  30.846  32.813  1.00  0.00     0.074 A 
ATOM     20  C   UNL A   1      39.607  31.592  32.640  1.00  0.00     0.031 C 
ATOM     21  C   UNL A   1      40.510  26.445  28.134  1.00  0.00     0.029 A 
ATOM     22  C   UNL A   1      41.589  26.640  29.096  1.00  0.00     0.049 A 
ATOM     23  H   UNL A   1      41.655  27.999  30.674  1.00  0.00     0.167 HD
ATOM     24  C   UNL A   1      41.765  31.106  33.764  1.00  0.00     0.031 A 
ATOM     25  C   UNL A   1      42.744  25.946  29.110  1.00  0.00     0.031 A 
ATOM     26  C   UNL A   1      42.988  30.364  33.916  1.00  0.00     0.049 A 
ATOM     27  C   UNL A   1      43.774  26.268  30.152  1.00  0.00     0.074 A 
ATOM     28  C   UNL A   1      43.983  30.528  34.864  1.00  0.00     0.029 A 
ATOM     29  N   UNL A   1      43.390  29.323  33.091  1.00  0.00    -0.354 N 
ATOM     30  N   UNL A   1      43.730  27.183  31.090  1.00  0.00    -0.248 NA
ATOM     31  C   UNL A   1      45.005  25.468  30.142  1.00  0.00     0.031 C 
ATOM     32  C   UNL A   1      45.010  29.620  34.582  1.00  0.00     0.029 A 
ATOM     33  C   UNL A   1      44.629  28.850  33.493  1.00  0.00     0.049 A 
ATOM     34  H   UNL A   1      42.871  28.972  32.331  1.00  0.00     0.167 HD
ATOM     35  C   UNL A   1      44.918  27.055  31.800  1.00  0.00     0.074 A 
ATOM     36  C   UNL A   1      45.657  25.972  31.183  1.00  0.00     0.031 C 
ATOM     37  C   UNL A   1      45.349  27.768  32.870  1.00  0.00     0.031 A 
BRANCH  24  38
ATOM     38  C   UNL A   1      41.506  32.276  34.677  1.00  0.00    -0.014 A 
ATOM     39  C   UNL A   1      40.830  32.117  35.900  1.00  0.00     0.010 A 
ATOM     40  C   UNL A   1      41.942  33.560  34.299  1.00  0.00     0.010 A 
ATOM     41  C   UNL A   1      40.531  33.229  36.693  1.00  0.00     0.020 A 
ATOM     42  C   UNL A   1      41.670  34.670  35.104  1.00  0.00     0.020 A 
ATOM     43  C   UNL A   1      40.940  34.501  36.281  1.00  0.00     0.054 A 
BRANCH  43  44
ATOM     44  S   UNL A   1      40.502  35.933  37.305  1.00  0.00     0.124 S 
ATOM     45  O   UNL A   1      39.787  36.775  36.349  1.00  0.00    -0.237 OA
ATOM     46  O   UNL A   1      39.677  35.338  38.355  1.00  0.00    -0.237 OA
ATOM     47  O   UNL A   1      41.793  36.451  37.750  1.00  0.00    -0.744 OA
ENDBRANCH  43  44
ENDBRANCH  24  38
BRANCH  25  48
ATOM     48  C   UNL A   1      42.964  24.894  28.083  1.00  0.00    -0.014 A 
ATOM     49  C   UNL A   1      43.614  25.197  26.875  1.00  0.00     0.010 A 
ATOM     50  C   UNL A   1      42.613  23.559  28.357  1.00  0.00     0.010 A 
ATOM     51  C   UNL A   1      43.922  24.181  25.966  1.00  0.00     0.020 A 
ATOM     52  C   UNL A   1      42.940  22.538  27.461  1.00  0.00     0.020 A 
ATOM     53  C   UNL A   1      43.594  22.856  26.270  1.00  0.00     0.054 A 
BRANCH  53  54
ATOM     54  S   UNL A   1      44.104  21.543  25.126  1.00  0.00     0.124 S 
ATOM     55  O   UNL A   1      43.987  22.205  23.831  1.00  0.00    -0.237 OA
ATOM     56  O   UNL A   1      45.466  21.251  25.568  1.00  0.00    -0.237 OA
ATOM     57  O   UNL A   1      43.135  20.477  25.375  1.00  0.00    -0.744 OA
ENDBRANCH  53  54
ENDBRANCH  25  48
BRANCH  37  58
ATOM     58  C   UNL A   1      46.669  27.380  33.477  1.00  0.00    -0.014 A 
ATOM     59  C   UNL A   1      46.758  26.357  34.436  1.00  0.00     0.010 A 
ATOM     60  C   UNL A   1      47.848  27.983  32.999  1.00  0.00     0.010 A 
ATOM     61  C   UNL A   1      48.006  25.945  34.911  1.00  0.00     0.020 A 
ATOM     62  C   UNL A   1      49.098  27.558  33.456  1.00  0.00     0.020 A 
ATOM     63  C   UNL A   1      49.168  26.543  34.412  1.00  0.00     0.054 A 
BRANCH  63  64
ATOM     64  S   UNL A   1      50.780  25.930  34.975  1.00  0.00     0.124 S 
ATOM     65  O   UNL A   1      51.706  26.761  34.212  1.00  0.00    -0.237 OA
ATOM     66  O   UNL A   1      50.738  26.192  36.412  1.00  0.00    -0.237 OA
ATOM     67  O   UNL A   1      50.761  24.516  34.606  1.00  0.00    -0.744 OA
ENDBRANCH  63  64
ENDBRANCH  37  58
ENDBRANCH  11  12
ENDBRANCH   4   6
ENDBRANCH   1   2
BRANCH   1  68
ATOM     68  C   UNL A   1      32.679  28.326  25.366  1.00  0.00     0.042 C 
BRANCH  68  69
ATOM     69  C   UNL A   1      32.314  28.900  23.999  1.00  0.00     0.117 C 
BRANCH  69  70
ATOM     70  N   UNL A   1      33.025  28.231  22.920  1.00  0.00    -0.356 N 
ATOM     71  C   UNL A   1      33.263  26.945  22.566  1.00  0.00     0.224 C 
ATOM     72  H   UNL A   1      33.433  28.870  22.292  1.00  0.00     0.163 HD
ATOM     73  O   UNL A   1      33.991  26.813  21.570  1.00  0.00    -0.275 OA
BRANCH  71  74
ATOM     74  C   UNL A   1      32.685  25.693  23.233  1.00  0.00     0.098 C 
ATOM     75  C   UNL A   1      31.215  25.522  22.788  1.00  0.00     0.017 C 
ATOM     76  C   UNL A   1      33.452  24.398  23.055  1.00  0.00     0.131 C 
ATOM     77  C   UNL A   1      30.560  24.268  23.375  1.00  0.00     0.022 C 
ATOM     78  N   UNL A   1      32.724  23.251  23.589  1.00  0.00    -0.356 N 
ATOM     79  C   UNL A   1      31.384  23.011  23.097  1.00  0.00     0.118 C 
BRANCH  78  80
ATOM     80  C   UNL A   1      33.513  22.281  24.158  1.00  0.00     0.133 A 
ATOM     81  C   UNL A   1      33.134  20.962  24.248  1.00  0.00     0.077 A 
ATOM     82  N   UNL A   1      34.728  22.678  24.563  1.00  0.00    -0.211 NA
ATOM     83  C   UNL A   1      34.077  20.066  24.727  1.00  0.00     0.095 A 
ATOM     84  C   UNL A   1      35.574  21.756  25.047  1.00  0.00     0.165 A 
ATOM     85  N   UNL A   1      35.308  20.450  25.134  1.00  0.00    -0.226 NA
BRANCH  83  86
ATOM     86  C   UNL A   1      33.791  18.627  24.776  1.00  0.00     0.089 A 
ATOM     87  C   UNL A   1      34.680  17.690  24.246  1.00  0.00     0.030 A 
ATOM     88  N   UNL A   1      32.602  18.268  25.327  1.00  0.00    -0.255 NA
ATOM     89  C   UNL A   1      34.342  16.339  24.285  1.00  0.00     0.004 A 
ATOM     90  C   UNL A   1      32.308  16.949  25.360  1.00  0.00     0.112 A 
ATOM     91  C   UNL A   1      33.134  15.960  24.854  1.00  0.00     0.020 A 
ENDBRANCH  83  86
BRANCH  84  92
ATOM     92  C   UNL A   1      36.840  22.267  25.564  1.00  0.00     0.055 A 
ATOM     93  C   UNL A   1      36.929  23.590  26.043  1.00  0.00     0.015 A 
ATOM     94  C   UNL A   1      38.007  21.499  25.566  1.00  0.00     0.134 A 
ATOM     95  C   UNL A   1      38.136  24.115  26.514  1.00  0.00     0.001 A 
ATOM     96  C   UNL A   1      39.218  22.019  26.028  1.00  0.00     0.040 A 
ATOM     97  F   UNL A   1      38.005  20.250  25.076  1.00  0.00    -0.206 F 
ATOM     98  C   UNL A   1      39.283  23.326  26.506  1.00  0.00     0.003 A 
ENDBRANCH  84  92
ENDBRANCH  78  80
ENDBRANCH  71  74
ENDBRANCH  69  70
ENDBRANCH  68  69
ENDBRANCH   1  68
TORSDOF 16
ENDMDL
MODEL 2
REMARK VINA RESULT:     -13.1      2.156      2.648
REMARK SMILES O=C(NCCCNC(=O)[C@H]1CCCN(c2cc(-c3ccccn3)nc(-c3ccccc3F)n2)C1)c1ccc(-c2c3nc(c(-c4ccc(S(=O)(=O)[O-])cc4)c4ccc([nH]4)c(-c4ccc(S(=O)(=O)[O-])cc4)c4nc(c(-c5ccc(S(=O)(=O)[O-])cc5)c5ccc2[nH]5)C=C4)C=C3)cc1
REMARK SMILES IDX 4 1 3 2 1 3 2 4 35 6 36 7 94 8 37 9 93 10 38 11 39 12 40 13
REMARK SMILES IDX 87 14 41 15 92 16 86 17 88 18 42 19 91 20 85 21 84 22 43 24
REMARK SMILES IDX 73 25 54 26 72 27 55 28 58 29 71 30 89 31 56 32 57 33 70 35
REMARK SMILES IDX 90 36 59 37 44 38 45 39 53 40 46 41 52 42 47 43 48 44 49 45
REMARK SMILES IDX 50 46 51 47 74 48 75 49 83 50 76 51 82 52 77 53 78 54 79 55
REMARK SMILES IDX 80 56 81 57 60 58 61 59 69 60 62 61 68 62 63 63 64 64 65 65
REMARK SMILES IDX 66 66 67 67 5 68 6 69 7 70 8 71 9 73 10 74 11 75 34 76 12 77
REMARK SMILES IDX 14 78 13 79 15 80 16 81 33 82 17 83 25 84 24 85 18 86 19 87
REMARK SMILES IDX 23 88 20 89 22 90 21 91 26 92 27 93 31 94 28 95 30 96 32 97
REMARK SMILES IDX 29 98
REMARK H PARENT 3 5 88 23 58 34 7 72
REMARK Flexibility Score: inf
ROOT
ATOM      1  C   UNL A   1      34.099  28.633  26.383  1.00  0.00     0.118 C 
ENDROOT
BRANCH   1   2
ATOM      2  N   UNL A   1      33.973  29.940  27.016  1.00  0.00    -0.352 N 
ATOM      3  O   UNL A   1      34.292  31.489  28.605  1.00  0.00    -0.269 OA
ATOM      4  C   UNL A   1      34.748  30.538  27.976  1.00  0.00     0.251 C 
ATOM      5  H   UNL A   1      33.210  30.478  26.706  1.00  0.00     0.163 HD
BRANCH   4   6
ATOM      6  C   UNL A   1      36.122  30.062  28.247  1.00  0.00     0.039 A 
ATOM      7  C   UNL A   1      37.118  30.149  27.271  1.00  0.00     0.014 A 
ATOM      8  C   UNL A   1      36.442  29.617  29.533  1.00  0.00     0.014 A 
ATOM      9  C   UNL A   1      38.406  29.700  27.546  1.00  0.00     0.010 A 
ATOM     10  C   UNL A   1      37.752  29.234  29.830  1.00  0.00     0.010 A 
ATOM     11  C   UNL A   1      38.741  29.260  28.835  1.00  0.00    -0.014 A 
BRANCH  11  12
ATOM     12  C   UNL A   1      40.142  28.898  29.160  1.00  0.00     0.031 A 
ATOM     13  C   UNL A   1      41.061  29.895  29.803  1.00  0.00     0.074 A 
ATOM     14  C   UNL A   1      40.591  27.669  28.835  1.00  0.00     0.049 A 
ATOM     15  N   UNL A   1      42.333  29.780  30.085  1.00  0.00    -0.248 NA
ATOM     16  C   UNL A   1      40.478  31.195  30.168  1.00  0.00     0.031 C 
ATOM     17  C   UNL A   1      39.787  26.619  28.205  1.00  0.00     0.029 A 
ATOM     18  N   UNL A   1      41.829  27.100  28.979  1.00  0.00    -0.354 N 
ATOM     19  C   UNL A   1      42.711  30.999  30.633  1.00  0.00     0.074 A 
ATOM     20  C   UNL A   1      41.537  31.845  30.628  1.00  0.00     0.031 C 
ATOM     21  C   UNL A   1      40.549  25.530  28.027  1.00  0.00     0.029 A 
ATOM     22  C   UNL A   1      41.907  25.826  28.471  1.00  0.00     0.049 A 
ATOM     23  H   UNL A   1      42.589  27.560  29.405  1.00  0.00     0.167 HD
ATOM     24  C   UNL A   1      43.929  31.377  31.094  1.00  0.00     0.031 A 
ATOM     25  C   UNL A   1      42.959  24.995  28.340  1.00  0.00     0.031 A 
ATOM     26  C   UNL A   1      45.092  30.529  31.080  1.00  0.00     0.049 A 
ATOM     27  C   UNL A   1      44.305  25.442  28.829  1.00  0.00     0.074 A 
ATOM     28  C   UNL A   1      46.364  30.805  31.548  1.00  0.00     0.029 A 
ATOM     29  N   UNL A   1      45.127  29.243  30.560  1.00  0.00    -0.354 N 
ATOM     30  N   UNL A   1      44.638  26.586  29.377  1.00  0.00    -0.248 NA
ATOM     31  C   UNL A   1      45.415  24.491  28.688  1.00  0.00     0.031 C 
ATOM     32  C   UNL A   1      47.181  29.705  31.266  1.00  0.00     0.029 A 
ATOM     33  C   UNL A   1      46.405  28.720  30.675  1.00  0.00     0.049 A 
ATOM     34  H   UNL A   1      44.357  28.771  30.167  1.00  0.00     0.167 HD
ATOM     35  C   UNL A   1      45.993  26.486  29.668  1.00  0.00     0.074 A 
ATOM     36  C   UNL A   1      46.416  25.168  29.238  1.00  0.00     0.031 C 
ATOM     37  C   UNL A   1      46.807  27.404  30.245  1.00  0.00     0.031 A 
BRANCH  24  38
ATOM     38  C   UNL A   1      44.064  32.788  31.604  1.00  0.00    -0.014 A 
ATOM     39  C   UNL A   1      43.891  33.095  32.965  1.00  0.00     0.010 A 
ATOM     40  C   UNL A   1      44.362  33.825  30.701  1.00  0.00     0.010 A 
ATOM     41  C   UNL A   1      43.942  34.422  33.402  1.00  0.00     0.020 A 
ATOM     42  C   UNL A   1      44.442  35.150  31.139  1.00  0.00     0.020 A 
ATOM     43  C   UNL A   1      44.203  35.443  32.482  1.00  0.00     0.054 A 
BRANCH  43  44
ATOM     44  S   UNL A   1      44.220  37.161  33.066  1.00  0.00     0.124 S 
ATOM     45  O   UNL A   1      44.045  37.901  31.819  1.00  0.00    -0.237 OA
ATOM     46  O   UNL A   1      43.083  37.201  33.983  1.00  0.00    -0.237 OA
ATOM     47  O   UNL A   1      45.531  37.301  33.696  1.00  0.00    -0.744 OA
ENDBRANCH  43  44
ENDBRANCH  24  38
BRANCH  25  48
ATOM     48  C   UNL A   1      42.753  23.667  27.703  1.00  0.00    -0.014 A 
ATOM     49  C   UNL A   1      42.957  23.496  26.323  1.00  0.00     0.010 A 
ATOM     50  C   UNL A   1      42.449  22.546  28.496  1.00  0.00     0.010 A 
ATOM     51  C   UNL A   1      42.876  22.223  25.752  1.00  0.00     0.020 A 
ATOM     52  C   UNL A   1      42.391  21.269  27.932  1.00  0.00     0.020 A 
ATOM     53  C   UNL A   1      42.605  21.115  26.562  1.00  0.00     0.054 A 
BRANCH  53  54
ATOM     54  S   UNL A   1      42.616  19.461  25.816  1.00  0.00     0.124 S 
ATOM     55  O   UNL A   1      43.023  18.623  26.939  1.00  0.00    -0.237 OA
ATOM     56  O   UNL A   1      41.231  19.304  25.376  1.00  0.00    -0.237 OA
ATOM     57  O   UNL A   1      43.594  19.581  24.735  1.00  0.00    -0.744 OA
ENDBRANCH  53  54
ENDBRANCH  25  48
BRANCH  37  58
ATOM     58  C   UNL A   1      48.238  27.008  30.488  1.00  0.00    -0.014 A 
ATOM     59  C   UNL A   1      49.245  27.302  29.554  1.00  0.00     0.010 A 
ATOM     60  C   UNL A   1      48.588  26.424  31.720  1.00  0.00     0.010 A 
ATOM     61  C   UNL A   1      50.581  27.016  29.847  1.00  0.00     0.020 A 
ATOM     62  C   UNL A   1      49.925  26.157  32.024  1.00  0.00     0.020 A 
ATOM     63  C   UNL A   1      50.913  26.452  31.083  1.00  0.00     0.054 A 
BRANCH  63  64
ATOM     64  S   UNL A   1      52.662  26.173  31.478  1.00  0.00     0.124 S 
ATOM     65  O   UNL A   1      53.296  26.324  30.172  1.00  0.00    -0.237 OA
ATOM     66  O   UNL A   1      52.946  27.234  32.441  1.00  0.00    -0.237 OA
ATOM     67  O   UNL A   1      52.681  24.819  32.028  1.00  0.00    -0.744 OA
ENDBRANCH  63  64
ENDBRANCH  37  58
ENDBRANCH  11  12
ENDBRANCH   4   6
ENDBRANCH   1   2
BRANCH   1  68
ATOM     68  C   UNL A   1      32.762  28.155  25.818  1.00  0.00     0.042 C 
BRANCH  68  69
ATOM     69  C   UNL A   1      32.375  28.879  24.530  1.00  0.00     0.117 C 
BRANCH  69  70
ATOM     70  N   UNL A   1      33.016  28.294  23.362  1.00  0.00    -0.356 N 
ATOM     71  C   UNL A   1      33.194  27.041  22.879  1.00  0.00     0.224 C 
ATOM     72  H   UNL A   1      33.418  28.977  22.778  1.00  0.00     0.163 HD
ATOM     73  O   UNL A   1      33.875  26.982  21.844  1.00  0.00    -0.275 OA
BRANCH  71  74
ATOM     74  C   UNL A   1      32.604  25.749  23.452  1.00  0.00     0.098 C 
ATOM     75  C   UNL A   1      31.142  25.609  22.969  1.00  0.00     0.017 C 
ATOM     76  C   UNL A   1      33.374  24.467  23.207  1.00  0.00     0.131 C 
ATOM     77  C   UNL A   1      30.476  24.321  23.461  1.00  0.00     0.022 C 
ATOM     78  N   UNL A   1      32.635  23.289  23.651  1.00  0.00    -0.356 N 
ATOM     79  C   UNL A   1      31.305  23.083  23.118  1.00  0.00     0.118 C 
BRANCH  78  80
ATOM     80  C   UNL A   1      33.413  22.282  24.171  1.00  0.00     0.133 A 
ATOM     81  C   UNL A   1      33.009  20.969  24.217  1.00  0.00     0.077 A 
ATOM     82  N   UNL A   1      34.641  22.640  24.571  1.00  0.00    -0.211 NA
ATOM     83  C   UNL A   1      33.940  20.038  24.648  1.00  0.00     0.095 A 
ATOM     84  C   UNL A   1      35.475  21.685  25.007  1.00  0.00     0.165 A 
ATOM     85  N   UNL A   1      35.184  20.381  25.050  1.00  0.00    -0.226 NA
BRANCH  83  86
ATOM     86  C   UNL A   1      33.625  18.603  24.647  1.00  0.00     0.089 A 
ATOM     87  C   UNL A   1      34.377  17.694  23.900  1.00  0.00     0.030 A 
ATOM     88  N   UNL A   1      32.545  18.224  25.379  1.00  0.00    -0.255 NA
ATOM     89  C   UNL A   1      34.012  16.350  23.905  1.00  0.00     0.004 A 
ATOM     90  C   UNL A   1      32.225  16.911  25.373  1.00  0.00     0.112 A 
ATOM     91  C   UNL A   1      32.916  15.948  24.656  1.00  0.00     0.020 A 
ENDBRANCH  83  86
BRANCH  84  92
ATOM     92  C   UNL A   1      36.758  22.150  25.524  1.00  0.00     0.055 A 
ATOM     93  C   UNL A   1      36.887  23.461  26.028  1.00  0.00     0.015 A 
ATOM     94  C   UNL A   1      37.905  21.352  25.499  1.00  0.00     0.134 A 
ATOM     95  C   UNL A   1      38.112  23.943  26.500  1.00  0.00     0.001 A 
ATOM     96  C   UNL A   1      39.133  21.829  25.961  1.00  0.00     0.040 A 
ATOM     97  F   UNL A   1      37.865  20.114  24.984  1.00  0.00    -0.206 F 
ATOM     98  C   UNL A   1      39.237  23.124  26.465  1.00  0.00     0.003 A 
ENDBRANCH  84  92
ENDBRANCH  78  80
ENDBRANCH  71  74
ENDBRANCH  69  70
ENDBRANCH  68  69
ENDBRANCH   1  68
TORSDOF 16
ENDMDL
MODEL 3
REMARK VINA RESULT:     -13.0      3.544     10.048
REMARK SMILES O=C(NCCCNC(=O)[C@H]1CCCN(c2cc(-c3ccccn3)nc(-c3ccccc3F)n2)C1)c1ccc(-c2c3nc(c(-c4ccc(S(=O)(=O)[O-])cc4)c4ccc([nH]4)c(-c4ccc(S(=O)(=O)[O-])cc4)c4nc(c(-c5ccc(S(=O)(=O)[O-])cc5)c5ccc2[nH]5)C=C4)C=C3)cc1
REMARK SMILES IDX 4 1 3 2 1 3 2 4 35 6 36 7 94 8 37 9 93 10 38 11 39 12 40 13
REMARK SMILES IDX 87 14 41 15 92 16 86 17 88 18 42 19 91 20 85 21 84 22 43 24
REMARK SMILES IDX 73 25 54 26 72 27 55 28 58 29 71 30 89 31 56 32 57 33 70 35
REMARK SMILES IDX 90 36 59 37 44 38 45 39 53 40 46 41 52 42 47 43 48 44 49 45
REMARK SMILES IDX 50 46 51 47 74 48 75 49 83 50 76 51 82 52 77 53 78 54 79 55
REMARK SMILES IDX 80 56 81 57 60 58 61 59 69 60 62 61 68 62 63 63 64 64 65 65
REMARK SMILES IDX 66 66 67 67 5 68 6 69 7 70 8 71 9 73 10 74 11 75 34 76 12 77
REMARK SMILES IDX 14 78 13 79 15 80 16 81 33 82 17 83 25 84 24 85 18 86 19 87
REMARK SMILES IDX 23 88 20 89 22 90 21 91 26 92 27 93 31 94 28 95 30 96 32 97
REMARK SMILES IDX 29 98
REMARK H PARENT 3 5 88 23 58 34 7 72
REMARK Flexibility Score: inf
ROOT
ATOM      1  C   UNL A   1      38.516  24.111  26.809  1.00  0.00     0.118 C 
ENDROOT
BRANCH   1   2
ATOM      2  N   UNL A   1      39.856  24.164  26.239  1.00  0.00    -0.352 N 
ATOM      3  O   UNL A   1      41.771  25.129  25.587  1.00  0.00    -0.269 OA
ATOM      4  C   UNL A   1      40.852  25.093  26.400  1.00  0.00     0.251 C 
ATOM      5  H   UNL A   1      40.081  23.414  25.643  1.00  0.00     0.163 HD
BRANCH   4   6
ATOM      6  C   UNL A   1      40.836  26.031  27.543  1.00  0.00     0.039 A 
ATOM      7  C   UNL A   1      41.712  27.119  27.590  1.00  0.00     0.014 A 
ATOM      8  C   UNL A   1      39.860  25.876  28.531  1.00  0.00     0.014 A 
ATOM      9  C   UNL A   1      41.679  27.995  28.672  1.00  0.00     0.010 A 
ATOM     10  C   UNL A   1      39.781  26.796  29.579  1.00  0.00     0.010 A 
ATOM     11  C   UNL A   1      40.698  27.855  29.665  1.00  0.00    -0.014 A 
BRANCH  11  12
ATOM     12  C   UNL A   1      40.587  28.858  30.751  1.00  0.00     0.031 A 
ATOM     13  C   UNL A   1      41.462  28.768  31.968  1.00  0.00     0.074 A 
ATOM     14  C   UNL A   1      39.663  29.833  30.648  1.00  0.00     0.049 A 
ATOM     15  N   UNL A   1      41.450  29.508  33.046  1.00  0.00    -0.248 NA
ATOM     16  C   UNL A   1      42.476  27.704  31.977  1.00  0.00     0.031 C 
ATOM     17  C   UNL A   1      38.756  30.017  29.513  1.00  0.00     0.029 A 
ATOM     18  N   UNL A   1      39.325  30.843  31.511  1.00  0.00    -0.354 N 
ATOM     19  C   UNL A   1      42.432  28.982  33.877  1.00  0.00     0.074 A 
ATOM     20  C   UNL A   1      43.009  27.850  33.182  1.00  0.00     0.031 C 
ATOM     21  C   UNL A   1      37.974  31.081  29.743  1.00  0.00     0.029 A 
ATOM     22  C   UNL A   1      38.280  31.615  31.066  1.00  0.00     0.049 A 
ATOM     23  H   UNL A   1      39.787  31.000  32.367  1.00  0.00     0.167 HD
ATOM     24  C   UNL A   1      42.813  29.403  35.107  1.00  0.00     0.031 A 
ATOM     25  C   UNL A   1      37.611  32.619  31.665  1.00  0.00     0.031 A 
ATOM     26  C   UNL A   1      42.220  30.522  35.792  1.00  0.00     0.049 A 
ATOM     27  C   UNL A   1      38.028  33.053  33.039  1.00  0.00     0.074 A 
ATOM     28  C   UNL A   1      42.552  31.049  37.028  1.00  0.00     0.029 A 
ATOM     29  N   UNL A   1      41.166  31.280  35.304  1.00  0.00    -0.354 N 
ATOM     30  N   UNL A   1      38.981  32.567  33.797  1.00  0.00    -0.248 NA
ATOM     31  C   UNL A   1      37.285  34.168  33.640  1.00  0.00     0.031 C 
ATOM     32  C   UNL A   1      41.665  32.094  37.310  1.00  0.00     0.029 A 
ATOM     33  C   UNL A   1      40.818  32.256  36.224  1.00  0.00     0.049 A 
ATOM     34  H   UNL A   1      40.728  31.145  34.432  1.00  0.00     0.167 HD
ATOM     35  C   UNL A   1      38.971  33.332  34.957  1.00  0.00     0.074 A 
ATOM     36  C   UNL A   1      37.918  34.315  34.798  1.00  0.00     0.031 C 
ATOM     37  C   UNL A   1      39.769  33.229  36.048  1.00  0.00     0.031 A 
BRANCH  24  38
ATOM     38  C   UNL A   1      43.889  28.612  35.803  1.00  0.00    -0.014 A 
ATOM     39  C   UNL A   1      45.250  28.928  35.644  1.00  0.00     0.010 A 
ATOM     40  C   UNL A   1      43.530  27.528  36.625  1.00  0.00     0.010 A 
ATOM     41  C   UNL A   1      46.235  28.131  36.235  1.00  0.00     0.020 A 
ATOM     42  C   UNL A   1      44.512  26.746  37.242  1.00  0.00     0.020 A 
ATOM     43  C   UNL A   1      45.859  27.035  37.019  1.00  0.00     0.054 A 
BRANCH  43  44
ATOM     44  S   UNL A   1      47.155  25.990  37.739  1.00  0.00     0.124 S 
ATOM     45  O   UNL A   1      47.367  25.006  36.680  1.00  0.00    -0.237 OA
ATOM     46  O   UNL A   1      48.252  26.934  37.946  1.00  0.00    -0.237 OA
ATOM     47  O   UNL A   1      46.545  25.471  38.960  1.00  0.00    -0.744 OA
ENDBRANCH  43  44
ENDBRANCH  24  38
BRANCH  25  48
ATOM     48  C   UNL A   1      36.473  33.255  30.949  1.00  0.00    -0.014 A 
ATOM     49  C   UNL A   1      35.185  33.256  31.509  1.00  0.00     0.010 A 
ATOM     50  C   UNL A   1      36.700  33.951  29.747  1.00  0.00     0.010 A 
ATOM     51  C   UNL A   1      34.147  33.955  30.888  1.00  0.00     0.020 A 
ATOM     52  C   UNL A   1      35.670  34.672  29.136  1.00  0.00     0.020 A 
ATOM     53  C   UNL A   1      34.399  34.669  29.711  1.00  0.00     0.054 A 
BRANCH  53  54
ATOM     54  S   UNL A   1      33.062  35.660  28.986  1.00  0.00     0.124 S 
ATOM     55  O   UNL A   1      33.804  36.686  28.260  1.00  0.00    -0.237 OA
ATOM     56  O   UNL A   1      32.357  34.683  28.160  1.00  0.00    -0.237 OA
ATOM     57  O   UNL A   1      32.316  36.131  30.152  1.00  0.00    -0.744 OA
ENDBRANCH  53  54
ENDBRANCH  25  48
BRANCH  37  58
ATOM     58  C   UNL A   1      39.567  34.231  37.152  1.00  0.00    -0.014 A 
ATOM     59  C   UNL A   1      38.860  33.897  38.320  1.00  0.00     0.010 A 
ATOM     60  C   UNL A   1      40.186  35.491  37.056  1.00  0.00     0.010 A 
ATOM     61  C   UNL A   1      38.773  34.810  39.374  1.00  0.00     0.020 A 
ATOM     62  C   UNL A   1      40.119  36.398  38.117  1.00  0.00     0.020 A 
ATOM     63  C   UNL A   1      39.409  36.052  39.268  1.00  0.00     0.054 A 
BRANCH  63  64
ATOM     64  S   UNL A   1      39.359  37.185  40.685  1.00  0.00     0.124 S 
ATOM     65  O   UNL A   1      38.790  36.340  41.730  1.00  0.00    -0.237 OA
ATOM     66  O   UNL A   1      40.765  37.540  40.860  1.00  0.00    -0.237 OA
ATOM     67  O   UNL A   1      38.501  38.274  40.226  1.00  0.00    -0.744 OA
ENDBRANCH  63  64
ENDBRANCH  37  58
ENDBRANCH  11  12
ENDBRANCH   4   6
ENDBRANCH   1   2
BRANCH   1  68
ATOM     68  C   UNL A   1      37.448  24.011  25.721  1.00  0.00     0.042 C 
BRANCH  68  69
ATOM     69  C   UNL A   1      36.767  22.645  25.687  1.00  0.00     0.117 C 
BRANCH  69  70
ATOM     70  N   UNL A   1      35.562  22.616  26.504  1.00  0.00    -0.356 N 
ATOM     71  C   UNL A   1      34.323  23.158  26.423  1.00  0.00     0.224 C 
ATOM     72  H   UNL A   1      35.676  22.068  27.314  1.00  0.00     0.163 HD
ATOM     73  O   UNL A   1      33.595  22.919  27.399  1.00  0.00    -0.275 OA
BRANCH  71  74
ATOM     74  C   UNL A   1      33.752  23.961  25.250  1.00  0.00     0.098 C 
ATOM     75  C   UNL A   1      33.111  22.983  24.239  1.00  0.00     0.017 C 
ATOM     76  C   UNL A   1      32.797  25.089  25.584  1.00  0.00     0.131 C 
ATOM     77  C   UNL A   1      32.475  23.699  23.044  1.00  0.00     0.022 C 
ATOM     78  N   UNL A   1      32.193  25.669  24.388  1.00  0.00    -0.356 N 
ATOM     79  C   UNL A   1      31.490  24.781  23.487  1.00  0.00     0.118 C 
BRANCH  78  80
ATOM     80  C   UNL A   1      31.971  27.023  24.452  1.00  0.00     0.133 A 
ATOM     81  C   UNL A   1      31.012  27.663  23.704  1.00  0.00     0.077 A 
ATOM     82  N   UNL A   1      32.702  27.693  25.355  1.00  0.00    -0.211 NA
ATOM     83  C   UNL A   1      30.807  29.010  23.961  1.00  0.00     0.095 A 
ATOM     84  C   UNL A   1      32.468  29.003  25.523  1.00  0.00     0.165 A 
ATOM     85  N   UNL A   1      31.531  29.699  24.871  1.00  0.00    -0.226 NA
BRANCH  83  86
ATOM     86  C   UNL A   1      29.744  29.754  23.272  1.00  0.00     0.089 A 
ATOM     87  C   UNL A   1      29.099  30.832  23.881  1.00  0.00     0.030 A 
ATOM     88  N   UNL A   1      29.404  29.309  22.033  1.00  0.00    -0.255 NA
ATOM     89  C   UNL A   1      28.072  31.478  23.198  1.00  0.00     0.004 A 
ATOM     90  C   UNL A   1      28.413  29.966  21.392  1.00  0.00     0.112 A 
ATOM     91  C   UNL A   1      27.721  31.039  21.928  1.00  0.00     0.020 A 
ENDBRANCH  83  86
BRANCH  84  92
ATOM     92  C   UNL A   1      33.364  29.694  26.444  1.00  0.00     0.055 A 
ATOM     93  C   UNL A   1      34.597  29.114  26.806  1.00  0.00     0.015 A 
ATOM     94  C   UNL A   1      33.027  30.916  27.034  1.00  0.00     0.134 A 
ATOM     95  C   UNL A   1      35.459  29.739  27.711  1.00  0.00     0.001 A 
ATOM     96  C   UNL A   1      33.880  31.543  27.945  1.00  0.00     0.040 A 
ATOM     97  F   UNL A   1      31.847  31.498  26.775  1.00  0.00    -0.206 F 
ATOM     98  C   UNL A   1      35.099  30.957  28.281  1.00  0.00     0.003 A 
ENDBRANCH  84  92
ENDBRANCH  78  80
ENDBRANCH  71  74
ENDBRANCH  69  70
ENDBRANCH  68  69
ENDBRANCH   1  68
TORSDOF 16
ENDMDL
