MODEL 1
REMARK VINA RESULT:     -11.3      0.000      0.000
REMARK SMILES O=C(C[C@@H](NC(=O)c1cc(-c2ccc(F)cc2)on1)c1cccc(Br)c1)NCCCNC(=O)c1ccc(-c2c3nc(c(-c4ccc(S(=O)(=O)[O-])cc4)c4ccc([nH]4)c(-c4ccc(S(=O)(=O)[O-])cc4)c4nc(c(-c5ccc(S(=O)(=O)[O-])cc5)c5ccc2[nH]5)C=C4)C=C3)cc1
REMARK SMILES IDX 28 1 27 2 1 3 2 4 3 6 4 7 5 8 6 9 7 11 8 12 9 13 19 14 10 15
REMARK SMILES IDX 18 16 11 17 12 18 17 19 13 20 16 21 14 22 15 23 20 24 21 25
REMARK SMILES IDX 26 26 22 27 24 28 23 29 25 30 29 31 30 32 31 33 32 34 33 36
REMARK SMILES IDX 34 37 35 38 93 39 36 40 92 41 37 42 38 43 39 44 86 45 40 46
REMARK SMILES IDX 91 47 85 48 87 49 41 50 90 51 84 52 83 53 42 55 72 56 53 57
REMARK SMILES IDX 71 58 54 59 57 60 70 61 88 62 55 63 56 64 69 66 89 67 58 68
REMARK SMILES IDX 43 69 44 70 52 71 45 72 51 73 46 74 47 75 48 76 49 77 50 78
REMARK SMILES IDX 73 79 74 80 82 81 75 82 81 83 76 84 77 85 78 86 79 87 80 88
REMARK SMILES IDX 59 89 60 90 68 91 61 92 67 93 62 94 63 95 64 96 65 97 66 98
REMARK H PARENT 27 5 5 10 31 35 87 54 57 65
REMARK Flexibility Score: inf
ROOT
ATOM      1  C   UNL A   1      31.461  28.238  25.675  1.00  0.00     0.117 C 
ENDROOT
BRANCH   1   2
ATOM      2  N   UNL A   1      31.533  26.819  25.958  1.00  0.00    -0.356 N 
ATOM      3  O   UNL A   1      29.525  26.239  25.007  1.00  0.00    -0.275 OA
ATOM      4  C   UNL A   1      30.507  25.953  25.669  1.00  0.00     0.222 C 
ATOM      5  H   UNL A   1      32.350  26.462  26.376  1.00  0.00     0.163 HD
BRANCH   4   6
ATOM      6  C   UNL A   1      30.702  24.590  26.281  1.00  0.00     0.129 C 
BRANCH   6   7
ATOM      7  C   UNL A   1      30.897  23.483  25.230  1.00  0.00     0.122 C 
BRANCH   7   8
ATOM      8  N   UNL A   1      31.087  24.057  23.884  1.00  0.00    -0.343 N 
ATOM      9  C   UNL A   1      32.169  24.454  23.128  1.00  0.00     0.273 C 
ATOM     10  H   UNL A   1      30.235  24.189  23.412  1.00  0.00     0.164 HD
ATOM     11  O   UNL A   1      31.946  24.761  21.957  1.00  0.00    -0.267 OA
BRANCH   9  12
ATOM     12  C   UNL A   1      33.506  24.491  23.695  1.00  0.00     0.171 A 
ATOM     13  C   UNL A   1      34.600  23.646  23.392  1.00  0.00     0.088 A 
ATOM     14  N   UNL A   1      33.844  25.393  24.631  1.00  0.00    -0.074 NA
ATOM     15  C   UNL A   1      35.544  23.955  24.344  1.00  0.00     0.167 A 
ATOM     16  O   UNL A   1      35.114  25.033  25.056  1.00  0.00    -0.355 OA
BRANCH  15  17
ATOM     17  C   UNL A   1      36.757  23.290  24.798  1.00  0.00     0.020 A 
ATOM     18  C   UNL A   1      36.991  21.947  24.461  1.00  0.00     0.015 A 
ATOM     19  C   UNL A   1      37.614  23.912  25.721  1.00  0.00     0.015 A 
ATOM     20  C   UNL A   1      38.009  21.224  25.086  1.00  0.00     0.040 A 
ATOM     21  C   UNL A   1      38.619  23.183  26.363  1.00  0.00     0.040 A 
ATOM     22  C   UNL A   1      38.795  21.843  26.050  1.00  0.00     0.123 A 
ATOM     23  F   UNL A   1      39.723  21.128  26.701  1.00  0.00    -0.207 F 
ENDBRANCH  15  17
ENDBRANCH   9  12
ENDBRANCH   7   8
BRANCH   7  24
ATOM     24  C   UNL A   1      32.010  22.597  25.750  1.00  0.00    -0.024 A 
ATOM     25  C   UNL A   1      32.772  23.015  26.855  1.00  0.00     0.006 A 
ATOM     26  C   UNL A   1      32.358  21.401  25.099  1.00  0.00     0.021 A 
ATOM     27  C   UNL A   1      33.850  22.253  27.301  1.00  0.00     0.002 A 
ATOM     28  C   UNL A   1      33.435  20.644  25.553  1.00  0.00     0.018 A 
ATOM     29  C   UNL A   1      34.188  21.071  26.644  1.00  0.00     0.016 A 
ATOM     30  Br  UNL A   1      33.866  19.018  24.692  1.00  0.00    -0.051 Br
ENDBRANCH   7  24
ENDBRANCH   6   7
ENDBRANCH   4   6
ENDBRANCH   1   2
BRANCH   1  31
ATOM     31  C   UNL A   1      32.805  28.764  25.182  1.00  0.00     0.042 C 
BRANCH  31  32
ATOM     32  C   UNL A   1      33.765  29.184  26.292  1.00  0.00     0.118 C 
BRANCH  32  33
ATOM     33  N   UNL A   1      33.592  30.567  26.702  1.00  0.00    -0.352 N 
ATOM     34  C   UNL A   1      34.315  31.301  27.611  1.00  0.00     0.251 C 
ATOM     35  H   UNL A   1      32.850  31.047  26.267  1.00  0.00     0.163 HD
ATOM     36  O   UNL A   1      33.915  32.406  27.958  1.00  0.00    -0.269 OA
BRANCH  34  37
ATOM     37  C   UNL A   1      35.553  30.738  28.190  1.00  0.00     0.039 A 
ATOM     38  C   UNL A   1      36.783  31.260  27.782  1.00  0.00     0.014 A 
ATOM     39  C   UNL A   1      35.503  29.713  29.141  1.00  0.00     0.014 A 
ATOM     40  C   UNL A   1      37.958  30.802  28.379  1.00  0.00     0.010 A 
ATOM     41  C   UNL A   1      36.669  29.312  29.787  1.00  0.00     0.010 A 
ATOM     42  C   UNL A   1      37.909  29.854  29.415  1.00  0.00    -0.014 A 
BRANCH  42  43
ATOM     43  C   UNL A   1      39.143  29.440  30.132  1.00  0.00     0.031 A 
ATOM     44  C   UNL A   1      39.577  30.157  31.381  1.00  0.00     0.074 A 
ATOM     45  C   UNL A   1      39.906  28.451  29.621  1.00  0.00     0.049 A 
ATOM     46  N   UNL A   1      40.641  29.957  32.117  1.00  0.00    -0.248 NA
ATOM     47  C   UNL A   1      38.719  31.254  31.854  1.00  0.00     0.031 C 
ATOM     48  C   UNL A   1      39.619  27.708  28.391  1.00  0.00     0.029 A 
ATOM     49  N   UNL A   1      41.082  27.903  30.071  1.00  0.00    -0.354 N 
ATOM     50  C   UNL A   1      40.587  30.908  33.129  1.00  0.00     0.074 A 
ATOM     51  C   UNL A   1      39.413  31.717  32.884  1.00  0.00     0.031 C 
ATOM     52  C   UNL A   1      40.572  26.782  28.203  1.00  0.00     0.029 A 
ATOM     53  C   UNL A   1      41.561  26.893  29.270  1.00  0.00     0.049 A 
ATOM     54  H   UNL A   1      41.538  28.205  30.889  1.00  0.00     0.167 HD
ATOM     55  C   UNL A   1      41.427  31.081  34.177  1.00  0.00     0.031 A 
ATOM     56  C   UNL A   1      42.674  26.141  29.378  1.00  0.00     0.031 A 
ATOM     57  C   UNL A   1      42.591  30.271  34.422  1.00  0.00     0.049 A 
ATOM     58  C   UNL A   1      43.597  26.360  30.544  1.00  0.00     0.074 A 
ATOM     59  C   UNL A   1      43.473  30.333  35.486  1.00  0.00     0.029 A 
ATOM     60  N   UNL A   1      43.039  29.256  33.591  1.00  0.00    -0.354 N 
ATOM     61  N   UNL A   1      43.490  27.221  31.529  1.00  0.00    -0.248 NA
ATOM     62  C   UNL A   1      44.785  25.499  30.621  1.00  0.00     0.031 C 
ATOM     63  C   UNL A   1      44.485  29.393  35.271  1.00  0.00     0.029 A 
ATOM     64  C   UNL A   1      44.200  28.701  34.105  1.00  0.00     0.049 A 
ATOM     65  H   UNL A   1      42.599  28.971  32.757  1.00  0.00     0.167 HD
ATOM     66  C   UNL A   1      44.581  26.985  32.357  1.00  0.00     0.074 A 
ATOM     67  C   UNL A   1      45.327  25.891  31.766  1.00  0.00     0.031 C 
ATOM     68  C   UNL A   1      44.935  27.615  33.505  1.00  0.00     0.031 A 
BRANCH  55  69
ATOM     69  C   UNL A   1      41.118  32.199  35.141  1.00  0.00    -0.014 A 
ATOM     70  C   UNL A   1      41.623  33.496  34.937  1.00  0.00     0.010 A 
ATOM     71  C   UNL A   1      40.273  31.960  36.241  1.00  0.00     0.010 A 
ATOM     72  C   UNL A   1      41.326  34.522  35.837  1.00  0.00     0.020 A 
ATOM     73  C   UNL A   1      39.948  32.993  37.127  1.00  0.00     0.020 A 
ATOM     74  C   UNL A   1      40.492  34.263  36.928  1.00  0.00     0.054 A 
BRANCH  74  75
ATOM     75  S   UNL A   1      40.102  35.622  38.065  1.00  0.00     0.124 S 
ATOM     76  O   UNL A   1      39.928  36.743  37.146  1.00  0.00    -0.237 OA
ATOM     77  O   UNL A   1      38.883  35.152  38.719  1.00  0.00    -0.237 OA
ATOM     78  O   UNL A   1      41.278  35.701  38.928  1.00  0.00    -0.744 OA
ENDBRANCH  74  75
ENDBRANCH  55  69
BRANCH  56  79
ATOM     79  C   UNL A   1      42.969  25.100  28.354  1.00  0.00    -0.014 A 
ATOM     80  C   UNL A   1      42.553  23.771  28.548  1.00  0.00     0.010 A 
ATOM     81  C   UNL A   1      43.655  25.437  27.173  1.00  0.00     0.010 A 
ATOM     82  C   UNL A   1      42.836  22.793  27.589  1.00  0.00     0.020 A 
ATOM     83  C   UNL A   1      43.913  24.468  26.199  1.00  0.00     0.020 A 
ATOM     84  C   UNL A   1      43.512  23.150  26.418  1.00  0.00     0.054 A 
BRANCH  84  85
ATOM     85  S   UNL A   1      43.821  21.876  25.163  1.00  0.00     0.124 S 
ATOM     86  O   UNL A   1      42.711  20.956  25.385  1.00  0.00    -0.237 OA
ATOM     87  O   UNL A   1      43.770  22.641  23.920  1.00  0.00    -0.237 OA
ATOM     88  O   UNL A   1      45.142  21.363  25.516  1.00  0.00    -0.744 OA
ENDBRANCH  84  85
ENDBRANCH  56  79
BRANCH  68  89
ATOM     89  C   UNL A   1      46.164  27.119  34.219  1.00  0.00    -0.014 A 
ATOM     90  C   UNL A   1      46.089  26.091  35.175  1.00  0.00     0.010 A 
ATOM     91  C   UNL A   1      47.421  27.658  33.889  1.00  0.00     0.010 A 
ATOM     92  C   UNL A   1      47.245  25.637  35.815  1.00  0.00     0.020 A 
ATOM     93  C   UNL A   1      48.583  27.185  34.504  1.00  0.00     0.020 A 
ATOM     94  C   UNL A   1      48.486  26.188  35.476  1.00  0.00     0.054 A 
BRANCH  94  95
ATOM     95  S   UNL A   1      49.976  25.552  36.292  1.00  0.00     0.124 S 
ATOM     96  O   UNL A   1      50.337  26.662  37.170  1.00  0.00    -0.237 OA
ATOM     97  O   UNL A   1      49.487  24.352  36.964  1.00  0.00    -0.237 OA
ATOM     98  O   UNL A   1      50.900  25.307  35.186  1.00  0.00    -0.744 OA
ENDBRANCH  94  95
ENDBRANCH  68  89
ENDBRANCH  42  43
ENDBRANCH  34  37
ENDBRANCH  32  33
ENDBRANCH  31  32
ENDBRANCH   1  31
TORSDOF 18
ENDMDL
MODEL 2
REMARK VINA RESULT:     -10.8      4.989      6.431
REMARK SMILES O=C(C[C@@H](NC(=O)c1cc(-c2ccc(F)cc2)on1)c1cccc(Br)c1)NCCCNC(=O)c1ccc(-c2c3nc(c(-c4ccc(S(=O)(=O)[O-])cc4)c4ccc([nH]4)c(-c4ccc(S(=O)(=O)[O-])cc4)c4nc(c(-c5ccc(S(=O)(=O)[O-])cc5)c5ccc2[nH]5)C=C4)C=C3)cc1
REMARK SMILES IDX 28 1 27 2 1 3 2 4 3 6 4 7 5 8 6 9 7 11 8 12 9 13 19 14 10 15
REMARK SMILES IDX 18 16 11 17 12 18 17 19 13 20 16 21 14 22 15 23 20 24 21 25
REMARK SMILES IDX 26 26 22 27 24 28 23 29 25 30 29 31 30 32 31 33 32 34 33 36
REMARK SMILES IDX 34 37 35 38 93 39 36 40 92 41 37 42 38 43 39 44 86 45 40 46
REMARK SMILES IDX 91 47 85 48 87 49 41 50 90 51 84 52 83 53 42 55 72 56 53 57
REMARK SMILES IDX 71 58 54 59 57 60 70 61 88 62 55 63 56 64 69 66 89 67 58 68
REMARK SMILES IDX 43 69 44 70 52 71 45 72 51 73 46 74 47 75 48 76 49 77 50 78
REMARK SMILES IDX 73 79 74 80 82 81 75 82 81 83 76 84 77 85 78 86 79 87 80 88
REMARK SMILES IDX 59 89 60 90 68 91 61 92 67 93 62 94 63 95 64 96 65 97 66 98
REMARK H PARENT 27 5 5 10 31 35 87 54 57 65
REMARK Flexibility Score: inf
ROOT
ATOM      1  C   UNL A   1      33.312  30.095  27.259  1.00  0.00     0.117 C 
ENDROOT
BRANCH   1   2
ATOM      2  N   UNL A   1      32.782  29.145  26.302  1.00  0.00    -0.356 N 
ATOM      3  O   UNL A   1      31.526  27.922  27.786  1.00  0.00    -0.275 OA
ATOM      4  C   UNL A   1      31.994  28.083  26.672  1.00  0.00     0.222 C 
ATOM      5  H   UNL A   1      32.995  29.266  25.348  1.00  0.00     0.163 HD
BRANCH   4   6
ATOM      6  C   UNL A   1      31.778  27.097  25.553  1.00  0.00     0.129 C 
BRANCH   6   7
ATOM      7  C   UNL A   1      32.200  25.664  25.927  1.00  0.00     0.122 C 
BRANCH   7   8
ATOM      8  N   UNL A   1      31.063  24.904  26.479  1.00  0.00    -0.343 N 
ATOM      9  C   UNL A   1      30.852  23.602  26.877  1.00  0.00     0.273 C 
ATOM     10  H   UNL A   1      30.261  25.462  26.590  1.00  0.00     0.164 HD
ATOM     11  O   UNL A   1      29.783  23.358  27.437  1.00  0.00    -0.267 OA
BRANCH   9  12
ATOM     12  C   UNL A   1      31.856  22.576  26.651  1.00  0.00     0.171 A 
ATOM     13  C   UNL A   1      31.898  21.619  25.610  1.00  0.00     0.088 A 
ATOM     14  N   UNL A   1      32.906  22.431  27.477  1.00  0.00    -0.074 NA
ATOM     15  C   UNL A   1      32.911  20.763  25.974  1.00  0.00     0.167 A 
ATOM     16  O   UNL A   1      33.548  21.273  27.065  1.00  0.00    -0.355 OA
BRANCH  15  17
ATOM     17  C   UNL A   1      33.297  19.430  25.534  1.00  0.00     0.020 A 
ATOM     18  C   UNL A   1      34.392  19.264  24.670  1.00  0.00     0.015 A 
ATOM     19  C   UNL A   1      32.483  18.318  25.811  1.00  0.00     0.015 A 
ATOM     20  C   UNL A   1      34.624  18.039  24.043  1.00  0.00     0.040 A 
ATOM     21  C   UNL A   1      32.702  17.098  25.166  1.00  0.00     0.040 A 
ATOM     22  C   UNL A   1      33.760  16.976  24.276  1.00  0.00     0.123 A 
ATOM     23  F   UNL A   1      33.940  15.824  23.617  1.00  0.00    -0.207 F 
ENDBRANCH  15  17
ENDBRANCH   9  12
ENDBRANCH   7   8
BRANCH   7  24
ATOM     24  C   UNL A   1      32.868  25.086  24.698  1.00  0.00    -0.024 A 
ATOM     25  C   UNL A   1      32.164  25.036  23.483  1.00  0.00     0.006 A 
ATOM     26  C   UNL A   1      34.151  24.515  24.762  1.00  0.00     0.021 A 
ATOM     27  C   UNL A   1      32.730  24.437  22.359  1.00  0.00     0.002 A 
ATOM     28  C   UNL A   1      34.711  23.920  23.634  1.00  0.00     0.018 A 
ATOM     29  C   UNL A   1      34.002  23.870  22.438  1.00  0.00     0.016 A 
ATOM     30  Br  UNL A   1      36.452  23.193  23.726  1.00  0.00    -0.051 Br
ENDBRANCH   7  24
ENDBRANCH   6   7
ENDBRANCH   4   6
ENDBRANCH   1   2
BRANCH   1  31
ATOM     31  C   UNL A   1      34.716  29.696  27.702  1.00  0.00     0.042 C 
BRANCH  31  32
ATOM     32  C   UNL A   1      35.523  30.826  28.337  1.00  0.00     0.118 C 
BRANCH  32  33
ATOM     33  N   UNL A   1      35.419  30.854  29.786  1.00  0.00    -0.352 N 
ATOM     34  C   UNL A   1      36.374  30.569  30.732  1.00  0.00     0.251 C 
ATOM     35  H   UNL A   1      34.538  31.116  30.141  1.00  0.00     0.163 HD
ATOM     36  O   UNL A   1      36.054  30.478  31.912  1.00  0.00    -0.269 OA
BRANCH  34  37
ATOM     37  C   UNL A   1      37.773  30.337  30.316  1.00  0.00     0.039 A 
ATOM     38  C   UNL A   1      38.681  29.851  31.259  1.00  0.00     0.014 A 
ATOM     39  C   UNL A   1      38.185  30.582  29.002  1.00  0.00     0.014 A 
ATOM     40  C   UNL A   1      39.985  29.545  30.866  1.00  0.00     0.010 A 
ATOM     41  C   UNL A   1      39.462  30.206  28.596  1.00  0.00     0.010 A 
ATOM     42  C   UNL A   1      40.376  29.681  29.523  1.00  0.00    -0.014 A 
BRANCH  42  43
ATOM     43  C   UNL A   1      41.726  29.256  29.073  1.00  0.00     0.031 A 
ATOM     44  C   UNL A   1      42.859  30.246  29.018  1.00  0.00     0.074 A 
ATOM     45  C   UNL A   1      41.918  27.987  28.657  1.00  0.00     0.049 A 
ATOM     46  N   UNL A   1      44.092  30.063  28.619  1.00  0.00    -0.248 NA
ATOM     47  C   UNL A   1      42.564  31.622  29.445  1.00  0.00     0.031 C 
ATOM     48  C   UNL A   1      40.889  26.944  28.617  1.00  0.00     0.029 A 
ATOM     49  N   UNL A   1      43.043  27.360  28.183  1.00  0.00    -0.354 N 
ATOM     50  C   UNL A   1      44.715  31.300  28.735  1.00  0.00     0.074 A 
ATOM     51  C   UNL A   1      43.712  32.236  29.192  1.00  0.00     0.031 C 
ATOM     52  C   UNL A   1      41.438  25.801  28.176  1.00  0.00     0.029 A 
ATOM     53  C   UNL A   1      42.843  26.038  27.860  1.00  0.00     0.049 A 
ATOM     54  H   UNL A   1      43.911  27.813  28.084  1.00  0.00     0.167 HD
ATOM     55  C   UNL A   1      46.009  31.624  28.500  1.00  0.00     0.031 A 
ATOM     56  C   UNL A   1      43.692  25.118  27.361  1.00  0.00     0.031 A 
ATOM     57  C   UNL A   1      47.006  30.689  28.050  1.00  0.00     0.049 A 
ATOM     58  C   UNL A   1      45.120  25.505  27.097  1.00  0.00     0.074 A 
ATOM     59  C   UNL A   1      48.356  30.909  27.836  1.00  0.00     0.029 A 
ATOM     60  N   UNL A   1      46.765  29.360  27.739  1.00  0.00    -0.354 N 
ATOM     61  N   UNL A   1      45.707  26.665  27.280  1.00  0.00    -0.248 NA
ATOM     62  C   UNL A   1      46.005  24.457  26.572  1.00  0.00     0.031 C 
ATOM     63  C   UNL A   1      48.919  29.728  27.343  1.00  0.00     0.029 A 
ATOM     64  C   UNL A   1      47.935  28.754  27.310  1.00  0.00     0.049 A 
ATOM     65  H   UNL A   1      45.891  28.912  27.811  1.00  0.00     0.167 HD
ATOM     66  C   UNL A   1      47.036  26.477  26.918  1.00  0.00     0.074 A 
ATOM     67  C   UNL A   1      47.170  25.089  26.521  1.00  0.00     0.031 C 
ATOM     68  C   UNL A   1      48.054  27.372  26.915  1.00  0.00     0.031 A 
BRANCH  55  69
ATOM     69  C   UNL A   1      46.419  33.058  28.720  1.00  0.00    -0.014 A 
ATOM     70  C   UNL A   1      46.967  33.478  29.946  1.00  0.00     0.010 A 
ATOM     71  C   UNL A   1      46.298  33.989  27.672  1.00  0.00     0.010 A 
ATOM     72  C   UNL A   1      47.345  34.809  30.135  1.00  0.00     0.020 A 
ATOM     73  C   UNL A   1      46.704  35.316  27.847  1.00  0.00     0.020 A 
ATOM     74  C   UNL A   1      47.209  35.720  29.084  1.00  0.00     0.054 A 
BRANCH  74  75
ATOM     75  S   UNL A   1      47.733  37.437  29.350  1.00  0.00     0.124 S 
ATOM     76  O   UNL A   1      47.420  38.049  28.061  1.00  0.00    -0.237 OA
ATOM     77  O   UNL A   1      46.891  37.860  30.466  1.00  0.00    -0.237 OA
ATOM     78  O   UNL A   1      49.157  37.323  29.655  1.00  0.00    -0.744 OA
ENDBRANCH  74  75
ENDBRANCH  55  69
BRANCH  56  79
ATOM     79  C   UNL A   1      43.212  23.734  27.092  1.00  0.00    -0.014 A 
ATOM     80  C   UNL A   1      43.326  22.734  28.074  1.00  0.00     0.010 A 
ATOM     81  C   UNL A   1      42.625  23.413  25.854  1.00  0.00     0.010 A 
ATOM     82  C   UNL A   1      42.881  21.434  27.816  1.00  0.00     0.020 A 
ATOM     83  C   UNL A   1      42.151  22.121  25.604  1.00  0.00     0.020 A 
ATOM     84  C   UNL A   1      42.293  21.137  26.583  1.00  0.00     0.054 A 
BRANCH  84  85
ATOM     85  S   UNL A   1      41.673  19.457  26.290  1.00  0.00     0.124 S 
ATOM     86  O   UNL A   1      40.258  19.697  26.031  1.00  0.00    -0.237 OA
ATOM     87  O   UNL A   1      42.463  19.027  25.139  1.00  0.00    -0.237 OA
ATOM     88  O   UNL A   1      41.974  18.760  27.538  1.00  0.00    -0.744 OA
ENDBRANCH  84  85
ENDBRANCH  56  79
BRANCH  68  89
ATOM     89  C   UNL A   1      49.414  26.875  26.502  1.00  0.00    -0.014 A 
ATOM     90  C   UNL A   1      50.270  26.239  27.419  1.00  0.00     0.010 A 
ATOM     91  C   UNL A   1      49.820  27.002  25.160  1.00  0.00     0.010 A 
ATOM     92  C   UNL A   1      51.522  25.773  27.010  1.00  0.00     0.020 A 
ATOM     93  C   UNL A   1      51.058  26.509  24.741  1.00  0.00     0.020 A 
ATOM     94  C   UNL A   1      51.908  25.911  25.672  1.00  0.00     0.054 A 
BRANCH  94  95
ATOM     95  S   UNL A   1      53.522  25.261  25.158  1.00  0.00     0.124 S 
ATOM     96  O   UNL A   1      53.343  23.824  25.346  1.00  0.00    -0.237 OA
ATOM     97  O   UNL A   1      53.619  25.706  23.770  1.00  0.00    -0.237 OA
ATOM     98  O   UNL A   1      54.462  25.897  26.078  1.00  0.00    -0.744 OA
ENDBRANCH  94  95
ENDBRANCH  68  89
ENDBRANCH  42  43
ENDBRANCH  34  37
ENDBRANCH  32  33
ENDBRANCH  31  32
ENDBRANCH   1  31
TORSDOF 18
ENDMDL
MODEL 3
REMARK VINA RESULT:     -10.7      2.687      8.730
REMARK SMILES O=C(C[C@@H](NC(=O)c1cc(-c2ccc(F)cc2)on1)c1cccc(Br)c1)NCCCNC(=O)c1ccc(-c2c3nc(c(-c4ccc(S(=O)(=O)[O-])cc4)c4ccc([nH]4)c(-c4ccc(S(=O)(=O)[O-])cc4)c4nc(c(-c5ccc(S(=O)(=O)[O-])cc5)c5ccc2[nH]5)C=C4)C=C3)cc1
REMARK SMILES IDX 28 1 27 2 1 3 2 4 3 6 4 7 5 8 6 9 7 11 8 12 9 13 19 14 10 15
REMARK SMILES IDX 18 16 11 17 12 18 17 19 13 20 16 21 14 22 15 23 20 24 21 25
REMARK SMILES IDX 26 26 22 27 24 28 23 29 25 30 29 31 30 32 31 33 32 34 33 36
REMARK SMILES IDX 34 37 35 38 93 39 36 40 92 41 37 42 38 43 39 44 86 45 40 46
REMARK SMILES IDX 91 47 85 48 87 49 41 50 90 51 84 52 83 53 42 55 72 56 53 57
REMARK SMILES IDX 71 58 54 59 57 60 70 61 88 62 55 63 56 64 69 66 89 67 58 68
REMARK SMILES IDX 43 69 44 70 52 71 45 72 51 73 46 74 47 75 48 76 49 77 50 78
REMARK SMILES IDX 73 79 74 80 82 81 75 82 81 83 76 84 77 85 78 86 79 87 80 88
REMARK SMILES IDX 59 89 60 90 68 91 61 92 67 93 62 94 63 95 64 96 65 97 66 98
REMARK H PARENT 27 5 5 10 31 35 87 54 57 65
REMARK Flexibility Score: inf
ROOT
ATOM      1  C   UNL A   1      32.610  30.230  27.409  1.00  0.00     0.117 C 
ENDROOT
BRANCH   1   2
ATOM      2  N   UNL A   1      32.233  29.203  26.459  1.00  0.00    -0.356 N 
ATOM      3  O   UNL A   1      31.094  27.859  27.932  1.00  0.00    -0.275 OA
ATOM      4  C   UNL A   1      31.573  28.057  26.829  1.00  0.00     0.222 C 
ATOM      5  H   UNL A   1      32.460  29.333  25.509  1.00  0.00     0.163 HD
BRANCH   4   6
ATOM      6  C   UNL A   1      31.519  27.031  25.726  1.00  0.00     0.129 C 
BRANCH   6   7
ATOM      7  C   UNL A   1      32.105  25.670  26.144  1.00  0.00     0.122 C 
BRANCH   7   8
ATOM      8  N   UNL A   1      31.054  24.781  26.673  1.00  0.00    -0.343 N 
ATOM      9  C   UNL A   1      30.927  23.425  26.882  1.00  0.00     0.273 C 
ATOM     10  H   UNL A   1      30.248  25.276  26.943  1.00  0.00     0.164 HD
ATOM     11  O   UNL A   1      29.928  23.047  27.494  1.00  0.00    -0.267 OA
BRANCH   9  12
ATOM     12  C   UNL A   1      31.938  22.495  26.408  1.00  0.00     0.171 A 
ATOM     13  C   UNL A   1      31.983  21.823  25.164  1.00  0.00     0.088 A 
ATOM     14  N   UNL A   1      32.993  22.161  27.170  1.00  0.00    -0.074 NA
ATOM     15  C   UNL A   1      33.005  20.913  25.304  1.00  0.00     0.167 A 
ATOM     16  O   UNL A   1      33.643  21.146  26.485  1.00  0.00    -0.355 OA
BRANCH  15  17
ATOM     17  C   UNL A   1      33.399  19.733  24.548  1.00  0.00     0.020 A 
ATOM     18  C   UNL A   1      32.483  19.112  23.685  1.00  0.00     0.015 A 
ATOM     19  C   UNL A   1      34.625  19.094  24.803  1.00  0.00     0.015 A 
ATOM     20  C   UNL A   1      32.753  17.851  23.149  1.00  0.00     0.040 A 
ATOM     21  C   UNL A   1      34.886  17.823  24.285  1.00  0.00     0.040 A 
ATOM     22  C   UNL A   1      33.941  17.208  23.476  1.00  0.00     0.123 A 
ATOM     23  F   UNL A   1      34.166  15.969  23.021  1.00  0.00    -0.207 F 
ENDBRANCH  15  17
ENDBRANCH   9  12
ENDBRANCH   7   8
BRANCH   7  24
ATOM     24  C   UNL A   1      32.884  25.161  24.950  1.00  0.00    -0.024 A 
ATOM     25  C   UNL A   1      32.278  25.137  23.683  1.00  0.00     0.006 A 
ATOM     26  C   UNL A   1      34.177  24.628  25.094  1.00  0.00     0.021 A 
ATOM     27  C   UNL A   1      32.948  24.600  22.585  1.00  0.00     0.002 A 
ATOM     28  C   UNL A   1      34.841  24.095  23.991  1.00  0.00     0.018 A 
ATOM     29  C   UNL A   1      34.228  24.070  22.742  1.00  0.00     0.016 A 
ATOM     30  Br  UNL A   1      36.594  23.418  24.192  1.00  0.00    -0.051 Br
ENDBRANCH   7  24
ENDBRANCH   6   7
ENDBRANCH   4   6
ENDBRANCH   1   2
BRANCH   1  31
ATOM     31  C   UNL A   1      32.116  31.600  26.956  1.00  0.00     0.042 C 
BRANCH  31  32
ATOM     32  C   UNL A   1      33.189  32.686  26.946  1.00  0.00     0.118 C 
BRANCH  32  33
ATOM     33  N   UNL A   1      32.799  33.878  27.680  1.00  0.00    -0.352 N 
ATOM     34  C   UNL A   1      33.303  34.377  28.856  1.00  0.00     0.251 C 
ATOM     35  H   UNL A   1      32.069  34.402  27.277  1.00  0.00     0.163 HD
ATOM     36  O   UNL A   1      32.731  35.303  29.419  1.00  0.00    -0.269 OA
BRANCH  34  37
ATOM     37  C   UNL A   1      34.512  33.771  29.453  1.00  0.00     0.039 A 
ATOM     38  C   UNL A   1      35.762  34.291  29.111  1.00  0.00     0.014 A 
ATOM     39  C   UNL A   1      34.414  32.707  30.356  1.00  0.00     0.014 A 
ATOM     40  C   UNL A   1      36.909  33.790  29.727  1.00  0.00     0.010 A 
ATOM     41  C   UNL A   1      35.551  32.260  31.024  1.00  0.00     0.010 A 
ATOM     42  C   UNL A   1      36.811  32.799  30.720  1.00  0.00    -0.014 A 
BRANCH  42  43
ATOM     43  C   UNL A   1      38.013  32.335  31.459  1.00  0.00     0.031 A 
ATOM     44  C   UNL A   1      38.867  31.225  30.909  1.00  0.00     0.074 A 
ATOM     45  C   UNL A   1      38.302  32.878  32.660  1.00  0.00     0.049 A 
ATOM     46  N   UNL A   1      39.929  30.668  31.432  1.00  0.00    -0.248 NA
ATOM     47  C   UNL A   1      38.464  30.651  29.616  1.00  0.00     0.031 C 
ATOM     48  C   UNL A   1      37.527  33.930  33.324  1.00  0.00     0.029 A 
ATOM     49  N   UNL A   1      39.326  32.618  33.537  1.00  0.00    -0.354 N 
ATOM     50  C   UNL A   1      40.313  29.673  30.541  1.00  0.00     0.074 A 
ATOM     51  C   UNL A   1      39.341  29.668  29.470  1.00  0.00     0.031 C 
ATOM     52  C   UNL A   1      38.119  34.246  34.486  1.00  0.00     0.029 A 
ATOM     53  C   UNL A   1      39.289  33.393  34.673  1.00  0.00     0.049 A 
ATOM     54  H   UNL A   1      40.019  31.941  33.369  1.00  0.00     0.167 HD
ATOM     55  C   UNL A   1      41.388  28.850  30.599  1.00  0.00     0.031 A 
ATOM     56  C   UNL A   1      40.101  33.414  35.748  1.00  0.00     0.031 A 
ATOM     57  C   UNL A   1      42.356  28.861  31.664  1.00  0.00     0.049 A 
ATOM     58  C   UNL A   1      41.280  32.483  35.794  1.00  0.00     0.074 A 
ATOM     59  C   UNL A   1      43.509  28.104  31.785  1.00  0.00     0.029 A 
ATOM     60  N   UNL A   1      42.286  29.663  32.792  1.00  0.00    -0.354 N 
ATOM     61  N   UNL A   1      41.665  31.596  34.907  1.00  0.00    -0.248 NA
ATOM     62  C   UNL A   1      42.142  32.563  36.982  1.00  0.00     0.031 C 
ATOM     63  C   UNL A   1      44.106  28.408  33.012  1.00  0.00     0.029 A 
ATOM     64  C   UNL A   1      43.360  29.401  33.627  1.00  0.00     0.049 A 
ATOM     65  H   UNL A   1      41.577  30.321  32.974  1.00  0.00     0.167 HD
ATOM     66  C   UNL A   1      42.830  31.033  35.417  1.00  0.00     0.074 A 
ATOM     67  C   UNL A   1      43.094  31.690  36.681  1.00  0.00     0.031 C 
ATOM     68  C   UNL A   1      43.610  30.060  34.885  1.00  0.00     0.031 A 
BRANCH  55  69
ATOM     69  C   UNL A   1      41.568  27.860  29.477  1.00  0.00    -0.014 A 
ATOM     70  C   UNL A   1      40.722  26.743  29.348  1.00  0.00     0.010 A 
ATOM     71  C   UNL A   1      42.571  28.073  28.512  1.00  0.00     0.010 A 
ATOM     72  C   UNL A   1      40.901  25.836  28.301  1.00  0.00     0.020 A 
ATOM     73  C   UNL A   1      42.732  27.183  27.445  1.00  0.00     0.020 A 
ATOM     74  C   UNL A   1      41.906  26.061  27.357  1.00  0.00     0.054 A 
BRANCH  74  75
ATOM     75  S   UNL A   1      42.098  24.879  25.993  1.00  0.00     0.124 S 
ATOM     76  O   UNL A   1      42.277  25.769  24.849  1.00  0.00    -0.237 OA
ATOM     77  O   UNL A   1      43.282  24.122  26.390  1.00  0.00    -0.237 OA
ATOM     78  O   UNL A   1      40.846  24.127  26.007  1.00  0.00    -0.744 OA
ENDBRANCH  74  75
ENDBRANCH  55  69
BRANCH  56  79
ATOM     79  C   UNL A   1      39.831  34.363  36.864  1.00  0.00    -0.014 A 
ATOM     80  C   UNL A   1      40.217  35.711  36.764  1.00  0.00     0.010 A 
ATOM     81  C   UNL A   1      39.174  33.924  38.028  1.00  0.00     0.010 A 
ATOM     82  C   UNL A   1      39.968  36.599  37.815  1.00  0.00     0.020 A 
ATOM     83  C   UNL A   1      38.896  34.816  39.069  1.00  0.00     0.020 A 
ATOM     84  C   UNL A   1      39.306  36.146  38.960  1.00  0.00     0.054 A 
BRANCH  84  85
ATOM     85  S   UNL A   1      38.946  37.327  40.290  1.00  0.00     0.124 S 
ATOM     86  O   UNL A   1      38.154  36.516  41.208  1.00  0.00    -0.237 OA
ATOM     87  O   UNL A   1      40.281  37.690  40.757  1.00  0.00    -0.237 OA
ATOM     88  O   UNL A   1      38.220  38.396  39.609  1.00  0.00    -0.744 OA
ENDBRANCH  84  85
ENDBRANCH  56  79
BRANCH  68  89
ATOM     89  C   UNL A   1      44.846  29.667  35.651  1.00  0.00    -0.014 A 
ATOM     90  C   UNL A   1      44.823  28.621  36.590  1.00  0.00     0.010 A 
ATOM     91  C   UNL A   1      46.062  30.324  35.386  1.00  0.00     0.010 A 
ATOM     92  C   UNL A   1      45.985  28.264  37.278  1.00  0.00     0.020 A 
ATOM     93  C   UNL A   1      47.233  29.950  36.050  1.00  0.00     0.020 A 
ATOM     94  C   UNL A   1      47.184  28.932  37.004  1.00  0.00     0.054 A 
BRANCH  94  95
ATOM     95  S   UNL A   1      48.688  28.422  37.881  1.00  0.00     0.124 S 
ATOM     96  O   UNL A   1      48.772  27.004  37.541  1.00  0.00    -0.237 OA
ATOM     97  O   UNL A   1      49.712  29.274  37.282  1.00  0.00    -0.237 OA
ATOM     98  O   UNL A   1      48.387  28.711  39.282  1.00  0.00    -0.744 OA
ENDBRANCH  94  95
ENDBRANCH  68  89
ENDBRANCH  42  43
ENDBRANCH  34  37
ENDBRANCH  32  33
ENDBRANCH  31  32
ENDBRANCH   1  31
TORSDOF 18
ENDMDL
