MODEL 1
REMARK VINA RESULT:     -11.1      0.000      0.000
REMARK SMILES O=C(CCS[C@H]1CC(=O)c2ccccc2C1=O)NCCCNC(=O)c1ccc(-c2c3nc(c(-c4ccc(S(=O)(=O)[O-])cc4)c4ccc([nH]4)c(-c4ccc(S(=O)(=O)[O-])cc4)c4nc(c(-c5ccc(S(=O)(=O)[O-])cc5)c5ccc2[nH]5)C=C4)C=C3)cc1
REMARK SMILES IDX 20 1 19 2 18 3 1 4 2 5 3 7 4 8 5 9 6 10 7 11 16 12 8 13
REMARK SMILES IDX 15 14 17 15 9 16 10 17 14 18 11 19 13 20 12 21 21 22 22 23
REMARK SMILES IDX 23 24 24 26 25 27 26 28 84 29 27 30 83 31 28 32 29 33 30 34
REMARK SMILES IDX 77 35 31 36 82 37 76 38 78 39 32 40 81 41 75 42 74 43 33 45
REMARK SMILES IDX 63 46 44 47 62 48 45 49 48 50 61 51 79 52 46 53 47 54 60 56
REMARK SMILES IDX 80 57 49 58 34 59 35 60 43 61 36 62 42 63 37 64 38 65 39 66
REMARK SMILES IDX 40 67 41 68 64 69 65 70 73 71 66 72 72 73 67 74 68 75 69 76
REMARK SMILES IDX 70 77 71 78 50 79 51 80 59 81 52 82 58 83 53 84 54 85 55 86
REMARK SMILES IDX 56 87 57 88
REMARK H PARENT 18 6 22 25 78 44 48 55
REMARK Flexibility Score: inf
ROOT
ATOM      1  C   UNL A   1      33.341  29.034  25.924  1.00  0.00     0.042 C 
ENDROOT
BRANCH   1   2
ATOM      2  C   UNL A   1      32.370  28.557  24.825  1.00  0.00     0.117 C 
BRANCH   2   3
ATOM      3  N   UNL A   1      31.398  27.544  25.205  1.00  0.00    -0.356 N 
ATOM      4  O   UNL A   1      31.249  26.653  23.090  1.00  0.00    -0.275 OA
ATOM      5  C   UNL A   1      30.924  26.634  24.276  1.00  0.00     0.220 C 
ATOM      6  H   UNL A   1      31.074  27.505  26.133  1.00  0.00     0.163 HD
BRANCH   5   7
ATOM      7  C   UNL A   1      29.914  25.619  24.788  1.00  0.00     0.111 C 
BRANCH   7   8
ATOM      8  C   UNL A   1      30.404  24.719  25.913  1.00  0.00     0.080 C 
BRANCH   8   9
ATOM      9  S   UNL A   1      32.058  23.992  25.676  1.00  0.00    -0.149 SA
BRANCH   9  10
ATOM     10  C   UNL A   1      31.736  22.701  24.392  1.00  0.00     0.126 C 
ATOM     11  C   UNL A   1      32.122  23.250  23.024  1.00  0.00     0.104 C 
ATOM     12  C   UNL A   1      32.541  21.442  24.653  1.00  0.00     0.176 C 
ATOM     13  C   UNL A   1      33.601  23.539  22.965  1.00  0.00     0.165 C 
ATOM     14  C   UNL A   1      33.999  21.531  24.424  1.00  0.00     0.030 A 
ATOM     15  O   UNL A   1      32.043  20.416  25.095  1.00  0.00    -0.293 OA
ATOM     16  O   UNL A   1      34.054  24.491  22.348  1.00  0.00    -0.294 OA
ATOM     17  C   UNL A   1      34.496  22.585  23.667  1.00  0.00     0.028 A 
ATOM     18  C   UNL A   1      34.869  20.639  25.066  1.00  0.00     0.012 A 
ATOM     19  C   UNL A   1      35.865  22.785  23.611  1.00  0.00     0.012 A 
ATOM     20  C   UNL A   1      36.245  20.848  25.000  1.00  0.00     0.001 A 
ATOM     21  C   UNL A   1      36.738  21.936  24.292  1.00  0.00     0.001 A 
ENDBRANCH   9  10
ENDBRANCH   8   9
ENDBRANCH   7   8
ENDBRANCH   5   7
ENDBRANCH   2   3
ENDBRANCH   1   2
BRANCH   1  22
ATOM     22  C   UNL A   1      32.967  30.347  26.629  1.00  0.00     0.118 C 
BRANCH  22  23
ATOM     23  N   UNL A   1      33.479  30.431  28.014  1.00  0.00    -0.352 N 
ATOM     24  C   UNL A   1      34.580  31.177  28.413  1.00  0.00     0.251 C 
ATOM     25  H   UNL A   1      33.002  29.918  28.706  1.00  0.00     0.163 HD
ATOM     26  O   UNL A   1      34.444  32.308  28.867  1.00  0.00    -0.269 OA
BRANCH  24  27
ATOM     27  C   UNL A   1      35.902  30.500  28.519  1.00  0.00     0.039 A 
ATOM     28  C   UNL A   1      36.205  29.695  29.606  1.00  0.00     0.014 A 
ATOM     29  C   UNL A   1      36.816  30.527  27.472  1.00  0.00     0.014 A 
ATOM     30  C   UNL A   1      37.513  29.226  29.810  1.00  0.00     0.010 A 
ATOM     31  C   UNL A   1      38.057  29.858  27.591  1.00  0.00     0.010 A 
ATOM     32  C   UNL A   1      38.489  29.289  28.807  1.00  0.00    -0.014 A 
BRANCH  32  33
ATOM     33  C   UNL A   1      39.924  28.829  29.022  1.00  0.00     0.031 A 
ATOM     34  C   UNL A   1      40.923  29.740  29.735  1.00  0.00     0.074 A 
ATOM     35  C   UNL A   1      40.384  27.606  28.648  1.00  0.00     0.049 A 
ATOM     36  N   UNL A   1      42.230  29.644  29.819  1.00  0.00    -0.248 NA
ATOM     37  C   UNL A   1      40.385  30.925  30.425  1.00  0.00     0.031 C 
ATOM     38  C   UNL A   1      39.598  26.544  28.020  1.00  0.00     0.029 A 
ATOM     39  N   UNL A   1      41.640  27.032  28.767  1.00  0.00    -0.354 N 
ATOM     40  C   UNL A   1      42.664  30.789  30.487  1.00  0.00     0.074 A 
ATOM     41  C   UNL A   1      41.487  31.578  30.765  1.00  0.00     0.031 C 
ATOM     42  C   UNL A   1      40.345  25.437  27.903  1.00  0.00     0.029 A 
ATOM     43  C   UNL A   1      41.716  25.736  28.296  1.00  0.00     0.049 A 
ATOM     44  H   UNL A   1      42.411  27.508  29.154  1.00  0.00     0.167 HD
ATOM     45  C   UNL A   1      43.917  31.153  30.859  1.00  0.00     0.031 A 
ATOM     46  C   UNL A   1      42.753  24.882  28.133  1.00  0.00     0.031 A 
ATOM     47  C   UNL A   1      45.090  30.333  30.685  1.00  0.00     0.049 A 
ATOM     48  C   UNL A   1      44.148  25.322  28.490  1.00  0.00     0.074 A 
ATOM     49  C   UNL A   1      46.393  30.623  31.053  1.00  0.00     0.029 A 
ATOM     50  N   UNL A   1      45.106  29.062  30.136  1.00  0.00    -0.354 N 
ATOM     51  N   UNL A   1      44.538  26.445  29.039  1.00  0.00    -0.248 NA
ATOM     52  C   UNL A   1      45.246  24.390  28.187  1.00  0.00     0.031 C 
ATOM     53  C   UNL A   1      47.208  29.561  30.662  1.00  0.00     0.029 A 
ATOM     54  C   UNL A   1      46.401  28.569  30.132  1.00  0.00     0.049 A 
ATOM     55  H   UNL A   1      44.316  28.580  29.801  1.00  0.00     0.167 HD
ATOM     56  C   UNL A   1      45.921  26.350  29.159  1.00  0.00     0.074 A 
ATOM     57  C   UNL A   1      46.301  25.050  28.651  1.00  0.00     0.031 C 
ATOM     58  C   UNL A   1      46.791  27.269  29.642  1.00  0.00     0.031 A 
BRANCH  45  59
ATOM     59  C   UNL A   1      44.120  32.507  31.502  1.00  0.00    -0.014 A 
ATOM     60  C   UNL A   1      44.050  32.622  32.905  1.00  0.00     0.010 A 
ATOM     61  C   UNL A   1      44.244  33.677  30.732  1.00  0.00     0.010 A 
ATOM     62  C   UNL A   1      44.060  33.876  33.522  1.00  0.00     0.020 A 
ATOM     63  C   UNL A   1      44.295  34.933  31.349  1.00  0.00     0.020 A 
ATOM     64  C   UNL A   1      44.175  35.026  32.738  1.00  0.00     0.054 A 
BRANCH  64  65
ATOM     65  S   UNL A   1      44.155  36.646  33.554  1.00  0.00     0.124 S 
ATOM     66  O   UNL A   1      44.714  37.517  32.526  1.00  0.00    -0.237 OA
ATOM     67  O   UNL A   1      42.735  36.839  33.844  1.00  0.00    -0.237 OA
ATOM     68  O   UNL A   1      44.999  36.446  34.731  1.00  0.00    -0.744 OA
ENDBRANCH  64  65
ENDBRANCH  45  59
BRANCH  46  69
ATOM     69  C   UNL A   1      42.504  23.518  27.568  1.00  0.00    -0.014 A 
ATOM     70  C   UNL A   1      42.189  22.437  28.415  1.00  0.00     0.010 A 
ATOM     71  C   UNL A   1      42.655  23.272  26.191  1.00  0.00     0.010 A 
ATOM     72  C   UNL A   1      42.126  21.132  27.917  1.00  0.00     0.020 A 
ATOM     73  C   UNL A   1      42.549  21.972  25.680  1.00  0.00     0.020 A 
ATOM     74  C   UNL A   1      42.327  20.906  26.555  1.00  0.00     0.054 A 
BRANCH  74  75
ATOM     75  S   UNL A   1      42.332  19.195  25.948  1.00  0.00     0.124 S 
ATOM     76  O   UNL A   1      40.919  18.987  25.639  1.00  0.00    -0.237 OA
ATOM     77  O   UNL A   1      43.223  19.268  24.794  1.00  0.00    -0.237 OA
ATOM     78  O   UNL A   1      42.842  18.429  27.081  1.00  0.00    -0.744 OA
ENDBRANCH  74  75
ENDBRANCH  46  69
BRANCH  58  79
ATOM     79  C   UNL A   1      48.261  26.933  29.676  1.00  0.00    -0.014 A 
ATOM     80  C   UNL A   1      48.814  26.338  30.827  1.00  0.00     0.010 A 
ATOM     81  C   UNL A   1      49.122  27.346  28.643  1.00  0.00     0.010 A 
ATOM     82  C   UNL A   1      50.198  26.210  30.969  1.00  0.00     0.020 A 
ATOM     83  C   UNL A   1      50.507  27.188  28.767  1.00  0.00     0.020 A 
ATOM     84  C   UNL A   1      51.037  26.650  29.942  1.00  0.00     0.054 A 
BRANCH  84  85
ATOM     85  S   UNL A   1      52.833  26.534  30.173  1.00  0.00     0.124 S 
ATOM     86  O   UNL A   1      52.941  25.568  31.261  1.00  0.00    -0.237 OA
ATOM     87  O   UNL A   1      53.293  26.066  28.866  1.00  0.00    -0.237 OA
ATOM     88  O   UNL A   1      53.226  27.900  30.510  1.00  0.00    -0.744 OA
ENDBRANCH  84  85
ENDBRANCH  58  79
ENDBRANCH  32  33
ENDBRANCH  24  27
ENDBRANCH  22  23
ENDBRANCH   1  22
TORSDOF 16
ENDMDL
MODEL 2
REMARK VINA RESULT:     -11.1      4.654     10.261
REMARK SMILES O=C(CCS[C@H]1CC(=O)c2ccccc2C1=O)NCCCNC(=O)c1ccc(-c2c3nc(c(-c4ccc(S(=O)(=O)[O-])cc4)c4ccc([nH]4)c(-c4ccc(S(=O)(=O)[O-])cc4)c4nc(c(-c5ccc(S(=O)(=O)[O-])cc5)c5ccc2[nH]5)C=C4)C=C3)cc1
REMARK SMILES IDX 20 1 19 2 18 3 1 4 2 5 3 7 4 8 5 9 6 10 7 11 16 12 8 13
REMARK SMILES IDX 15 14 17 15 9 16 10 17 14 18 11 19 13 20 12 21 21 22 22 23
REMARK SMILES IDX 23 24 24 26 25 27 26 28 84 29 27 30 83 31 28 32 29 33 30 34
REMARK SMILES IDX 77 35 31 36 82 37 76 38 78 39 32 40 81 41 75 42 74 43 33 45
REMARK SMILES IDX 63 46 44 47 62 48 45 49 48 50 61 51 79 52 46 53 47 54 60 56
REMARK SMILES IDX 80 57 49 58 34 59 35 60 43 61 36 62 42 63 37 64 38 65 39 66
REMARK SMILES IDX 40 67 41 68 64 69 65 70 73 71 66 72 72 73 67 74 68 75 69 76
REMARK SMILES IDX 70 77 71 78 50 79 51 80 59 81 52 82 58 83 53 84 54 85 55 86
REMARK SMILES IDX 56 87 57 88
REMARK H PARENT 18 6 22 25 78 44 48 55
REMARK Flexibility Score: inf
ROOT
ATOM      1  C   UNL A   1      40.574  21.850  27.135  1.00  0.00     0.042 C 
ENDROOT
BRANCH   1   2
ATOM      2  C   UNL A   1      39.451  21.367  26.195  1.00  0.00     0.117 C 
BRANCH   2   3
ATOM      3  N   UNL A   1      38.237  22.168  26.162  1.00  0.00    -0.356 N 
ATOM      4  O   UNL A   1      37.156  20.773  24.687  1.00  0.00    -0.275 OA
ATOM      5  C   UNL A   1      37.149  21.774  25.402  1.00  0.00     0.220 C 
ATOM      6  H   UNL A   1      38.189  23.000  26.686  1.00  0.00     0.163 HD
BRANCH   5   7
ATOM      7  C   UNL A   1      35.935  22.687  25.446  1.00  0.00     0.111 C 
BRANCH   7   8
ATOM      8  C   UNL A   1      35.841  23.707  24.320  1.00  0.00     0.080 C 
BRANCH   8   9
ATOM      9  S   UNL A   1      34.293  24.665  24.252  1.00  0.00    -0.149 SA
BRANCH   9  10
ATOM     10  C   UNL A   1      33.494  24.009  22.719  1.00  0.00     0.126 C 
ATOM     11  C   UNL A   1      32.419  23.003  23.108  1.00  0.00     0.104 C 
ATOM     12  C   UNL A   1      32.850  25.118  21.908  1.00  0.00     0.176 C 
ATOM     13  C   UNL A   1      31.323  23.674  23.896  1.00  0.00     0.165 C 
ATOM     14  C   UNL A   1      31.627  25.724  22.475  1.00  0.00     0.030 A 
ATOM     15  O   UNL A   1      33.335  25.550  20.873  1.00  0.00    -0.293 OA
ATOM     16  O   UNL A   1      30.746  23.114  24.816  1.00  0.00    -0.294 OA
ATOM     17  C   UNL A   1      30.944  25.047  23.479  1.00  0.00     0.028 A 
ATOM     18  C   UNL A   1      31.239  27.016  22.094  1.00  0.00     0.012 A 
ATOM     19  C   UNL A   1      29.917  25.692  24.146  1.00  0.00     0.012 A 
ATOM     20  C   UNL A   1      30.202  27.655  22.770  1.00  0.00     0.001 A 
ATOM     21  C   UNL A   1      29.560  26.999  23.811  1.00  0.00     0.001 A 
ENDBRANCH   9  10
ENDBRANCH   8   9
ENDBRANCH   7   8
ENDBRANCH   5   7
ENDBRANCH   2   3
ENDBRANCH   1   2
BRANCH   1  22
ATOM     22  C   UNL A   1      41.740  22.594  26.465  1.00  0.00     0.118 C 
BRANCH  22  23
ATOM     23  N   UNL A   1      41.350  23.908  25.911  1.00  0.00    -0.352 N 
ATOM     24  C   UNL A   1      42.072  25.085  26.067  1.00  0.00     0.251 C 
ATOM     25  H   UNL A   1      40.515  23.953  25.392  1.00  0.00     0.163 HD
ATOM     26  O   UNL A   1      42.866  25.454  25.208  1.00  0.00    -0.269 OA
BRANCH  24  27
ATOM     27  C   UNL A   1      41.692  26.016  27.164  1.00  0.00     0.039 A 
ATOM     28  C   UNL A   1      42.114  27.336  27.155  1.00  0.00     0.014 A 
ATOM     29  C   UNL A   1      40.787  25.643  28.151  1.00  0.00     0.014 A 
ATOM     30  C   UNL A   1      41.934  28.157  28.281  1.00  0.00     0.010 A 
ATOM     31  C   UNL A   1      40.428  26.556  29.171  1.00  0.00     0.010 A 
ATOM     32  C   UNL A   1      41.081  27.796  29.333  1.00  0.00    -0.014 A 
BRANCH  32  33
ATOM     33  C   UNL A   1      40.906  28.647  30.583  1.00  0.00     0.031 A 
ATOM     34  C   UNL A   1      39.761  29.656  30.668  1.00  0.00     0.074 A 
ATOM     35  C   UNL A   1      41.698  28.539  31.681  1.00  0.00     0.049 A 
ATOM     36  N   UNL A   1      39.567  30.628  31.530  1.00  0.00    -0.248 NA
ATOM     37  C   UNL A   1      38.709  29.576  29.640  1.00  0.00     0.031 C 
ATOM     38  C   UNL A   1      42.805  27.597  31.858  1.00  0.00     0.029 A 
ATOM     39  N   UNL A   1      41.679  29.223  32.886  1.00  0.00    -0.354 N 
ATOM     40  C   UNL A   1      38.433  31.315  31.095  1.00  0.00     0.074 A 
ATOM     41  C   UNL A   1      37.996  30.666  29.881  1.00  0.00     0.031 C 
ATOM     42  C   UNL A   1      43.282  27.690  33.107  1.00  0.00     0.029 A 
ATOM     43  C   UNL A   1      42.636  28.804  33.789  1.00  0.00     0.049 A 
ATOM     44  H   UNL A   1      41.038  29.945  33.081  1.00  0.00     0.167 HD
ATOM     45  C   UNL A   1      37.793  32.372  31.653  1.00  0.00     0.031 A 
ATOM     46  C   UNL A   1      43.014  29.270  35.002  1.00  0.00     0.031 A 
ATOM     47  C   UNL A   1      38.151  32.968  32.916  1.00  0.00     0.049 A 
ATOM     48  C   UNL A   1      42.340  30.484  35.582  1.00  0.00     0.074 A 
ATOM     49  C   UNL A   1      37.539  34.032  33.560  1.00  0.00     0.029 A 
ATOM     50  N   UNL A   1      39.175  32.540  33.745  1.00  0.00    -0.354 N 
ATOM     51  N   UNL A   1      41.328  31.165  35.105  1.00  0.00    -0.248 NA
ATOM     52  C   UNL A   1      42.869  31.007  36.851  1.00  0.00     0.031 C 
ATOM     53  C   UNL A   1      38.237  34.293  34.738  1.00  0.00     0.029 A 
ATOM     54  C   UNL A   1      39.228  33.337  34.877  1.00  0.00     0.049 A 
ATOM     55  H   UNL A   1      39.775  31.782  33.557  1.00  0.00     0.167 HD
ATOM     56  C   UNL A   1      41.091  32.186  36.020  1.00  0.00     0.074 A 
ATOM     57  C   UNL A   1      42.047  32.022  37.093  1.00  0.00     0.031 C 
ATOM     58  C   UNL A   1      40.166  33.174  35.961  1.00  0.00     0.031 A 
BRANCH  45  59
ATOM     59  C   UNL A   1      36.623  32.986  30.917  1.00  0.00    -0.014 A 
ATOM     60  C   UNL A   1      36.869  33.857  29.836  1.00  0.00     0.010 A 
ATOM     61  C   UNL A   1      35.300  32.817  31.364  1.00  0.00     0.010 A 
ATOM     62  C   UNL A   1      35.826  34.575  29.244  1.00  0.00     0.020 A 
ATOM     63  C   UNL A   1      34.248  33.504  30.746  1.00  0.00     0.020 A 
ATOM     64  C   UNL A   1      34.521  34.399  29.708  1.00  0.00     0.054 A 
BRANCH  64  65
ATOM     65  S   UNL A   1      33.185  35.363  28.949  1.00  0.00     0.124 S 
ATOM     66  O   UNL A   1      32.444  35.836  30.113  1.00  0.00    -0.237 OA
ATOM     67  O   UNL A   1      33.915  36.387  28.203  1.00  0.00    -0.237 OA
ATOM     68  O   UNL A   1      32.487  34.383  28.119  1.00  0.00    -0.744 OA
ENDBRANCH  64  65
ENDBRANCH  45  59
BRANCH  46  69
ATOM     69  C   UNL A   1      44.125  28.588  35.741  1.00  0.00    -0.014 A 
ATOM     70  C   UNL A   1      45.468  28.932  35.495  1.00  0.00     0.010 A 
ATOM     71  C   UNL A   1      43.853  27.540  36.640  1.00  0.00     0.010 A 
ATOM     72  C   UNL A   1      46.512  28.186  36.049  1.00  0.00     0.020 A 
ATOM     73  C   UNL A   1      44.895  26.818  37.234  1.00  0.00     0.020 A 
ATOM     74  C   UNL A   1      46.218  27.120  36.900  1.00  0.00     0.054 A 
BRANCH  74  75
ATOM     75  S   UNL A   1      47.585  26.109  37.535  1.00  0.00     0.124 S 
ATOM     76  O   UNL A   1      46.995  25.536  38.742  1.00  0.00    -0.237 OA
ATOM     77  O   UNL A   1      47.821  25.169  36.443  1.00  0.00    -0.237 OA
ATOM     78  O   UNL A   1      48.653  27.079  37.762  1.00  0.00    -0.744 OA
ENDBRANCH  74  75
ENDBRANCH  46  69
BRANCH  58  79
ATOM     79  C   UNL A   1      40.097  34.176  37.086  1.00  0.00    -0.014 A 
ATOM     80  C   UNL A   1      39.169  33.989  38.130  1.00  0.00     0.010 A 
ATOM     81  C   UNL A   1      40.831  35.374  37.035  1.00  0.00     0.010 A 
ATOM     82  C   UNL A   1      38.937  35.000  39.067  1.00  0.00     0.020 A 
ATOM     83  C   UNL A   1      40.627  36.374  37.992  1.00  0.00     0.020 A 
ATOM     84  C   UNL A   1      39.658  36.193  38.982  1.00  0.00     0.054 A 
BRANCH  84  85
ATOM     85  S   UNL A   1      39.297  37.516  40.170  1.00  0.00     0.124 S 
ATOM     86  O   UNL A   1      40.567  38.233  40.228  1.00  0.00    -0.237 OA
ATOM     87  O   UNL A   1      38.197  38.233  39.525  1.00  0.00    -0.237 OA
ATOM     88  O   UNL A   1      38.931  36.796  41.387  1.00  0.00    -0.744 OA
ENDBRANCH  84  85
ENDBRANCH  58  79
ENDBRANCH  32  33
ENDBRANCH  24  27
ENDBRANCH  22  23
ENDBRANCH   1  22
TORSDOF 16
ENDMDL
MODEL 3
REMARK VINA RESULT:     -11.1      3.851     10.885
REMARK SMILES O=C(CCS[C@H]1CC(=O)c2ccccc2C1=O)NCCCNC(=O)c1ccc(-c2c3nc(c(-c4ccc(S(=O)(=O)[O-])cc4)c4ccc([nH]4)c(-c4ccc(S(=O)(=O)[O-])cc4)c4nc(c(-c5ccc(S(=O)(=O)[O-])cc5)c5ccc2[nH]5)C=C4)C=C3)cc1
REMARK SMILES IDX 20 1 19 2 18 3 1 4 2 5 3 7 4 8 5 9 6 10 7 11 16 12 8 13
REMARK SMILES IDX 15 14 17 15 9 16 10 17 14 18 11 19 13 20 12 21 21 22 22 23
REMARK SMILES IDX 23 24 24 26 25 27 26 28 84 29 27 30 83 31 28 32 29 33 30 34
REMARK SMILES IDX 77 35 31 36 82 37 76 38 78 39 32 40 81 41 75 42 74 43 33 45
REMARK SMILES IDX 63 46 44 47 62 48 45 49 48 50 61 51 79 52 46 53 47 54 60 56
REMARK SMILES IDX 80 57 49 58 34 59 35 60 43 61 36 62 42 63 37 64 38 65 39 66
REMARK SMILES IDX 40 67 41 68 64 69 65 70 73 71 66 72 72 73 67 74 68 75 69 76
REMARK SMILES IDX 70 77 71 78 50 79 51 80 59 81 52 82 58 83 53 84 54 85 55 86
REMARK SMILES IDX 56 87 57 88
REMARK H PARENT 18 6 22 25 78 44 48 55
REMARK Flexibility Score: inf
ROOT
ATOM      1  C   UNL A   1      40.250  19.855  26.567  1.00  0.00     0.042 C 
ENDROOT
BRANCH   1   2
ATOM      2  C   UNL A   1      41.716  19.798  27.042  1.00  0.00     0.117 C 
BRANCH   2   3
ATOM      3  N   UNL A   1      42.741  19.937  26.020  1.00  0.00    -0.356 N 
ATOM      4  O   UNL A   1      43.007  17.670  25.738  1.00  0.00    -0.275 OA
ATOM      5  C   UNL A   1      43.299  18.821  25.420  1.00  0.00     0.220 C 
ATOM      6  H   UNL A   1      43.042  20.835  25.752  1.00  0.00     0.163 HD
BRANCH   5   7
ATOM      7  C   UNL A   1      44.360  19.089  24.363  1.00  0.00     0.111 C 
BRANCH   7   8
ATOM      8  C   UNL A   1      44.814  20.537  24.245  1.00  0.00     0.080 C 
BRANCH   8   9
ATOM      9  S   UNL A   1      46.049  21.076  25.471  1.00  0.00    -0.149 SA
BRANCH   9  10
ATOM     10  C   UNL A   1      46.128  22.899  25.172  1.00  0.00     0.126 C 
ATOM     11  C   UNL A   1      44.855  23.343  24.463  1.00  0.00     0.104 C 
ATOM     12  C   UNL A   1      46.254  23.672  26.471  1.00  0.00     0.176 C 
ATOM     13  C   UNL A   1      43.650  23.115  25.340  1.00  0.00     0.165 C 
ATOM     14  C   UNL A   1      45.057  23.707  27.337  1.00  0.00     0.030 A 
ATOM     15  O   UNL A   1      47.300  24.190  26.835  1.00  0.00    -0.293 OA
ATOM     16  O   UNL A   1      42.570  22.767  24.886  1.00  0.00    -0.294 OA
ATOM     17  C   UNL A   1      43.823  23.369  26.792  1.00  0.00     0.028 A 
ATOM     18  C   UNL A   1      45.187  23.953  28.711  1.00  0.00     0.012 A 
ATOM     19  C   UNL A   1      42.737  23.211  27.635  1.00  0.00     0.012 A 
ATOM     20  C   UNL A   1      44.086  23.794  29.549  1.00  0.00     0.001 A 
ATOM     21  C   UNL A   1      42.869  23.400  29.011  1.00  0.00     0.001 A 
ENDBRANCH   9  10
ENDBRANCH   8   9
ENDBRANCH   7   8
ENDBRANCH   5   7
ENDBRANCH   2   3
ENDBRANCH   1   2
BRANCH   1  22
ATOM     22  C   UNL A   1      39.859  21.086  25.735  1.00  0.00     0.118 C 
BRANCH  22  23
ATOM     23  N   UNL A   1      38.802  21.905  26.367  1.00  0.00    -0.352 N 
ATOM     24  C   UNL A   1      38.457  23.195  25.984  1.00  0.00     0.251 C 
ATOM     25  H   UNL A   1      38.306  21.505  27.118  1.00  0.00     0.163 HD
ATOM     26  O   UNL A   1      37.529  23.393  25.208  1.00  0.00    -0.269 OA
BRANCH  24  27
ATOM     27  C   UNL A   1      39.060  24.343  26.715  1.00  0.00     0.039 A 
ATOM     28  C   UNL A   1      38.976  24.431  28.095  1.00  0.00     0.014 A 
ATOM     29  C   UNL A   1      39.850  25.283  26.063  1.00  0.00     0.014 A 
ATOM     30  C   UNL A   1      39.359  25.606  28.765  1.00  0.00     0.010 A 
ATOM     31  C   UNL A   1      40.427  26.354  26.786  1.00  0.00     0.010 A 
ATOM     32  C   UNL A   1      40.101  26.612  28.134  1.00  0.00    -0.014 A 
BRANCH  32  33
ATOM     33  C   UNL A   1      40.486  27.912  28.826  1.00  0.00     0.031 A 
ATOM     34  C   UNL A   1      41.919  28.124  29.315  1.00  0.00     0.074 A 
ATOM     35  C   UNL A   1      39.627  28.948  29.009  1.00  0.00     0.049 A 
ATOM     36  N   UNL A   1      42.399  29.044  30.120  1.00  0.00    -0.248 NA
ATOM     37  C   UNL A   1      42.940  27.166  28.857  1.00  0.00     0.031 C 
ATOM     38  C   UNL A   1      38.234  29.003  28.562  1.00  0.00     0.029 A 
ATOM     39  N   UNL A   1      39.809  30.184  29.608  1.00  0.00    -0.354 N 
ATOM     40  C   UNL A   1      43.741  28.721  30.326  1.00  0.00     0.074 A 
ATOM     41  C   UNL A   1      43.994  27.507  29.584  1.00  0.00     0.031 C 
ATOM     42  C   UNL A   1      37.729  30.220  28.806  1.00  0.00     0.029 A 
ATOM     43  C   UNL A   1      38.694  30.999  29.571  1.00  0.00     0.049 A 
ATOM     44  H   UNL A   1      40.659  30.458  30.023  1.00  0.00     0.167 HD
ATOM     45  C   UNL A   1      44.689  29.373  31.044  1.00  0.00     0.031 A 
ATOM     46  C   UNL A   1      38.426  32.206  30.122  1.00  0.00     0.031 A 
ATOM     47  C   UNL A   1      44.485  30.637  31.706  1.00  0.00     0.049 A 
ATOM     48  C   UNL A   1      39.464  32.889  30.971  1.00  0.00     0.074 A 
ATOM     49  C   UNL A   1      45.402  31.372  32.439  1.00  0.00     0.029 A 
ATOM     50  N   UNL A   1      43.311  31.372  31.688  1.00  0.00    -0.354 N 
ATOM     51  N   UNL A   1      40.695  32.515  31.220  1.00  0.00    -0.248 NA
ATOM     52  C   UNL A   1      39.074  34.145  31.631  1.00  0.00     0.031 C 
ATOM     53  C   UNL A   1      44.765  32.513  32.924  1.00  0.00     0.029 A 
ATOM     54  C   UNL A   1      43.475  32.537  32.420  1.00  0.00     0.049 A 
ATOM     55  H   UNL A   1      42.485  31.107  31.223  1.00  0.00     0.167 HD
ATOM     56  C   UNL A   1      41.228  33.494  32.052  1.00  0.00     0.074 A 
ATOM     57  C   UNL A   1      40.199  34.492  32.246  1.00  0.00     0.031 C 
ATOM     58  C   UNL A   1      42.462  33.546  32.609  1.00  0.00     0.031 A 
BRANCH  45  59
ATOM     59  C   UNL A   1      46.060  28.747  31.175  1.00  0.00    -0.014 A 
ATOM     60  C   UNL A   1      46.359  27.974  32.315  1.00  0.00     0.010 A 
ATOM     61  C   UNL A   1      47.088  29.026  30.257  1.00  0.00     0.010 A 
ATOM     62  C   UNL A   1      47.661  27.525  32.555  1.00  0.00     0.020 A 
ATOM     63  C   UNL A   1      48.385  28.545  30.473  1.00  0.00     0.020 A 
ATOM     64  C   UNL A   1      48.669  27.821  31.635  1.00  0.00     0.054 A 
BRANCH  64  65
ATOM     65  S   UNL A   1      50.359  27.258  31.978  1.00  0.00     0.124 S 
ATOM     66  O   UNL A   1      51.060  27.615  30.749  1.00  0.00    -0.237 OA
ATOM     67  O   UNL A   1      50.719  28.036  33.162  1.00  0.00    -0.237 OA
ATOM     68  O   UNL A   1      50.200  25.824  32.212  1.00  0.00    -0.744 OA
ENDBRANCH  64  65
ENDBRANCH  45  59
BRANCH  46  69
ATOM     69  C   UNL A   1      37.084  32.834  29.905  1.00  0.00    -0.014 A 
ATOM     70  C   UNL A   1      36.839  33.631  28.769  1.00  0.00     0.010 A 
ATOM     71  C   UNL A   1      36.066  32.704  30.868  1.00  0.00     0.010 A 
ATOM     72  C   UNL A   1      35.651  34.358  28.647  1.00  0.00     0.020 A 
ATOM     73  C   UNL A   1      34.856  33.396  30.728  1.00  0.00     0.020 A 
ATOM     74  C   UNL A   1      34.676  34.252  29.639  1.00  0.00     0.054 A 
BRANCH  74  75
ATOM     75  S   UNL A   1      33.183  35.275  29.504  1.00  0.00     0.124 S 
ATOM     76  O   UNL A   1      32.641  35.191  30.859  1.00  0.00    -0.237 OA
ATOM     77  O   UNL A   1      33.721  36.577  29.123  1.00  0.00    -0.237 OA
ATOM     78  O   UNL A   1      32.395  34.602  28.475  1.00  0.00    -0.744 OA
ENDBRANCH  74  75
ENDBRANCH  46  69
BRANCH  58  79
ATOM     79  C   UNL A   1      42.817  34.723  33.484  1.00  0.00    -0.014 A 
ATOM     80  C   UNL A   1      43.420  35.861  32.911  1.00  0.00     0.010 A 
ATOM     81  C   UNL A   1      42.704  34.645  34.883  1.00  0.00     0.010 A 
ATOM     82  C   UNL A   1      43.948  36.870  33.720  1.00  0.00     0.020 A 
ATOM     83  C   UNL A   1      43.201  35.670  35.695  1.00  0.00     0.020 A 
ATOM     84  C   UNL A   1      43.848  36.761  35.109  1.00  0.00     0.054 A 
BRANCH  84  85
ATOM     85  S   UNL A   1      44.596  38.051  36.141  1.00  0.00     0.124 S 
ATOM     86  O   UNL A   1      43.803  37.966  37.363  1.00  0.00    -0.237 OA
ATOM     87  O   UNL A   1      45.983  37.603  36.258  1.00  0.00    -0.237 OA
ATOM     88  O   UNL A   1      44.408  39.271  35.359  1.00  0.00    -0.744 OA
ENDBRANCH  84  85
ENDBRANCH  58  79
ENDBRANCH  32  33
ENDBRANCH  24  27
ENDBRANCH  22  23
ENDBRANCH   1  22
TORSDOF 16
ENDMDL
