MODEL 1
REMARK VINA RESULT:     -10.6      0.000      0.000
REMARK SMILES CCN(C)S(=O)(=O)N1CC[C@H](Cc2ccc(C(=O)NCCCNC(=O)c3ccc(-c4c5nc(c(-c6ccc(S(=O)(=O)[O-])cc6)c6ccc([nH]6)c(-c6ccc(S(=O)(=O)[O-])cc6)c6nc(c(-c7ccc(S(=O)(=O)[O-])cc7)c7ccc4[nH]7)C=C6)C=C5)cc3)cc2)C1
REMARK SMILES IDX 20 1 19 2 17 3 18 4 16 6 13 7 14 8 87 9 15 10 86 11 12 12
REMARK SMILES IDX 11 13 8 14 9 15 88 16 10 17 5 18 6 19 7 20 3 21 4 22 2 23
REMARK SMILES IDX 1 24 21 25 22 26 23 27 24 28 25 30 26 31 27 32 85 33 28 34
REMARK SMILES IDX 84 35 29 36 30 37 31 38 78 39 32 40 83 41 77 42 79 43 33 44
REMARK SMILES IDX 82 45 76 46 75 47 34 49 64 50 45 51 63 52 46 53 49 54 62 55
REMARK SMILES IDX 80 56 47 57 48 58 61 60 81 61 50 62 35 63 36 64 44 65 37 66
REMARK SMILES IDX 43 67 38 68 39 69 40 70 41 71 42 72 65 73 66 74 74 75 67 76
REMARK SMILES IDX 73 77 68 78 69 79 70 80 71 81 72 82 51 83 52 84 60 85 53 86
REMARK SMILES IDX 59 87 54 88 55 89 56 90 57 91 58 92
REMARK H PARENT 19 5 23 29 79 48 49 59
REMARK Flexibility Score: inf
ROOT
ATOM      1  C   UNL A   1      31.810  28.572  25.156  1.00  0.00     0.118 C 
ENDROOT
BRANCH   1   2
ATOM      2  N   UNL A   1      31.078  28.852  23.934  1.00  0.00    -0.352 N 
ATOM      3  C   UNL A   1      30.801  28.067  22.845  1.00  0.00     0.251 C 
ATOM      4  O   UNL A   1      30.070  28.529  21.968  1.00  0.00    -0.269 OA
ATOM      5  H   UNL A   1      30.716  29.767  23.879  1.00  0.00     0.163 HD
BRANCH   3   6
ATOM      6  C   UNL A   1      31.296  26.669  22.717  1.00  0.00     0.039 A 
ATOM      7  C   UNL A   1      32.182  23.996  22.665  1.00  0.00    -0.048 A 
ATOM      8  C   UNL A   1      31.006  24.341  23.343  1.00  0.00     0.004 A 
ATOM      9  C   UNL A   1      32.874  24.983  21.963  1.00  0.00     0.004 A 
ATOM     10  C   UNL A   1      30.571  25.668  23.375  1.00  0.00     0.014 A 
ATOM     11  C   UNL A   1      32.415  26.297  21.967  1.00  0.00     0.014 A 
BRANCH   7  12
ATOM     12  C   UNL A   1      32.701  22.585  22.680  1.00  0.00     0.040 C 
BRANCH  12  13
ATOM     13  C   UNL A   1      32.872  21.983  24.090  1.00  0.00     0.010 C 
ATOM     14  N   UNL A   1      35.035  21.481  24.920  1.00  0.00    -0.189 NA
ATOM     15  C   UNL A   1      34.306  20.226  25.004  1.00  0.00     0.104 C 
ATOM     16  C   UNL A   1      34.105  22.596  24.774  1.00  0.00     0.107 C 
ATOM     17  C   UNL A   1      33.089  20.456  24.124  1.00  0.00     0.022 C 
BRANCH  14  18
ATOM     18  S   UNL A   1      36.644  21.615  24.569  1.00  0.00     0.281 S 
ATOM     19  O   UNL A   1      36.806  22.432  23.386  1.00  0.00    -0.195 OA
ATOM     20  O   UNL A   1      37.192  20.283  24.639  1.00  0.00    -0.195 OA
BRANCH  18  21
ATOM     21  N   UNL A   1      37.247  22.506  25.897  1.00  0.00    -0.192 NA
ATOM     22  C   UNL A   1      36.970  23.963  25.845  1.00  0.00     0.125 C 
BRANCH  21  23
ATOM     23  C   UNL A   1      38.708  22.323  26.183  1.00  0.00     0.100 C 
ATOM     24  C   UNL A   1      39.424  23.561  26.681  1.00  0.00     0.022 C 
ENDBRANCH  21  23
ENDBRANCH  18  21
ENDBRANCH  14  18
ENDBRANCH  12  13
ENDBRANCH   7  12
ENDBRANCH   3   6
ENDBRANCH   1   2
BRANCH   1  25
ATOM     25  C   UNL A   1      33.309  28.454  24.887  1.00  0.00     0.042 C 
BRANCH  25  26
ATOM     26  C   UNL A   1      34.169  28.881  26.069  1.00  0.00     0.118 C 
BRANCH  26  27
ATOM     27  N   UNL A   1      33.782  30.194  26.560  1.00  0.00    -0.352 N 
ATOM     28  C   UNL A   1      34.272  30.926  27.608  1.00  0.00     0.251 C 
ATOM     29  H   UNL A   1      33.052  30.624  26.060  1.00  0.00     0.163 HD
ATOM     30  O   UNL A   1      33.613  31.877  28.023  1.00  0.00    -0.269 OA
BRANCH  28  31
ATOM     31  C   UNL A   1      35.572  30.594  28.232  1.00  0.00     0.039 A 
ATOM     32  C   UNL A   1      35.591  29.638  29.249  1.00  0.00     0.014 A 
ATOM     33  C   UNL A   1      36.750  31.262  27.881  1.00  0.00     0.014 A 
ATOM     34  C   UNL A   1      36.790  29.336  29.895  1.00  0.00     0.010 A 
ATOM     35  C   UNL A   1      37.962  30.895  28.463  1.00  0.00     0.010 A 
ATOM     36  C   UNL A   1      37.992  29.945  29.491  1.00  0.00    -0.014 A 
BRANCH  36  37
ATOM     37  C   UNL A   1      39.272  29.582  30.148  1.00  0.00     0.031 A 
ATOM     38  C   UNL A   1      39.738  30.308  31.381  1.00  0.00     0.074 A 
ATOM     39  C   UNL A   1      40.022  28.597  29.616  1.00  0.00     0.049 A 
ATOM     40  N   UNL A   1      40.799  30.085  32.114  1.00  0.00    -0.248 NA
ATOM     41  C   UNL A   1      38.922  31.444  31.843  1.00  0.00     0.031 C 
ATOM     42  C   UNL A   1      39.699  27.859  28.391  1.00  0.00     0.029 A 
ATOM     43  N   UNL A   1      41.199  28.037  30.039  1.00  0.00    -0.354 N 
ATOM     44  C   UNL A   1      40.783  31.053  33.112  1.00  0.00     0.074 A 
ATOM     45  C   UNL A   1      39.639  31.900  32.860  1.00  0.00     0.031 C 
ATOM     46  C   UNL A   1      40.629  26.912  28.192  1.00  0.00     0.029 A 
ATOM     47  C   UNL A   1      41.633  27.003  29.244  1.00  0.00     0.049 A 
ATOM     48  H   UNL A   1      41.687  28.346  30.838  1.00  0.00     0.167 HD
ATOM     49  C   UNL A   1      41.634  31.210  34.157  1.00  0.00     0.031 A 
ATOM     50  C   UNL A   1      42.718  26.213  29.351  1.00  0.00     0.031 A 
ATOM     51  C   UNL A   1      42.773  30.362  34.398  1.00  0.00     0.049 A 
ATOM     52  C   UNL A   1      43.644  26.405  30.519  1.00  0.00     0.074 A 
ATOM     53  C   UNL A   1      43.665  30.401  35.456  1.00  0.00     0.029 A 
ATOM     54  N   UNL A   1      43.184  29.330  33.567  1.00  0.00    -0.354 N 
ATOM     55  N   UNL A   1      43.567  27.275  31.498  1.00  0.00    -0.248 NA
ATOM     56  C   UNL A   1      44.792  25.494  30.607  1.00  0.00     0.031 C 
ATOM     57  C   UNL A   1      44.652  29.436  35.229  1.00  0.00     0.029 A 
ATOM     58  C   UNL A   1      44.335  28.745  34.071  1.00  0.00     0.049 A 
ATOM     59  H   UNL A   1      42.726  29.054  32.741  1.00  0.00     0.167 HD
ATOM     60  C   UNL A   1      44.644  27.000  32.334  1.00  0.00     0.074 A 
ATOM     61  C   UNL A   1      45.337  25.866  31.757  1.00  0.00     0.031 C 
ATOM     62  C   UNL A   1      45.025  27.628  33.474  1.00  0.00     0.031 A 
BRANCH  49  63
ATOM     63  C   UNL A   1      41.371  32.351  35.108  1.00  0.00    -0.014 A 
ATOM     64  C   UNL A   1      40.536  32.192  36.230  1.00  0.00     0.010 A 
ATOM     65  C   UNL A   1      42.004  33.591  34.903  1.00  0.00     0.010 A 
ATOM     66  C   UNL A   1      40.306  33.260  37.102  1.00  0.00     0.020 A 
ATOM     67  C   UNL A   1      41.804  34.652  35.791  1.00  0.00     0.020 A 
ATOM     68  C   UNL A   1      40.942  34.485  36.877  1.00  0.00     0.054 A 
BRANCH  68  69
ATOM     69  S   UNL A   1      40.646  35.845  38.040  1.00  0.00     0.124 S 
ATOM     70  O   UNL A   1      39.728  36.693  37.283  1.00  0.00    -0.237 OA
ATOM     71  O   UNL A   1      40.064  35.160  39.190  1.00  0.00    -0.237 OA
ATOM     72  O   UNL A   1      41.976  36.408  38.261  1.00  0.00    -0.744 OA
ENDBRANCH  68  69
ENDBRANCH  49  63
BRANCH  50  73
ATOM     73  C   UNL A   1      42.972  25.160  28.329  1.00  0.00    -0.014 A 
ATOM     74  C   UNL A   1      43.636  25.465  27.128  1.00  0.00     0.010 A 
ATOM     75  C   UNL A   1      42.563  23.834  28.565  1.00  0.00     0.010 A 
ATOM     76  C   UNL A   1      43.867  24.469  26.174  1.00  0.00     0.020 A 
ATOM     77  C   UNL A   1      42.823  22.831  27.629  1.00  0.00     0.020 A 
ATOM     78  C   UNL A   1      43.463  23.157  26.433  1.00  0.00     0.054 A 
BRANCH  78  79
ATOM     79  S   UNL A   1      43.822  21.871  25.205  1.00  0.00     0.124 S 
ATOM     80  O   UNL A   1      42.770  20.895  25.471  1.00  0.00    -0.237 OA
ATOM     81  O   UNL A   1      43.706  22.600  23.944  1.00  0.00    -0.237 OA
ATOM     82  O   UNL A   1      45.177  21.441  25.544  1.00  0.00    -0.744 OA
ENDBRANCH  78  79
ENDBRANCH  50  73
BRANCH  62  83
ATOM     83  C   UNL A   1      46.234  27.077  34.188  1.00  0.00    -0.014 A 
ATOM     84  C   UNL A   1      47.527  27.571  33.931  1.00  0.00     0.010 A 
ATOM     85  C   UNL A   1      46.070  26.049  35.134  1.00  0.00     0.010 A 
ATOM     86  C   UNL A   1      48.638  27.003  34.561  1.00  0.00     0.020 A 
ATOM     87  C   UNL A   1      47.175  25.506  35.794  1.00  0.00     0.020 A 
ATOM     88  C   UNL A   1      48.454  25.968  35.483  1.00  0.00     0.054 A 
BRANCH  88  89
ATOM     89  S   UNL A   1      49.912  25.244  36.282  1.00  0.00     0.124 S 
ATOM     90  O   UNL A   1      49.802  23.839  35.896  1.00  0.00    -0.237 OA
ATOM     91  O   UNL A   1      51.013  25.981  35.667  1.00  0.00    -0.237 OA
ATOM     92  O   UNL A   1      49.702  25.519  37.701  1.00  0.00    -0.744 OA
ENDBRANCH  88  89
ENDBRANCH  62  83
ENDBRANCH  36  37
ENDBRANCH  28  31
ENDBRANCH  26  27
ENDBRANCH  25  26
ENDBRANCH   1  25
TORSDOF 18
ENDMDL
MODEL 2
REMARK VINA RESULT:     -10.3      2.945      9.968
REMARK SMILES CCN(C)S(=O)(=O)N1CC[C@H](Cc2ccc(C(=O)NCCCNC(=O)c3ccc(-c4c5nc(c(-c6ccc(S(=O)(=O)[O-])cc6)c6ccc([nH]6)c(-c6ccc(S(=O)(=O)[O-])cc6)c6nc(c(-c7ccc(S(=O)(=O)[O-])cc7)c7ccc4[nH]7)C=C6)C=C5)cc3)cc2)C1
REMARK SMILES IDX 20 1 19 2 17 3 18 4 16 6 13 7 14 8 87 9 15 10 86 11 12 12
REMARK SMILES IDX 11 13 8 14 9 15 88 16 10 17 5 18 6 19 7 20 3 21 4 22 2 23
REMARK SMILES IDX 1 24 21 25 22 26 23 27 24 28 25 30 26 31 27 32 85 33 28 34
REMARK SMILES IDX 84 35 29 36 30 37 31 38 78 39 32 40 83 41 77 42 79 43 33 44
REMARK SMILES IDX 82 45 76 46 75 47 34 49 64 50 45 51 63 52 46 53 49 54 62 55
REMARK SMILES IDX 80 56 47 57 48 58 61 60 81 61 50 62 35 63 36 64 44 65 37 66
REMARK SMILES IDX 43 67 38 68 39 69 40 70 41 71 42 72 65 73 66 74 74 75 67 76
REMARK SMILES IDX 73 77 68 78 69 79 70 80 71 81 72 82 51 83 52 84 60 85 53 86
REMARK SMILES IDX 59 87 54 88 55 89 56 90 57 91 58 92
REMARK H PARENT 19 5 23 29 79 48 49 59
REMARK Flexibility Score: inf
ROOT
ATOM      1  C   UNL A   1      43.620  21.733  25.751  1.00  0.00     0.118 C 
ENDROOT
BRANCH   1   2
ATOM      2  N   UNL A   1      43.407  20.519  26.518  1.00  0.00    -0.352 N 
ATOM      3  C   UNL A   1      42.260  19.832  26.825  1.00  0.00     0.251 C 
ATOM      4  O   UNL A   1      42.369  18.763  27.424  1.00  0.00    -0.269 OA
ATOM      5  H   UNL A   1      44.231  20.118  26.879  1.00  0.00     0.163 HD
BRANCH   3   6
ATOM      6  C   UNL A   1      40.910  20.299  26.408  1.00  0.00     0.039 A 
ATOM      7  C   UNL A   1      38.375  21.071  25.456  1.00  0.00    -0.048 A 
ATOM      8  C   UNL A   1      38.817  19.750  25.306  1.00  0.00     0.004 A 
ATOM      9  C   UNL A   1      39.179  21.981  26.138  1.00  0.00     0.004 A 
ATOM     10  C   UNL A   1      40.078  19.370  25.771  1.00  0.00     0.014 A 
ATOM     11  C   UNL A   1      40.419  21.587  26.634  1.00  0.00     0.014 A 
BRANCH   7  12
ATOM     12  C   UNL A   1      37.050  21.512  24.898  1.00  0.00     0.040 C 
BRANCH  12  13
ATOM     13  C   UNL A   1      36.250  22.454  25.821  1.00  0.00     0.010 C 
ATOM     14  N   UNL A   1      33.940  22.826  25.437  1.00  0.00    -0.189 NA
ATOM     15  C   UNL A   1      34.538  24.151  25.415  1.00  0.00     0.104 C 
ATOM     16  C   UNL A   1      34.847  21.873  26.070  1.00  0.00     0.107 C 
ATOM     17  C   UNL A   1      36.024  23.875  25.266  1.00  0.00     0.022 C 
BRANCH  14  18
ATOM     18  S   UNL A   1      32.668  22.349  24.496  1.00  0.00     0.281 S 
ATOM     19  O   UNL A   1      32.170  21.079  24.978  1.00  0.00    -0.195 OA
ATOM     20  O   UNL A   1      33.087  22.516  23.126  1.00  0.00    -0.195 OA
BRANCH  18  21
ATOM     21  N   UNL A   1      31.483  23.532  24.836  1.00  0.00    -0.192 NA
ATOM     22  C   UNL A   1      30.586  23.204  25.973  1.00  0.00     0.125 C 
BRANCH  21  23
ATOM     23  C   UNL A   1      30.627  23.936  23.673  1.00  0.00     0.100 C 
ATOM     24  C   UNL A   1      30.316  25.417  23.590  1.00  0.00     0.022 C 
ENDBRANCH  21  23
ENDBRANCH  18  21
ENDBRANCH  14  18
ENDBRANCH  12  13
ENDBRANCH   7  12
ENDBRANCH   3   6
ENDBRANCH   1   2
BRANCH   1  25
ATOM     25  C   UNL A   1      44.365  22.783  26.575  1.00  0.00     0.042 C 
BRANCH  25  26
ATOM     26  C   UNL A   1      43.468  23.913  27.062  1.00  0.00     0.118 C 
BRANCH  26  27
ATOM     27  N   UNL A   1      42.691  24.482  25.973  1.00  0.00    -0.352 N 
ATOM     28  C   UNL A   1      41.714  25.441  25.990  1.00  0.00     0.251 C 
ATOM     29  H   UNL A   1      42.901  24.121  25.082  1.00  0.00     0.163 HD
ATOM     30  O   UNL A   1      40.992  25.565  25.003  1.00  0.00    -0.269 OA
BRANCH  28  31
ATOM     31  C   UNL A   1      41.524  26.320  27.165  1.00  0.00     0.039 A 
ATOM     32  C   UNL A   1      40.525  25.990  28.083  1.00  0.00     0.014 A 
ATOM     33  C   UNL A   1      42.264  27.496  27.333  1.00  0.00     0.014 A 
ATOM     34  C   UNL A   1      40.284  26.823  29.175  1.00  0.00     0.010 A 
ATOM     35  C   UNL A   1      42.084  28.279  28.472  1.00  0.00     0.010 A 
ATOM     36  C   UNL A   1      41.078  27.963  29.393  1.00  0.00    -0.014 A 
BRANCH  36  37
ATOM     37  C   UNL A   1      40.850  28.817  30.585  1.00  0.00     0.031 A 
ATOM     38  C   UNL A   1      41.695  28.657  31.821  1.00  0.00     0.074 A 
ATOM     39  C   UNL A   1      39.865  29.736  30.551  1.00  0.00     0.049 A 
ATOM     40  N   UNL A   1      41.671  29.354  32.928  1.00  0.00    -0.248 NA
ATOM     41  C   UNL A   1      42.680  27.562  31.825  1.00  0.00     0.031 C 
ATOM     42  C   UNL A   1      38.945  29.945  29.428  1.00  0.00     0.029 A 
ATOM     43  N   UNL A   1      39.478  30.671  31.474  1.00  0.00    -0.354 N 
ATOM     44  C   UNL A   1      42.625  28.779  33.760  1.00  0.00     0.074 A 
ATOM     45  C   UNL A   1      43.171  27.643  33.054  1.00  0.00     0.031 C 
ATOM     46  C   UNL A   1      38.136  30.978  29.710  1.00  0.00     0.029 A 
ATOM     47  C   UNL A   1      38.447  31.474  31.045  1.00  0.00     0.049 A 
ATOM     48  H   UNL A   1      39.899  30.761  32.360  1.00  0.00     0.167 HD
ATOM     49  C   UNL A   1      43.024  29.175  34.994  1.00  0.00     0.031 A 
ATOM     50  C   UNL A   1      37.822  32.498  31.657  1.00  0.00     0.031 A 
ATOM     51  C   UNL A   1      42.472  30.308  35.692  1.00  0.00     0.049 A 
ATOM     52  C   UNL A   1      38.286  32.919  33.023  1.00  0.00     0.074 A 
ATOM     53  C   UNL A   1      42.843  30.826  36.920  1.00  0.00     0.029 A 
ATOM     54  N   UNL A   1      41.425  31.091  35.228  1.00  0.00    -0.354 N 
ATOM     55  N   UNL A   1      39.245  32.414  33.761  1.00  0.00    -0.248 NA
ATOM     56  C   UNL A   1      37.595  34.063  33.629  1.00  0.00     0.031 C 
ATOM     57  C   UNL A   1      41.977  31.881  37.228  1.00  0.00     0.029 A 
ATOM     58  C   UNL A   1      41.116  32.070  36.159  1.00  0.00     0.049 A 
ATOM     59  H   UNL A   1      40.969  30.970  34.364  1.00  0.00     0.167 HD
ATOM     60  C   UNL A   1      39.290  33.194  34.911  1.00  0.00     0.074 A 
ATOM     61  C   UNL A   1      38.279  34.221  34.753  1.00  0.00     0.031 C 
ATOM     62  C   UNL A   1      40.092  33.074  35.997  1.00  0.00     0.031 A 
BRANCH  49  63
ATOM     63  C   UNL A   1      44.102  28.366  35.675  1.00  0.00    -0.014 A 
ATOM     64  C   UNL A   1      45.465  28.589  35.406  1.00  0.00     0.010 A 
ATOM     65  C   UNL A   1      43.747  27.398  36.632  1.00  0.00     0.010 A 
ATOM     66  C   UNL A   1      46.449  27.832  36.047  1.00  0.00     0.020 A 
ATOM     67  C   UNL A   1      44.729  26.661  37.301  1.00  0.00     0.020 A 
ATOM     68  C   UNL A   1      46.074  26.871  36.992  1.00  0.00     0.054 A 
BRANCH  68  69
ATOM     69  S   UNL A   1      47.374  25.922  37.828  1.00  0.00     0.124 S 
ATOM     70  O   UNL A   1      48.288  26.977  38.259  1.00  0.00    -0.237 OA
ATOM     71  O   UNL A   1      46.641  25.250  38.897  1.00  0.00    -0.237 OA
ATOM     72  O   UNL A   1      47.889  25.042  36.782  1.00  0.00    -0.744 OA
ENDBRANCH  68  69
ENDBRANCH  49  63
BRANCH  50  73
ATOM     73  C   UNL A   1      36.705  33.201  30.968  1.00  0.00    -0.014 A 
ATOM     74  C   UNL A   1      36.926  33.917  29.779  1.00  0.00     0.010 A 
ATOM     75  C   UNL A   1      35.401  33.140  31.495  1.00  0.00     0.010 A 
ATOM     76  C   UNL A   1      35.871  34.576  29.141  1.00  0.00     0.020 A 
ATOM     77  C   UNL A   1      34.338  33.768  30.842  1.00  0.00     0.020 A 
ATOM     78  C   UNL A   1      34.582  34.492  29.674  1.00  0.00     0.054 A 
BRANCH  78  79
ATOM     79  S   UNL A   1      33.217  35.309  28.802  1.00  0.00     0.124 S 
ATOM     80  O   UNL A   1      32.456  35.889  29.903  1.00  0.00    -0.237 OA
ATOM     81  O   UNL A   1      33.919  36.261  27.945  1.00  0.00    -0.237 OA
ATOM     82  O   UNL A   1      32.560  34.213  28.093  1.00  0.00    -0.744 OA
ENDBRANCH  78  79
ENDBRANCH  50  73
BRANCH  62  83
ATOM     83  C   UNL A   1      39.926  34.101  37.088  1.00  0.00    -0.014 A 
ATOM     84  C   UNL A   1      39.135  33.846  38.223  1.00  0.00     0.010 A 
ATOM     85  C   UNL A   1      40.579  35.342  36.975  1.00  0.00     0.010 A 
ATOM     86  C   UNL A   1      38.948  34.836  39.191  1.00  0.00     0.020 A 
ATOM     87  C   UNL A   1      40.426  36.320  37.961  1.00  0.00     0.020 A 
ATOM     88  C   UNL A   1      39.589  36.070  39.049  1.00  0.00     0.054 A 
BRANCH  88  89
ATOM     89  S   UNL A   1      39.326  37.341  40.316  1.00  0.00     0.124 S 
ATOM     90  O   UNL A   1      38.554  38.342  39.584  1.00  0.00    -0.237 OA
ATOM     91  O   UNL A   1      38.593  36.614  41.350  1.00  0.00    -0.237 OA
ATOM     92  O   UNL A   1      40.680  37.745  40.687  1.00  0.00    -0.744 OA
ENDBRANCH  88  89
ENDBRANCH  62  83
ENDBRANCH  36  37
ENDBRANCH  28  31
ENDBRANCH  26  27
ENDBRANCH  25  26
ENDBRANCH   1  25
TORSDOF 18
ENDMDL
MODEL 3
REMARK VINA RESULT:     -10.2      5.157     10.582
REMARK SMILES CCN(C)S(=O)(=O)N1CC[C@H](Cc2ccc(C(=O)NCCCNC(=O)c3ccc(-c4c5nc(c(-c6ccc(S(=O)(=O)[O-])cc6)c6ccc([nH]6)c(-c6ccc(S(=O)(=O)[O-])cc6)c6nc(c(-c7ccc(S(=O)(=O)[O-])cc7)c7ccc4[nH]7)C=C6)C=C5)cc3)cc2)C1
REMARK SMILES IDX 20 1 19 2 17 3 18 4 16 6 13 7 14 8 87 9 15 10 86 11 12 12
REMARK SMILES IDX 11 13 8 14 9 15 88 16 10 17 5 18 6 19 7 20 3 21 4 22 2 23
REMARK SMILES IDX 1 24 21 25 22 26 23 27 24 28 25 30 26 31 27 32 85 33 28 34
REMARK SMILES IDX 84 35 29 36 30 37 31 38 78 39 32 40 83 41 77 42 79 43 33 44
REMARK SMILES IDX 82 45 76 46 75 47 34 49 64 50 45 51 63 52 46 53 49 54 62 55
REMARK SMILES IDX 80 56 47 57 48 58 61 60 81 61 50 62 35 63 36 64 44 65 37 66
REMARK SMILES IDX 43 67 38 68 39 69 40 70 41 71 42 72 65 73 66 74 74 75 67 76
REMARK SMILES IDX 73 77 68 78 69 79 70 80 71 81 72 82 51 83 52 84 60 85 53 86
REMARK SMILES IDX 59 87 54 88 55 89 56 90 57 91 58 92
REMARK H PARENT 19 5 23 29 79 48 49 59
REMARK Flexibility Score: inf
ROOT
ATOM      1  C   UNL A   1      36.512  20.605  25.324  1.00  0.00     0.118 C 
ENDROOT
BRANCH   1   2
ATOM      2  N   UNL A   1      35.696  19.467  24.941  1.00  0.00    -0.352 N 
ATOM      3  C   UNL A   1      34.351  19.360  24.697  1.00  0.00     0.251 C 
ATOM      4  O   UNL A   1      33.921  18.279  24.293  1.00  0.00    -0.269 OA
ATOM      5  H   UNL A   1      36.197  18.626  24.838  1.00  0.00     0.163 HD
BRANCH   3   6
ATOM      6  C   UNL A   1      33.415  20.508  24.841  1.00  0.00     0.039 A 
ATOM      7  C   UNL A   1      31.752  22.776  24.978  1.00  0.00    -0.048 A 
ATOM      8  C   UNL A   1      32.248  22.334  23.745  1.00  0.00     0.004 A 
ATOM      9  C   UNL A   1      32.040  22.042  26.128  1.00  0.00     0.004 A 
ATOM     10  C   UNL A   1      33.080  21.213  23.679  1.00  0.00     0.014 A 
ATOM     11  C   UNL A   1      32.838  20.904  26.051  1.00  0.00     0.014 A 
BRANCH   7  12
ATOM     12  C   UNL A   1      30.914  24.021  25.075  1.00  0.00     0.040 C 
BRANCH  12  13
ATOM     13  C   UNL A   1      31.361  25.009  26.171  1.00  0.00     0.010 C 
ATOM     14  N   UNL A   1      31.695  27.298  25.654  1.00  0.00    -0.189 NA
ATOM     15  C   UNL A   1      32.960  26.857  26.218  1.00  0.00     0.104 C 
ATOM     16  C   UNL A   1      30.635  26.353  25.991  1.00  0.00     0.107 C 
ATOM     17  C   UNL A   1      32.867  25.341  26.174  1.00  0.00     0.022 C 
BRANCH  14  18
ATOM     18  S   UNL A   1      31.540  28.410  24.441  1.00  0.00     0.281 S 
ATOM     19  O   UNL A   1      31.969  29.705  24.926  1.00  0.00    -0.195 OA
ATOM     20  O   UNL A   1      30.227  28.221  23.876  1.00  0.00    -0.195 OA
BRANCH  18  21
ATOM     21  N   UNL A   1      32.692  27.881  23.295  1.00  0.00    -0.192 NA
ATOM     22  C   UNL A   1      33.526  28.959  22.709  1.00  0.00     0.125 C 
BRANCH  21  23
ATOM     23  C   UNL A   1      32.144  27.057  22.169  1.00  0.00     0.100 C 
ATOM     24  C   UNL A   1      32.615  25.617  22.139  1.00  0.00     0.022 C 
ENDBRANCH  21  23
ENDBRANCH  18  21
ENDBRANCH  14  18
ENDBRANCH  12  13
ENDBRANCH   7  12
ENDBRANCH   3   6
ENDBRANCH   1   2
BRANCH   1  25
ATOM     25  C   UNL A   1      37.950  20.444  24.833  1.00  0.00     0.042 C 
BRANCH  25  26
ATOM     26  C   UNL A   1      38.990  20.846  25.871  1.00  0.00     0.118 C 
BRANCH  26  27
ATOM     27  N   UNL A   1      40.066  19.873  25.951  1.00  0.00    -0.352 N 
ATOM     28  C   UNL A   1      41.419  20.055  26.045  1.00  0.00     0.251 C 
ATOM     29  H   UNL A   1      39.775  18.932  25.935  1.00  0.00     0.163 HD
ATOM     30  O   UNL A   1      42.161  19.104  25.811  1.00  0.00    -0.269 OA
BRANCH  28  31
ATOM     31  C   UNL A   1      41.990  21.366  26.427  1.00  0.00     0.039 A 
ATOM     32  C   UNL A   1      42.218  22.306  25.420  1.00  0.00     0.014 A 
ATOM     33  C   UNL A   1      42.368  21.650  27.744  1.00  0.00     0.014 A 
ATOM     34  C   UNL A   1      42.802  23.533  25.736  1.00  0.00     0.010 A 
ATOM     35  C   UNL A   1      42.867  22.909  28.072  1.00  0.00     0.010 A 
ATOM     36  C   UNL A   1      43.109  23.855  27.069  1.00  0.00    -0.014 A 
BRANCH  36  37
ATOM     37  C   UNL A   1      43.683  25.182  27.406  1.00  0.00     0.031 A 
ATOM     38  C   UNL A   1      45.130  25.489  27.127  1.00  0.00     0.074 A 
ATOM     39  C   UNL A   1      42.890  26.109  27.977  1.00  0.00     0.049 A 
ATOM     40  N   UNL A   1      45.781  26.610  27.304  1.00  0.00    -0.248 NA
ATOM     41  C   UNL A   1      45.962  24.393  26.602  1.00  0.00     0.031 C 
ATOM     42  C   UNL A   1      41.485  25.908  28.344  1.00  0.00     0.029 A 
ATOM     43  N   UNL A   1      43.143  27.407  28.338  1.00  0.00    -0.354 N 
ATOM     44  C   UNL A   1      47.093  26.354  26.923  1.00  0.00     0.074 A 
ATOM     45  C   UNL A   1      47.160  24.957  26.558  1.00  0.00     0.031 C 
ATOM     46  C   UNL A   1      40.989  27.056  28.831  1.00  0.00     0.029 A 
ATOM     47  C   UNL A   1      42.047  28.059  28.852  1.00  0.00     0.049 A 
ATOM     48  H   UNL A   1      44.026  27.833  28.237  1.00  0.00     0.167 HD
ATOM     49  C   UNL A   1      48.142  27.210  26.863  1.00  0.00     0.031 A 
ATOM     50  C   UNL A   1      41.907  29.325  29.290  1.00  0.00     0.031 A 
ATOM     51  C   UNL A   1      48.066  28.601  27.231  1.00  0.00     0.049 A 
ATOM     52  C   UNL A   1      43.085  30.255  29.210  1.00  0.00     0.074 A 
ATOM     53  C   UNL A   1      49.055  29.566  27.156  1.00  0.00     0.029 A 
ATOM     54  N   UNL A   1      46.941  29.222  27.755  1.00  0.00    -0.354 N 
ATOM     55  N   UNL A   1      44.297  30.015  28.770  1.00  0.00    -0.248 NA
ATOM     56  C   UNL A   1      42.868  31.633  29.667  1.00  0.00     0.031 C 
ATOM     57  C   UNL A   1      48.547  30.753  27.695  1.00  0.00     0.029 A 
ATOM     58  C   UNL A   1      47.220  30.550  28.035  1.00  0.00     0.049 A 
ATOM     59  H   UNL A   1      46.072  28.784  27.903  1.00  0.00     0.167 HD
ATOM     60  C   UNL A   1      44.983  31.220  28.874  1.00  0.00     0.074 A 
ATOM     61  C   UNL A   1      44.039  32.190  29.392  1.00  0.00     0.031 C 
ATOM     62  C   UNL A   1      46.274  31.499  28.570  1.00  0.00     0.031 A 
BRANCH  49  63
ATOM     63  C   UNL A   1      49.468  26.661  26.395  1.00  0.00    -0.014 A 
ATOM     64  C   UNL A   1      49.920  26.863  25.077  1.00  0.00     0.010 A 
ATOM     65  C   UNL A   1      50.296  25.970  27.299  1.00  0.00     0.010 A 
ATOM     66  C   UNL A   1      51.152  26.349  24.663  1.00  0.00     0.020 A 
ATOM     67  C   UNL A   1      51.543  25.483  26.899  1.00  0.00     0.020 A 
ATOM     68  C   UNL A   1      51.957  25.662  25.577  1.00  0.00     0.054 A 
BRANCH  68  69
ATOM     69  S   UNL A   1      53.562  25.029  25.017  1.00  0.00     0.124 S 
ATOM     70  O   UNL A   1      53.579  25.448  23.617  1.00  0.00    -0.237 OA
ATOM     71  O   UNL A   1      54.501  25.724  25.892  1.00  0.00    -0.237 OA
ATOM     72  O   UNL A   1      53.462  23.588  25.234  1.00  0.00    -0.744 OA
ENDBRANCH  68  69
ENDBRANCH  49  63
BRANCH  50  73
ATOM     73  C   UNL A   1      40.595  29.783  29.824  1.00  0.00    -0.014 A 
ATOM     74  C   UNL A   1      39.667  30.438  28.996  1.00  0.00     0.010 A 
ATOM     75  C   UNL A   1      40.259  29.545  31.170  1.00  0.00     0.010 A 
ATOM     76  C   UNL A   1      38.438  30.866  29.508  1.00  0.00     0.020 A 
ATOM     77  C   UNL A   1      39.018  29.940  31.676  1.00  0.00     0.020 A 
ATOM     78  C   UNL A   1      38.120  30.609  30.844  1.00  0.00     0.054 A 
BRANCH  78  79
ATOM     79  S   UNL A   1      36.499  31.125  31.473  1.00  0.00     0.124 S 
ATOM     80  O   UNL A   1      35.731  31.284  30.242  1.00  0.00    -0.237 OA
ATOM     81  O   UNL A   1      36.117  29.995  32.317  1.00  0.00    -0.237 OA
ATOM     82  O   UNL A   1      36.789  32.361  32.196  1.00  0.00    -0.744 OA
ENDBRANCH  78  79
ENDBRANCH  50  73
BRANCH  62  83
ATOM     83  C   UNL A   1      46.731  32.923  28.763  1.00  0.00    -0.014 A 
ATOM     84  C   UNL A   1      47.298  33.355  29.976  1.00  0.00     0.010 A 
ATOM     85  C   UNL A   1      46.592  33.844  27.708  1.00  0.00     0.010 A 
ATOM     86  C   UNL A   1      47.658  34.694  30.151  1.00  0.00     0.020 A 
ATOM     87  C   UNL A   1      46.986  35.174  27.866  1.00  0.00     0.020 A 
ATOM     88  C   UNL A   1      47.491  35.597  29.096  1.00  0.00     0.054 A 
BRANCH  88  89
ATOM     89  S   UNL A   1      47.960  37.330  29.350  1.00  0.00     0.124 S 
ATOM     90  O   UNL A   1      49.416  37.245  29.409  1.00  0.00    -0.237 OA
ATOM     91  O   UNL A   1      47.415  37.986  28.165  1.00  0.00    -0.237 OA
ATOM     92  O   UNL A   1      47.304  37.684  30.608  1.00  0.00    -0.744 OA
ENDBRANCH  88  89
ENDBRANCH  62  83
ENDBRANCH  36  37
ENDBRANCH  28  31
ENDBRANCH  26  27
ENDBRANCH  25  26
ENDBRANCH   1  25
TORSDOF 18
ENDMDL
