MODEL 1
REMARK VINA RESULT:     -12.8      0.000      0.000
REMARK SMILES O=C(NCCCNC(=O)c1cc(-c2cncnc2)cc(S(=O)(=O)N2CCCC2)c1)c1ccc(-c2c3nc(c(-c4ccc(S(=O)(=O)[O-])cc4)c4ccc([nH]4)c(-c4ccc(S(=O)(=O)[O-])cc4)c4nc(c(-c5ccc(S(=O)(=O)[O-])cc5)c5ccc2[nH]5)C=C4)C=C3)cc1
REMARK SMILES IDX 4 1 3 2 1 3 2 4 30 6 31 7 89 8 32 9 88 10 33 11 34 12 35 13
REMARK SMILES IDX 82 14 36 15 87 16 81 17 83 18 37 19 86 20 80 21 79 22 38 24
REMARK SMILES IDX 68 25 49 26 67 27 50 28 53 29 66 30 84 31 51 32 52 33 65 35
REMARK SMILES IDX 85 36 54 37 39 38 40 39 48 40 41 41 47 42 42 43 43 44 44 45
REMARK SMILES IDX 45 46 46 47 69 48 70 49 78 50 71 51 77 52 72 53 73 54 74 55
REMARK SMILES IDX 75 56 76 57 55 58 56 59 64 60 57 61 63 62 58 63 59 64 60 65
REMARK SMILES IDX 61 66 62 67 5 68 6 69 7 70 8 71 9 73 10 74 11 75 29 76 12 77
REMARK SMILES IDX 20 78 19 79 13 80 14 81 18 82 15 83 17 84 16 85 21 86 22 87
REMARK SMILES IDX 23 88 24 89 25 90 28 91 26 92 27 93
REMARK H PARENT 3 5 83 23 53 34 7 72
REMARK Flexibility Score: inf
ROOT
ATOM      1  C   UNL A   1      35.509  31.015  28.017  1.00  0.00     0.118 C 
ENDROOT
BRANCH   1   2
ATOM      2  N   UNL A   1      35.483  30.855  29.465  1.00  0.00    -0.352 N 
ATOM      3  O   UNL A   1      36.059  30.076  31.492  1.00  0.00    -0.269 OA
ATOM      4  C   UNL A   1      36.379  30.254  30.320  1.00  0.00     0.251 C 
ATOM      5  H   UNL A   1      34.693  31.242  29.907  1.00  0.00     0.163 HD
BRANCH   4   6
ATOM      6  C   UNL A   1      37.700  29.792  29.832  1.00  0.00     0.039 A 
ATOM      7  C   UNL A   1      38.597  29.152  30.685  1.00  0.00     0.014 A 
ATOM      8  C   UNL A   1      38.043  29.985  28.490  1.00  0.00     0.014 A 
ATOM      9  C   UNL A   1      39.897  28.898  30.264  1.00  0.00     0.010 A 
ATOM     10  C   UNL A   1      39.313  29.612  28.033  1.00  0.00     0.010 A 
ATOM     11  C   UNL A   1      40.269  29.108  28.927  1.00  0.00    -0.014 A 
BRANCH  11  12
ATOM     12  C   UNL A   1      41.645  28.748  28.494  1.00  0.00     0.031 A 
ATOM     13  C   UNL A   1      42.762  29.757  28.524  1.00  0.00     0.074 A 
ATOM     14  C   UNL A   1      41.894  27.478  28.112  1.00  0.00     0.049 A 
ATOM     15  N   UNL A   1      44.020  29.599  28.194  1.00  0.00    -0.248 NA
ATOM     16  C   UNL A   1      42.429  31.118  28.973  1.00  0.00     0.031 C 
ATOM     17  C   UNL A   1      40.897  26.408  28.041  1.00  0.00     0.029 A 
ATOM     18  N   UNL A   1      43.063  26.863  27.742  1.00  0.00    -0.354 N 
ATOM     19  C   UNL A   1      44.619  30.842  28.363  1.00  0.00     0.074 A 
ATOM     20  C   UNL A   1      43.585  31.749  28.811  1.00  0.00     0.031 C 
ATOM     21  C   UNL A   1      41.504  25.258  27.717  1.00  0.00     0.029 A 
ATOM     22  C   UNL A   1      42.918  25.521  27.479  1.00  0.00     0.049 A 
ATOM     23  H   UNL A   1      43.924  27.337  27.671  1.00  0.00     0.167 HD
ATOM     24  C   UNL A   1      45.912  31.195  28.163  1.00  0.00     0.031 A 
ATOM     25  C   UNL A   1      43.812  24.602  27.073  1.00  0.00     0.031 A 
ATOM     26  C   UNL A   1      46.941  30.287  27.729  1.00  0.00     0.049 A 
ATOM     27  C   UNL A   1      45.234  25.021  26.847  1.00  0.00     0.074 A 
ATOM     28  C   UNL A   1      48.285  30.545  27.517  1.00  0.00     0.029 A 
ATOM     29  N   UNL A   1      46.743  28.946  27.439  1.00  0.00    -0.354 N 
ATOM     30  N   UNL A   1      45.778  26.201  27.018  1.00  0.00    -0.248 NA
ATOM     31  C   UNL A   1      46.161  23.987  26.371  1.00  0.00     0.031 C 
ATOM     32  C   UNL A   1      48.890  29.369  27.060  1.00  0.00     0.029 A 
ATOM     33  C   UNL A   1      47.934  28.366  27.033  1.00  0.00     0.049 A 
ATOM     34  H   UNL A   1      45.882  28.474  27.512  1.00  0.00     0.167 HD
ATOM     35  C   UNL A   1      47.115  26.052  26.675  1.00  0.00     0.074 A 
ATOM     36  C   UNL A   1      47.301  24.662  26.309  1.00  0.00     0.031 C 
ATOM     37  C   UNL A   1      48.099  26.983  26.663  1.00  0.00     0.031 A 
BRANCH  24  38
ATOM     38  C   UNL A   1      46.280  32.641  28.379  1.00  0.00    -0.014 A 
ATOM     39  C   UNL A   1      46.737  33.102  29.628  1.00  0.00     0.010 A 
ATOM     40  C   UNL A   1      46.195  33.547  27.306  1.00  0.00     0.010 A 
ATOM     41  C   UNL A   1      47.055  34.451  29.809  1.00  0.00     0.020 A 
ATOM     42  C   UNL A   1      46.536  34.891  27.477  1.00  0.00     0.020 A 
ATOM     43  C   UNL A   1      46.945  35.339  28.734  1.00  0.00     0.054 A 
BRANCH  43  44
ATOM     44  S   UNL A   1      47.363  37.085  28.996  1.00  0.00     0.124 S 
ATOM     45  O   UNL A   1      47.138  37.649  27.667  1.00  0.00    -0.237 OA
ATOM     46  O   UNL A   1      46.409  37.495  30.022  1.00  0.00    -0.237 OA
ATOM     47  O   UNL A   1      48.759  37.046  29.427  1.00  0.00    -0.744 OA
ENDBRANCH  43  44
ENDBRANCH  24  38
BRANCH  25  48
ATOM     48  C   UNL A   1      43.365  23.203  26.840  1.00  0.00    -0.014 A 
ATOM     49  C   UNL A   1      43.382  22.651  25.548  1.00  0.00     0.010 A 
ATOM     50  C   UNL A   1      42.979  22.396  27.926  1.00  0.00     0.010 A 
ATOM     51  C   UNL A   1      43.023  21.315  25.347  1.00  0.00     0.020 A 
ATOM     52  C   UNL A   1      42.648  21.054  27.734  1.00  0.00     0.020 A 
ATOM     53  C   UNL A   1      42.666  20.523  26.443  1.00  0.00     0.054 A 
BRANCH  53  54
ATOM     54  S   UNL A   1      42.291  18.767  26.175  1.00  0.00     0.124 S 
ATOM     55  O   UNL A   1      43.228  18.417  25.112  1.00  0.00    -0.237 OA
ATOM     56  O   UNL A   1      42.570  18.180  27.483  1.00  0.00    -0.237 OA
ATOM     57  O   UNL A   1      40.880  18.776  25.793  1.00  0.00    -0.744 OA
ENDBRANCH  53  54
ENDBRANCH  25  48
BRANCH  37  58
ATOM     58  C   UNL A   1      49.471  26.524  26.258  1.00  0.00    -0.014 A 
ATOM     59  C   UNL A   1      49.938  26.704  24.944  1.00  0.00     0.010 A 
ATOM     60  C   UNL A   1      50.319  25.941  27.217  1.00  0.00     0.010 A 
ATOM     61  C   UNL A   1      51.221  26.282  24.588  1.00  0.00     0.020 A 
ATOM     62  C   UNL A   1      51.612  25.540  26.871  1.00  0.00     0.020 A 
ATOM     63  C   UNL A   1      52.049  25.699  25.554  1.00  0.00     0.054 A 
BRANCH  63  64
ATOM     64  S   UNL A   1      53.726  25.199  25.080  1.00  0.00     0.124 S 
ATOM     65  O   UNL A   1      53.595  23.747  24.990  1.00  0.00    -0.237 OA
ATOM     66  O   UNL A   1      53.924  25.892  23.811  1.00  0.00    -0.237 OA
ATOM     67  O   UNL A   1      54.555  25.682  26.183  1.00  0.00    -0.744 OA
ENDBRANCH  63  64
ENDBRANCH  37  58
ENDBRANCH  11  12
ENDBRANCH   4   6
ENDBRANCH   1   2
BRANCH   1  68
ATOM     68  C   UNL A   1      34.920  29.823  27.275  1.00  0.00     0.042 C 
BRANCH  68  69
ATOM     69  C   UNL A   1      33.451  29.983  26.916  1.00  0.00     0.118 C 
BRANCH  69  70
ATOM     70  N   UNL A   1      32.632  28.882  27.402  1.00  0.00    -0.352 N 
ATOM     71  C   UNL A   1      31.704  28.104  26.763  1.00  0.00     0.251 C 
ATOM     72  H   UNL A   1      32.767  28.659  28.351  1.00  0.00     0.163 HD
ATOM     73  O   UNL A   1      31.020  27.323  27.419  1.00  0.00    -0.269 OA
BRANCH  71  74
ATOM     74  C   UNL A   1      31.521  28.163  25.296  1.00  0.00     0.041 A 
ATOM     75  C   UNL A   1      30.728  29.183  24.761  1.00  0.00     0.022 A 
ATOM     76  C   UNL A   1      32.014  27.162  24.462  1.00  0.00     0.035 A 
ATOM     77  C   UNL A   1      30.441  29.233  23.387  1.00  0.00    -0.013 A 
ATOM     78  C   UNL A   1      31.774  27.208  23.095  1.00  0.00     0.084 A 
ATOM     79  C   UNL A   1      30.986  28.236  22.556  1.00  0.00     0.030 A 
BRANCH  77  80
ATOM     80  C   UNL A   1      29.557  30.273  22.860  1.00  0.00     0.018 A 
ATOM     81  C   UNL A   1      29.030  31.281  23.652  1.00  0.00     0.123 A 
ATOM     82  C   UNL A   1      29.216  30.376  21.522  1.00  0.00     0.123 A 
ATOM     83  N   UNL A   1      28.258  32.290  23.194  1.00  0.00    -0.244 NA
ATOM     84  N   UNL A   1      28.448  31.359  21.002  1.00  0.00    -0.244 NA
ATOM     85  C   UNL A   1      28.008  32.275  21.877  1.00  0.00     0.221 A 
ENDBRANCH  77  80
BRANCH  78  86
ATOM     86  S   UNL A   1      32.407  25.963  21.985  1.00  0.00     0.243 S 
ATOM     87  O   UNL A   1      31.591  26.054  20.789  1.00  0.00    -0.207 OA
ATOM     88  O   UNL A   1      33.838  26.151  21.949  1.00  0.00    -0.207 OA
BRANCH  86  89
ATOM     89  N   UNL A   1      32.098  24.470  22.684  1.00  0.00    -0.198 NA
ATOM     90  C   UNL A   1      30.768  24.117  23.197  1.00  0.00     0.102 C 
ATOM     91  C   UNL A   1      33.154  23.708  23.370  1.00  0.00     0.102 C 
ATOM     92  C   UNL A   1      31.044  23.406  24.514  1.00  0.00     0.018 C 
ATOM     93  C   UNL A   1      32.405  22.762  24.307  1.00  0.00     0.018 C 
ENDBRANCH  86  89
ENDBRANCH  78  86
ENDBRANCH  71  74
ENDBRANCH  69  70
ENDBRANCH  68  69
ENDBRANCH   1  68
TORSDOF 16
ENDMDL
MODEL 2
REMARK VINA RESULT:     -12.7      6.506     12.442
REMARK SMILES O=C(NCCCNC(=O)c1cc(-c2cncnc2)cc(S(=O)(=O)N2CCCC2)c1)c1ccc(-c2c3nc(c(-c4ccc(S(=O)(=O)[O-])cc4)c4ccc([nH]4)c(-c4ccc(S(=O)(=O)[O-])cc4)c4nc(c(-c5ccc(S(=O)(=O)[O-])cc5)c5ccc2[nH]5)C=C4)C=C3)cc1
REMARK SMILES IDX 4 1 3 2 1 3 2 4 30 6 31 7 89 8 32 9 88 10 33 11 34 12 35 13
REMARK SMILES IDX 82 14 36 15 87 16 81 17 83 18 37 19 86 20 80 21 79 22 38 24
REMARK SMILES IDX 68 25 49 26 67 27 50 28 53 29 66 30 84 31 51 32 52 33 65 35
REMARK SMILES IDX 85 36 54 37 39 38 40 39 48 40 41 41 47 42 42 43 43 44 44 45
REMARK SMILES IDX 45 46 46 47 69 48 70 49 78 50 71 51 77 52 72 53 73 54 74 55
REMARK SMILES IDX 75 56 76 57 55 58 56 59 64 60 57 61 63 62 58 63 59 64 60 65
REMARK SMILES IDX 61 66 62 67 5 68 6 69 7 70 8 71 9 73 10 74 11 75 29 76 12 77
REMARK SMILES IDX 20 78 19 79 13 80 14 81 18 82 15 83 17 84 16 85 21 86 22 87
REMARK SMILES IDX 23 88 24 89 25 90 28 91 26 92 27 93
REMARK H PARENT 3 5 83 23 53 34 7 72
REMARK Flexibility Score: inf
ROOT
ATOM      1  C   UNL A   1      39.869  23.318  27.045  1.00  0.00     0.118 C 
ENDROOT
BRANCH   1   2
ATOM      2  N   UNL A   1      40.729  23.982  26.073  1.00  0.00    -0.352 N 
ATOM      3  O   UNL A   1      41.743  25.667  24.988  1.00  0.00    -0.269 OA
ATOM      4  C   UNL A   1      41.171  25.283  26.005  1.00  0.00     0.251 C 
ATOM      5  H   UNL A   1      41.048  23.402  25.344  1.00  0.00     0.163 HD
BRANCH   4   6
ATOM      6  C   UNL A   1      40.931  26.226  27.123  1.00  0.00     0.039 A 
ATOM      7  C   UNL A   1      41.592  27.451  27.183  1.00  0.00     0.014 A 
ATOM      8  C   UNL A   1      40.013  25.888  28.122  1.00  0.00     0.014 A 
ATOM      9  C   UNL A   1      41.501  28.235  28.327  1.00  0.00     0.010 A 
ATOM     10  C   UNL A   1      39.827  26.740  29.218  1.00  0.00     0.010 A 
ATOM     11  C   UNL A   1      40.604  27.900  29.354  1.00  0.00    -0.014 A 
BRANCH  11  12
ATOM     12  C   UNL A   1      40.474  28.806  30.525  1.00  0.00     0.031 A 
ATOM     13  C   UNL A   1      41.428  28.721  31.688  1.00  0.00     0.074 A 
ATOM     14  C   UNL A   1      39.508  29.748  30.515  1.00  0.00     0.049 A 
ATOM     15  N   UNL A   1      41.460  29.447  32.777  1.00  0.00    -0.248 NA
ATOM     16  C   UNL A   1      42.474  27.688  31.626  1.00  0.00     0.031 C 
ATOM     17  C   UNL A   1      38.522  29.932  29.446  1.00  0.00     0.029 A 
ATOM     18  N   UNL A   1      39.212  30.743  31.410  1.00  0.00    -0.354 N 
ATOM     19  C   UNL A   1      42.503  28.939  33.544  1.00  0.00     0.074 A 
ATOM     20  C   UNL A   1      43.071  27.834  32.802  1.00  0.00     0.031 C 
ATOM     21  C   UNL A   1      37.777  31.013  29.715  1.00  0.00     0.029 A 
ATOM     22  C   UNL A   1      38.175  31.552  31.009  1.00  0.00     0.049 A 
ATOM     23  H   UNL A   1      39.697  30.867  32.259  1.00  0.00     0.167 HD
ATOM     24  C   UNL A   1      42.948  29.356  34.754  1.00  0.00     0.031 A 
ATOM     25  C   UNL A   1      37.590  32.600  31.617  1.00  0.00     0.031 A 
ATOM     26  C   UNL A   1      42.389  30.464  35.484  1.00  0.00     0.049 A 
ATOM     27  C   UNL A   1      38.092  33.034  32.962  1.00  0.00     0.074 A 
ATOM     28  C   UNL A   1      42.782  30.976  36.709  1.00  0.00     0.029 A 
ATOM     29  N   UNL A   1      41.316  31.232  35.058  1.00  0.00    -0.354 N 
ATOM     30  N   UNL A   1      39.084  32.542  33.665  1.00  0.00    -0.248 NA
ATOM     31  C   UNL A   1      37.396  34.160  33.596  1.00  0.00     0.031 C 
ATOM     32  C   UNL A   1      41.921  32.027  37.042  1.00  0.00     0.029 A 
ATOM     33  C   UNL A   1      41.021  32.202  36.002  1.00  0.00     0.049 A 
ATOM     34  H   UNL A   1      40.834  31.107  34.208  1.00  0.00     0.167 HD
ATOM     35  C   UNL A   1      39.135  33.302  34.825  1.00  0.00     0.074 A 
ATOM     36  C   UNL A   1      38.090  34.301  34.718  1.00  0.00     0.031 C 
ATOM     37  C   UNL A   1      39.972  33.182  35.884  1.00  0.00     0.031 A 
BRANCH  24  38
ATOM     38  C   UNL A   1      44.078  28.584  35.385  1.00  0.00    -0.014 A 
ATOM     39  C   UNL A   1      45.422  28.877  35.088  1.00  0.00     0.010 A 
ATOM     40  C   UNL A   1      43.790  27.565  36.312  1.00  0.00     0.010 A 
ATOM     41  C   UNL A   1      46.453  28.135  35.671  1.00  0.00     0.020 A 
ATOM     42  C   UNL A   1      44.819  26.838  36.917  1.00  0.00     0.020 A 
ATOM     43  C   UNL A   1      46.144  27.114  36.576  1.00  0.00     0.054 A 
BRANCH  43  44
ATOM     44  S   UNL A   1      47.500  26.164  37.319  1.00  0.00     0.124 S 
ATOM     45  O   UNL A   1      47.203  26.282  38.744  1.00  0.00    -0.237 OA
ATOM     46  O   UNL A   1      47.313  24.834  36.747  1.00  0.00    -0.237 OA
ATOM     47  O   UNL A   1      48.701  26.869  36.873  1.00  0.00    -0.744 OA
ENDBRANCH  43  44
ENDBRANCH  24  38
BRANCH  25  48
ATOM     48  C   UNL A   1      36.452  33.287  30.952  1.00  0.00    -0.014 A 
ATOM     49  C   UNL A   1      35.220  33.437  31.611  1.00  0.00     0.010 A 
ATOM     50  C   UNL A   1      36.619  33.851  29.673  1.00  0.00     0.010 A 
ATOM     51  C   UNL A   1      34.176  34.142  31.004  1.00  0.00     0.020 A 
ATOM     52  C   UNL A   1      35.589  34.580  29.076  1.00  0.00     0.020 A 
ATOM     53  C   UNL A   1      34.370  34.715  29.744  1.00  0.00     0.054 A 
BRANCH  53  54
ATOM     54  S   UNL A   1      33.035  35.703  29.011  1.00  0.00     0.124 S 
ATOM     55  O   UNL A   1      32.443  34.759  28.070  1.00  0.00    -0.237 OA
ATOM     56  O   UNL A   1      32.215  36.039  30.173  1.00  0.00    -0.237 OA
ATOM     57  O   UNL A   1      33.740  36.833  28.410  1.00  0.00    -0.744 OA
ENDBRANCH  53  54
ENDBRANCH  25  48
BRANCH  37  58
ATOM     58  C   UNL A   1      39.802  34.169  37.005  1.00  0.00    -0.014 A 
ATOM     59  C   UNL A   1      40.315  35.474  36.906  1.00  0.00     0.010 A 
ATOM     60  C   UNL A   1      39.084  33.796  38.155  1.00  0.00     0.010 A 
ATOM     61  C   UNL A   1      40.137  36.382  37.952  1.00  0.00     0.020 A 
ATOM     62  C   UNL A   1      38.884  34.708  39.194  1.00  0.00     0.020 A 
ATOM     63  C   UNL A   1      39.425  35.992  39.091  1.00  0.00     0.054 A 
BRANCH  63  64
ATOM     64  S   UNL A   1      39.169  37.200  40.419  1.00  0.00     0.124 S 
ATOM     65  O   UNL A   1      40.528  37.677  40.661  1.00  0.00    -0.237 OA
ATOM     66  O   UNL A   1      38.264  38.168  39.806  1.00  0.00    -0.237 OA
ATOM     67  O   UNL A   1      38.585  36.407  41.499  1.00  0.00    -0.744 OA
ENDBRANCH  63  64
ENDBRANCH  37  58
ENDBRANCH  11  12
ENDBRANCH   4   6
ENDBRANCH   1   2
BRANCH   1  68
ATOM     68  C   UNL A   1      38.758  22.501  26.398  1.00  0.00     0.042 C 
BRANCH  68  69
ATOM     69  C   UNL A   1      37.485  23.290  26.135  1.00  0.00     0.118 C 
BRANCH  69  70
ATOM     70  N   UNL A   1      37.191  23.422  24.716  1.00  0.00    -0.352 N 
ATOM     71  C   UNL A   1      36.159  22.928  23.964  1.00  0.00     0.251 C 
ATOM     72  H   UNL A   1      37.844  23.957  24.211  1.00  0.00     0.163 HD
ATOM     73  O   UNL A   1      36.197  23.043  22.741  1.00  0.00    -0.269 OA
BRANCH  71  74
ATOM     74  C   UNL A   1      34.986  22.278  24.588  1.00  0.00     0.041 A 
ATOM     75  C   UNL A   1      34.903  20.882  24.565  1.00  0.00     0.022 A 
ATOM     76  C   UNL A   1      33.918  23.025  25.080  1.00  0.00     0.035 A 
ATOM     77  C   UNL A   1      33.770  20.215  25.057  1.00  0.00    -0.013 A 
ATOM     78  C   UNL A   1      32.800  22.388  25.603  1.00  0.00     0.084 A 
ATOM     79  C   UNL A   1      32.720  20.987  25.589  1.00  0.00     0.030 A 
BRANCH  77  80
ATOM     80  C   UNL A   1      33.680  18.757  24.964  1.00  0.00     0.018 A 
ATOM     81  C   UNL A   1      32.629  18.034  25.507  1.00  0.00     0.123 A 
ATOM     82  C   UNL A   1      34.600  17.980  24.281  1.00  0.00     0.123 A 
ATOM     83  N   UNL A   1      32.481  16.696  25.393  1.00  0.00    -0.244 NA
ATOM     84  N   UNL A   1      34.509  16.640  24.133  1.00  0.00    -0.244 NA
ATOM     85  C   UNL A   1      33.440  16.065  24.702  1.00  0.00     0.221 A 
ENDBRANCH  77  80
BRANCH  78  86
ATOM     86  S   UNL A   1      31.420  23.303  26.267  1.00  0.00     0.243 S 
ATOM     87  O   UNL A   1      30.271  22.427  26.136  1.00  0.00    -0.207 OA
ATOM     88  O   UNL A   1      31.854  23.806  27.548  1.00  0.00    -0.207 OA
BRANCH  86  89
ATOM     89  N   UNL A   1      31.161  24.616  25.255  1.00  0.00    -0.198 NA
ATOM     90  C   UNL A   1      30.455  25.818  25.717  1.00  0.00     0.102 C 
ATOM     91  C   UNL A   1      31.041  24.453  23.798  1.00  0.00     0.102 C 
ATOM     92  C   UNL A   1      29.540  26.190  24.559  1.00  0.00     0.018 C 
ATOM     93  C   UNL A   1      30.280  25.691  23.329  1.00  0.00     0.018 C 
ENDBRANCH  86  89
ENDBRANCH  78  86
ENDBRANCH  71  74
ENDBRANCH  69  70
ENDBRANCH  68  69
ENDBRANCH   1  68
TORSDOF 16
ENDMDL
MODEL 3
REMARK VINA RESULT:     -12.3      6.625     12.043
REMARK SMILES O=C(NCCCNC(=O)c1cc(-c2cncnc2)cc(S(=O)(=O)N2CCCC2)c1)c1ccc(-c2c3nc(c(-c4ccc(S(=O)(=O)[O-])cc4)c4ccc([nH]4)c(-c4ccc(S(=O)(=O)[O-])cc4)c4nc(c(-c5ccc(S(=O)(=O)[O-])cc5)c5ccc2[nH]5)C=C4)C=C3)cc1
REMARK SMILES IDX 4 1 3 2 1 3 2 4 30 6 31 7 89 8 32 9 88 10 33 11 34 12 35 13
REMARK SMILES IDX 82 14 36 15 87 16 81 17 83 18 37 19 86 20 80 21 79 22 38 24
REMARK SMILES IDX 68 25 49 26 67 27 50 28 53 29 66 30 84 31 51 32 52 33 65 35
REMARK SMILES IDX 85 36 54 37 39 38 40 39 48 40 41 41 47 42 42 43 43 44 44 45
REMARK SMILES IDX 45 46 46 47 69 48 70 49 78 50 71 51 77 52 72 53 73 54 74 55
REMARK SMILES IDX 75 56 76 57 55 58 56 59 64 60 57 61 63 62 58 63 59 64 60 65
REMARK SMILES IDX 61 66 62 67 5 68 6 69 7 70 8 71 9 73 10 74 11 75 29 76 12 77
REMARK SMILES IDX 20 78 19 79 13 80 14 81 18 82 15 83 17 84 16 85 21 86 22 87
REMARK SMILES IDX 23 88 24 89 25 90 28 91 26 92 27 93
REMARK H PARENT 3 5 83 23 53 34 7 72
REMARK Flexibility Score: inf
ROOT
ATOM      1  C   UNL A   1      39.894  23.545  27.040  1.00  0.00     0.118 C 
ENDROOT
BRANCH   1   2
ATOM      2  N   UNL A   1      40.686  24.259  26.047  1.00  0.00    -0.352 N 
ATOM      3  O   UNL A   1      41.683  25.992  25.021  1.00  0.00    -0.269 OA
ATOM      4  C   UNL A   1      41.198  25.537  26.054  1.00  0.00     0.251 C 
ATOM      5  H   UNL A   1      40.890  23.741  25.236  1.00  0.00     0.163 HD
BRANCH   4   6
ATOM      6  C   UNL A   1      41.136  26.373  27.276  1.00  0.00     0.039 A 
ATOM      7  C   UNL A   1      40.270  26.055  28.320  1.00  0.00     0.014 A 
ATOM      8  C   UNL A   1      41.975  27.486  27.390  1.00  0.00     0.014 A 
ATOM      9  C   UNL A   1      40.088  26.949  29.369  1.00  0.00     0.010 A 
ATOM     10  C   UNL A   1      41.879  28.321  28.511  1.00  0.00     0.010 A 
ATOM     11  C   UNL A   1      40.902  28.086  29.489  1.00  0.00    -0.014 A 
BRANCH  11  12
ATOM     12  C   UNL A   1      40.733  28.976  30.668  1.00  0.00     0.031 A 
ATOM     13  C   UNL A   1      39.640  30.011  30.715  1.00  0.00     0.074 A 
ATOM     14  C   UNL A   1      41.553  28.813  31.727  1.00  0.00     0.049 A 
ATOM     15  N   UNL A   1      39.349  30.854  31.674  1.00  0.00    -0.248 NA
ATOM     16  C   UNL A   1      38.766  30.121  29.537  1.00  0.00     0.031 C 
ATOM     17  C   UNL A   1      42.650  27.845  31.804  1.00  0.00     0.029 A 
ATOM     18  N   UNL A   1      41.575  29.432  32.951  1.00  0.00    -0.354 N 
ATOM     19  C   UNL A   1      38.285  31.615  31.205  1.00  0.00     0.074 A 
ATOM     20  C   UNL A   1      37.989  31.144  29.869  1.00  0.00     0.031 C 
ATOM     21  C   UNL A   1      43.193  27.888  33.028  1.00  0.00     0.029 A 
ATOM     22  C   UNL A   1      42.539  28.939  33.798  1.00  0.00     0.049 A 
ATOM     23  H   UNL A   1      40.959  30.160  33.199  1.00  0.00     0.167 HD
ATOM     24  C   UNL A   1      37.615  32.614  31.830  1.00  0.00     0.031 A 
ATOM     25  C   UNL A   1      42.880  29.298  35.049  1.00  0.00     0.031 A 
ATOM     26  C   UNL A   1      37.904  33.071  33.163  1.00  0.00     0.049 A 
ATOM     27  C   UNL A   1      42.131  30.415  35.714  1.00  0.00     0.074 A 
ATOM     28  C   UNL A   1      37.269  34.064  33.891  1.00  0.00     0.029 A 
ATOM     29  N   UNL A   1      38.912  32.569  33.972  1.00  0.00    -0.354 N 
ATOM     30  N   UNL A   1      41.124  31.117  35.252  1.00  0.00    -0.248 NA
ATOM     31  C   UNL A   1      42.565  30.790  37.065  1.00  0.00     0.031 C 
ATOM     32  C   UNL A   1      37.920  34.189  35.123  1.00  0.00     0.029 A 
ATOM     33  C   UNL A   1      38.930  33.241  35.183  1.00  0.00     0.049 A 
ATOM     34  H   UNL A   1      39.526  31.840  33.722  1.00  0.00     0.167 HD
ATOM     35  C   UNL A   1      40.800  32.016  36.259  1.00  0.00     0.074 A 
ATOM     36  C   UNL A   1      41.702  31.753  37.362  1.00  0.00     0.031 C 
ATOM     37  C   UNL A   1      39.841  32.973  36.266  1.00  0.00     0.031 A 
BRANCH  24  38
ATOM     38  C   UNL A   1      36.521  33.307  31.058  1.00  0.00    -0.014 A 
ATOM     39  C   UNL A   1      36.788  33.974  29.848  1.00  0.00     0.010 A 
ATOM     40  C   UNL A   1      35.199  33.266  31.538  1.00  0.00     0.010 A 
ATOM     41  C   UNL A   1      35.761  34.626  29.159  1.00  0.00     0.020 A 
ATOM     42  C   UNL A   1      34.166  33.895  30.840  1.00  0.00     0.020 A 
ATOM     43  C   UNL A   1      34.457  34.589  29.664  1.00  0.00     0.054 A 
BRANCH  43  44
ATOM     44  S   UNL A   1      33.142  35.444  28.751  1.00  0.00     0.124 S 
ATOM     45  O   UNL A   1      32.527  34.344  28.012  1.00  0.00    -0.237 OA
ATOM     46  O   UNL A   1      32.327  36.014  29.820  1.00  0.00    -0.237 OA
ATOM     47  O   UNL A   1      33.864  36.417  27.934  1.00  0.00    -0.744 OA
ENDBRANCH  43  44
ENDBRANCH  24  38
BRANCH  25  48
ATOM     48  C   UNL A   1      43.998  28.596  35.731  1.00  0.00    -0.014 A 
ATOM     49  C   UNL A   1      43.749  27.497  36.572  1.00  0.00     0.010 A 
ATOM     50  C   UNL A   1      45.329  28.988  35.490  1.00  0.00     0.010 A 
ATOM     51  C   UNL A   1      44.812  26.802  37.156  1.00  0.00     0.020 A 
ATOM     52  C   UNL A   1      46.392  28.278  36.049  1.00  0.00     0.020 A 
ATOM     53  C   UNL A   1      46.126  27.192  36.885  1.00  0.00     0.054 A 
BRANCH  53  54
ATOM     54  S   UNL A   1      47.494  26.221  37.579  1.00  0.00     0.124 S 
ATOM     55  O   UNL A   1      46.992  24.857  37.450  1.00  0.00    -0.237 OA
ATOM     56  O   UNL A   1      48.609  26.572  36.703  1.00  0.00    -0.237 OA
ATOM     57  O   UNL A   1      47.606  26.723  38.947  1.00  0.00    -0.744 OA
ENDBRANCH  53  54
ENDBRANCH  25  48
BRANCH  37  58
ATOM     58  C   UNL A   1      39.708  33.797  37.517  1.00  0.00    -0.014 A 
ATOM     59  C   UNL A   1      40.361  35.035  37.642  1.00  0.00     0.010 A 
ATOM     60  C   UNL A   1      38.883  33.343  38.562  1.00  0.00     0.010 A 
ATOM     61  C   UNL A   1      40.215  35.793  38.807  1.00  0.00     0.020 A 
ATOM     62  C   UNL A   1      38.716  34.109  39.718  1.00  0.00     0.020 A 
ATOM     63  C   UNL A   1      39.395  35.324  39.839  1.00  0.00     0.054 A 
BRANCH  63  64
ATOM     64  S   UNL A   1      39.186  36.344  41.323  1.00  0.00     0.124 S 
ATOM     65  O   UNL A   1      38.889  37.654  40.750  1.00  0.00    -0.237 OA
ATOM     66  O   UNL A   1      38.075  35.692  42.010  1.00  0.00    -0.237 OA
ATOM     67  O   UNL A   1      40.477  36.238  41.998  1.00  0.00    -0.744 OA
ENDBRANCH  63  64
ENDBRANCH  37  58
ENDBRANCH  11  12
ENDBRANCH   4   6
ENDBRANCH   1   2
BRANCH   1  68
ATOM     68  C   UNL A   1      38.880  22.593  26.422  1.00  0.00     0.042 C 
BRANCH  68  69
ATOM     69  C   UNL A   1      37.527  23.227  26.143  1.00  0.00     0.118 C 
BRANCH  69  70
ATOM     70  N   UNL A   1      37.237  23.327  24.719  1.00  0.00    -0.352 N 
ATOM     71  C   UNL A   1      36.208  22.818  23.975  1.00  0.00     0.251 C 
ATOM     72  H   UNL A   1      37.894  23.850  24.204  1.00  0.00     0.163 HD
ATOM     73  O   UNL A   1      36.250  22.905  22.751  1.00  0.00    -0.269 OA
BRANCH  71  74
ATOM     74  C   UNL A   1      35.031  22.185  24.610  1.00  0.00     0.041 A 
ATOM     75  C   UNL A   1      34.936  20.789  24.602  1.00  0.00     0.022 A 
ATOM     76  C   UNL A   1      33.971  22.946  25.097  1.00  0.00     0.035 A 
ATOM     77  C   UNL A   1      33.798  20.137  25.104  1.00  0.00    -0.013 A 
ATOM     78  C   UNL A   1      32.850  22.324  25.631  1.00  0.00     0.084 A 
ATOM     79  C   UNL A   1      32.758  20.924  25.632  1.00  0.00     0.030 A 
BRANCH  77  80
ATOM     80  C   UNL A   1      33.695  18.679  25.027  1.00  0.00     0.018 A 
ATOM     81  C   UNL A   1      32.712  17.961  25.687  1.00  0.00     0.123 A 
ATOM     82  C   UNL A   1      34.531  17.898  24.246  1.00  0.00     0.123 A 
ATOM     83  N   UNL A   1      32.549  16.623  25.595  1.00  0.00    -0.244 NA
ATOM     84  N   UNL A   1      34.421  16.557  24.113  1.00  0.00    -0.244 NA
ATOM     85  C   UNL A   1      33.422  15.987  24.801  1.00  0.00     0.221 A 
ENDBRANCH  77  80
BRANCH  78  86
ATOM     86  S   UNL A   1      31.480  23.258  26.290  1.00  0.00     0.243 S 
ATOM     87  O   UNL A   1      30.317  22.405  26.138  1.00  0.00    -0.207 OA
ATOM     88  O   UNL A   1      31.910  23.740  27.581  1.00  0.00    -0.207 OA
BRANCH  86  89
ATOM     89  N   UNL A   1      31.255  24.585  25.289  1.00  0.00    -0.198 NA
ATOM     90  C   UNL A   1      30.820  25.885  25.817  1.00  0.00     0.102 C 
ATOM     91  C   UNL A   1      30.876  24.429  23.876  1.00  0.00     0.102 C 
ATOM     92  C   UNL A   1      29.793  26.381  24.809  1.00  0.00     0.018 C 
ATOM     93  C   UNL A   1      30.240  25.764  23.494  1.00  0.00     0.018 C 
ENDBRANCH  86  89
ENDBRANCH  78  86
ENDBRANCH  71  74
ENDBRANCH  69  70
ENDBRANCH  68  69
ENDBRANCH   1  68
TORSDOF 16
ENDMDL
