MODEL 1
REMARK VINA RESULT:     -10.8      0.000      0.000
REMARK SMILES CCc1nc(COC)cc(N2CCCC[C@H]2C(=O)NCCCNC(=O)c2ccc(-c3c4nc(c(-c5ccc(S(=O)(=O)[O-])cc5)c5ccc([nH]5)c(-c5ccc(S(=O)(=O)[O-])cc5)c5nc(c(-c6ccc(S(=O)(=O)[O-])cc6)c6ccc3[nH]6)C=C5)C=C4)cc2)n1
REMARK SMILES IDX 21 1 20 2 19 3 17 4 18 5 16 7 11 8 12 9 13 10 15 11 14 12
REMARK SMILES IDX 10 13 3 14 4 15 86 16 5 17 9 18 2 19 1 20 6 21 7 22 8 23
REMARK SMILES IDX 22 24 23 25 24 26 25 28 26 29 27 30 85 31 28 32 84 33 29 34
REMARK SMILES IDX 30 35 31 36 78 37 32 38 83 39 77 40 79 41 33 42 82 43 76 44
REMARK SMILES IDX 75 45 34 47 64 48 45 49 63 50 46 51 49 52 62 53 80 54 47 55
REMARK SMILES IDX 48 56 61 58 81 59 50 60 35 61 36 62 44 63 37 64 43 65 38 66
REMARK SMILES IDX 39 67 40 68 41 69 42 70 65 71 66 72 74 73 67 74 73 75 68 76
REMARK SMILES IDX 69 77 70 78 71 79 72 80 51 81 52 82 60 83 53 84 59 85 54 86
REMARK SMILES IDX 55 87 56 88 57 89 58 90
REMARK H PARENT 19 6 23 27 79 46 49 57
REMARK Flexibility Score: inf
ROOT
ATOM      1  C   UNL A   1      33.780  28.158  25.420  1.00  0.00     0.042 C 
ENDROOT
BRANCH   1   2
ATOM      2  C   UNL A   1      32.937  27.020  24.870  1.00  0.00     0.117 C 
BRANCH   2   3
ATOM      3  N   UNL A   1      33.532  26.374  23.728  1.00  0.00    -0.354 N 
ATOM      4  C   UNL A   1      33.426  25.098  23.270  1.00  0.00     0.242 C 
ATOM      5  O   UNL A   1      34.085  24.842  22.251  1.00  0.00    -0.273 OA
ATOM      6  H   UNL A   1      34.115  26.955  23.188  1.00  0.00     0.163 HD
BRANCH   4   7
ATOM      7  C   UNL A   1      32.561  23.987  23.920  1.00  0.00     0.173 C 
ATOM      8  N   UNL A   1      33.139  23.413  25.141  1.00  0.00    -0.344 N 
ATOM      9  C   UNL A   1      32.729  23.862  26.461  1.00  0.00     0.119 C 
ATOM     10  C   UNL A   1      31.224  24.057  26.591  1.00  0.00     0.022 C 
ATOM     11  C   UNL A   1      31.054  24.247  24.046  1.00  0.00     0.035 C 
ATOM     12  C   UNL A   1      30.529  24.706  25.401  1.00  0.00     0.004 C 
BRANCH   8  13
ATOM     13  C   UNL A   1      33.823  22.208  25.070  1.00  0.00     0.133 A 
ATOM     14  C   UNL A   1      35.825  21.095  24.799  1.00  0.00     0.130 A 
ATOM     15  N   UNL A   1      35.261  19.880  24.836  1.00  0.00    -0.235 NA
ATOM     16  N   UNL A   1      35.153  22.252  24.903  1.00  0.00    -0.216 NA
ATOM     17  C   UNL A   1      33.919  19.843  24.965  1.00  0.00     0.072 A 
ATOM     18  C   UNL A   1      33.163  20.993  25.123  1.00  0.00     0.073 A 
BRANCH  14  19
ATOM     19  C   UNL A   1      37.313  21.184  24.613  1.00  0.00     0.074 C 
ATOM     20  C   UNL A   1      37.940  22.144  25.610  1.00  0.00     0.012 C 
ENDBRANCH  14  19
BRANCH  17  21
ATOM     21  C   UNL A   1      33.242  18.495  24.850  1.00  0.00     0.216 C 
BRANCH  21  22
ATOM     22  O   UNL A   1      33.158  18.009  23.503  1.00  0.00    -0.378 OA
ATOM     23  C   UNL A   1      34.079  16.961  23.226  1.00  0.00     0.195 C 
ENDBRANCH  21  22
ENDBRANCH  17  21
ENDBRANCH   8  13
ENDBRANCH   4   7
ENDBRANCH   2   3
ENDBRANCH   1   2
BRANCH   1  24
ATOM     24  C   UNL A   1      33.685  28.302  26.925  1.00  0.00     0.118 C 
BRANCH  24  25
ATOM     25  N   UNL A   1      33.563  29.695  27.340  1.00  0.00    -0.352 N 
ATOM     26  C   UNL A   1      34.430  30.499  28.038  1.00  0.00     0.251 C 
ATOM     27  H   UNL A   1      32.720  30.131  27.075  1.00  0.00     0.163 HD
ATOM     28  O   UNL A   1      34.031  31.580  28.462  1.00  0.00    -0.269 OA
BRANCH  26  29
ATOM     29  C   UNL A   1      35.822  30.067  28.293  1.00  0.00     0.039 A 
ATOM     30  C   UNL A   1      36.758  30.138  27.258  1.00  0.00     0.014 A 
ATOM     31  C   UNL A   1      36.205  29.568  29.540  1.00  0.00     0.014 A 
ATOM     32  C   UNL A   1      38.082  29.764  27.496  1.00  0.00     0.010 A 
ATOM     33  C   UNL A   1      37.544  29.321  29.810  1.00  0.00     0.010 A 
ATOM     34  C   UNL A   1      38.494  29.385  28.784  1.00  0.00    -0.014 A 
BRANCH  34  35
ATOM     35  C   UNL A   1      39.902  29.010  29.071  1.00  0.00     0.031 A 
ATOM     36  C   UNL A   1      40.830  30.010  29.714  1.00  0.00     0.074 A 
ATOM     37  C   UNL A   1      40.355  27.794  28.708  1.00  0.00     0.049 A 
ATOM     38  N   UNL A   1      42.096  29.882  30.017  1.00  0.00    -0.248 NA
ATOM     39  C   UNL A   1      40.274  31.338  30.028  1.00  0.00     0.031 C 
ATOM     40  C   UNL A   1      39.567  26.763  28.026  1.00  0.00     0.029 A 
ATOM     41  N   UNL A   1      41.588  27.216  28.866  1.00  0.00    -0.354 N 
ATOM     42  C   UNL A   1      42.488  31.113  30.533  1.00  0.00     0.074 A 
ATOM     43  C   UNL A   1      41.349  31.995  30.438  1.00  0.00     0.031 C 
ATOM     44  C   UNL A   1      40.323  25.665  27.868  1.00  0.00     0.029 A 
ATOM     45  C   UNL A   1      41.658  25.927  28.394  1.00  0.00     0.049 A 
ATOM     46  H   UNL A   1      42.352  27.681  29.278  1.00  0.00     0.167 HD
ATOM     47  C   UNL A   1      43.680  31.470  31.066  1.00  0.00     0.031 A 
ATOM     48  C   UNL A   1      42.682  25.051  28.389  1.00  0.00     0.031 A 
ATOM     49  C   UNL A   1      44.803  30.579  31.179  1.00  0.00     0.049 A 
ATOM     50  C   UNL A   1      43.994  25.467  28.997  1.00  0.00     0.074 A 
ATOM     51  C   UNL A   1      46.036  30.816  31.758  1.00  0.00     0.029 A 
ATOM     52  N   UNL A   1      44.827  29.276  30.702  1.00  0.00    -0.354 N 
ATOM     53  N   UNL A   1      44.322  26.611  29.547  1.00  0.00    -0.248 NA
ATOM     54  C   UNL A   1      45.068  24.465  28.999  1.00  0.00     0.031 C 
ATOM     55  C   UNL A   1      46.826  29.677  31.581  1.00  0.00     0.029 A 
ATOM     56  C   UNL A   1      46.063  28.705  30.952  1.00  0.00     0.049 A 
ATOM     57  H   UNL A   1      44.078  28.825  30.251  1.00  0.00     0.167 HD
ATOM     58  C   UNL A   1      45.632  26.459  29.987  1.00  0.00     0.074 A 
ATOM     59  C   UNL A   1      46.027  25.105  29.655  1.00  0.00     0.031 C 
ATOM     60  C   UNL A   1      46.437  27.356  30.609  1.00  0.00     0.031 A 
BRANCH  47  61
ATOM     61  C   UNL A   1      43.825  32.883  31.571  1.00  0.00    -0.014 A 
ATOM     62  C   UNL A   1      44.260  33.919  30.722  1.00  0.00     0.010 A 
ATOM     63  C   UNL A   1      43.494  33.189  32.903  1.00  0.00     0.010 A 
ATOM     64  C   UNL A   1      44.403  35.221  31.208  1.00  0.00     0.020 A 
ATOM     65  C   UNL A   1      43.605  34.497  33.385  1.00  0.00     0.020 A 
ATOM     66  C   UNL A   1      44.075  35.501  32.537  1.00  0.00     0.054 A 
BRANCH  66  67
ATOM     67  S   UNL A   1      44.247  37.206  33.132  1.00  0.00     0.124 S 
ATOM     68  O   UNL A   1      45.579  37.182  33.733  1.00  0.00    -0.237 OA
ATOM     69  O   UNL A   1      44.126  37.986  31.904  1.00  0.00    -0.237 OA
ATOM     70  O   UNL A   1      43.142  37.358  34.076  1.00  0.00    -0.744 OA
ENDBRANCH  66  67
ENDBRANCH  47  61
BRANCH  48  71
ATOM     71  C   UNL A   1      42.496  23.689  27.816  1.00  0.00    -0.014 A 
ATOM     72  C   UNL A   1      42.688  23.458  26.442  1.00  0.00     0.010 A 
ATOM     73  C   UNL A   1      42.141  22.610  28.646  1.00  0.00     0.010 A 
ATOM     74  C   UNL A   1      42.506  22.180  25.905  1.00  0.00     0.020 A 
ATOM     75  C   UNL A   1      41.990  21.324  28.118  1.00  0.00     0.020 A 
ATOM     76  C   UNL A   1      42.161  21.120  26.748  1.00  0.00     0.054 A 
BRANCH  76  77
ATOM     77  S   UNL A   1      41.980  19.461  26.036  1.00  0.00     0.124 S 
ATOM     78  O   UNL A   1      42.468  18.611  27.117  1.00  0.00    -0.237 OA
ATOM     79  O   UNL A   1      40.545  19.388  25.770  1.00  0.00    -0.237 OA
ATOM     80  O   UNL A   1      42.824  19.507  24.844  1.00  0.00    -0.744 OA
ENDBRANCH  76  77
ENDBRANCH  48  71
BRANCH  60  81
ATOM     81  C   UNL A   1      47.812  26.890  31.006  1.00  0.00    -0.014 A 
ATOM     82  C   UNL A   1      48.911  27.033  30.141  1.00  0.00     0.010 A 
ATOM     83  C   UNL A   1      48.013  26.340  32.286  1.00  0.00     0.010 A 
ATOM     84  C   UNL A   1      50.179  26.594  30.533  1.00  0.00     0.020 A 
ATOM     85  C   UNL A   1      49.284  25.932  32.694  1.00  0.00     0.020 A 
ATOM     86  C   UNL A   1      50.356  26.045  31.807  1.00  0.00     0.054 A 
BRANCH  86  87
ATOM     87  S   UNL A   1      52.016  25.511  32.302  1.00  0.00     0.124 S 
ATOM     88  O   UNL A   1      51.860  24.060  32.369  1.00  0.00    -0.237 OA
ATOM     89  O   UNL A   1      52.850  26.004  31.209  1.00  0.00    -0.237 OA
ATOM     90  O   UNL A   1      52.225  26.174  33.587  1.00  0.00    -0.744 OA
ENDBRANCH  86  87
ENDBRANCH  60  81
ENDBRANCH  34  35
ENDBRANCH  26  29
ENDBRANCH  24  25
ENDBRANCH   1  24
TORSDOF 17
ENDMDL
MODEL 2
REMARK VINA RESULT:     -10.4      2.647      3.260
REMARK SMILES CCc1nc(COC)cc(N2CCCC[C@H]2C(=O)NCCCNC(=O)c2ccc(-c3c4nc(c(-c5ccc(S(=O)(=O)[O-])cc5)c5ccc([nH]5)c(-c5ccc(S(=O)(=O)[O-])cc5)c5nc(c(-c6ccc(S(=O)(=O)[O-])cc6)c6ccc3[nH]6)C=C5)C=C4)cc2)n1
REMARK SMILES IDX 21 1 20 2 19 3 17 4 18 5 16 7 11 8 12 9 13 10 15 11 14 12
REMARK SMILES IDX 10 13 3 14 4 15 86 16 5 17 9 18 2 19 1 20 6 21 7 22 8 23
REMARK SMILES IDX 22 24 23 25 24 26 25 28 26 29 27 30 85 31 28 32 84 33 29 34
REMARK SMILES IDX 30 35 31 36 78 37 32 38 83 39 77 40 79 41 33 42 82 43 76 44
REMARK SMILES IDX 75 45 34 47 64 48 45 49 63 50 46 51 49 52 62 53 80 54 47 55
REMARK SMILES IDX 48 56 61 58 81 59 50 60 35 61 36 62 44 63 37 64 43 65 38 66
REMARK SMILES IDX 39 67 40 68 41 69 42 70 65 71 66 72 74 73 67 74 73 75 68 76
REMARK SMILES IDX 69 77 70 78 71 79 72 80 51 81 52 82 60 83 53 84 59 85 54 86
REMARK SMILES IDX 55 87 56 88 57 89 58 90
REMARK H PARENT 19 6 23 27 79 46 49 57
REMARK Flexibility Score: inf
ROOT
ATOM      1  C   UNL A   1      34.144  28.523  24.588  1.00  0.00     0.042 C 
ENDROOT
BRANCH   1   2
ATOM      2  C   UNL A   1      33.013  27.645  24.080  1.00  0.00     0.117 C 
BRANCH   2   3
ATOM      3  N   UNL A   1      33.363  26.894  22.901  1.00  0.00    -0.354 N 
ATOM      4  C   UNL A   1      33.068  25.617  22.538  1.00  0.00     0.242 C 
ATOM      5  O   UNL A   1      33.536  25.252  21.450  1.00  0.00    -0.273 OA
ATOM      6  H   UNL A   1      33.908  27.389  22.249  1.00  0.00     0.163 HD
BRANCH   4   7
ATOM      7  C   UNL A   1      32.211  24.628  23.373  1.00  0.00     0.173 C 
ATOM      8  N   UNL A   1      32.791  24.284  24.676  1.00  0.00    -0.344 N 
ATOM      9  C   UNL A   1      32.371  24.954  25.896  1.00  0.00     0.119 C 
ATOM     10  C   UNL A   1      30.864  25.153  25.987  1.00  0.00     0.022 C 
ATOM     11  C   UNL A   1      30.702  24.891  23.448  1.00  0.00     0.035 C 
ATOM     12  C   UNL A   1      30.167  25.575  24.699  1.00  0.00     0.004 C 
BRANCH   8  13
ATOM     13  C   UNL A   1      33.487  23.093  24.819  1.00  0.00     0.133 A 
ATOM     14  C   UNL A   1      35.471  21.935  24.604  1.00  0.00     0.130 A 
ATOM     15  N   UNL A   1      34.939  20.768  24.991  1.00  0.00    -0.235 NA
ATOM     16  N   UNL A   1      34.790  23.088  24.503  1.00  0.00    -0.216 NA
ATOM     17  C   UNL A   1      33.620  20.771  25.271  1.00  0.00     0.072 A 
ATOM     18  C   UNL A   1      32.862  21.931  25.232  1.00  0.00     0.073 A 
BRANCH  14  19
ATOM     19  C   UNL A   1      36.928  21.968  24.240  1.00  0.00     0.074 C 
ATOM     20  C   UNL A   1      37.670  20.776  24.823  1.00  0.00     0.012 C 
ENDBRANCH  14  19
BRANCH  17  21
ATOM     21  C   UNL A   1      32.960  19.439  25.555  1.00  0.00     0.216 C 
BRANCH  21  22
ATOM     22  O   UNL A   1      31.980  19.065  24.578  1.00  0.00    -0.378 OA
ATOM     23  C   UNL A   1      32.546  18.693  23.327  1.00  0.00     0.195 C 
ENDBRANCH  21  22
ENDBRANCH  17  21
ENDBRANCH   8  13
ENDBRANCH   4   7
ENDBRANCH   2   3
ENDBRANCH   1   2
BRANCH   1  24
ATOM     24  C   UNL A   1      34.119  28.724  26.089  1.00  0.00     0.118 C 
BRANCH  24  25
ATOM     25  N   UNL A   1      33.746  30.085  26.457  1.00  0.00    -0.352 N 
ATOM     26  C   UNL A   1      34.245  30.918  27.429  1.00  0.00     0.251 C 
ATOM     27  H   UNL A   1      33.015  30.471  25.920  1.00  0.00     0.163 HD
ATOM     28  O   UNL A   1      33.635  31.947  27.702  1.00  0.00    -0.269 OA
BRANCH  26  29
ATOM     29  C   UNL A   1      35.490  30.575  28.150  1.00  0.00     0.039 A 
ATOM     30  C   UNL A   1      35.438  29.653  29.199  1.00  0.00     0.014 A 
ATOM     31  C   UNL A   1      36.705  31.175  27.815  1.00  0.00     0.014 A 
ATOM     32  C   UNL A   1      36.612  29.297  29.865  1.00  0.00     0.010 A 
ATOM     33  C   UNL A   1      37.887  30.724  28.389  1.00  0.00     0.010 A 
ATOM     34  C   UNL A   1      37.852  29.804  29.443  1.00  0.00    -0.014 A 
BRANCH  34  35
ATOM     35  C   UNL A   1      39.118  29.419  30.115  1.00  0.00     0.031 A 
ATOM     36  C   UNL A   1      39.545  30.126  31.377  1.00  0.00     0.074 A 
ATOM     37  C   UNL A   1      39.904  28.472  29.565  1.00  0.00     0.049 A 
ATOM     38  N   UNL A   1      40.626  29.953  32.092  1.00  0.00    -0.248 NA
ATOM     39  C   UNL A   1      38.660  31.189  31.884  1.00  0.00     0.031 C 
ATOM     40  C   UNL A   1      39.626  27.758  28.315  1.00  0.00     0.029 A 
ATOM     41  N   UNL A   1      41.096  27.943  29.988  1.00  0.00    -0.354 N 
ATOM     42  C   UNL A   1      40.560  30.895  33.114  1.00  0.00     0.074 A 
ATOM     43  C   UNL A   1      39.371  31.682  32.887  1.00  0.00     0.031 C 
ATOM     44  C   UNL A   1      40.594  26.854  28.100  1.00  0.00     0.029 A 
ATOM     45  C   UNL A   1      41.583  26.953  29.168  1.00  0.00     0.049 A 
ATOM     46  H   UNL A   1      41.560  28.243  30.803  1.00  0.00     0.167 HD
ATOM     47  C   UNL A   1      41.395  31.071  34.163  1.00  0.00     0.031 A 
ATOM     48  C   UNL A   1      42.700  26.205  29.266  1.00  0.00     0.031 A 
ATOM     49  C   UNL A   1      42.565  30.267  34.395  1.00  0.00     0.049 A 
ATOM     50  C   UNL A   1      43.608  26.411  30.447  1.00  0.00     0.074 A 
ATOM     51  C   UNL A   1      43.447  30.318  35.460  1.00  0.00     0.029 A 
ATOM     52  N   UNL A   1      43.015  29.265  33.548  1.00  0.00    -0.354 N 
ATOM     53  N   UNL A   1      43.488  27.258  31.442  1.00  0.00    -0.248 NA
ATOM     54  C   UNL A   1      44.793  25.548  30.528  1.00  0.00     0.031 C 
ATOM     55  C   UNL A   1      44.462  29.385  35.228  1.00  0.00     0.029 A 
ATOM     56  C   UNL A   1      44.176  28.706  34.053  1.00  0.00     0.049 A 
ATOM     57  H   UNL A   1      42.575  28.993  32.711  1.00  0.00     0.167 HD
ATOM     58  C   UNL A   1      44.567  27.011  32.283  1.00  0.00     0.074 A 
ATOM     59  C   UNL A   1      45.316  25.922  31.688  1.00  0.00     0.031 C 
ATOM     60  C   UNL A   1      44.908  27.626  33.442  1.00  0.00     0.031 A 
BRANCH  47  61
ATOM     61  C   UNL A   1      41.070  32.172  35.140  1.00  0.00    -0.014 A 
ATOM     62  C   UNL A   1      40.322  31.915  36.305  1.00  0.00     0.010 A 
ATOM     63  C   UNL A   1      41.543  33.476  34.909  1.00  0.00     0.010 A 
ATOM     64  C   UNL A   1      40.016  32.950  37.194  1.00  0.00     0.020 A 
ATOM     65  C   UNL A   1      41.267  34.507  35.812  1.00  0.00     0.020 A 
ATOM     66  C   UNL A   1      40.490  34.240  36.941  1.00  0.00     0.054 A 
BRANCH  66  67
ATOM     67  S   UNL A   1      40.099  35.555  38.126  1.00  0.00     0.124 S 
ATOM     68  O   UNL A   1      38.901  35.028  38.776  1.00  0.00    -0.237 OA
ATOM     69  O   UNL A   1      41.297  35.602  38.959  1.00  0.00    -0.237 OA
ATOM     70  O   UNL A   1      39.882  36.730  37.283  1.00  0.00    -0.744 OA
ENDBRANCH  66  67
ENDBRANCH  47  61
BRANCH  48  71
ATOM     71  C   UNL A   1      43.001  25.176  28.232  1.00  0.00    -0.014 A 
ATOM     72  C   UNL A   1      43.795  25.494  27.116  1.00  0.00     0.010 A 
ATOM     73  C   UNL A   1      42.509  23.865  28.368  1.00  0.00     0.010 A 
ATOM     74  C   UNL A   1      44.072  24.528  26.144  1.00  0.00     0.020 A 
ATOM     75  C   UNL A   1      42.810  22.888  27.415  1.00  0.00     0.020 A 
ATOM     76  C   UNL A   1      43.580  23.229  26.301  1.00  0.00     0.054 A 
BRANCH  76  77
ATOM     77  S   UNL A   1      43.993  21.980  25.052  1.00  0.00     0.124 S 
ATOM     78  O   UNL A   1      43.612  22.651  23.813  1.00  0.00    -0.237 OA
ATOM     79  O   UNL A   1      45.427  21.793  25.258  1.00  0.00    -0.237 OA
ATOM     80  O   UNL A   1      43.164  20.836  25.426  1.00  0.00    -0.744 OA
ENDBRANCH  76  77
ENDBRANCH  48  71
BRANCH  60  81
ATOM     81  C   UNL A   1      46.125  27.111  34.164  1.00  0.00    -0.014 A 
ATOM     82  C   UNL A   1      47.398  27.662  33.936  1.00  0.00     0.010 A 
ATOM     83  C   UNL A   1      45.982  26.087  35.119  1.00  0.00     0.010 A 
ATOM     84  C   UNL A   1      48.513  27.169  34.619  1.00  0.00     0.020 A 
ATOM     85  C   UNL A   1      47.087  25.615  35.828  1.00  0.00     0.020 A 
ATOM     86  C   UNL A   1      48.350  26.147  35.560  1.00  0.00     0.054 A 
BRANCH  86  87
ATOM     87  S   UNL A   1      49.807  25.545  36.455  1.00  0.00     0.124 S 
ATOM     88  O   UNL A   1      49.564  24.106  36.496  1.00  0.00    -0.237 OA
ATOM     89  O   UNL A   1      50.909  25.972  35.596  1.00  0.00    -0.237 OA
ATOM     90  O   UNL A   1      49.728  26.227  37.745  1.00  0.00    -0.744 OA
ENDBRANCH  86  87
ENDBRANCH  60  81
ENDBRANCH  34  35
ENDBRANCH  26  29
ENDBRANCH  24  25
ENDBRANCH   1  24
TORSDOF 17
ENDMDL
MODEL 3
REMARK VINA RESULT:     -10.3      4.676      9.865
REMARK SMILES CCc1nc(COC)cc(N2CCCC[C@H]2C(=O)NCCCNC(=O)c2ccc(-c3c4nc(c(-c5ccc(S(=O)(=O)[O-])cc5)c5ccc([nH]5)c(-c5ccc(S(=O)(=O)[O-])cc5)c5nc(c(-c6ccc(S(=O)(=O)[O-])cc6)c6ccc3[nH]6)C=C5)C=C4)cc2)n1
REMARK SMILES IDX 21 1 20 2 19 3 17 4 18 5 16 7 11 8 12 9 13 10 15 11 14 12
REMARK SMILES IDX 10 13 3 14 4 15 86 16 5 17 9 18 2 19 1 20 6 21 7 22 8 23
REMARK SMILES IDX 22 24 23 25 24 26 25 28 26 29 27 30 85 31 28 32 84 33 29 34
REMARK SMILES IDX 30 35 31 36 78 37 32 38 83 39 77 40 79 41 33 42 82 43 76 44
REMARK SMILES IDX 75 45 34 47 64 48 45 49 63 50 46 51 49 52 62 53 80 54 47 55
REMARK SMILES IDX 48 56 61 58 81 59 50 60 35 61 36 62 44 63 37 64 43 65 38 66
REMARK SMILES IDX 39 67 40 68 41 69 42 70 65 71 66 72 74 73 67 74 73 75 68 76
REMARK SMILES IDX 69 77 70 78 71 79 72 80 51 81 52 82 60 83 53 84 59 85 54 86
REMARK SMILES IDX 55 87 56 88 57 89 58 90
REMARK H PARENT 19 6 23 27 79 46 49 57
REMARK Flexibility Score: inf
ROOT
ATOM      1  C   UNL A   1      38.876  22.811  26.547  1.00  0.00     0.042 C 
ENDROOT
BRANCH   1   2
ATOM      2  C   UNL A   1      37.768  23.718  26.040  1.00  0.00     0.117 C 
BRANCH   2   3
ATOM      3  N   UNL A   1      37.438  23.491  24.655  1.00  0.00    -0.354 N 
ATOM      4  C   UNL A   1      36.280  23.089  24.069  1.00  0.00     0.242 C 
ATOM      5  O   UNL A   1      36.320  22.971  22.836  1.00  0.00    -0.273 OA
ATOM      6  H   UNL A   1      38.178  23.655  24.028  1.00  0.00     0.163 HD
BRANCH   4   7
ATOM      7  C   UNL A   1      34.959  22.781  24.824  1.00  0.00     0.173 C 
ATOM      8  N   UNL A   1      33.751  23.251  24.136  1.00  0.00    -0.344 N 
ATOM      9  C   UNL A   1      32.948  22.359  23.315  1.00  0.00     0.119 C 
ATOM     10  C   UNL A   1      32.739  20.987  23.941  1.00  0.00     0.022 C 
ATOM     11  C   UNL A   1      34.794  21.375  25.414  1.00  0.00     0.035 C 
ATOM     12  C   UNL A   1      33.953  20.375  24.630  1.00  0.00     0.004 C 
BRANCH   8  13
ATOM     13  C   UNL A   1      33.165  24.446  24.527  1.00  0.00     0.133 A 
ATOM     14  C   UNL A   1      31.320  25.830  24.510  1.00  0.00     0.130 A 
ATOM     15  N   UNL A   1      31.936  26.813  25.181  1.00  0.00    -0.235 NA
ATOM     16  N   UNL A   1      31.891  24.665  24.168  1.00  0.00    -0.216 NA
ATOM     17  C   UNL A   1      33.228  26.602  25.506  1.00  0.00     0.072 A 
ATOM     18  C   UNL A   1      33.871  25.407  25.227  1.00  0.00     0.073 A 
BRANCH  14  19
ATOM     19  C   UNL A   1      29.893  26.042  24.089  1.00  0.00     0.074 C 
ATOM     20  C   UNL A   1      29.689  27.429  23.504  1.00  0.00     0.012 C 
ENDBRANCH  14  19
BRANCH  17  21
ATOM     21  C   UNL A   1      33.992  27.754  26.122  1.00  0.00     0.216 C 
BRANCH  21  22
ATOM     22  O   UNL A   1      33.617  29.035  25.598  1.00  0.00    -0.378 OA
ATOM     23  C   UNL A   1      33.268  29.974  26.608  1.00  0.00     0.195 C 
ENDBRANCH  21  22
ENDBRANCH  17  21
ENDBRANCH   8  13
ENDBRANCH   4   7
ENDBRANCH   2   3
ENDBRANCH   1   2
BRANCH   1  24
ATOM     24  C   UNL A   1      40.049  23.570  27.135  1.00  0.00     0.118 C 
BRANCH  24  25
ATOM     25  N   UNL A   1      40.783  24.320  26.122  1.00  0.00    -0.352 N 
ATOM     26  C   UNL A   1      41.113  25.652  26.059  1.00  0.00     0.251 C 
ATOM     27  H   UNL A   1      41.095  23.782  25.358  1.00  0.00     0.163 HD
ATOM     28  O   UNL A   1      41.552  26.108  25.008  1.00  0.00    -0.269 OA
BRANCH  26  29
ATOM     29  C   UNL A   1      40.926  26.532  27.234  1.00  0.00     0.039 A 
ATOM     30  C   UNL A   1      40.027  26.151  28.234  1.00  0.00     0.014 A 
ATOM     31  C   UNL A   1      41.613  27.742  27.345  1.00  0.00     0.014 A 
ATOM     32  C   UNL A   1      39.867  26.957  29.362  1.00  0.00     0.010 A 
ATOM     33  C   UNL A   1      41.551  28.474  28.523  1.00  0.00     0.010 A 
ATOM     34  C   UNL A   1      40.653  28.108  29.533  1.00  0.00    -0.014 A 
BRANCH  34  35
ATOM     35  C   UNL A   1      40.524  28.967  30.737  1.00  0.00     0.031 A 
ATOM     36  C   UNL A   1      39.465  30.040  30.785  1.00  0.00     0.074 A 
ATOM     37  C   UNL A   1      41.386  28.814  31.761  1.00  0.00     0.049 A 
ATOM     38  N   UNL A   1      39.213  30.906  31.733  1.00  0.00    -0.248 NA
ATOM     39  C   UNL A   1      38.598  30.183  29.602  1.00  0.00     0.031 C 
ATOM     40  C   UNL A   1      42.489  27.849  31.805  1.00  0.00     0.029 A 
ATOM     41  N   UNL A   1      41.470  29.465  32.965  1.00  0.00    -0.354 N 
ATOM     42  C   UNL A   1      38.180  31.704  31.251  1.00  0.00     0.074 A 
ATOM     43  C   UNL A   1      37.898  31.266  29.904  1.00  0.00     0.031 C 
ATOM     44  C   UNL A   1      43.106  27.941  32.994  1.00  0.00     0.029 A 
ATOM     45  C   UNL A   1      42.475  28.997  33.777  1.00  0.00     0.049 A 
ATOM     46  H   UNL A   1      40.866  30.199  33.224  1.00  0.00     0.167 HD
ATOM     47  C   UNL A   1      37.504  32.691  31.883  1.00  0.00     0.031 A 
ATOM     48  C   UNL A   1      42.846  29.374  35.016  1.00  0.00     0.031 A 
ATOM     49  C   UNL A   1      37.774  33.106  33.233  1.00  0.00     0.049 A 
ATOM     50  C   UNL A   1      42.074  30.467  35.703  1.00  0.00     0.074 A 
ATOM     51  C   UNL A   1      37.110  34.052  33.993  1.00  0.00     0.029 A 
ATOM     52  N   UNL A   1      38.792  32.596  34.027  1.00  0.00    -0.354 N 
ATOM     53  N   UNL A   1      41.051  31.159  35.258  1.00  0.00    -0.248 NA
ATOM     54  C   UNL A   1      42.494  30.818  37.066  1.00  0.00     0.031 C 
ATOM     55  C   UNL A   1      37.762  34.156  35.225  1.00  0.00     0.029 A 
ATOM     56  C   UNL A   1      38.790  33.226  35.259  1.00  0.00     0.049 A 
ATOM     57  H   UNL A   1      39.423  31.892  33.753  1.00  0.00     0.167 HD
ATOM     58  C   UNL A   1      40.687  32.008  36.297  1.00  0.00     0.074 A 
ATOM     59  C   UNL A   1      41.588  31.727  37.397  1.00  0.00     0.031 C 
ATOM     60  C   UNL A   1      39.698  32.935  36.339  1.00  0.00     0.031 A 
BRANCH  47  61
ATOM     61  C   UNL A   1      36.405  33.387  31.120  1.00  0.00    -0.014 A 
ATOM     62  C   UNL A   1      35.130  33.574  31.686  1.00  0.00     0.010 A 
ATOM     63  C   UNL A   1      36.658  33.888  29.830  1.00  0.00     0.010 A 
ATOM     64  C   UNL A   1      34.118  34.208  30.961  1.00  0.00     0.020 A 
ATOM     65  C   UNL A   1      35.658  34.552  29.113  1.00  0.00     0.020 A 
ATOM     66  C   UNL A   1      34.389  34.693  29.678  1.00  0.00     0.054 A 
BRANCH  66  67
ATOM     67  S   UNL A   1      33.062  35.534  28.771  1.00  0.00     0.124 S 
ATOM     68  O   UNL A   1      33.804  36.549  28.025  1.00  0.00    -0.237 OA
ATOM     69  O   UNL A   1      32.492  34.457  27.968  1.00  0.00    -0.237 OA
ATOM     70  O   UNL A   1      32.193  36.050  29.826  1.00  0.00    -0.744 OA
ENDBRANCH  66  67
ENDBRANCH  47  61
BRANCH  48  71
ATOM     71  C   UNL A   1      43.984  28.692  35.694  1.00  0.00    -0.014 A 
ATOM     72  C   UNL A   1      43.769  27.540  36.469  1.00  0.00     0.010 A 
ATOM     73  C   UNL A   1      45.295  29.184  35.552  1.00  0.00     0.010 A 
ATOM     74  C   UNL A   1      44.837  26.905  37.109  1.00  0.00     0.020 A 
ATOM     75  C   UNL A   1      46.370  28.533  36.164  1.00  0.00     0.020 A 
ATOM     76  C   UNL A   1      46.133  27.404  36.950  1.00  0.00     0.054 A 
BRANCH  76  77
ATOM     77  S   UNL A   1      47.510  26.535  37.749  1.00  0.00     0.124 S 
ATOM     78  O   UNL A   1      47.561  25.287  36.995  1.00  0.00    -0.237 OA
ATOM     79  O   UNL A   1      48.627  27.452  37.536  1.00  0.00    -0.237 OA
ATOM     80  O   UNL A   1      47.074  26.410  39.138  1.00  0.00    -0.744 OA
ENDBRANCH  76  77
ENDBRANCH  48  71
BRANCH  60  81
ATOM     81  C   UNL A   1      39.513  33.687  37.630  1.00  0.00    -0.014 A 
ATOM     82  C   UNL A   1      38.701  33.184  38.661  1.00  0.00     0.010 A 
ATOM     83  C   UNL A   1      40.201  34.899  37.828  1.00  0.00     0.010 A 
ATOM     84  C   UNL A   1      38.547  33.900  39.851  1.00  0.00     0.020 A 
ATOM     85  C   UNL A   1      40.077  35.601  39.028  1.00  0.00     0.020 A 
ATOM     86  C   UNL A   1      39.236  35.105  40.026  1.00  0.00     0.054 A 
BRANCH  86  87
ATOM     87  S   UNL A   1      39.042  36.001  41.590  1.00  0.00     0.124 S 
ATOM     88  O   UNL A   1      40.286  35.674  42.282  1.00  0.00    -0.237 OA
ATOM     89  O   UNL A   1      38.913  37.388  41.150  1.00  0.00    -0.237 OA
ATOM     90  O   UNL A   1      37.834  35.422  42.173  1.00  0.00    -0.744 OA
ENDBRANCH  86  87
ENDBRANCH  60  81
ENDBRANCH  34  35
ENDBRANCH  26  29
ENDBRANCH  24  25
ENDBRANCH   1  24
TORSDOF 17
ENDMDL
