MODEL 1
REMARK VINA RESULT:     -11.2      0.000      0.000
REMARK SMILES O=C(NCCCNC(=O)c1cc(Br)ccc1OCc1ccccc1F)c1ccc(-c2c3nc(c(-c4ccc(S(=O)(=O)[O-])cc4)c4ccc([nH]4)c(-c4ccc(S(=O)(=O)[O-])cc4)c4nc(c(-c5ccc(S(=O)(=O)[O-])cc5)c5ccc2[nH]5)C=C4)C=C3)cc1
REMARK SMILES IDX 5 1 4 2 3 3 1 4 2 5 26 7 27 8 85 9 28 10 84 11 29 12 30 13
REMARK SMILES IDX 31 14 78 15 32 16 83 17 77 18 79 19 33 20 82 21 76 22 75 23
REMARK SMILES IDX 34 25 64 26 45 27 63 28 46 29 49 30 62 31 80 32 47 33 48 34
REMARK SMILES IDX 61 36 81 37 50 38 35 39 36 40 44 41 37 42 43 43 38 44 39 45
REMARK SMILES IDX 40 46 41 47 42 48 65 49 66 50 74 51 67 52 73 53 68 54 69 55
REMARK SMILES IDX 70 56 71 57 72 58 51 59 52 60 60 61 53 62 59 63 54 64 55 65
REMARK SMILES IDX 56 66 57 67 58 68 6 69 7 70 8 71 9 73 10 74 11 75 16 76
REMARK SMILES IDX 12 77 15 78 13 79 14 80 17 81 18 82 19 83 20 84 24 85 21 86
REMARK SMILES IDX 23 87 25 88 22 89
REMARK H PARENT 3 6 79 24 49 35 7 72
REMARK Flexibility Score: inf
ROOT
ATOM      1  C   UNL A   1      33.913  28.390  25.408  1.00  0.00     0.042 C 
ENDROOT
BRANCH   1   2
ATOM      2  C   UNL A   1      33.568  28.417  26.896  1.00  0.00     0.118 C 
BRANCH   2   3
ATOM      3  N   UNL A   1      33.510  29.754  27.469  1.00  0.00    -0.352 N 
ATOM      4  O   UNL A   1      34.017  31.587  28.639  1.00  0.00    -0.269 OA
ATOM      5  C   UNL A   1      34.409  30.516  28.171  1.00  0.00     0.251 C 
ATOM      6  H   UNL A   1      32.646  30.204  27.324  1.00  0.00     0.163 HD
BRANCH   5   7
ATOM      7  C   UNL A   1      35.805  30.088  28.421  1.00  0.00     0.039 A 
ATOM      8  C   UNL A   1      36.236  29.609  29.658  1.00  0.00     0.014 A 
ATOM      9  C   UNL A   1      36.704  30.099  27.345  1.00  0.00     0.014 A 
ATOM     10  C   UNL A   1      37.584  29.308  29.860  1.00  0.00     0.010 A 
ATOM     11  C   UNL A   1      38.039  29.721  27.528  1.00  0.00     0.010 A 
ATOM     12  C   UNL A   1      38.506  29.374  28.802  1.00  0.00    -0.014 A 
BRANCH  12  13
ATOM     13  C   UNL A   1      39.944  29.100  29.064  1.00  0.00     0.031 A 
ATOM     14  C   UNL A   1      40.566  27.793  28.645  1.00  0.00     0.074 A 
ATOM     15  C   UNL A   1      40.717  30.055  29.618  1.00  0.00     0.049 A 
ATOM     16  N   UNL A   1      41.824  27.429  28.692  1.00  0.00    -0.248 NA
ATOM     17  C   UNL A   1      39.664  26.759  28.114  1.00  0.00     0.031 C 
ATOM     18  C   UNL A   1      40.245  31.355  30.098  1.00  0.00     0.029 A 
ATOM     19  N   UNL A   1      42.073  30.094  29.830  1.00  0.00    -0.354 N 
ATOM     20  C   UNL A   1      41.857  26.117  28.233  1.00  0.00     0.074 A 
ATOM     21  C   UNL A   1      40.495  25.746  27.917  1.00  0.00     0.031 C 
ATOM     22  C   UNL A   1      41.301  32.093  30.474  1.00  0.00     0.029 A 
ATOM     23  C   UNL A   1      42.520  31.311  30.286  1.00  0.00     0.049 A 
ATOM     24  H   UNL A   1      42.668  29.325  29.672  1.00  0.00     0.167 HD
ATOM     25  C   UNL A   1      42.922  25.292  28.083  1.00  0.00     0.031 A 
ATOM     26  C   UNL A   1      43.771  31.763  30.499  1.00  0.00     0.031 A 
ATOM     27  C   UNL A   1      44.285  25.657  28.352  1.00  0.00     0.049 A 
ATOM     28  C   UNL A   1      44.943  30.867  30.234  1.00  0.00     0.074 A 
ATOM     29  C   UNL A   1      45.429  24.888  28.216  1.00  0.00     0.029 A 
ATOM     30  N   UNL A   1      44.692  26.904  28.797  1.00  0.00    -0.354 N 
ATOM     31  N   UNL A   1      44.950  29.634  29.794  1.00  0.00    -0.248 NA
ATOM     32  C   UNL A   1      46.277  31.429  30.492  1.00  0.00     0.031 C 
ATOM     33  C   UNL A   1      46.530  25.674  28.582  1.00  0.00     0.029 A 
ATOM     34  C   UNL A   1      46.070  26.931  28.932  1.00  0.00     0.049 A 
ATOM     35  H   UNL A   1      44.090  27.660  28.987  1.00  0.00     0.167 HD
ATOM     36  C   UNL A   1      46.289  29.267  29.725  1.00  0.00     0.074 A 
ATOM     37  C   UNL A   1      47.064  30.417  30.149  1.00  0.00     0.031 C 
ATOM     38  C   UNL A   1      46.825  28.080  29.354  1.00  0.00     0.031 A 
BRANCH  25  39
ATOM     39  C   UNL A   1      42.634  23.895  27.613  1.00  0.00    -0.014 A 
ATOM     40  C   UNL A   1      42.381  22.863  28.533  1.00  0.00     0.010 A 
ATOM     41  C   UNL A   1      42.619  23.613  26.235  1.00  0.00     0.010 A 
ATOM     42  C   UNL A   1      42.161  21.558  28.084  1.00  0.00     0.020 A 
ATOM     43  C   UNL A   1      42.388  22.312  25.783  1.00  0.00     0.020 A 
ATOM     44  C   UNL A   1      42.182  21.289  26.712  1.00  0.00     0.054 A 
BRANCH  44  45
ATOM     45  S   UNL A   1      41.907  19.590  26.137  1.00  0.00     0.124 S 
ATOM     46  O   UNL A   1      42.281  18.813  27.315  1.00  0.00    -0.237 OA
ATOM     47  O   UNL A   1      40.485  19.579  25.804  1.00  0.00    -0.237 OA
ATOM     48  O   UNL A   1      42.810  19.468  24.995  1.00  0.00    -0.744 OA
ENDBRANCH  44  45
ENDBRANCH  25  39
BRANCH  26  49
ATOM     49  C   UNL A   1      43.970  33.166  30.937  1.00  0.00    -0.014 A 
ATOM     50  C   UNL A   1      43.937  34.208  29.994  1.00  0.00     0.010 A 
ATOM     51  C   UNL A   1      44.137  33.472  32.299  1.00  0.00     0.010 A 
ATOM     52  C   UNL A   1      44.064  35.537  30.404  1.00  0.00     0.020 A 
ATOM     53  C   UNL A   1      44.252  34.801  32.713  1.00  0.00     0.020 A 
ATOM     54  C   UNL A   1      44.219  35.825  31.762  1.00  0.00     0.054 A 
BRANCH  54  55
ATOM     55  S   UNL A   1      44.287  37.556  32.307  1.00  0.00     0.124 S 
ATOM     56  O   UNL A   1      43.269  37.585  33.350  1.00  0.00    -0.237 OA
ATOM     57  O   UNL A   1      45.666  37.703  32.764  1.00  0.00    -0.237 OA
ATOM     58  O   UNL A   1      43.965  38.296  31.088  1.00  0.00    -0.744 OA
ENDBRANCH  54  55
ENDBRANCH  26  49
BRANCH  38  59
ATOM     59  C   UNL A   1      48.320  27.969  29.393  1.00  0.00    -0.014 A 
ATOM     60  C   UNL A   1      48.969  27.494  30.547  1.00  0.00     0.010 A 
ATOM     61  C   UNL A   1      49.082  28.317  28.264  1.00  0.00     0.010 A 
ATOM     62  C   UNL A   1      50.361  27.396  30.582  1.00  0.00     0.020 A 
ATOM     63  C   UNL A   1      50.475  28.212  28.294  1.00  0.00     0.020 A 
ATOM     64  C   UNL A   1      51.107  27.765  29.459  1.00  0.00     0.054 A 
BRANCH  64  65
ATOM     65  S   UNL A   1      52.914  27.611  29.500  1.00  0.00     0.124 S 
ATOM     66  O   UNL A   1      53.111  26.240  29.039  1.00  0.00    -0.237 OA
ATOM     67  O   UNL A   1      53.357  28.654  28.577  1.00  0.00    -0.237 OA
ATOM     68  O   UNL A   1      53.242  27.855  30.903  1.00  0.00    -0.744 OA
ENDBRANCH  64  65
ENDBRANCH  38  59
ENDBRANCH  12  13
ENDBRANCH   5   7
ENDBRANCH   2   3
ENDBRANCH   1   2
BRANCH   1  69
ATOM     69  C   UNL A   1      33.654  27.066  24.696  1.00  0.00     0.118 C 
BRANCH  69  70
ATOM     70  N   UNL A   1      33.034  26.057  25.540  1.00  0.00    -0.352 N 
ATOM     71  C   UNL A   1      33.397  24.757  25.778  1.00  0.00     0.255 C 
ATOM     72  H   UNL A   1      32.226  26.355  26.015  1.00  0.00     0.163 HD
ATOM     73  O   UNL A   1      32.853  24.125  26.676  1.00  0.00    -0.269 OA
BRANCH  71  74
ATOM     74  C   UNL A   1      34.497  24.145  25.020  1.00  0.00     0.082 A 
ATOM     75  C   UNL A   1      35.709  24.061  25.733  1.00  0.00     0.033 A 
ATOM     76  C   UNL A   1      34.382  23.567  23.747  1.00  0.00     0.132 A 
ATOM     77  C   UNL A   1      36.818  23.443  25.167  1.00  0.00     0.019 A 
ATOM     78  C   UNL A   1      35.524  22.951  23.202  1.00  0.00     0.048 A 
ATOM     79  Br  UNL A   1      38.435  23.339  26.136  1.00  0.00    -0.051 Br
ATOM     80  C   UNL A   1      36.734  22.891  23.897  1.00  0.00     0.019 A 
BRANCH  76  81
ATOM     81  O   UNL A   1      33.320  23.454  22.898  1.00  0.00    -0.488 OA
BRANCH  81  82
ATOM     82  C   UNL A   1      32.116  22.776  23.249  1.00  0.00     0.268 C 
BRANCH  82  83
ATOM     83  C   UNL A   1      32.314  21.333  23.637  1.00  0.00     0.025 A 
ATOM     84  C   UNL A   1      32.618  20.921  24.942  1.00  0.00     0.010 A 
ATOM     85  C   UNL A   1      32.178  20.353  22.649  1.00  0.00     0.129 A 
ATOM     86  C   UNL A   1      32.737  19.561  25.248  1.00  0.00     0.001 A 
ATOM     87  C   UNL A   1      32.303  18.998  22.944  1.00  0.00     0.039 A 
ATOM     88  F   UNL A   1      31.909  20.718  21.386  1.00  0.00    -0.207 F 
ATOM     89  C   UNL A   1      32.574  18.599  24.251  1.00  0.00     0.003 A 
ENDBRANCH  82  83
ENDBRANCH  81  82
ENDBRANCH  76  81
ENDBRANCH  71  74
ENDBRANCH  69  70
ENDBRANCH   1  69
TORSDOF 16
ENDMDL
MODEL 2
REMARK VINA RESULT:     -11.0      1.929      3.089
REMARK SMILES O=C(NCCCNC(=O)c1cc(Br)ccc1OCc1ccccc1F)c1ccc(-c2c3nc(c(-c4ccc(S(=O)(=O)[O-])cc4)c4ccc([nH]4)c(-c4ccc(S(=O)(=O)[O-])cc4)c4nc(c(-c5ccc(S(=O)(=O)[O-])cc5)c5ccc2[nH]5)C=C4)C=C3)cc1
REMARK SMILES IDX 5 1 4 2 3 3 1 4 2 5 26 7 27 8 85 9 28 10 84 11 29 12 30 13
REMARK SMILES IDX 31 14 78 15 32 16 83 17 77 18 79 19 33 20 82 21 76 22 75 23
REMARK SMILES IDX 34 25 64 26 45 27 63 28 46 29 49 30 62 31 80 32 47 33 48 34
REMARK SMILES IDX 61 36 81 37 50 38 35 39 36 40 44 41 37 42 43 43 38 44 39 45
REMARK SMILES IDX 40 46 41 47 42 48 65 49 66 50 74 51 67 52 73 53 68 54 69 55
REMARK SMILES IDX 70 56 71 57 72 58 51 59 52 60 60 61 53 62 59 63 54 64 55 65
REMARK SMILES IDX 56 66 57 67 58 68 6 69 7 70 8 71 9 73 10 74 11 75 16 76
REMARK SMILES IDX 12 77 15 78 13 79 14 80 17 81 18 82 19 83 20 84 24 85 21 86
REMARK SMILES IDX 23 87 25 88 22 89
REMARK H PARENT 3 6 79 24 49 35 7 72
REMARK Flexibility Score: inf
ROOT
ATOM      1  C   UNL A   1      33.649  28.428  25.541  1.00  0.00     0.042 C 
ENDROOT
BRANCH   1   2
ATOM      2  C   UNL A   1      33.623  28.488  27.067  1.00  0.00     0.118 C 
BRANCH   2   3
ATOM      3  N   UNL A   1      33.609  29.839  27.610  1.00  0.00    -0.352 N 
ATOM      4  O   UNL A   1      34.190  31.689  28.716  1.00  0.00    -0.269 OA
ATOM      5  C   UNL A   1      34.546  30.600  28.261  1.00  0.00     0.251 C 
ATOM      6  H   UNL A   1      32.749  30.302  27.483  1.00  0.00     0.163 HD
BRANCH   5   7
ATOM      7  C   UNL A   1      35.943  30.151  28.472  1.00  0.00     0.039 A 
ATOM      8  C   UNL A   1      36.407  29.690  29.703  1.00  0.00     0.014 A 
ATOM      9  C   UNL A   1      36.804  30.124  27.366  1.00  0.00     0.014 A 
ATOM     10  C   UNL A   1      37.756  29.367  29.866  1.00  0.00     0.010 A 
ATOM     11  C   UNL A   1      38.138  29.725  27.512  1.00  0.00     0.010 A 
ATOM     12  C   UNL A   1      38.642  29.396  28.776  1.00  0.00    -0.014 A 
BRANCH  12  13
ATOM     13  C   UNL A   1      40.083  29.100  28.995  1.00  0.00     0.031 A 
ATOM     14  C   UNL A   1      40.668  27.777  28.576  1.00  0.00     0.074 A 
ATOM     15  C   UNL A   1      40.890  30.049  29.508  1.00  0.00     0.049 A 
ATOM     16  N   UNL A   1      41.920  27.391  28.587  1.00  0.00    -0.248 NA
ATOM     17  C   UNL A   1      39.731  26.750  28.092  1.00  0.00     0.031 C 
ATOM     18  C   UNL A   1      40.456  31.365  29.982  1.00  0.00     0.029 A 
ATOM     19  N   UNL A   1      42.253  30.068  29.674  1.00  0.00    -0.354 N 
ATOM     20  C   UNL A   1      41.916  26.072  28.149  1.00  0.00     0.074 A 
ATOM     21  C   UNL A   1      40.537  25.719  27.884  1.00  0.00     0.031 C 
ATOM     22  C   UNL A   1      41.537  32.090  30.310  1.00  0.00     0.029 A 
ATOM     23  C   UNL A   1      42.735  31.284  30.095  1.00  0.00     0.049 A 
ATOM     24  H   UNL A   1      42.829  29.286  29.509  1.00  0.00     0.167 HD
ATOM     25  C   UNL A   1      42.961  25.226  27.976  1.00  0.00     0.031 A 
ATOM     26  C   UNL A   1      44.000  31.718  30.260  1.00  0.00     0.031 A 
ATOM     27  C   UNL A   1      44.338  25.571  28.194  1.00  0.00     0.049 A 
ATOM     28  C   UNL A   1      45.147  30.797  29.971  1.00  0.00     0.074 A 
ATOM     29  C   UNL A   1      45.463  24.780  28.033  1.00  0.00     0.029 A 
ATOM     30  N   UNL A   1      44.781  26.818  28.605  1.00  0.00    -0.354 N 
ATOM     31  N   UNL A   1      45.118  29.557  29.550  1.00  0.00    -0.248 NA
ATOM     32  C   UNL A   1      46.499  31.339  30.175  1.00  0.00     0.031 C 
ATOM     33  C   UNL A   1      46.589  25.551  28.349  1.00  0.00     0.029 A 
ATOM     34  C   UNL A   1      46.163  26.822  28.695  1.00  0.00     0.049 A 
ATOM     35  H   UNL A   1      44.199  27.586  28.803  1.00  0.00     0.167 HD
ATOM     36  C   UNL A   1      46.448  29.165  29.442  1.00  0.00     0.074 A 
ATOM     37  C   UNL A   1      47.256  30.308  29.822  1.00  0.00     0.031 C 
ATOM     38  C   UNL A   1      46.951  27.964  29.073  1.00  0.00     0.031 A 
BRANCH  25  39
ATOM     39  C   UNL A   1      42.633  23.827  27.539  1.00  0.00    -0.014 A 
ATOM     40  C   UNL A   1      42.331  22.829  28.482  1.00  0.00     0.010 A 
ATOM     41  C   UNL A   1      42.632  23.509  26.169  1.00  0.00     0.010 A 
ATOM     42  C   UNL A   1      42.074  21.521  28.063  1.00  0.00     0.020 A 
ATOM     43  C   UNL A   1      42.364  22.204  25.748  1.00  0.00     0.020 A 
ATOM     44  C   UNL A   1      42.108  21.213  26.700  1.00  0.00     0.054 A 
BRANCH  44  45
ATOM     45  S   UNL A   1      41.786  19.510  26.165  1.00  0.00     0.124 S 
ATOM     46  O   UNL A   1      42.178  18.748  27.346  1.00  0.00    -0.237 OA
ATOM     47  O   UNL A   1      40.354  19.520  25.872  1.00  0.00    -0.237 OA
ATOM     48  O   UNL A   1      42.654  19.350  25.000  1.00  0.00    -0.744 OA
ENDBRANCH  44  45
ENDBRANCH  25  39
BRANCH  26  49
ATOM     49  C   UNL A   1      44.237  33.124  30.668  1.00  0.00    -0.014 A 
ATOM     50  C   UNL A   1      44.283  34.139  29.697  1.00  0.00     0.010 A 
ATOM     51  C   UNL A   1      44.365  33.459  32.027  1.00  0.00     0.010 A 
ATOM     52  C   UNL A   1      44.446  35.473  30.077  1.00  0.00     0.020 A 
ATOM     53  C   UNL A   1      44.516  34.795  32.411  1.00  0.00     0.020 A 
ATOM     54  C   UNL A   1      44.560  35.792  31.433  1.00  0.00     0.054 A 
BRANCH  54  55
ATOM     55  S   UNL A   1      44.676  37.534  31.934  1.00  0.00     0.124 S 
ATOM     56  O   UNL A   1      46.103  37.679  32.196  1.00  0.00    -0.237 OA
ATOM     57  O   UNL A   1      44.171  38.247  30.763  1.00  0.00    -0.237 OA
ATOM     58  O   UNL A   1      43.808  37.596  33.109  1.00  0.00    -0.744 OA
ENDBRANCH  54  55
ENDBRANCH  26  49
BRANCH  38  59
ATOM     59  C   UNL A   1      48.445  27.827  29.064  1.00  0.00    -0.014 A 
ATOM     60  C   UNL A   1      49.181  28.138  27.907  1.00  0.00     0.010 A 
ATOM     61  C   UNL A   1      49.121  27.408  30.223  1.00  0.00     0.010 A 
ATOM     62  C   UNL A   1      50.572  28.005  27.901  1.00  0.00     0.020 A 
ATOM     63  C   UNL A   1      50.512  27.282  30.222  1.00  0.00     0.020 A 
ATOM     64  C   UNL A   1      51.228  27.568  29.055  1.00  0.00     0.054 A 
BRANCH  64  65
ATOM     65  S   UNL A   1      53.036  27.422  29.050  1.00  0.00     0.124 S 
ATOM     66  O   UNL A   1      53.269  26.588  27.875  1.00  0.00    -0.237 OA
ATOM     67  O   UNL A   1      53.481  28.809  28.934  1.00  0.00    -0.237 OA
ATOM     68  O   UNL A   1      53.327  26.791  30.336  1.00  0.00    -0.744 OA
ENDBRANCH  64  65
ENDBRANCH  38  59
ENDBRANCH  12  13
ENDBRANCH   5   7
ENDBRANCH   2   3
ENDBRANCH   1   2
BRANCH   1  69
ATOM     69  C   UNL A   1      33.291  27.078  24.929  1.00  0.00     0.118 C 
BRANCH  69  70
ATOM     70  N   UNL A   1      33.635  26.961  23.521  1.00  0.00    -0.352 N 
ATOM     71  C   UNL A   1      33.477  25.912  22.654  1.00  0.00     0.255 C 
ATOM     72  H   UNL A   1      34.048  27.764  23.128  1.00  0.00     0.163 HD
ATOM     73  O   UNL A   1      33.653  26.078  21.452  1.00  0.00    -0.269 OA
BRANCH  71  74
ATOM     74  C   UNL A   1      33.010  24.609  23.147  1.00  0.00     0.082 A 
ATOM     75  C   UNL A   1      34.045  23.741  23.546  1.00  0.00     0.033 A 
ATOM     76  C   UNL A   1      31.668  24.248  23.341  1.00  0.00     0.132 A 
ATOM     77  C   UNL A   1      33.750  22.500  24.098  1.00  0.00     0.019 A 
ATOM     78  C   UNL A   1      31.404  22.984  23.900  1.00  0.00     0.048 A 
ATOM     79  Br  UNL A   1      35.150  21.349  24.628  1.00  0.00    -0.051 Br
ATOM     80  C   UNL A   1      32.429  22.111  24.272  1.00  0.00     0.019 A 
BRANCH  76  81
ATOM     81  O   UNL A   1      30.507  24.926  23.109  1.00  0.00    -0.488 OA
BRANCH  81  82
ATOM     82  C   UNL A   1      29.911  25.795  24.069  1.00  0.00     0.268 C 
BRANCH  82  83
ATOM     83  C   UNL A   1      29.459  27.116  23.503  1.00  0.00     0.025 A 
ATOM     84  C   UNL A   1      30.321  28.014  22.858  1.00  0.00     0.010 A 
ATOM     85  C   UNL A   1      28.108  27.463  23.617  1.00  0.00     0.129 A 
ATOM     86  C   UNL A   1      29.827  29.201  22.306  1.00  0.00     0.001 A 
ATOM     87  C   UNL A   1      27.611  28.646  23.079  1.00  0.00     0.039 A 
ATOM     88  F   UNL A   1      27.263  26.635  24.250  1.00  0.00    -0.207 F 
ATOM     89  C   UNL A   1      28.472  29.515  22.412  1.00  0.00     0.003 A 
ENDBRANCH  82  83
ENDBRANCH  81  82
ENDBRANCH  76  81
ENDBRANCH  71  74
ENDBRANCH  69  70
ENDBRANCH   1  69
TORSDOF 16
ENDMDL
MODEL 3
REMARK VINA RESULT:     -10.9      3.184      8.430
REMARK SMILES O=C(NCCCNC(=O)c1cc(Br)ccc1OCc1ccccc1F)c1ccc(-c2c3nc(c(-c4ccc(S(=O)(=O)[O-])cc4)c4ccc([nH]4)c(-c4ccc(S(=O)(=O)[O-])cc4)c4nc(c(-c5ccc(S(=O)(=O)[O-])cc5)c5ccc2[nH]5)C=C4)C=C3)cc1
REMARK SMILES IDX 5 1 4 2 3 3 1 4 2 5 26 7 27 8 85 9 28 10 84 11 29 12 30 13
REMARK SMILES IDX 31 14 78 15 32 16 83 17 77 18 79 19 33 20 82 21 76 22 75 23
REMARK SMILES IDX 34 25 64 26 45 27 63 28 46 29 49 30 62 31 80 32 47 33 48 34
REMARK SMILES IDX 61 36 81 37 50 38 35 39 36 40 44 41 37 42 43 43 38 44 39 45
REMARK SMILES IDX 40 46 41 47 42 48 65 49 66 50 74 51 67 52 73 53 68 54 69 55
REMARK SMILES IDX 70 56 71 57 72 58 51 59 52 60 60 61 53 62 59 63 54 64 55 65
REMARK SMILES IDX 56 66 57 67 58 68 6 69 7 70 8 71 9 73 10 74 11 75 16 76
REMARK SMILES IDX 12 77 15 78 13 79 14 80 17 81 18 82 19 83 20 84 24 85 21 86
REMARK SMILES IDX 23 87 25 88 22 89
REMARK H PARENT 3 6 79 24 49 35 7 72
REMARK Flexibility Score: inf
ROOT
ATOM      1  C   UNL A   1      35.083  23.385  26.362  1.00  0.00     0.042 C 
ENDROOT
BRANCH   1   2
ATOM      2  C   UNL A   1      36.319  23.945  25.663  1.00  0.00     0.118 C 
BRANCH   2   3
ATOM      3  N   UNL A   1      37.448  23.027  25.622  1.00  0.00    -0.352 N 
ATOM      4  O   UNL A   1      39.514  22.193  25.773  1.00  0.00    -0.269 OA
ATOM      5  C   UNL A   1      38.743  23.109  26.068  1.00  0.00     0.251 C 
ATOM      6  H   UNL A   1      37.239  22.169  25.185  1.00  0.00     0.163 HD
BRANCH   5   7
ATOM      7  C   UNL A   1      39.257  24.261  26.845  1.00  0.00     0.039 A 
ATOM      8  C   UNL A   1      39.050  24.397  28.217  1.00  0.00     0.014 A 
ATOM      9  C   UNL A   1      40.044  25.211  26.178  1.00  0.00     0.014 A 
ATOM     10  C   UNL A   1      39.478  25.549  28.879  1.00  0.00     0.010 A 
ATOM     11  C   UNL A   1      40.541  26.328  26.859  1.00  0.00     0.010 A 
ATOM     12  C   UNL A   1      40.215  26.537  28.205  1.00  0.00    -0.014 A 
BRANCH  12  13
ATOM     13  C   UNL A   1      40.609  27.777  28.925  1.00  0.00     0.031 A 
ATOM     14  C   UNL A   1      42.033  27.992  29.366  1.00  0.00     0.074 A 
ATOM     15  C   UNL A   1      39.699  28.752  29.125  1.00  0.00     0.049 A 
ATOM     16  N   UNL A   1      42.576  29.055  29.904  1.00  0.00    -0.248 NA
ATOM     17  C   UNL A   1      42.967  26.867  29.192  1.00  0.00     0.031 C 
ATOM     18  C   UNL A   1      38.280  28.671  28.775  1.00  0.00     0.029 A 
ATOM     19  N   UNL A   1      39.846  30.020  29.630  1.00  0.00    -0.354 N 
ATOM     20  C   UNL A   1      43.899  28.718  30.164  1.00  0.00     0.074 A 
ATOM     21  C   UNL A   1      44.078  27.348  29.731  1.00  0.00     0.031 C 
ATOM     22  C   UNL A   1      37.704  29.861  29.003  1.00  0.00     0.029 A 
ATOM     23  C   UNL A   1      38.706  30.781  29.536  1.00  0.00     0.049 A 
ATOM     24  H   UNL A   1      40.686  30.352  30.023  1.00  0.00     0.167 HD
ATOM     25  C   UNL A   1      44.882  29.474  30.710  1.00  0.00     0.031 A 
ATOM     26  C   UNL A   1      38.492  32.081  29.816  1.00  0.00     0.031 A 
ATOM     27  C   UNL A   1      44.734  30.847  31.108  1.00  0.00     0.049 A 
ATOM     28  C   UNL A   1      39.618  32.928  30.329  1.00  0.00     0.074 A 
ATOM     29  C   UNL A   1      45.681  31.694  31.659  1.00  0.00     0.029 A 
ATOM     30  N   UNL A   1      43.566  31.581  30.980  1.00  0.00    -0.354 N 
ATOM     31  N   UNL A   1      40.861  32.588  30.560  1.00  0.00    -0.248 NA
ATOM     32  C   UNL A   1      39.309  34.337  30.614  1.00  0.00     0.031 C 
ATOM     33  C   UNL A   1      45.082  32.943  31.867  1.00  0.00     0.029 A 
ATOM     34  C   UNL A   1      43.769  32.873  31.433  1.00  0.00     0.049 A 
ATOM     35  H   UNL A   1      42.719  31.234  30.620  1.00  0.00     0.167 HD
ATOM     36  C   UNL A   1      41.486  33.740  31.022  1.00  0.00     0.074 A 
ATOM     37  C   UNL A   1      40.488  34.792  31.018  1.00  0.00     0.031 C 
ATOM     38  C   UNL A   1      42.769  33.906  31.423  1.00  0.00     0.031 A 
BRANCH  25  39
ATOM     39  C   UNL A   1      46.211  28.807  30.920  1.00  0.00    -0.014 A 
ATOM     40  C   UNL A   1      47.207  28.856  29.929  1.00  0.00     0.010 A 
ATOM     41  C   UNL A   1      46.463  28.119  32.121  1.00  0.00     0.010 A 
ATOM     42  C   UNL A   1      48.421  28.190  30.118  1.00  0.00     0.020 A 
ATOM     43  C   UNL A   1      47.680  27.462  32.316  1.00  0.00     0.020 A 
ATOM     44  C   UNL A   1      48.643  27.484  31.305  1.00  0.00     0.054 A 
BRANCH  44  45
ATOM     45  S   UNL A   1      50.217  26.612  31.538  1.00  0.00     0.124 S 
ATOM     46  O   UNL A   1      49.769  25.325  32.061  1.00  0.00    -0.237 OA
ATOM     47  O   UNL A   1      50.781  26.579  30.190  1.00  0.00    -0.237 OA
ATOM     48  O   UNL A   1      50.936  27.458  32.488  1.00  0.00    -0.744 OA
ENDBRANCH  44  45
ENDBRANCH  25  39
BRANCH  26  49
ATOM     49  C   UNL A   1      37.155  32.669  29.555  1.00  0.00    -0.014 A 
ATOM     50  C   UNL A   1      36.226  32.794  30.602  1.00  0.00     0.010 A 
ATOM     51  C   UNL A   1      36.827  33.154  28.277  1.00  0.00     0.010 A 
ATOM     52  C   UNL A   1      34.988  33.400  30.379  1.00  0.00     0.020 A 
ATOM     53  C   UNL A   1      35.594  33.772  28.054  1.00  0.00     0.020 A 
ATOM     54  C   UNL A   1      34.681  33.888  29.106  1.00  0.00     0.054 A 
BRANCH  54  55
ATOM     55  S   UNL A   1      33.112  34.762  28.838  1.00  0.00     0.124 S 
ATOM     56  O   UNL A   1      33.568  36.056  28.345  1.00  0.00    -0.237 OA
ATOM     57  O   UNL A   1      32.428  33.918  27.862  1.00  0.00    -0.237 OA
ATOM     58  O   UNL A   1      32.509  34.770  30.170  1.00  0.00    -0.744 OA
ENDBRANCH  54  55
ENDBRANCH  26  49
BRANCH  38  59
ATOM     59  C   UNL A   1      43.161  35.276  31.893  1.00  0.00    -0.014 A 
ATOM     60  C   UNL A   1      42.955  35.655  33.232  1.00  0.00     0.010 A 
ATOM     61  C   UNL A   1      43.760  36.182  31.001  1.00  0.00     0.010 A 
ATOM     62  C   UNL A   1      43.317  36.933  33.665  1.00  0.00     0.020 A 
ATOM     63  C   UNL A   1      44.130  37.458  31.434  1.00  0.00     0.020 A 
ATOM     64  C   UNL A   1      43.894  37.830  32.760  1.00  0.00     0.054 A 
BRANCH  64  65
ATOM     65  S   UNL A   1      44.386  39.479  33.334  1.00  0.00     0.124 S 
ATOM     66  O   UNL A   1      43.115  40.034  33.786  1.00  0.00    -0.237 OA
ATOM     67  O   UNL A   1      45.355  39.188  34.388  1.00  0.00    -0.237 OA
ATOM     68  O   UNL A   1      44.951  40.098  32.137  1.00  0.00    -0.744 OA
ENDBRANCH  64  65
ENDBRANCH  38  59
ENDBRANCH  12  13
ENDBRANCH   5   7
ENDBRANCH   2   3
ENDBRANCH   1   2
BRANCH   1  69
ATOM     69  C   UNL A   1      33.760  24.046  25.990  1.00  0.00     0.118 C 
BRANCH  69  70
ATOM     70  N   UNL A   1      33.792  24.751  24.718  1.00  0.00    -0.352 N 
ATOM     71  C   UNL A   1      33.464  26.046  24.415  1.00  0.00     0.255 C 
ATOM     72  H   UNL A   1      34.099  24.212  23.955  1.00  0.00     0.163 HD
ATOM     73  O   UNL A   1      33.746  26.509  23.316  1.00  0.00    -0.269 OA
BRANCH  71  74
ATOM     74  C   UNL A   1      32.854  26.913  25.433  1.00  0.00     0.082 A 
ATOM     75  C   UNL A   1      33.713  27.916  25.924  1.00  0.00     0.033 A 
ATOM     76  C   UNL A   1      31.510  26.874  25.833  1.00  0.00     0.132 A 
ATOM     77  C   UNL A   1      33.251  28.853  26.841  1.00  0.00     0.019 A 
ATOM     78  C   UNL A   1      31.074  27.835  26.764  1.00  0.00     0.048 A 
ATOM     79  Br  UNL A   1      34.415  30.190  27.489  1.00  0.00    -0.051 Br
ATOM     80  C   UNL A   1      31.932  28.813  27.272  1.00  0.00     0.019 A 
BRANCH  76  81
ATOM     81  O   UNL A   1      30.478  26.064  25.457  1.00  0.00    -0.488 OA
BRANCH  81  82
ATOM     82  C   UNL A   1      30.035  25.948  24.107  1.00  0.00     0.268 C 
BRANCH  82  83
ATOM     83  C   UNL A   1      29.423  27.208  23.552  1.00  0.00     0.025 A 
ATOM     84  C   UNL A   1      30.161  28.194  22.884  1.00  0.00     0.010 A 
ATOM     85  C   UNL A   1      28.045  27.401  23.700  1.00  0.00     0.129 A 
ATOM     86  C   UNL A   1      29.524  29.316  22.344  1.00  0.00     0.001 A 
ATOM     87  C   UNL A   1      27.405  28.519  23.174  1.00  0.00     0.039 A 
ATOM     88  F   UNL A   1      27.314  26.485  24.355  1.00  0.00    -0.207 F 
ATOM     89  C   UNL A   1      28.145  29.477  22.484  1.00  0.00     0.003 A 
ENDBRANCH  82  83
ENDBRANCH  81  82
ENDBRANCH  76  81
ENDBRANCH  71  74
ENDBRANCH  69  70
ENDBRANCH   1  69
TORSDOF 16
ENDMDL
