MODEL 1
REMARK VINA RESULT:     -11.5      0.000      0.000
REMARK SMILES COc1ccc(C(=O)C2=C(NCCCNC(=O)c3ccc(-c4c5nc(c(-c6ccc(S(=O)(=O)[O-])cc6)c6ccc([nH]6)c(-c6ccc(S(=O)(=O)[O-])cc6)c6nc(c(-c7ccc(S(=O)(=O)[O-])cc7)c7ccc4[nH]7)C=C6)C=C5)cc3)C(=O)N(CC(=O)[O-])[C@H]2c2ccccc2)cc1
REMARK SMILES IDX 13 1 12 2 11 3 10 5 9 6 85 7 78 8 80 9 79 10 7 11 8 12 6 13
REMARK SMILES IDX 3 14 4 15 93 16 5 17 92 18 2 19 1 20 86 21 87 22 91 23 88 24
REMARK SMILES IDX 90 25 89 26 81 27 82 28 83 29 84 30 14 31 15 32 16 33 17 35
REMARK SMILES IDX 18 36 19 37 77 38 20 39 76 40 21 41 22 42 23 43 70 44 24 45
REMARK SMILES IDX 75 46 69 47 71 48 25 49 74 50 68 51 67 52 26 54 56 55 37 56
REMARK SMILES IDX 55 57 38 58 41 59 54 60 72 61 39 62 40 63 53 65 73 66 42 67
REMARK SMILES IDX 27 68 28 69 36 70 29 71 35 72 30 73 31 74 32 75 33 76 34 77
REMARK SMILES IDX 57 78 58 79 66 80 59 81 65 82 60 83 61 84 62 85 63 86 64 87
REMARK SMILES IDX 43 88 44 89 52 90 45 91 51 92 46 93 47 94 48 95 49 96 50 97
REMARK H PARENT 11 4 15 34 71 53 41 64
REMARK Flexibility Score: inf
ROOT
ATOM      1  C   UNL A   1      32.841  27.871  27.603  1.00  0.00     0.042 C 
ENDROOT
BRANCH   1   2
ATOM      2  C   UNL A   1      31.374  27.946  27.196  1.00  0.00     0.115 C 
BRANCH   2   3
ATOM      3  N   UNL A   1      31.019  26.812  26.373  1.00  0.00    -0.380 N 
ATOM      4  H   UNL A   1      30.089  26.504  26.468  1.00  0.00     0.160 HD
BRANCH   3   5
ATOM      5  C   UNL A   1      31.776  26.099  25.480  1.00  0.00     0.110 C 
ATOM      6  C   UNL A   1      32.195  24.835  25.343  1.00  0.00     0.056 C 
ATOM      7  C   UNL A   1      32.926  24.556  24.063  1.00  0.00     0.153 C 
ATOM      8  C   UNL A   1      32.278  26.794  24.246  1.00  0.00     0.271 C 
ATOM      9  N   UNL A   1      32.905  25.864  23.456  1.00  0.00    -0.320 N 
ATOM     10  O   UNL A   1      32.116  27.980  24.006  1.00  0.00    -0.267 OA
BRANCH   6  11
ATOM     11  C   UNL A   1      31.797  23.730  26.228  1.00  0.00     0.193 C 
ATOM     12  O   UNL A   1      30.986  23.946  27.124  1.00  0.00    -0.289 OA
BRANCH  11  13
ATOM     13  C   UNL A   1      32.327  22.352  25.996  1.00  0.00     0.023 A 
ATOM     14  C   UNL A   1      33.408  19.846  25.280  1.00  0.00     0.118 A 
ATOM     15  C   UNL A   1      32.244  20.318  24.671  1.00  0.00     0.047 A 
ATOM     16  C   UNL A   1      33.999  20.606  26.287  1.00  0.00     0.047 A 
ATOM     17  C   UNL A   1      31.709  21.562  25.019  1.00  0.00     0.016 A 
ATOM     18  C   UNL A   1      33.443  21.837  26.662  1.00  0.00     0.016 A 
BRANCH  14  19
ATOM     19  O   UNL A   1      33.866  18.653  24.800  1.00  0.00    -0.497 OA
ATOM     20  C   UNL A   1      32.906  17.779  24.216  1.00  0.00     0.278 C 
ENDBRANCH  14  19
ENDBRANCH  11  13
ENDBRANCH   6  11
BRANCH   7  21
ATOM     21  C   UNL A   1      34.343  24.043  24.258  1.00  0.00    -0.021 A 
ATOM     22  C   UNL A   1      34.917  23.105  23.378  1.00  0.00     0.006 A 
ATOM     23  C   UNL A   1      35.126  24.535  25.312  1.00  0.00     0.006 A 
ATOM     24  C   UNL A   1      36.238  22.686  23.537  1.00  0.00     0.000 A 
ATOM     25  C   UNL A   1      36.446  24.106  25.476  1.00  0.00     0.000 A 
ATOM     26  C   UNL A   1      37.003  23.188  24.586  1.00  0.00     0.000 A 
ENDBRANCH   7  21
BRANCH   9  27
ATOM     27  C   UNL A   1      33.442  26.168  22.138  1.00  0.00     0.173 C 
BRANCH  27  28
ATOM     28  C   UNL A   1      32.528  25.809  20.977  1.00  0.00     0.061 C 
ATOM     29  O   UNL A   1      31.342  26.097  20.902  1.00  0.00    -0.548 OA
ATOM     30  O   UNL A   1      33.131  25.178  19.951  1.00  0.00    -0.548 OA
ENDBRANCH  27  28
ENDBRANCH   9  27
ENDBRANCH   3   5
ENDBRANCH   2   3
ENDBRANCH   1   2
BRANCH   1  31
ATOM     31  C   UNL A   1      33.747  28.844  26.854  1.00  0.00     0.118 C 
BRANCH  31  32
ATOM     32  N   UNL A   1      33.683  30.202  27.381  1.00  0.00    -0.352 N 
ATOM     33  C   UNL A   1      34.568  30.889  28.176  1.00  0.00     0.251 C 
ATOM     34  H   UNL A   1      32.876  30.706  27.128  1.00  0.00     0.163 HD
ATOM     35  O   UNL A   1      34.238  31.972  28.653  1.00  0.00    -0.269 OA
BRANCH  33  36
ATOM     36  C   UNL A   1      35.903  30.326  28.479  1.00  0.00     0.039 A 
ATOM     37  C   UNL A   1      36.884  30.343  27.483  1.00  0.00     0.014 A 
ATOM     38  C   UNL A   1      36.188  29.764  29.726  1.00  0.00     0.014 A 
ATOM     39  C   UNL A   1      38.169  29.868  27.763  1.00  0.00     0.010 A 
ATOM     40  C   UNL A   1      37.488  29.363  30.028  1.00  0.00     0.010 A 
ATOM     41  C   UNL A   1      38.494  29.413  29.051  1.00  0.00    -0.014 A 
BRANCH  41  42
ATOM     42  C   UNL A   1      39.881  29.006  29.399  1.00  0.00     0.031 A 
ATOM     43  C   UNL A   1      40.813  29.974  30.078  1.00  0.00     0.074 A 
ATOM     44  C   UNL A   1      40.325  27.785  29.040  1.00  0.00     0.049 A 
ATOM     45  N   UNL A   1      42.073  29.818  30.397  1.00  0.00    -0.248 NA
ATOM     46  C   UNL A   1      40.267  31.296  30.423  1.00  0.00     0.031 C 
ATOM     47  C   UNL A   1      39.537  26.769  28.335  1.00  0.00     0.029 A 
ATOM     48  N   UNL A   1      41.551  27.190  29.209  1.00  0.00    -0.354 N 
ATOM     49  C   UNL A   1      42.474  31.025  30.959  1.00  0.00     0.074 A 
ATOM     50  C   UNL A   1      41.338  31.918  30.897  1.00  0.00     0.031 C 
ATOM     51  C   UNL A   1      40.292  25.672  28.156  1.00  0.00     0.029 A 
ATOM     52  C   UNL A   1      41.625  25.917  28.694  1.00  0.00     0.049 A 
ATOM     53  H   UNL A   1      42.307  27.634  29.657  1.00  0.00     0.167 HD
ATOM     54  C   UNL A   1      43.674  31.357  31.493  1.00  0.00     0.031 A 
ATOM     55  C   UNL A   1      42.652  25.045  28.650  1.00  0.00     0.031 A 
ATOM     56  C   UNL A   1      44.799  30.462  31.571  1.00  0.00     0.049 A 
ATOM     57  C   UNL A   1      43.973  25.434  29.255  1.00  0.00     0.074 A 
ATOM     58  C   UNL A   1      46.036  30.684  32.150  1.00  0.00     0.029 A 
ATOM     59  N   UNL A   1      44.825  29.174  31.056  1.00  0.00    -0.354 N 
ATOM     60  N   UNL A   1      44.311  26.559  29.840  1.00  0.00    -0.248 NA
ATOM     61  C   UNL A   1      45.048  24.433  29.203  1.00  0.00     0.031 C 
ATOM     62  C   UNL A   1      46.827  29.549  31.944  1.00  0.00     0.029 A 
ATOM     63  C   UNL A   1      46.063  28.599  31.286  1.00  0.00     0.049 A 
ATOM     64  H   UNL A   1      44.073  28.734  30.597  1.00  0.00     0.167 HD
ATOM     65  C   UNL A   1      45.628  26.389  30.250  1.00  0.00     0.074 A 
ATOM     66  C   UNL A   1      46.020  25.050  29.859  1.00  0.00     0.031 C 
ATOM     67  C   UNL A   1      46.439  27.265  30.894  1.00  0.00     0.031 A 
BRANCH  54  68
ATOM     68  C   UNL A   1      43.836  32.751  32.039  1.00  0.00    -0.014 A 
ATOM     69  C   UNL A   1      43.571  33.036  33.390  1.00  0.00     0.010 A 
ATOM     70  C   UNL A   1      44.308  33.779  31.203  1.00  0.00     0.010 A 
ATOM     71  C   UNL A   1      43.740  34.331  33.888  1.00  0.00     0.020 A 
ATOM     72  C   UNL A   1      44.504  35.070  31.703  1.00  0.00     0.020 A 
ATOM     73  C   UNL A   1      44.203  35.341  33.039  1.00  0.00     0.054 A 
BRANCH  73  74
ATOM     74  S   UNL A   1      44.442  37.005  33.719  1.00  0.00     0.124 S 
ATOM     75  O   UNL A   1      45.868  36.998  34.037  1.00  0.00    -0.237 OA
ATOM     76  O   UNL A   1      44.052  37.867  32.605  1.00  0.00    -0.237 OA
ATOM     77  O   UNL A   1      43.548  37.041  34.873  1.00  0.00    -0.744 OA
ENDBRANCH  73  74
ENDBRANCH  54  68
BRANCH  55  78
ATOM     78  C   UNL A   1      42.467  23.709  28.019  1.00  0.00    -0.014 A 
ATOM     79  C   UNL A   1      42.895  23.477  26.700  1.00  0.00     0.010 A 
ATOM     80  C   UNL A   1      41.869  22.659  28.739  1.00  0.00     0.010 A 
ATOM     81  C   UNL A   1      42.708  22.227  26.104  1.00  0.00     0.020 A 
ATOM     82  C   UNL A   1      41.704  21.399  28.155  1.00  0.00     0.020 A 
ATOM     83  C   UNL A   1      42.112  21.197  26.836  1.00  0.00     0.054 A 
BRANCH  83  84
ATOM     84  S   UNL A   1      41.916  19.569  26.058  1.00  0.00     0.124 S 
ATOM     85  O   UNL A   1      40.480  19.526  25.802  1.00  0.00    -0.237 OA
ATOM     86  O   UNL A   1      42.768  19.677  24.876  1.00  0.00    -0.237 OA
ATOM     87  O   UNL A   1      42.399  18.642  27.080  1.00  0.00    -0.744 OA
ENDBRANCH  83  84
ENDBRANCH  55  78
BRANCH  67  88
ATOM     88  C   UNL A   1      47.824  26.794  31.250  1.00  0.00    -0.014 A 
ATOM     89  C   UNL A   1      48.084  26.159  32.477  1.00  0.00     0.010 A 
ATOM     90  C   UNL A   1      48.866  26.939  30.317  1.00  0.00     0.010 A 
ATOM     91  C   UNL A   1      49.370  25.704  32.776  1.00  0.00     0.020 A 
ATOM     92  C   UNL A   1      50.148  26.461  30.602  1.00  0.00     0.020 A 
ATOM     93  C   UNL A   1      50.395  25.858  31.837  1.00  0.00     0.054 A 
BRANCH  93  94
ATOM     94  S   UNL A   1      52.045  25.216  32.229  1.00  0.00     0.124 S 
ATOM     95  O   UNL A   1      51.816  23.774  32.237  1.00  0.00    -0.237 OA
ATOM     96  O   UNL A   1      52.857  25.717  31.122  1.00  0.00    -0.237 OA
ATOM     97  O   UNL A   1      52.347  25.806  33.531  1.00  0.00    -0.744 OA
ENDBRANCH  93  94
ENDBRANCH  67  88
ENDBRANCH  41  42
ENDBRANCH  33  36
ENDBRANCH  31  32
ENDBRANCH   1  31
TORSDOF 19
ENDMDL
MODEL 2
REMARK VINA RESULT:     -11.3      4.160     10.152
REMARK SMILES COc1ccc(C(=O)C2=C(NCCCNC(=O)c3ccc(-c4c5nc(c(-c6ccc(S(=O)(=O)[O-])cc6)c6ccc([nH]6)c(-c6ccc(S(=O)(=O)[O-])cc6)c6nc(c(-c7ccc(S(=O)(=O)[O-])cc7)c7ccc4[nH]7)C=C6)C=C5)cc3)C(=O)N(CC(=O)[O-])[C@H]2c2ccccc2)cc1
REMARK SMILES IDX 13 1 12 2 11 3 10 5 9 6 85 7 78 8 80 9 79 10 7 11 8 12 6 13
REMARK SMILES IDX 3 14 4 15 93 16 5 17 92 18 2 19 1 20 86 21 87 22 91 23 88 24
REMARK SMILES IDX 90 25 89 26 81 27 82 28 83 29 84 30 14 31 15 32 16 33 17 35
REMARK SMILES IDX 18 36 19 37 77 38 20 39 76 40 21 41 22 42 23 43 70 44 24 45
REMARK SMILES IDX 75 46 69 47 71 48 25 49 74 50 68 51 67 52 26 54 56 55 37 56
REMARK SMILES IDX 55 57 38 58 41 59 54 60 72 61 39 62 40 63 53 65 73 66 42 67
REMARK SMILES IDX 27 68 28 69 36 70 29 71 35 72 30 73 31 74 32 75 33 76 34 77
REMARK SMILES IDX 57 78 58 79 66 80 59 81 65 82 60 83 61 84 62 85 63 86 64 87
REMARK SMILES IDX 43 88 44 89 52 90 45 91 51 92 46 93 47 94 48 95 49 96 50 97
REMARK H PARENT 11 4 15 34 71 53 41 64
REMARK Flexibility Score: inf
ROOT
ATOM      1  C   UNL A   1      37.305  23.160  25.687  1.00  0.00     0.042 C 
ENDROOT
BRANCH   1   2
ATOM      2  C   UNL A   1      36.872  23.377  24.242  1.00  0.00     0.115 C 
BRANCH   2   3
ATOM      3  N   UNL A   1      35.463  23.093  24.089  1.00  0.00    -0.380 N 
ATOM      4  H   UNL A   1      35.253  22.352  23.476  1.00  0.00     0.160 HD
BRANCH   3   5
ATOM      5  C   UNL A   1      34.375  23.695  24.664  1.00  0.00     0.110 C 
ATOM      6  C   UNL A   1      33.571  24.730  24.389  1.00  0.00     0.056 C 
ATOM      7  C   UNL A   1      32.409  24.883  25.325  1.00  0.00     0.153 C 
ATOM      8  C   UNL A   1      33.788  23.088  25.906  1.00  0.00     0.271 C 
ATOM      9  N   UNL A   1      32.652  23.785  26.229  1.00  0.00    -0.320 N 
ATOM     10  O   UNL A   1      34.253  22.122  26.489  1.00  0.00    -0.267 OA
BRANCH   6  11
ATOM     11  C   UNL A   1      33.645  25.533  23.159  1.00  0.00     0.193 C 
ATOM     12  O   UNL A   1      34.402  25.178  22.259  1.00  0.00    -0.289 OA
BRANCH  11  13
ATOM     13  C   UNL A   1      32.764  26.727  22.985  1.00  0.00     0.023 A 
ATOM     14  C   UNL A   1      30.944  28.882  22.900  1.00  0.00     0.118 A 
ATOM     15  C   UNL A   1      30.523  27.585  22.601  1.00  0.00     0.047 A 
ATOM     16  C   UNL A   1      32.288  29.106  23.190  1.00  0.00     0.047 A 
ATOM     17  C   UNL A   1      31.421  26.514  22.647  1.00  0.00     0.016 A 
ATOM     18  C   UNL A   1      33.196  28.038  23.201  1.00  0.00     0.016 A 
BRANCH  14  19
ATOM     19  O   UNL A   1      29.955  29.824  22.889  1.00  0.00    -0.497 OA
ATOM     20  C   UNL A   1      29.485  30.253  21.617  1.00  0.00     0.278 C 
ENDBRANCH  14  19
ENDBRANCH  11  13
ENDBRANCH   6  11
BRANCH   7  21
ATOM     21  C   UNL A   1      32.370  26.218  26.051  1.00  0.00    -0.021 A 
ATOM     22  C   UNL A   1      33.550  26.903  26.403  1.00  0.00     0.006 A 
ATOM     23  C   UNL A   1      31.137  26.816  26.349  1.00  0.00     0.006 A 
ATOM     24  C   UNL A   1      33.497  28.154  27.017  1.00  0.00     0.000 A 
ATOM     25  C   UNL A   1      31.087  28.065  26.974  1.00  0.00     0.000 A 
ATOM     26  C   UNL A   1      32.265  28.735  27.302  1.00  0.00     0.000 A 
ENDBRANCH   7  21
BRANCH   9  27
ATOM     27  C   UNL A   1      31.777  23.420  27.333  1.00  0.00     0.173 C 
BRANCH  27  28
ATOM     28  C   UNL A   1      30.472  22.757  26.921  1.00  0.00     0.061 C 
ATOM     29  O   UNL A   1      30.324  22.052  25.933  1.00  0.00    -0.548 OA
ATOM     30  O   UNL A   1      29.445  22.941  27.774  1.00  0.00    -0.548 OA
ENDBRANCH  27  28
ENDBRANCH   9  27
ENDBRANCH   3   5
ENDBRANCH   2   3
ENDBRANCH   1   2
BRANCH   1  31
ATOM     31  C   UNL A   1      38.178  24.277  26.252  1.00  0.00     0.118 C 
BRANCH  31  32
ATOM     32  N   UNL A   1      39.600  24.066  26.010  1.00  0.00    -0.352 N 
ATOM     33  C   UNL A   1      40.691  24.778  26.448  1.00  0.00     0.251 C 
ATOM     34  H   UNL A   1      39.812  23.291  25.442  1.00  0.00     0.163 HD
ATOM     35  O   UNL A   1      41.801  24.531  25.983  1.00  0.00    -0.269 OA
BRANCH  33  36
ATOM     36  C   UNL A   1      40.536  25.852  27.455  1.00  0.00     0.039 A 
ATOM     37  C   UNL A   1      39.637  25.662  28.509  1.00  0.00     0.014 A 
ATOM     38  C   UNL A   1      41.251  27.048  27.358  1.00  0.00     0.014 A 
ATOM     39  C   UNL A   1      39.514  26.638  29.503  1.00  0.00     0.010 A 
ATOM     40  C   UNL A   1      41.186  27.984  28.388  1.00  0.00     0.010 A 
ATOM     41  C   UNL A   1      40.318  27.788  29.474  1.00  0.00    -0.014 A 
BRANCH  41  42
ATOM     42  C   UNL A   1      40.282  28.785  30.577  1.00  0.00     0.031 A 
ATOM     43  C   UNL A   1      41.192  28.640  31.768  1.00  0.00     0.074 A 
ATOM     44  C   UNL A   1      39.377  29.784  30.540  1.00  0.00     0.049 A 
ATOM     45  N   UNL A   1      41.255  29.371  32.851  1.00  0.00    -0.248 NA
ATOM     46  C   UNL A   1      42.140  27.514  31.749  1.00  0.00     0.031 C 
ATOM     47  C   UNL A   1      38.405  30.009  29.466  1.00  0.00     0.029 A 
ATOM     48  N   UNL A   1      39.119  30.795  31.433  1.00  0.00    -0.354 N 
ATOM     49  C   UNL A   1      42.229  28.784  33.650  1.00  0.00     0.074 A 
ATOM     50  C   UNL A   1      42.701  27.611  32.947  1.00  0.00     0.031 C 
ATOM     51  C   UNL A   1      37.678  31.101  29.752  1.00  0.00     0.029 A 
ATOM     52  C   UNL A   1      38.099  31.631  31.044  1.00  0.00     0.049 A 
ATOM     53  H   UNL A   1      39.619  30.909  32.274  1.00  0.00     0.167 HD
ATOM     54  C   UNL A   1      42.701  29.193  34.853  1.00  0.00     0.031 A 
ATOM     55  C   UNL A   1      37.556  32.699  31.660  1.00  0.00     0.031 A 
ATOM     56  C   UNL A   1      42.244  30.370  35.543  1.00  0.00     0.049 A 
ATOM     57  C   UNL A   1      38.101  33.136  32.992  1.00  0.00     0.074 A 
ATOM     58  C   UNL A   1      42.705  30.901  36.735  1.00  0.00     0.029 A 
ATOM     59  N   UNL A   1      41.224  31.201  35.104  1.00  0.00    -0.354 N 
ATOM     60  N   UNL A   1      39.069  32.603  33.699  1.00  0.00    -0.248 NA
ATOM     61  C   UNL A   1      37.489  34.325  33.603  1.00  0.00     0.031 C 
ATOM     62  C   UNL A   1      41.932  32.026  37.041  1.00  0.00     0.029 A 
ATOM     63  C   UNL A   1      41.027  32.227  36.012  1.00  0.00     0.049 A 
ATOM     64  H   UNL A   1      40.716  31.079  34.269  1.00  0.00     0.167 HD
ATOM     65  C   UNL A   1      39.198  33.408  34.826  1.00  0.00     0.074 A 
ATOM     66  C   UNL A   1      38.221  34.470  34.697  1.00  0.00     0.031 C 
ATOM     67  C   UNL A   1      40.053  33.279  35.871  1.00  0.00     0.031 A 
BRANCH  54  68
ATOM     68  C   UNL A   1      43.773  28.358  35.503  1.00  0.00    -0.014 A 
ATOM     69  C   UNL A   1      45.135  28.613  35.266  1.00  0.00     0.010 A 
ATOM     70  C   UNL A   1      43.414  27.338  36.404  1.00  0.00     0.010 A 
ATOM     71  C   UNL A   1      46.119  27.841  35.888  1.00  0.00     0.020 A 
ATOM     72  C   UNL A   1      44.396  26.581  37.049  1.00  0.00     0.020 A 
ATOM     73  C   UNL A   1      45.743  26.827  36.775  1.00  0.00     0.054 A 
BRANCH  73  74
ATOM     74  S   UNL A   1      47.042  25.860  37.592  1.00  0.00     0.124 S 
ATOM     75  O   UNL A   1      47.494  26.782  38.632  1.00  0.00    -0.237 OA
ATOM     76  O   UNL A   1      46.317  24.685  38.067  1.00  0.00    -0.237 OA
ATOM     77  O   UNL A   1      48.007  25.605  36.525  1.00  0.00    -0.744 OA
ENDBRANCH  73  74
ENDBRANCH  54  68
BRANCH  55  78
ATOM     78  C   UNL A   1      36.436  33.440  31.015  1.00  0.00    -0.014 A 
ATOM     79  C   UNL A   1      36.531  33.851  29.675  1.00  0.00     0.010 A 
ATOM     80  C   UNL A   1      35.266  33.731  31.740  1.00  0.00     0.010 A 
ATOM     81  C   UNL A   1      35.485  34.559  29.075  1.00  0.00     0.020 A 
ATOM     82  C   UNL A   1      34.207  34.416  31.136  1.00  0.00     0.020 A 
ATOM     83  C   UNL A   1      34.331  34.838  29.811  1.00  0.00     0.054 A 
BRANCH  83  84
ATOM     84  S   UNL A   1      32.967  35.721  29.002  1.00  0.00     0.124 S 
ATOM     85  O   UNL A   1      33.674  36.779  28.286  1.00  0.00    -0.237 OA
ATOM     86  O   UNL A   1      32.367  34.684  28.167  1.00  0.00    -0.237 OA
ATOM     87  O   UNL A   1      32.139  36.167  30.120  1.00  0.00    -0.744 OA
ENDBRANCH  83  84
ENDBRANCH  55  78
BRANCH  67  88
ATOM     88  C   UNL A   1      39.996  34.330  36.946  1.00  0.00    -0.014 A 
ATOM     89  C   UNL A   1      40.755  35.510  36.854  1.00  0.00     0.010 A 
ATOM     90  C   UNL A   1      39.125  34.158  38.038  1.00  0.00     0.010 A 
ATOM     91  C   UNL A   1      40.666  36.486  37.849  1.00  0.00     0.020 A 
ATOM     92  C   UNL A   1      39.014  35.144  39.022  1.00  0.00     0.020 A 
ATOM     93  C   UNL A   1      39.797  36.297  38.927  1.00  0.00     0.054 A 
BRANCH  93  94
ATOM     94  S   UNL A   1      39.663  37.600  40.182  1.00  0.00     0.124 S 
ATOM     95  O   UNL A   1      40.689  38.544  39.749  1.00  0.00    -0.237 OA
ATOM     96  O   UNL A   1      38.284  38.055  40.028  1.00  0.00    -0.237 OA
ATOM     97  O   UNL A   1      39.946  36.904  41.436  1.00  0.00    -0.744 OA
ENDBRANCH  93  94
ENDBRANCH  67  88
ENDBRANCH  41  42
ENDBRANCH  33  36
ENDBRANCH  31  32
ENDBRANCH   1  31
TORSDOF 19
ENDMDL
MODEL 3
REMARK VINA RESULT:     -11.2      2.440      3.893
REMARK SMILES COc1ccc(C(=O)C2=C(NCCCNC(=O)c3ccc(-c4c5nc(c(-c6ccc(S(=O)(=O)[O-])cc6)c6ccc([nH]6)c(-c6ccc(S(=O)(=O)[O-])cc6)c6nc(c(-c7ccc(S(=O)(=O)[O-])cc7)c7ccc4[nH]7)C=C6)C=C5)cc3)C(=O)N(CC(=O)[O-])[C@H]2c2ccccc2)cc1
REMARK SMILES IDX 13 1 12 2 11 3 10 5 9 6 85 7 78 8 80 9 79 10 7 11 8 12 6 13
REMARK SMILES IDX 3 14 4 15 93 16 5 17 92 18 2 19 1 20 86 21 87 22 91 23 88 24
REMARK SMILES IDX 90 25 89 26 81 27 82 28 83 29 84 30 14 31 15 32 16 33 17 35
REMARK SMILES IDX 18 36 19 37 77 38 20 39 76 40 21 41 22 42 23 43 70 44 24 45
REMARK SMILES IDX 75 46 69 47 71 48 25 49 74 50 68 51 67 52 26 54 56 55 37 56
REMARK SMILES IDX 55 57 38 58 41 59 54 60 72 61 39 62 40 63 53 65 73 66 42 67
REMARK SMILES IDX 27 68 28 69 36 70 29 71 35 72 30 73 31 74 32 75 33 76 34 77
REMARK SMILES IDX 57 78 58 79 66 80 59 81 65 82 60 83 61 84 62 85 63 86 64 87
REMARK SMILES IDX 43 88 44 89 52 90 45 91 51 92 46 93 47 94 48 95 49 96 50 97
REMARK H PARENT 11 4 15 34 71 53 41 64
REMARK Flexibility Score: inf
ROOT
ATOM      1  C   UNL A   1      33.263  28.268  24.515  1.00  0.00     0.042 C 
ENDROOT
BRANCH   1   2
ATOM      2  C   UNL A   1      33.971  27.270  23.607  1.00  0.00     0.115 C 
BRANCH   2   3
ATOM      3  N   UNL A   1      33.203  26.050  23.501  1.00  0.00    -0.380 N 
ATOM      4  H   UNL A   1      32.613  25.997  22.715  1.00  0.00     0.160 HD
BRANCH   3   5
ATOM      5  C   UNL A   1      33.169  24.955  24.325  1.00  0.00     0.110 C 
ATOM      6  C   UNL A   1      33.926  23.874  24.546  1.00  0.00     0.056 C 
ATOM      7  C   UNL A   1      33.475  23.022  25.696  1.00  0.00     0.153 C 
ATOM      8  C   UNL A   1      32.071  24.857  25.346  1.00  0.00     0.271 C 
ATOM      9  N   UNL A   1      32.306  23.750  26.121  1.00  0.00    -0.320 N 
ATOM     10  O   UNL A   1      31.155  25.656  25.455  1.00  0.00    -0.267 OA
BRANCH   6  11
ATOM     11  C   UNL A   1      35.224  23.624  23.899  1.00  0.00     0.193 C 
ATOM     12  O   UNL A   1      35.367  23.921  22.716  1.00  0.00    -0.289 OA
BRANCH  11  13
ATOM     13  C   UNL A   1      36.366  23.076  24.691  1.00  0.00     0.023 A 
ATOM     14  C   UNL A   1      38.672  22.011  25.921  1.00  0.00     0.118 A 
ATOM     15  C   UNL A   1      37.872  21.214  25.100  1.00  0.00     0.047 A 
ATOM     16  C   UNL A   1      38.285  23.327  26.167  1.00  0.00     0.047 A 
ATOM     17  C   UNL A   1      36.732  21.740  24.484  1.00  0.00     0.016 A 
ATOM     18  C   UNL A   1      37.122  23.845  25.580  1.00  0.00     0.016 A 
BRANCH  14  19
ATOM     19  O   UNL A   1      39.794  21.399  26.402  1.00  0.00    -0.497 OA
ATOM     20  C   UNL A   1      40.020  20.054  25.998  1.00  0.00     0.278 C 
ENDBRANCH  14  19
ENDBRANCH  11  13
ENDBRANCH   6  11
BRANCH   7  21
ATOM     21  C   UNL A   1      33.145  21.589  25.312  1.00  0.00    -0.021 A 
ATOM     22  C   UNL A   1      32.617  21.266  24.047  1.00  0.00     0.006 A 
ATOM     23  C   UNL A   1      33.402  20.546  26.214  1.00  0.00     0.006 A 
ATOM     24  C   UNL A   1      32.372  19.941  23.689  1.00  0.00     0.000 A 
ATOM     25  C   UNL A   1      33.146  19.220  25.857  1.00  0.00     0.000 A 
ATOM     26  C   UNL A   1      32.637  18.918  24.594  1.00  0.00     0.000 A 
ENDBRANCH   7  21
BRANCH   9  27
ATOM     27  C   UNL A   1      31.485  23.390  27.268  1.00  0.00     0.173 C 
BRANCH  27  28
ATOM     28  C   UNL A   1      30.167  22.713  26.924  1.00  0.00     0.061 C 
ATOM     29  O   UNL A   1      29.979  21.996  25.952  1.00  0.00    -0.548 OA
ATOM     30  O   UNL A   1      29.179  22.901  27.820  1.00  0.00    -0.548 OA
ENDBRANCH  27  28
ENDBRANCH   9  27
ENDBRANCH   3   5
ENDBRANCH   2   3
ENDBRANCH   1   2
BRANCH   1  31
ATOM     31  C   UNL A   1      34.027  28.602  25.793  1.00  0.00     0.118 C 
BRANCH  31  32
ATOM     32  N   UNL A   1      33.731  29.935  26.302  1.00  0.00    -0.352 N 
ATOM     33  C   UNL A   1      34.326  30.654  27.310  1.00  0.00     0.251 C 
ATOM     34  H   UNL A   1      32.985  30.394  25.851  1.00  0.00     0.163 HD
ATOM     35  O   UNL A   1      33.807  31.698  27.697  1.00  0.00    -0.269 OA
BRANCH  33  36
ATOM     36  C   UNL A   1      35.571  30.169  27.948  1.00  0.00     0.039 A 
ATOM     37  C   UNL A   1      36.779  30.303  27.256  1.00  0.00     0.014 A 
ATOM     38  C   UNL A   1      35.555  29.568  29.209  1.00  0.00     0.014 A 
ATOM     39  C   UNL A   1      37.975  29.904  27.860  1.00  0.00     0.010 A 
ATOM     40  C   UNL A   1      36.753  29.243  29.840  1.00  0.00     0.010 A 
ATOM     41  C   UNL A   1      37.978  29.410  29.175  1.00  0.00    -0.014 A 
BRANCH  41  42
ATOM     42  C   UNL A   1      39.248  29.082  29.874  1.00  0.00     0.031 A 
ATOM     43  C   UNL A   1      39.686  29.879  31.075  1.00  0.00     0.074 A 
ATOM     44  C   UNL A   1      40.045  28.111  29.385  1.00  0.00     0.049 A 
ATOM     45  N   UNL A   1      40.790  29.780  31.770  1.00  0.00    -0.248 NA
ATOM     46  C   UNL A   1      38.776  30.937  31.541  1.00  0.00     0.031 C 
ATOM     47  C   UNL A   1      39.759  27.296  28.200  1.00  0.00     0.029 A 
ATOM     48  N   UNL A   1      41.263  27.647  29.816  1.00  0.00    -0.354 N 
ATOM     49  C   UNL A   1      40.718  30.775  32.739  1.00  0.00     0.074 A 
ATOM     50  C   UNL A   1      39.483  31.493  32.516  1.00  0.00     0.031 C 
ATOM     51  C   UNL A   1      40.760  26.419  28.017  1.00  0.00     0.029 A 
ATOM     52  C   UNL A   1      41.776  26.633  29.041  1.00  0.00     0.049 A 
ATOM     53  H   UNL A   1      41.726  28.007  30.607  1.00  0.00     0.167 HD
ATOM     54  C   UNL A   1      41.592  31.055  33.736  1.00  0.00     0.031 A 
ATOM     55  C   UNL A   1      42.937  25.956  29.137  1.00  0.00     0.031 A 
ATOM     56  C   UNL A   1      42.812  30.328  33.969  1.00  0.00     0.049 A 
ATOM     57  C   UNL A   1      43.888  26.281  30.255  1.00  0.00     0.074 A 
ATOM     58  C   UNL A   1      43.731  30.496  34.990  1.00  0.00     0.029 A 
ATOM     59  N   UNL A   1      43.284  29.294  33.174  1.00  0.00    -0.354 N 
ATOM     60  N   UNL A   1      43.769  27.183  31.201  1.00  0.00    -0.248 NA
ATOM     61  C   UNL A   1      45.125  25.491  30.326  1.00  0.00     0.031 C 
ATOM     62  C   UNL A   1      44.782  29.596  34.785  1.00  0.00     0.029 A 
ATOM     63  C   UNL A   1      44.490  28.830  33.668  1.00  0.00     0.049 A 
ATOM     64  H   UNL A   1      42.827  28.942  32.375  1.00  0.00     0.167 HD
ATOM     65  C   UNL A   1      44.902  27.049  31.994  1.00  0.00     0.074 A 
ATOM     66  C   UNL A   1      45.687  25.971  31.427  1.00  0.00     0.031 C 
ATOM     67  C   UNL A   1      45.259  27.755  33.095  1.00  0.00     0.031 A 
BRANCH  54  68
ATOM     68  C   UNL A   1      41.260  32.200  34.656  1.00  0.00    -0.014 A 
ATOM     69  C   UNL A   1      41.670  33.512  34.358  1.00  0.00     0.010 A 
ATOM     70  C   UNL A   1      40.484  31.971  35.806  1.00  0.00     0.010 A 
ATOM     71  C   UNL A   1      41.342  34.568  35.211  1.00  0.00     0.020 A 
ATOM     72  C   UNL A   1      40.130  33.029  36.649  1.00  0.00     0.020 A 
ATOM     73  C   UNL A   1      40.575  34.319  36.354  1.00  0.00     0.054 A 
BRANCH  73  74
ATOM     74  S   UNL A   1      40.138  35.714  37.428  1.00  0.00     0.124 S 
ATOM     75  O   UNL A   1      39.764  36.737  36.455  1.00  0.00    -0.237 OA
ATOM     76  O   UNL A   1      39.039  35.174  38.225  1.00  0.00    -0.237 OA
ATOM     77  O   UNL A   1      41.369  35.980  38.169  1.00  0.00    -0.744 OA
ENDBRANCH  73  74
ENDBRANCH  54  68
BRANCH  55  78
ATOM     78  C   UNL A   1      43.260  24.890  28.148  1.00  0.00    -0.014 A 
ATOM     79  C   UNL A   1      43.950  25.200  26.964  1.00  0.00     0.010 A 
ATOM     80  C   UNL A   1      42.884  23.556  28.392  1.00  0.00     0.010 A 
ATOM     81  C   UNL A   1      44.240  24.201  26.030  1.00  0.00     0.020 A 
ATOM     82  C   UNL A   1      43.195  22.550  27.473  1.00  0.00     0.020 A 
ATOM     83  C   UNL A   1      43.859  22.882  26.291  1.00  0.00     0.054 A 
BRANCH  83  84
ATOM     84  S   UNL A   1      44.281  21.593  25.086  1.00  0.00     0.124 S 
ATOM     85  O   UNL A   1      43.270  20.578  25.361  1.00  0.00    -0.237 OA
ATOM     86  O   UNL A   1      44.146  22.293  23.811  1.00  0.00    -0.237 OA
ATOM     87  O   UNL A   1      45.651  21.227  25.443  1.00  0.00    -0.744 OA
ENDBRANCH  83  84
ENDBRANCH  55  78
BRANCH  67  88
ATOM     88  C   UNL A   1      46.540  27.365  33.784  1.00  0.00    -0.014 A 
ATOM     89  C   UNL A   1      47.760  27.981  33.459  1.00  0.00     0.010 A 
ATOM     90  C   UNL A   1      46.507  26.405  34.812  1.00  0.00     0.010 A 
ATOM     91  C   UNL A   1      48.932  27.624  34.130  1.00  0.00     0.020 A 
ATOM     92  C   UNL A   1      47.673  26.064  35.504  1.00  0.00     0.020 A 
ATOM     93  C   UNL A   1      48.882  26.668  35.149  1.00  0.00     0.054 A 
BRANCH  93  94
ATOM     94  S   UNL A   1      50.407  26.255  36.038  1.00  0.00     0.124 S 
ATOM     95  O   UNL A   1      51.429  26.532  35.032  1.00  0.00    -0.237 OA
ATOM     96  O   UNL A   1      50.377  27.175  37.173  1.00  0.00    -0.237 OA
ATOM     97  O   UNL A   1      50.238  24.845  36.382  1.00  0.00    -0.744 OA
ENDBRANCH  93  94
ENDBRANCH  67  88
ENDBRANCH  41  42
ENDBRANCH  33  36
ENDBRANCH  31  32
ENDBRANCH   1  31
TORSDOF 19
ENDMDL
