MODEL 1
REMARK VINA RESULT:      -9.3      0.000      0.000
REMARK SMILES CS(=O)(=O)c1ccc(/C=C(/C(=O)NCCCNC(=O)c2ccc(-c3c4nc(c(-c5ccc(S(=O)(=O)[O-])cc5)c5ccc([nH]5)c(-c5ccc(S(=O)(=O)[O-])cc5)c5nc(c(-c6ccc(S(=O)(=O)[O-])cc6)c6ccc3[nH]6)C=C5)C=C4)cc2)c2ccc(F)cc2)cc1
REMARK SMILES IDX 15 1 14 2 13 3 11 4 12 5 10 7 9 8 8 9 5 10 6 11 88 12 7 13
REMARK SMILES IDX 87 14 2 15 1 16 3 17 4 18 80 19 81 20 86 21 82 22 85 23
REMARK SMILES IDX 83 24 84 25 16 26 17 27 18 28 19 30 20 31 21 32 79 33 22 34
REMARK SMILES IDX 78 35 23 36 24 37 25 38 72 39 26 40 77 41 71 42 73 43 27 44
REMARK SMILES IDX 76 45 70 46 69 47 28 49 58 50 39 51 57 52 40 53 43 54 56 55
REMARK SMILES IDX 74 56 41 57 42 58 55 60 75 61 44 62 29 63 30 64 38 65 31 66
REMARK SMILES IDX 37 67 32 68 33 69 34 70 35 71 36 72 59 73 60 74 68 75 61 76
REMARK SMILES IDX 67 77 62 78 63 79 64 80 65 81 66 82 45 83 46 84 54 85 47 86
REMARK SMILES IDX 53 87 48 88 49 89 50 90 51 91 52 92
REMARK H PARENT 13 6 17 29 73 48 43 59
REMARK Flexibility Score: inf
ROOT
ATOM      1  C   UNL A   1      34.283  33.582  29.197  1.00  0.00     0.042 C 
ENDROOT
BRANCH   1   2
ATOM      2  C   UNL A   1      34.303  32.789  30.506  1.00  0.00     0.118 C 
BRANCH   2   3
ATOM      3  N   UNL A   1      34.485  33.672  31.643  1.00  0.00    -0.352 N 
ATOM      4  C   UNL A   1      35.469  33.832  32.568  1.00  0.00     0.251 C 
ATOM      5  O   UNL A   1      35.275  34.703  33.420  1.00  0.00    -0.269 OA
ATOM      6  H   UNL A   1      33.730  34.290  31.775  1.00  0.00     0.163 HD
BRANCH   4   7
ATOM      7  C   UNL A   1      36.776  33.075  32.537  1.00  0.00     0.047 C 
ATOM      8  C   UNL A   1      37.052  32.090  33.422  1.00  0.00     0.022 C 
BRANCH   8   9
ATOM      9  C   UNL A   1      38.216  31.177  33.489  1.00  0.00    -0.025 A 
ATOM     10  C   UNL A   1      40.425  29.482  33.853  1.00  0.00     0.067 A 
ATOM     11  C   UNL A   1      39.343  29.059  33.079  1.00  0.00     0.021 A 
ATOM     12  C   UNL A   1      40.436  30.757  34.415  1.00  0.00     0.021 A 
ATOM     13  C   UNL A   1      38.265  29.923  32.869  1.00  0.00     0.009 A 
ATOM     14  C   UNL A   1      39.332  31.597  34.234  1.00  0.00     0.009 A 
BRANCH  10  15
ATOM     15  S   UNL A   1      41.781  28.371  34.127  1.00  0.00     0.175 S 
ATOM     16  C   UNL A   1      43.073  29.407  34.761  1.00  0.00     0.163 C 
ATOM     17  O   UNL A   1      42.189  27.878  32.824  1.00  0.00    -0.224 OA
ATOM     18  O   UNL A   1      41.398  27.455  35.183  1.00  0.00    -0.224 OA
ENDBRANCH  10  15
ENDBRANCH   8   9
BRANCH   7  19
ATOM     19  C   UNL A   1      37.820  33.587  31.611  1.00  0.00    -0.013 A 
ATOM     20  C   UNL A   1      37.620  33.437  30.225  1.00  0.00     0.012 A 
ATOM     21  C   UNL A   1      38.944  34.291  32.064  1.00  0.00     0.012 A 
ATOM     22  C   UNL A   1      38.503  34.007  29.310  1.00  0.00     0.040 A 
ATOM     23  C   UNL A   1      39.821  34.874  31.144  1.00  0.00     0.040 A 
ATOM     24  C   UNL A   1      39.589  34.733  29.778  1.00  0.00     0.123 A 
ATOM     25  F   UNL A   1      40.416  35.317  28.902  1.00  0.00    -0.207 F 
ENDBRANCH   7  19
ENDBRANCH   4   7
ENDBRANCH   2   3
ENDBRANCH   1   2
BRANCH   1  26
ATOM     26  C   UNL A   1      34.779  32.790  27.986  1.00  0.00     0.118 C 
BRANCH  26  27
ATOM     27  N   UNL A   1      34.029  31.559  27.791  1.00  0.00    -0.352 N 
ATOM     28  C   UNL A   1      34.461  30.263  27.683  1.00  0.00     0.251 C 
ATOM     29  H   UNL A   1      33.053  31.677  27.725  1.00  0.00     0.163 HD
ATOM     30  O   UNL A   1      33.671  29.406  27.293  1.00  0.00    -0.269 OA
BRANCH  28  31
ATOM     31  C   UNL A   1      35.852  29.881  28.022  1.00  0.00     0.039 A 
ATOM     32  C   UNL A   1      36.121  29.430  29.318  1.00  0.00     0.014 A 
ATOM     33  C   UNL A   1      36.900  30.036  27.110  1.00  0.00     0.014 A 
ATOM     34  C   UNL A   1      37.429  29.103  29.687  1.00  0.00     0.010 A 
ATOM     35  C   UNL A   1      38.196  29.647  27.459  1.00  0.00     0.010 A 
ATOM     36  C   UNL A   1      38.476  29.190  28.756  1.00  0.00    -0.014 A 
BRANCH  36  37
ATOM     37  C   UNL A   1      39.863  28.812  29.137  1.00  0.00     0.031 A 
ATOM     38  C   UNL A   1      40.751  29.786  29.865  1.00  0.00     0.074 A 
ATOM     39  C   UNL A   1      40.336  27.598  28.792  1.00  0.00     0.049 A 
ATOM     40  N   UNL A   1      41.984  29.628  30.276  1.00  0.00    -0.248 NA
ATOM     41  C   UNL A   1      40.192  31.118  30.150  1.00  0.00     0.031 C 
ATOM     42  C   UNL A   1      39.595  26.584  28.037  1.00  0.00     0.029 A 
ATOM     43  N   UNL A   1      41.553  27.011  29.029  1.00  0.00    -0.354 N 
ATOM     44  C   UNL A   1      42.355  30.841  30.846  1.00  0.00     0.074 A 
ATOM     45  C   UNL A   1      41.231  31.739  30.692  1.00  0.00     0.031 C 
ATOM     46  C   UNL A   1      40.363  25.491  27.896  1.00  0.00     0.029 A 
ATOM     47  C   UNL A   1      41.658  25.736  28.523  1.00  0.00     0.049 A 
ATOM     48  H   UNL A   1      42.282  27.458  29.515  1.00  0.00     0.167 HD
ATOM     49  C   UNL A   1      43.518  31.174  31.458  1.00  0.00     0.031 A 
ATOM     50  C   UNL A   1      42.680  24.858  28.561  1.00  0.00     0.031 A 
ATOM     51  C   UNL A   1      44.628  30.273  31.628  1.00  0.00     0.049 A 
ATOM     52  C   UNL A   1      43.944  25.236  29.281  1.00  0.00     0.074 A 
ATOM     53  C   UNL A   1      45.822  30.493  32.292  1.00  0.00     0.029 A 
ATOM     54  N   UNL A   1      44.681  28.978  31.133  1.00  0.00    -0.354 N 
ATOM     55  N   UNL A   1      44.246  26.364  29.880  1.00  0.00    -0.248 NA
ATOM     56  C   UNL A   1      44.996  24.214  29.352  1.00  0.00     0.031 C 
ATOM     57  C   UNL A   1      46.616  29.348  32.159  1.00  0.00     0.029 A 
ATOM     58  C   UNL A   1      45.893  28.394  31.462  1.00  0.00     0.049 A 
ATOM     59  H   UNL A   1      43.962  28.539  30.623  1.00  0.00     0.167 HD
ATOM     60  C   UNL A   1      45.512  26.177  30.421  1.00  0.00     0.074 A 
ATOM     61  C   UNL A   1      45.909  24.822  30.096  1.00  0.00     0.031 C 
ATOM     62  C   UNL A   1      46.278  27.048  31.125  1.00  0.00     0.031 A 
BRANCH  49  63
ATOM     63  C   UNL A   1      43.654  32.579  31.987  1.00  0.00    -0.014 A 
ATOM     64  C   UNL A   1      44.212  33.602  31.201  1.00  0.00     0.010 A 
ATOM     65  C   UNL A   1      43.173  32.890  33.272  1.00  0.00     0.010 A 
ATOM     66  C   UNL A   1      44.322  34.902  31.703  1.00  0.00     0.020 A 
ATOM     67  C   UNL A   1      43.256  34.195  33.768  1.00  0.00     0.020 A 
ATOM     68  C   UNL A   1      43.846  35.190  32.986  1.00  0.00     0.054 A 
BRANCH  68  69
ATOM     69  S   UNL A   1      43.974  36.891  33.602  1.00  0.00     0.124 S 
ATOM     70  O   UNL A   1      43.792  37.668  32.379  1.00  0.00    -0.237 OA
ATOM     71  O   UNL A   1      42.877  36.968  34.564  1.00  0.00    -0.237 OA
ATOM     72  O   UNL A   1      45.313  36.949  34.183  1.00  0.00    -0.744 OA
ENDBRANCH  68  69
ENDBRANCH  49  63
BRANCH  50  73
ATOM     73  C   UNL A   1      42.536  23.525  27.916  1.00  0.00    -0.014 A 
ATOM     74  C   UNL A   1      42.954  23.320  26.590  1.00  0.00     0.010 A 
ATOM     75  C   UNL A   1      41.987  22.446  28.635  1.00  0.00     0.010 A 
ATOM     76  C   UNL A   1      42.805  22.068  25.985  1.00  0.00     0.020 A 
ATOM     77  C   UNL A   1      41.862  21.187  28.043  1.00  0.00     0.020 A 
ATOM     78  C   UNL A   1      42.261  21.008  26.717  1.00  0.00     0.054 A 
BRANCH  78  79
ATOM     79  S   UNL A   1      42.124  19.379  25.932  1.00  0.00     0.124 S 
ATOM     80  O   UNL A   1      40.688  19.274  25.698  1.00  0.00    -0.237 OA
ATOM     81  O   UNL A   1      42.952  19.531  24.738  1.00  0.00    -0.237 OA
ATOM     82  O   UNL A   1      42.663  18.469  26.940  1.00  0.00    -0.744 OA
ENDBRANCH  78  79
ENDBRANCH  50  73
BRANCH  62  83
ATOM     83  C   UNL A   1      47.606  26.545  31.622  1.00  0.00    -0.014 A 
ATOM     84  C   UNL A   1      48.765  26.628  30.828  1.00  0.00     0.010 A 
ATOM     85  C   UNL A   1      47.698  25.989  32.911  1.00  0.00     0.010 A 
ATOM     86  C   UNL A   1      49.978  26.116  31.294  1.00  0.00     0.020 A 
ATOM     87  C   UNL A   1      48.917  25.503  33.392  1.00  0.00     0.020 A 
ATOM     88  C   UNL A   1      50.044  25.548  32.570  1.00  0.00     0.054 A 
BRANCH  88  89
ATOM     89  S   UNL A   1      51.630  24.890  33.156  1.00  0.00     0.124 S 
ATOM     90  O   UNL A   1      52.530  26.013  32.913  1.00  0.00    -0.237 OA
ATOM     91  O   UNL A   1      51.357  24.594  34.561  1.00  0.00    -0.237 OA
ATOM     92  O   UNL A   1      51.851  23.719  32.311  1.00  0.00    -0.744 OA
ENDBRANCH  88  89
ENDBRANCH  62  83
ENDBRANCH  36  37
ENDBRANCH  28  31
ENDBRANCH  26  27
ENDBRANCH   1  26
TORSDOF 16
ENDMDL
MODEL 2
REMARK VINA RESULT:      -9.3      4.384     11.068
REMARK SMILES CS(=O)(=O)c1ccc(/C=C(/C(=O)NCCCNC(=O)c2ccc(-c3c4nc(c(-c5ccc(S(=O)(=O)[O-])cc5)c5ccc([nH]5)c(-c5ccc(S(=O)(=O)[O-])cc5)c5nc(c(-c6ccc(S(=O)(=O)[O-])cc6)c6ccc3[nH]6)C=C5)C=C4)cc2)c2ccc(F)cc2)cc1
REMARK SMILES IDX 15 1 14 2 13 3 11 4 12 5 10 7 9 8 8 9 5 10 6 11 88 12 7 13
REMARK SMILES IDX 87 14 2 15 1 16 3 17 4 18 80 19 81 20 86 21 82 22 85 23
REMARK SMILES IDX 83 24 84 25 16 26 17 27 18 28 19 30 20 31 21 32 79 33 22 34
REMARK SMILES IDX 78 35 23 36 24 37 25 38 72 39 26 40 77 41 71 42 73 43 27 44
REMARK SMILES IDX 76 45 70 46 69 47 28 49 58 50 39 51 57 52 40 53 43 54 56 55
REMARK SMILES IDX 74 56 41 57 42 58 55 60 75 61 44 62 29 63 30 64 38 65 31 66
REMARK SMILES IDX 37 67 32 68 33 69 34 70 35 71 36 72 59 73 60 74 68 75 61 76
REMARK SMILES IDX 67 77 62 78 63 79 64 80 65 81 66 82 45 83 46 84 54 85 47 86
REMARK SMILES IDX 53 87 48 88 49 89 50 90 51 91 52 92
REMARK H PARENT 13 6 17 29 73 48 43 59
REMARK Flexibility Score: inf
ROOT
ATOM      1  C   UNL A   1      35.916  23.729  24.052  1.00  0.00     0.042 C 
ENDROOT
BRANCH   1   2
ATOM      2  C   UNL A   1      34.529  24.363  23.926  1.00  0.00     0.118 C 
BRANCH   2   3
ATOM      3  N   UNL A   1      33.687  23.997  25.049  1.00  0.00    -0.352 N 
ATOM      4  C   UNL A   1      32.654  24.602  25.694  1.00  0.00     0.251 C 
ATOM      5  O   UNL A   1      32.166  23.979  26.640  1.00  0.00    -0.269 OA
ATOM      6  H   UNL A   1      33.912  23.116  25.427  1.00  0.00     0.163 HD
BRANCH   4   7
ATOM      7  C   UNL A   1      32.049  25.915  25.254  1.00  0.00     0.047 C 
ATOM      8  C   UNL A   1      31.318  26.020  24.120  1.00  0.00     0.022 C 
BRANCH   8   9
ATOM      9  C   UNL A   1      30.568  27.178  23.582  1.00  0.00    -0.025 A 
ATOM     10  C   UNL A   1      29.025  29.378  22.770  1.00  0.00     0.067 A 
ATOM     11  C   UNL A   1      30.410  29.403  22.609  1.00  0.00     0.021 A 
ATOM     12  C   UNL A   1      28.393  28.252  23.295  1.00  0.00     0.021 A 
ATOM     13  C   UNL A   1      31.168  28.289  22.978  1.00  0.00     0.009 A 
ATOM     14  C   UNL A   1      29.167  27.160  23.702  1.00  0.00     0.009 A 
BRANCH  10  15
ATOM     15  S   UNL A   1      28.073  30.805  22.313  1.00  0.00     0.175 S 
ATOM     16  C   UNL A   1      29.198  32.162  22.511  1.00  0.00     0.163 C 
ATOM     17  O   UNL A   1      27.018  30.939  23.301  1.00  0.00    -0.224 OA
ATOM     18  O   UNL A   1      27.762  30.698  20.902  1.00  0.00    -0.224 OA
ENDBRANCH  10  15
ENDBRANCH   8   9
BRANCH   7  19
ATOM     19  C   UNL A   1      32.448  27.122  26.022  1.00  0.00    -0.013 A 
ATOM     20  C   UNL A   1      33.771  27.590  25.899  1.00  0.00     0.012 A 
ATOM     21  C   UNL A   1      31.534  27.860  26.787  1.00  0.00     0.012 A 
ATOM     22  C   UNL A   1      34.164  28.787  26.497  1.00  0.00     0.040 A 
ATOM     23  C   UNL A   1      31.927  29.068  27.374  1.00  0.00     0.040 A 
ATOM     24  C   UNL A   1      33.234  29.521  27.217  1.00  0.00     0.123 A 
ATOM     25  F   UNL A   1      33.598  30.692  27.758  1.00  0.00    -0.207 F 
ENDBRANCH   7  19
ENDBRANCH   4   7
ENDBRANCH   2   3
ENDBRANCH   1   2
BRANCH   1  26
ATOM     26  C   UNL A   1      36.474  23.738  25.477  1.00  0.00     0.118 C 
BRANCH  26  27
ATOM     27  N   UNL A   1      37.532  22.757  25.658  1.00  0.00    -0.352 N 
ATOM     28  C   UNL A   1      38.806  22.904  26.144  1.00  0.00     0.251 C 
ATOM     29  H   UNL A   1      37.296  21.841  25.385  1.00  0.00     0.163 HD
ATOM     30  O   UNL A   1      39.606  21.983  25.994  1.00  0.00    -0.269 OA
BRANCH  28  31
ATOM     31  C   UNL A   1      39.230  24.143  26.837  1.00  0.00     0.039 A 
ATOM     32  C   UNL A   1      40.046  25.045  26.147  1.00  0.00     0.014 A 
ATOM     33  C   UNL A   1      38.902  24.388  28.174  1.00  0.00     0.014 A 
ATOM     34  C   UNL A   1      40.502  26.202  26.783  1.00  0.00     0.010 A 
ATOM     35  C   UNL A   1      39.304  25.576  28.788  1.00  0.00     0.010 A 
ATOM     36  C   UNL A   1      40.120  26.489  28.103  1.00  0.00    -0.014 A 
BRANCH  36  37
ATOM     37  C   UNL A   1      40.578  27.737  28.771  1.00  0.00     0.031 A 
ATOM     38  C   UNL A   1      41.963  27.829  29.357  1.00  0.00     0.074 A 
ATOM     39  C   UNL A   1      39.730  28.777  28.883  1.00  0.00     0.049 A 
ATOM     40  N   UNL A   1      42.531  28.836  29.973  1.00  0.00    -0.248 NA
ATOM     41  C   UNL A   1      42.814  26.631  29.259  1.00  0.00     0.031 C 
ATOM     42  C   UNL A   1      38.344  28.794  28.406  1.00  0.00     0.029 A 
ATOM     43  N   UNL A   1      39.906  30.022  29.433  1.00  0.00    -0.354 N 
ATOM     44  C   UNL A   1      43.791  28.387  30.354  1.00  0.00     0.074 A 
ATOM     45  C   UNL A   1      43.890  27.006  29.936  1.00  0.00     0.031 C 
ATOM     46  C   UNL A   1      37.805  29.998  28.661  1.00  0.00     0.029 A 
ATOM     47  C   UNL A   1      38.794  30.827  29.343  1.00  0.00     0.049 A 
ATOM     48  H   UNL A   1      40.747  30.312  29.852  1.00  0.00     0.167 HD
ATOM     49  C   UNL A   1      44.784  29.067  30.979  1.00  0.00     0.031 A 
ATOM     50  C   UNL A   1      38.591  32.092  29.760  1.00  0.00     0.031 A 
ATOM     51  C   UNL A   1      44.690  30.448  31.377  1.00  0.00     0.049 A 
ATOM     52  C   UNL A   1      39.720  32.838  30.414  1.00  0.00     0.074 A 
ATOM     53  C   UNL A   1      45.663  31.245  31.955  1.00  0.00     0.029 A 
ATOM     54  N   UNL A   1      43.559  31.239  31.236  1.00  0.00    -0.354 N 
ATOM     55  N   UNL A   1      40.931  32.418  30.697  1.00  0.00    -0.248 NA
ATOM     56  C   UNL A   1      39.463  34.236  30.782  1.00  0.00     0.031 C 
ATOM     57  C   UNL A   1      45.106  32.505  32.206  1.00  0.00     0.029 A 
ATOM     58  C   UNL A   1      43.804  32.509  31.731  1.00  0.00     0.049 A 
ATOM     59  H   UNL A   1      42.708  30.941  30.841  1.00  0.00     0.167 HD
ATOM     60  C   UNL A   1      41.587  33.510  31.253  1.00  0.00     0.074 A 
ATOM     61  C   UNL A   1      40.647  34.612  31.246  1.00  0.00     0.031 C 
ATOM     62  C   UNL A   1      42.857  33.593  31.725  1.00  0.00     0.031 A 
BRANCH  49  63
ATOM     63  C   UNL A   1      46.060  28.325  31.279  1.00  0.00    -0.014 A 
ATOM     64  C   UNL A   1      47.128  28.311  30.363  1.00  0.00     0.010 A 
ATOM     65  C   UNL A   1      46.213  27.671  32.515  1.00  0.00     0.010 A 
ATOM     66  C   UNL A   1      48.309  27.626  30.661  1.00  0.00     0.020 A 
ATOM     67  C   UNL A   1      47.404  27.007  32.829  1.00  0.00     0.020 A 
ATOM     68  C   UNL A   1      48.439  26.975  31.893  1.00  0.00     0.054 A 
BRANCH  68  69
ATOM     69  S   UNL A   1      49.993  26.118  32.266  1.00  0.00     0.124 S 
ATOM     70  O   UNL A   1      50.986  27.092  31.823  1.00  0.00    -0.237 OA
ATOM     71  O   UNL A   1      49.910  25.918  33.711  1.00  0.00    -0.237 OA
ATOM     72  O   UNL A   1      49.917  24.898  31.466  1.00  0.00    -0.744 OA
ENDBRANCH  68  69
ENDBRANCH  49  63
BRANCH  50  73
ATOM     73  C   UNL A   1      37.268  32.740  29.546  1.00  0.00    -0.014 A 
ATOM     74  C   UNL A   1      36.929  33.281  28.293  1.00  0.00     0.010 A 
ATOM     75  C   UNL A   1      36.334  32.807  30.596  1.00  0.00     0.010 A 
ATOM     76  C   UNL A   1      35.690  33.899  28.101  1.00  0.00     0.020 A 
ATOM     77  C   UNL A   1      35.083  33.399  30.399  1.00  0.00     0.020 A 
ATOM     78  C   UNL A   1      34.774  33.952  29.156  1.00  0.00     0.054 A 
BRANCH  78  79
ATOM     79  S   UNL A   1      33.151  34.713  28.871  1.00  0.00     0.124 S 
ATOM     80  O   UNL A   1      33.518  36.022  28.341  1.00  0.00    -0.237 OA
ATOM     81  O   UNL A   1      32.533  33.793  27.920  1.00  0.00    -0.237 OA
ATOM     82  O   UNL A   1      32.543  34.723  30.200  1.00  0.00    -0.744 OA
ENDBRANCH  78  79
ENDBRANCH  50  73
BRANCH  62  83
ATOM     83  C   UNL A   1      43.309  34.934  32.239  1.00  0.00    -0.014 A 
ATOM     84  C   UNL A   1      43.913  35.878  31.390  1.00  0.00     0.010 A 
ATOM     85  C   UNL A   1      43.113  35.257  33.595  1.00  0.00     0.010 A 
ATOM     86  C   UNL A   1      44.364  37.099  31.899  1.00  0.00     0.020 A 
ATOM     87  C   UNL A   1      43.535  36.489  34.101  1.00  0.00     0.020 A 
ATOM     88  C   UNL A   1      44.179  37.392  33.254  1.00  0.00     0.054 A 
BRANCH  88  89
ATOM     89  S   UNL A   1      44.770  38.984  33.894  1.00  0.00     0.124 S 
ATOM     90  O   UNL A   1      46.006  39.171  33.141  1.00  0.00    -0.237 OA
ATOM     91  O   UNL A   1      43.680  39.894  33.551  1.00  0.00    -0.237 OA
ATOM     92  O   UNL A   1      44.942  38.738  35.325  1.00  0.00    -0.744 OA
ENDBRANCH  88  89
ENDBRANCH  62  83
ENDBRANCH  36  37
ENDBRANCH  28  31
ENDBRANCH  26  27
ENDBRANCH   1  26
TORSDOF 16
ENDMDL
MODEL 3
REMARK VINA RESULT:      -8.7      0.977      8.192
REMARK SMILES CS(=O)(=O)c1ccc(/C=C(/C(=O)NCCCNC(=O)c2ccc(-c3c4nc(c(-c5ccc(S(=O)(=O)[O-])cc5)c5ccc([nH]5)c(-c5ccc(S(=O)(=O)[O-])cc5)c5nc(c(-c6ccc(S(=O)(=O)[O-])cc6)c6ccc3[nH]6)C=C5)C=C4)cc2)c2ccc(F)cc2)cc1
REMARK SMILES IDX 15 1 14 2 13 3 11 4 12 5 10 7 9 8 8 9 5 10 6 11 88 12 7 13
REMARK SMILES IDX 87 14 2 15 1 16 3 17 4 18 80 19 81 20 86 21 82 22 85 23
REMARK SMILES IDX 83 24 84 25 16 26 17 27 18 28 19 30 20 31 21 32 79 33 22 34
REMARK SMILES IDX 78 35 23 36 24 37 25 38 72 39 26 40 77 41 71 42 73 43 27 44
REMARK SMILES IDX 76 45 70 46 69 47 28 49 58 50 39 51 57 52 40 53 43 54 56 55
REMARK SMILES IDX 74 56 41 57 42 58 55 60 75 61 44 62 29 63 30 64 38 65 31 66
REMARK SMILES IDX 37 67 32 68 33 69 34 70 35 71 36 72 59 73 60 74 68 75 61 76
REMARK SMILES IDX 67 77 62 78 63 79 64 80 65 81 66 82 45 83 46 84 54 85 47 86
REMARK SMILES IDX 53 87 48 88 49 89 50 90 51 91 52 92
REMARK H PARENT 13 6 17 29 73 48 43 59
REMARK Flexibility Score: inf
ROOT
ATOM      1  C   UNL A   1      35.415  32.507  29.923  1.00  0.00     0.042 C 
ENDROOT
BRANCH   1   2
ATOM      2  C   UNL A   1      34.429  32.780  31.062  1.00  0.00     0.118 C 
BRANCH   2   3
ATOM      3  N   UNL A   1      34.776  34.001  31.765  1.00  0.00    -0.352 N 
ATOM      4  C   UNL A   1      35.857  34.404  32.484  1.00  0.00     0.251 C 
ATOM      5  O   UNL A   1      35.801  35.543  32.956  1.00  0.00    -0.269 OA
ATOM      6  H   UNL A   1      34.075  34.690  31.708  1.00  0.00     0.163 HD
BRANCH   4   7
ATOM      7  C   UNL A   1      37.110  33.576  32.644  1.00  0.00     0.047 C 
ATOM      8  C   UNL A   1      37.168  32.524  33.495  1.00  0.00     0.022 C 
BRANCH   8   9
ATOM      9  C   UNL A   1      38.254  31.542  33.713  1.00  0.00    -0.025 A 
ATOM     10  C   UNL A   1      40.319  29.648  33.888  1.00  0.00     0.067 A 
ATOM     11  C   UNL A   1      40.426  30.859  34.573  1.00  0.00     0.021 A 
ATOM     12  C   UNL A   1      39.176  29.353  33.148  1.00  0.00     0.021 A 
ATOM     13  C   UNL A   1      39.377  31.781  34.514  1.00  0.00     0.009 A 
ATOM     14  C   UNL A   1      38.151  30.301  33.060  1.00  0.00     0.009 A 
BRANCH  10  15
ATOM     15  S   UNL A   1      41.665  28.493  33.957  1.00  0.00     0.175 S 
ATOM     16  C   UNL A   1      43.026  29.444  34.579  1.00  0.00     0.163 C 
ATOM     17  O   UNL A   1      41.961  28.113  32.587  1.00  0.00    -0.224 OA
ATOM     18  O   UNL A   1      41.340  27.492  34.953  1.00  0.00    -0.224 OA
ENDBRANCH  10  15
ENDBRANCH   8   9
BRANCH   7  19
ATOM     19  C   UNL A   1      38.333  34.079  31.967  1.00  0.00    -0.013 A 
ATOM     20  C   UNL A   1      39.483  34.315  32.745  1.00  0.00     0.012 A 
ATOM     21  C   UNL A   1      38.408  34.240  30.577  1.00  0.00     0.012 A 
ATOM     22  C   UNL A   1      40.691  34.668  32.146  1.00  0.00     0.040 A 
ATOM     23  C   UNL A   1      39.625  34.579  29.976  1.00  0.00     0.040 A 
ATOM     24  C   UNL A   1      40.754  34.783  30.765  1.00  0.00     0.123 A 
ATOM     25  F   UNL A   1      41.923  35.080  30.182  1.00  0.00    -0.207 F 
ENDBRANCH   7  19
ENDBRANCH   4   7
ENDBRANCH   2   3
ENDBRANCH   1   2
BRANCH   1  26
ATOM     26  C   UNL A   1      34.772  32.506  28.535  1.00  0.00     0.118 C 
BRANCH  26  27
ATOM     27  N   UNL A   1      34.127  31.238  28.230  1.00  0.00    -0.352 N 
ATOM     28  C   UNL A   1      34.667  29.996  28.014  1.00  0.00     0.251 C 
ATOM     29  H   UNL A   1      33.145  31.279  28.168  1.00  0.00     0.163 HD
ATOM     30  O   UNL A   1      33.951  29.113  27.547  1.00  0.00    -0.269 OA
BRANCH  28  31
ATOM     31  C   UNL A   1      36.085  29.705  28.328  1.00  0.00     0.039 A 
ATOM     32  C   UNL A   1      37.043  29.908  27.329  1.00  0.00     0.014 A 
ATOM     33  C   UNL A   1      36.471  29.164  29.558  1.00  0.00     0.014 A 
ATOM     34  C   UNL A   1      38.384  29.603  27.573  1.00  0.00     0.010 A 
ATOM     35  C   UNL A   1      37.821  28.920  29.824  1.00  0.00     0.010 A 
ATOM     36  C   UNL A   1      38.789  29.124  28.830  1.00  0.00    -0.014 A 
BRANCH  36  37
ATOM     37  C   UNL A   1      40.221  28.829  29.103  1.00  0.00     0.031 A 
ATOM     38  C   UNL A   1      40.821  27.506  28.705  1.00  0.00     0.074 A 
ATOM     39  C   UNL A   1      40.974  29.743  29.745  1.00  0.00     0.049 A 
ATOM     40  N   UNL A   1      42.048  27.077  28.863  1.00  0.00    -0.248 NA
ATOM     41  C   UNL A   1      39.924  26.527  28.068  1.00  0.00     0.031 C 
ATOM     42  C   UNL A   1      40.498  31.040  30.232  1.00  0.00     0.029 A 
ATOM     43  N   UNL A   1      42.299  29.722  30.101  1.00  0.00    -0.354 N 
ATOM     44  C   UNL A   1      42.065  25.778  28.367  1.00  0.00     0.074 A 
ATOM     45  C   UNL A   1      40.717  25.473  27.940  1.00  0.00     0.031 C 
ATOM     46  C   UNL A   1      41.521  31.700  30.799  1.00  0.00     0.029 A 
ATOM     47  C   UNL A   1      42.716  30.865  30.743  1.00  0.00     0.049 A 
ATOM     48  H   UNL A   1      42.895  28.961  29.915  1.00  0.00     0.167 HD
ATOM     49  C   UNL A   1      43.111  24.921  28.260  1.00  0.00     0.031 A 
ATOM     50  C   UNL A   1      43.925  31.206  31.230  1.00  0.00     0.031 A 
ATOM     51  C   UNL A   1      44.456  25.234  28.667  1.00  0.00     0.049 A 
ATOM     52  C   UNL A   1      45.078  30.256  31.062  1.00  0.00     0.074 A 
ATOM     53  C   UNL A   1      45.596  24.460  28.538  1.00  0.00     0.029 A 
ATOM     54  N   UNL A   1      44.844  26.416  29.280  1.00  0.00    -0.354 N 
ATOM     55  N   UNL A   1      45.088  29.060  30.521  1.00  0.00    -0.248 NA
ATOM     56  C   UNL A   1      46.386  30.711  31.548  1.00  0.00     0.031 C 
ATOM     57  C   UNL A   1      46.666  25.155  29.115  1.00  0.00     0.029 A 
ATOM     58  C   UNL A   1      46.202  26.386  29.551  1.00  0.00     0.049 A 
ATOM     59  H   UNL A   1      44.243  27.167  29.491  1.00  0.00     0.167 HD
ATOM     60  C   UNL A   1      46.409  28.632  30.579  1.00  0.00     0.074 A 
ATOM     61  C   UNL A   1      47.170  29.704  31.187  1.00  0.00     0.031 C 
ATOM     62  C   UNL A   1      46.945  27.457  30.164  1.00  0.00     0.031 A 
BRANCH  49  63
ATOM     63  C   UNL A   1      42.841  23.556  27.683  1.00  0.00    -0.014 A 
ATOM     64  C   UNL A   1      42.966  23.310  26.303  1.00  0.00     0.010 A 
ATOM     65  C   UNL A   1      42.503  22.491  28.537  1.00  0.00     0.010 A 
ATOM     66  C   UNL A   1      42.722  22.035  25.785  1.00  0.00     0.020 A 
ATOM     67  C   UNL A   1      42.285  21.207  28.027  1.00  0.00     0.020 A 
ATOM     68  C   UNL A   1      42.379  20.991  26.651  1.00  0.00     0.054 A 
BRANCH  68  69
ATOM     69  S   UNL A   1      42.096  19.340  25.956  1.00  0.00     0.124 S 
ATOM     70  O   UNL A   1      40.656  19.359  25.714  1.00  0.00    -0.237 OA
ATOM     71  O   UNL A   1      42.934  19.347  24.759  1.00  0.00    -0.237 OA
ATOM     72  O   UNL A   1      42.538  18.437  27.015  1.00  0.00    -0.744 OA
ENDBRANCH  68  69
ENDBRANCH  49  63
BRANCH  50  73
ATOM     73  C   UNL A   1      44.110  32.522  31.901  1.00  0.00    -0.014 A 
ATOM     74  C   UNL A   1      44.582  33.634  31.181  1.00  0.00     0.010 A 
ATOM     75  C   UNL A   1      43.801  32.671  33.265  1.00  0.00     0.010 A 
ATOM     76  C   UNL A   1      44.765  34.865  31.819  1.00  0.00     0.020 A 
ATOM     77  C   UNL A   1      43.956  33.907  33.899  1.00  0.00     0.020 A 
ATOM     78  C   UNL A   1      44.449  34.993  33.174  1.00  0.00     0.054 A 
BRANCH  78  79
ATOM     79  S   UNL A   1      44.644  36.611  33.971  1.00  0.00     0.124 S 
ATOM     80  O   UNL A   1      46.068  36.870  33.788  1.00  0.00    -0.237 OA
ATOM     81  O   UNL A   1      43.740  37.457  33.197  1.00  0.00    -0.237 OA
ATOM     82  O   UNL A   1      44.224  36.364  35.349  1.00  0.00    -0.744 OA
ENDBRANCH  78  79
ENDBRANCH  50  73
BRANCH  62  83
ATOM     83  C   UNL A   1      48.432  27.289  30.322  1.00  0.00    -0.014 A 
ATOM     84  C   UNL A   1      49.328  27.697  29.317  1.00  0.00     0.010 A 
ATOM     85  C   UNL A   1      48.942  26.723  31.506  1.00  0.00     0.010 A 
ATOM     86  C   UNL A   1      50.701  27.491  29.469  1.00  0.00     0.020 A 
ATOM     87  C   UNL A   1      50.318  26.544  31.673  1.00  0.00     0.020 A 
ATOM     88  C   UNL A   1      51.186  26.908  30.643  1.00  0.00     0.054 A 
BRANCH  88  89
ATOM     89  S   UNL A   1      52.973  26.652  30.821  1.00  0.00     0.124 S 
ATOM     90  O   UNL A   1      53.385  26.433  29.438  1.00  0.00    -0.237 OA
ATOM     91  O   UNL A   1      53.421  27.907  31.420  1.00  0.00    -0.237 OA
ATOM     92  O   UNL A   1      53.070  25.483  31.693  1.00  0.00    -0.744 OA
ENDBRANCH  88  89
ENDBRANCH  62  83
ENDBRANCH  36  37
ENDBRANCH  28  31
ENDBRANCH  26  27
ENDBRANCH   1  26
TORSDOF 16
ENDMDL
