MODEL 1
REMARK VINA RESULT:     -13.1      0.000      0.000
REMARK SMILES Cc1nc2sc3c(c2c2nc(CCC(=O)NCCCNC(=O)c4ccc(-c5c6nc(c(-c7ccc(S(=O)(=O)[O-])cc7)c7ccc([nH]7)c(-c7ccc(S(=O)(=O)[O-])cc7)c7nc(c(-c8ccc(S(=O)(=O)[O-])cc8)c8ccc5[nH]8)C=C7)C=C6)cc4)nn12)[C@@H](C)CCC3
REMARK SMILES IDX 18 1 17 2 16 3 14 4 15 5 13 7 12 8 11 9 1 10 2 11 3 12 84 13
REMARK SMILES IDX 4 14 9 15 83 16 5 17 8 18 10 19 6 20 7 21 89 22 85 23 88 24
REMARK SMILES IDX 86 25 87 26 19 27 20 28 21 29 22 31 23 32 24 33 82 34 25 35
REMARK SMILES IDX 81 36 26 37 27 38 28 39 75 40 29 41 80 42 74 43 76 44 30 45
REMARK SMILES IDX 79 46 73 47 72 48 31 50 61 51 42 52 60 53 43 54 46 55 59 56
REMARK SMILES IDX 77 57 44 58 45 59 58 61 78 62 47 63 32 64 33 65 41 66 34 67
REMARK SMILES IDX 40 68 35 69 36 70 37 71 38 72 39 73 62 74 63 75 71 76 64 77
REMARK SMILES IDX 70 78 65 79 66 80 67 81 68 82 69 83 48 84 49 85 57 86 50 87
REMARK SMILES IDX 56 88 51 89 52 90 53 91 54 92 55 93
REMARK H PARENT 16 6 20 30 76 49 46 60
REMARK Flexibility Score: inf
ROOT
ATOM      1  C   UNL A   1      39.722  21.887  26.578  1.00  0.00     0.042 C 
ENDROOT
BRANCH   1   2
ATOM      2  C   UNL A   1      38.426  21.885  25.621  1.00  0.00     0.117 C 
BRANCH   2   3
ATOM      3  N   UNL A   1      37.048  21.877  26.146  1.00  0.00    -0.356 N 
ATOM      4  C   UNL A   1      35.870  22.542  25.869  1.00  0.00     0.220 C 
ATOM      5  O   UNL A   1      34.822  22.014  26.263  1.00  0.00    -0.275 OA
ATOM      6  H   UNL A   1      36.940  21.233  26.883  1.00  0.00     0.163 HD
BRANCH   4   7
ATOM      7  C   UNL A   1      35.749  23.843  25.081  1.00  0.00     0.108 C 
BRANCH   7   8
ATOM      8  C   UNL A   1      35.518  23.645  23.568  1.00  0.00     0.089 C 
BRANCH   8   9
ATOM      9  C   UNL A   1      34.155  24.069  23.212  1.00  0.00     0.152 A 
ATOM     10  C   UNL A   1      32.405  25.437  19.682  1.00  0.00     0.090 C 
ATOM     11  C   UNL A   1      32.085  25.806  21.102  1.00  0.00     0.131 A 
ATOM     12  N   UNL A   1      31.275  26.788  21.382  1.00  0.00    -0.222 NA
ATOM     13  N   UNL A   1      32.735  25.092  22.114  1.00  0.00    -0.199 N 
ATOM     14  C   UNL A   1      31.268  27.177  22.699  1.00  0.00     0.129 A 
ATOM     15  C   UNL A   1      32.611  25.411  23.449  1.00  0.00     0.168 A 
ATOM     16  N   UNL A   1      33.748  24.219  21.942  1.00  0.00    -0.150 NA
ATOM     17  S   UNL A   1      30.576  28.620  23.141  1.00  0.00    -0.120 S 
ATOM     18  C   UNL A   1      31.901  26.637  23.811  1.00  0.00     0.060 A 
ATOM     19  N   UNL A   1      33.402  24.675  24.167  1.00  0.00    -0.211 NA
ATOM     20  C   UNL A   1      31.445  28.706  24.596  1.00  0.00     0.011 A 
ATOM     21  C   UNL A   1      31.945  27.484  24.985  1.00  0.00    -0.018 A 
ATOM     22  C   UNL A   1      31.800  29.961  25.315  1.00  0.00     0.047 C 
ATOM     23  C   UNL A   1      32.562  27.377  26.388  1.00  0.00     0.018 C 
ATOM     24  C   UNL A   1      31.773  29.777  26.786  1.00  0.00     0.006 C 
ATOM     25  C   UNL A   1      33.937  26.776  26.423  1.00  0.00     0.013 C 
ATOM     26  C   UNL A   1      32.798  28.743  27.115  1.00  0.00     0.008 C 
ENDBRANCH   8   9
ENDBRANCH   7   8
ENDBRANCH   4   7
ENDBRANCH   2   3
ENDBRANCH   1   2
BRANCH   1  27
ATOM     27  C   UNL A   1      41.035  21.032  26.255  1.00  0.00     0.118 C 
BRANCH  27  28
ATOM     28  N   UNL A   1      42.327  21.716  25.619  1.00  0.00    -0.352 N 
ATOM     29  C   UNL A   1      43.375  22.719  25.748  1.00  0.00     0.251 C 
ATOM     30  H   UNL A   1      42.487  21.259  24.762  1.00  0.00     0.163 HD
ATOM     31  O   UNL A   1      44.366  22.480  25.038  1.00  0.00    -0.269 OA
BRANCH  29  32
ATOM     32  C   UNL A   1      43.536  24.016  26.597  1.00  0.00     0.039 A 
ATOM     33  C   UNL A   1      43.312  24.094  27.985  1.00  0.00     0.014 A 
ATOM     34  C   UNL A   1      44.021  25.230  26.108  1.00  0.00     0.014 A 
ATOM     35  C   UNL A   1      42.968  25.343  28.637  1.00  0.00     0.010 A 
ATOM     36  C   UNL A   1      43.584  26.467  26.695  1.00  0.00     0.010 A 
ATOM     37  C   UNL A   1      42.849  26.527  27.909  1.00  0.00    -0.014 A 
BRANCH  37  38
ATOM     38  C   UNL A   1      42.082  27.799  28.319  1.00  0.00     0.031 A 
ATOM     39  C   UNL A   1      42.825  29.028  27.922  1.00  0.00     0.074 A 
ATOM     40  C   UNL A   1      40.820  28.122  28.778  1.00  0.00     0.049 A 
ATOM     41  N   UNL A   1      43.871  29.464  28.540  1.00  0.00    -0.248 NA
ATOM     42  C   UNL A   1      42.559  29.712  26.640  1.00  0.00     0.031 C 
ATOM     43  C   UNL A   1      39.607  27.303  28.938  1.00  0.00     0.029 A 
ATOM     44  N   UNL A   1      40.315  29.375  29.137  1.00  0.00    -0.354 N 
ATOM     45  C   UNL A   1      44.210  30.638  27.897  1.00  0.00     0.074 A 
ATOM     46  C   UNL A   1      43.590  30.566  26.597  1.00  0.00     0.031 C 
ATOM     47  C   UNL A   1      38.502  28.085  29.117  1.00  0.00     0.029 A 
ATOM     48  C   UNL A   1      38.924  29.456  29.350  1.00  0.00     0.049 A 
ATOM     49  H   UNL A   1      40.901  30.159  29.237  1.00  0.00     0.167 HD
ATOM     50  C   UNL A   1      44.656  31.710  28.608  1.00  0.00     0.031 A 
ATOM     51  C   UNL A   1      38.198  30.519  29.823  1.00  0.00     0.031 A 
ATOM     52  C   UNL A   1      44.660  31.409  30.025  1.00  0.00     0.049 A 
ATOM     53  C   UNL A   1      39.123  31.262  30.708  1.00  0.00     0.074 A 
ATOM     54  C   UNL A   1      45.394  30.640  30.902  1.00  0.00     0.029 A 
ATOM     55  N   UNL A   1      43.451  31.662  30.625  1.00  0.00    -0.354 N 
ATOM     56  N   UNL A   1      39.638  30.751  31.790  1.00  0.00    -0.248 NA
ATOM     57  C   UNL A   1      39.680  32.536  30.280  1.00  0.00     0.031 C 
ATOM     58  C   UNL A   1      44.511  30.297  31.974  1.00  0.00     0.029 A 
ATOM     59  C   UNL A   1      43.278  30.904  31.754  1.00  0.00     0.049 A 
ATOM     60  H   UNL A   1      42.791  32.308  30.285  1.00  0.00     0.167 HD
ATOM     61  C   UNL A   1      40.861  31.374  31.889  1.00  0.00     0.074 A 
ATOM     62  C   UNL A   1      40.753  32.574  31.072  1.00  0.00     0.031 C 
ATOM     63  C   UNL A   1      41.956  30.681  32.307  1.00  0.00     0.031 A 
BRANCH  50  64
ATOM     64  C   UNL A   1      44.627  33.146  28.148  1.00  0.00    -0.014 A 
ATOM     65  C   UNL A   1      45.840  33.736  27.737  1.00  0.00     0.010 A 
ATOM     66  C   UNL A   1      43.517  33.999  28.290  1.00  0.00     0.010 A 
ATOM     67  C   UNL A   1      45.937  35.111  27.489  1.00  0.00     0.020 A 
ATOM     68  C   UNL A   1      43.593  35.365  28.009  1.00  0.00     0.020 A 
ATOM     69  C   UNL A   1      44.807  35.916  27.623  1.00  0.00     0.054 A 
BRANCH  69  70
ATOM     70  S   UNL A   1      44.954  37.694  27.323  1.00  0.00     0.124 S 
ATOM     71  O   UNL A   1      46.079  37.767  26.424  1.00  0.00    -0.237 OA
ATOM     72  O   UNL A   1      43.644  38.014  26.747  1.00  0.00    -0.237 OA
ATOM     73  O   UNL A   1      45.174  38.245  28.670  1.00  0.00    -0.744 OA
ENDBRANCH  69  70
ENDBRANCH  50  64
BRANCH  51  74
ATOM     74  C   UNL A   1      36.805  31.067  29.667  1.00  0.00    -0.014 A 
ATOM     75  C   UNL A   1      36.174  31.762  30.735  1.00  0.00     0.010 A 
ATOM     76  C   UNL A   1      36.275  31.280  28.381  1.00  0.00     0.010 A 
ATOM     77  C   UNL A   1      35.158  32.717  30.514  1.00  0.00     0.020 A 
ATOM     78  C   UNL A   1      35.253  32.230  28.153  1.00  0.00     0.020 A 
ATOM     79  C   UNL A   1      34.730  32.975  29.214  1.00  0.00     0.054 A 
BRANCH  79  80
ATOM     80  S   UNL A   1      33.613  34.388  28.905  1.00  0.00     0.124 S 
ATOM     81  O   UNL A   1      32.650  33.831  27.958  1.00  0.00    -0.237 OA
ATOM     82  O   UNL A   1      33.090  34.678  30.237  1.00  0.00    -0.237 OA
ATOM     83  O   UNL A   1      34.499  35.412  28.355  1.00  0.00    -0.744 OA
ENDBRANCH  79  80
ENDBRANCH  51  74
BRANCH  63  84
ATOM     84  C   UNL A   1      41.751  29.544  33.272  1.00  0.00    -0.014 A 
ATOM     85  C   UNL A   1      41.724  28.180  32.927  1.00  0.00     0.010 A 
ATOM     86  C   UNL A   1      41.631  29.896  34.628  1.00  0.00     0.010 A 
ATOM     87  C   UNL A   1      41.586  27.196  33.921  1.00  0.00     0.020 A 
ATOM     88  C   UNL A   1      41.511  28.924  35.621  1.00  0.00     0.020 A 
ATOM     89  C   UNL A   1      41.488  27.577  35.264  1.00  0.00     0.054 A 
BRANCH  89  90
ATOM     90  S   UNL A   1      41.373  26.303  36.552  1.00  0.00     0.124 S 
ATOM     91  O   UNL A   1      40.575  26.961  37.582  1.00  0.00    -0.237 OA
ATOM     92  O   UNL A   1      40.716  25.200  35.855  1.00  0.00    -0.237 OA
ATOM     93  O   UNL A   1      42.768  26.052  36.918  1.00  0.00    -0.744 OA
ENDBRANCH  89  90
ENDBRANCH  63  84
ENDBRANCH  37  38
ENDBRANCH  29  32
ENDBRANCH  27  28
ENDBRANCH   1  27
TORSDOF 15
ENDMDL
MODEL 2
REMARK VINA RESULT:     -12.8      1.908      2.604
REMARK SMILES Cc1nc2sc3c(c2c2nc(CCC(=O)NCCCNC(=O)c4ccc(-c5c6nc(c(-c7ccc(S(=O)(=O)[O-])cc7)c7ccc([nH]7)c(-c7ccc(S(=O)(=O)[O-])cc7)c7nc(c(-c8ccc(S(=O)(=O)[O-])cc8)c8ccc5[nH]8)C=C7)C=C6)cc4)nn12)[C@@H](C)CCC3
REMARK SMILES IDX 18 1 17 2 16 3 14 4 15 5 13 7 12 8 11 9 1 10 2 11 3 12 84 13
REMARK SMILES IDX 4 14 9 15 83 16 5 17 8 18 10 19 6 20 7 21 89 22 85 23 88 24
REMARK SMILES IDX 86 25 87 26 19 27 20 28 21 29 22 31 23 32 24 33 82 34 25 35
REMARK SMILES IDX 81 36 26 37 27 38 28 39 75 40 29 41 80 42 74 43 76 44 30 45
REMARK SMILES IDX 79 46 73 47 72 48 31 50 61 51 42 52 60 53 43 54 46 55 59 56
REMARK SMILES IDX 77 57 44 58 45 59 58 61 78 62 47 63 32 64 33 65 41 66 34 67
REMARK SMILES IDX 40 68 35 69 36 70 37 71 38 72 39 73 62 74 63 75 71 76 64 77
REMARK SMILES IDX 70 78 65 79 66 80 67 81 68 82 69 83 48 84 49 85 57 86 50 87
REMARK SMILES IDX 56 88 51 89 52 90 53 91 54 92 55 93
REMARK H PARENT 16 6 20 30 76 49 46 60
REMARK Flexibility Score: inf
ROOT
ATOM      1  C   UNL A   1      42.281  20.720  27.371  1.00  0.00     0.042 C 
ENDROOT
BRANCH   1   2
ATOM      2  C   UNL A   1      40.849  21.285  27.846  1.00  0.00     0.117 C 
BRANCH   2   3
ATOM      3  N   UNL A   1      40.170  22.405  27.169  1.00  0.00    -0.356 N 
ATOM      4  C   UNL A   1      39.130  22.546  26.272  1.00  0.00     0.220 C 
ATOM      5  O   UNL A   1      38.592  23.660  26.208  1.00  0.00    -0.275 OA
ATOM      6  H   UNL A   1      40.557  23.275  27.422  1.00  0.00     0.163 HD
BRANCH   4   7
ATOM      7  C   UNL A   1      38.562  21.439  25.390  1.00  0.00     0.108 C 
BRANCH   7   8
ATOM      8  C   UNL A   1      37.329  21.859  24.565  1.00  0.00     0.089 C 
BRANCH   8   9
ATOM      9  C   UNL A   1      36.099  21.451  25.262  1.00  0.00     0.152 A 
ATOM     10  C   UNL A   1      33.190  18.562  24.495  1.00  0.00     0.090 C 
ATOM     11  C   UNL A   1      33.039  19.909  25.142  1.00  0.00     0.131 A 
ATOM     12  N   UNL A   1      31.864  20.410  25.400  1.00  0.00    -0.222 NA
ATOM     13  N   UNL A   1      34.208  20.630  25.405  1.00  0.00    -0.199 N 
ATOM     14  C   UNL A   1      31.864  21.737  25.754  1.00  0.00     0.129 A 
ATOM     15  C   UNL A   1      34.195  21.919  25.891  1.00  0.00     0.168 A 
ATOM     16  N   UNL A   1      35.447  20.311  24.981  1.00  0.00    -0.150 NA
ATOM     17  S   UNL A   1      30.446  22.601  25.762  1.00  0.00    -0.120 S 
ATOM     18  C   UNL A   1      32.913  22.617  25.986  1.00  0.00     0.060 A 
ATOM     19  N   UNL A   1      35.399  22.400  25.936  1.00  0.00    -0.211 NA
ATOM     20  C   UNL A   1      31.239  24.096  25.646  1.00  0.00     0.011 A 
ATOM     21  C   UNL A   1      32.563  24.022  26.018  1.00  0.00    -0.018 A 
ATOM     22  C   UNL A   1      30.663  25.334  25.053  1.00  0.00     0.047 C 
ATOM     23  C   UNL A   1      33.338  25.340  26.170  1.00  0.00     0.018 C 
ATOM     24  C   UNL A   1      31.123  26.550  25.766  1.00  0.00     0.006 C 
ATOM     25  C   UNL A   1      34.638  25.391  25.420  1.00  0.00     0.013 C 
ATOM     26  C   UNL A   1      32.606  26.608  25.617  1.00  0.00     0.008 C 
ENDBRANCH   8   9
ENDBRANCH   7   8
ENDBRANCH   4   7
ENDBRANCH   2   3
ENDBRANCH   1   2
BRANCH   1  27
ATOM     27  C   UNL A   1      42.716  20.653  25.834  1.00  0.00     0.118 C 
BRANCH  27  28
ATOM     28  N   UNL A   1      43.325  21.928  25.094  1.00  0.00    -0.352 N 
ATOM     29  C   UNL A   1      43.887  23.266  25.214  1.00  0.00     0.251 C 
ATOM     30  H   UNL A   1      43.318  21.718  24.132  1.00  0.00     0.163 HD
ATOM     31  O   UNL A   1      44.559  23.601  24.225  1.00  0.00    -0.269 OA
BRANCH  29  32
ATOM     32  C   UNL A   1      43.848  24.362  26.321  1.00  0.00     0.039 A 
ATOM     33  C   UNL A   1      43.203  24.218  27.564  1.00  0.00     0.014 A 
ATOM     34  C   UNL A   1      44.533  25.577  26.260  1.00  0.00     0.014 A 
ATOM     35  C   UNL A   1      42.746  25.364  28.328  1.00  0.00     0.010 A 
ATOM     36  C   UNL A   1      44.008  26.733  26.932  1.00  0.00     0.010 A 
ATOM     37  C   UNL A   1      42.933  26.664  27.858  1.00  0.00    -0.014 A 
BRANCH  37  38
ATOM     38  C   UNL A   1      42.153  27.926  28.274  1.00  0.00     0.031 A 
ATOM     39  C   UNL A   1      42.884  29.165  27.888  1.00  0.00     0.074 A 
ATOM     40  C   UNL A   1      40.886  28.233  28.733  1.00  0.00     0.049 A 
ATOM     41  N   UNL A   1      43.924  29.607  28.512  1.00  0.00    -0.248 NA
ATOM     42  C   UNL A   1      42.614  29.855  26.610  1.00  0.00     0.031 C 
ATOM     43  C   UNL A   1      39.680  27.401  28.884  1.00  0.00     0.029 A 
ATOM     44  N   UNL A   1      40.368  29.478  29.099  1.00  0.00    -0.354 N 
ATOM     45  C   UNL A   1      44.254  30.788  27.877  1.00  0.00     0.074 A 
ATOM     46  C   UNL A   1      43.637  30.719  26.575  1.00  0.00     0.031 C 
ATOM     47  C   UNL A   1      38.568  28.172  29.065  1.00  0.00     0.029 A 
ATOM     48  C   UNL A   1      38.976  29.545  29.309  1.00  0.00     0.049 A 
ATOM     49  H   UNL A   1      40.946  30.268  29.206  1.00  0.00     0.167 HD
ATOM     50  C   UNL A   1      44.687  31.860  28.597  1.00  0.00     0.031 A 
ATOM     51  C   UNL A   1      38.239  30.598  29.788  1.00  0.00     0.031 A 
ATOM     52  C   UNL A   1      44.691  31.548  30.012  1.00  0.00     0.049 A 
ATOM     53  C   UNL A   1      39.154  31.343  30.680  1.00  0.00     0.074 A 
ATOM     54  C   UNL A   1      45.430  30.780  30.885  1.00  0.00     0.029 A 
ATOM     55  N   UNL A   1      43.478  31.785  30.610  1.00  0.00    -0.354 N 
ATOM     56  N   UNL A   1      39.672  30.830  31.759  1.00  0.00    -0.248 NA
ATOM     57  C   UNL A   1      39.700  32.626  30.262  1.00  0.00     0.031 C 
ATOM     58  C   UNL A   1      44.548  30.421  31.952  1.00  0.00     0.029 A 
ATOM     59  C   UNL A   1      43.310  31.018  31.734  1.00  0.00     0.049 A 
ATOM     60  H   UNL A   1      42.812  32.428  30.274  1.00  0.00     0.167 HD
ATOM     61  C   UNL A   1      40.888  31.464  31.866  1.00  0.00     0.074 A 
ATOM     62  C   UNL A   1      40.771  32.669  31.057  1.00  0.00     0.031 C 
ATOM     63  C   UNL A   1      41.988  30.779  32.282  1.00  0.00     0.031 A 
BRANCH  50  64
ATOM     64  C   UNL A   1      44.646  33.298  28.147  1.00  0.00    -0.014 A 
ATOM     65  C   UNL A   1      45.833  33.872  27.647  1.00  0.00     0.010 A 
ATOM     66  C   UNL A   1      43.563  34.167  28.377  1.00  0.00     0.010 A 
ATOM     67  C   UNL A   1      45.932  35.246  27.398  1.00  0.00     0.020 A 
ATOM     68  C   UNL A   1      43.638  35.534  28.097  1.00  0.00     0.020 A 
ATOM     69  C   UNL A   1      44.828  36.068  27.621  1.00  0.00     0.054 A 
BRANCH  69  70
ATOM     70  S   UNL A   1      44.980  37.845  27.319  1.00  0.00     0.124 S 
ATOM     71  O   UNL A   1      43.727  38.161  26.679  1.00  0.00    -0.237 OA
ATOM     72  O   UNL A   1      45.162  38.369  28.677  1.00  0.00    -0.237 OA
ATOM     73  O   UNL A   1      46.176  37.941  26.468  1.00  0.00    -0.744 OA
ENDBRANCH  69  70
ENDBRANCH  50  64
BRANCH  51  74
ATOM     74  C   UNL A   1      36.840  31.133  29.632  1.00  0.00    -0.014 A 
ATOM     75  C   UNL A   1      36.203  31.822  30.700  1.00  0.00     0.010 A 
ATOM     76  C   UNL A   1      36.309  31.342  28.346  1.00  0.00     0.010 A 
ATOM     77  C   UNL A   1      35.179  32.768  30.480  1.00  0.00     0.020 A 
ATOM     78  C   UNL A   1      35.278  32.283  28.119  1.00  0.00     0.020 A 
ATOM     79  C   UNL A   1      34.748  33.023  29.179  1.00  0.00     0.054 A 
BRANCH  79  80
ATOM     80  S   UNL A   1      33.619  34.426  28.871  1.00  0.00     0.124 S 
ATOM     81  O   UNL A   1      32.658  33.859  27.929  1.00  0.00    -0.237 OA
ATOM     82  O   UNL A   1      33.098  34.714  30.204  1.00  0.00    -0.237 OA
ATOM     83  O   UNL A   1      34.494  35.456  28.316  1.00  0.00    -0.744 OA
ENDBRANCH  79  80
ENDBRANCH  51  74
BRANCH  63  84
ATOM     84  C   UNL A   1      41.792  29.634  33.239  1.00  0.00    -0.014 A 
ATOM     85  C   UNL A   1      41.700  28.277  32.875  1.00  0.00     0.010 A 
ATOM     86  C   UNL A   1      41.752  29.966  34.604  1.00  0.00     0.010 A 
ATOM     87  C   UNL A   1      41.578  27.282  33.859  1.00  0.00     0.020 A 
ATOM     88  C   UNL A   1      41.647  28.982  35.586  1.00  0.00     0.020 A 
ATOM     89  C   UNL A   1      41.560  27.643  35.211  1.00  0.00     0.054 A 
BRANCH  89  90
ATOM     90  S   UNL A   1      41.465  26.352  36.484  1.00  0.00     0.124 S 
ATOM     91  O   UNL A   1      40.805  25.257  35.780  1.00  0.00    -0.237 OA
ATOM     92  O   UNL A   1      42.869  26.130  36.821  1.00  0.00    -0.237 OA
ATOM     93  O   UNL A   1      40.671  26.970  37.547  1.00  0.00    -0.744 OA
ENDBRANCH  89  90
ENDBRANCH  63  84
ENDBRANCH  37  38
ENDBRANCH  29  32
ENDBRANCH  27  28
ENDBRANCH   1  27
TORSDOF 15
ENDMDL
MODEL 3
REMARK VINA RESULT:     -12.6      3.007      9.923
REMARK SMILES Cc1nc2sc3c(c2c2nc(CCC(=O)NCCCNC(=O)c4ccc(-c5c6nc(c(-c7ccc(S(=O)(=O)[O-])cc7)c7ccc([nH]7)c(-c7ccc(S(=O)(=O)[O-])cc7)c7nc(c(-c8ccc(S(=O)(=O)[O-])cc8)c8ccc5[nH]8)C=C7)C=C6)cc4)nn12)[C@@H](C)CCC3
REMARK SMILES IDX 18 1 17 2 16 3 14 4 15 5 13 7 12 8 11 9 1 10 2 11 3 12 84 13
REMARK SMILES IDX 4 14 9 15 83 16 5 17 8 18 10 19 6 20 7 21 89 22 85 23 88 24
REMARK SMILES IDX 86 25 87 26 19 27 20 28 21 29 22 31 23 32 24 33 82 34 25 35
REMARK SMILES IDX 81 36 26 37 27 38 28 39 75 40 29 41 80 42 74 43 76 44 30 45
REMARK SMILES IDX 79 46 73 47 72 48 31 50 61 51 42 52 60 53 43 54 46 55 59 56
REMARK SMILES IDX 77 57 44 58 45 59 58 61 78 62 47 63 32 64 33 65 41 66 34 67
REMARK SMILES IDX 40 68 35 69 36 70 37 71 38 72 39 73 62 74 63 75 71 76 64 77
REMARK SMILES IDX 70 78 65 79 66 80 67 81 68 82 69 83 48 84 49 85 57 86 50 87
REMARK SMILES IDX 56 88 51 89 52 90 53 91 54 92 55 93
REMARK H PARENT 16 6 20 30 76 49 46 60
REMARK Flexibility Score: inf
ROOT
ATOM      1  C   UNL A   1      33.724  28.775  27.253  1.00  0.00     0.042 C 
ENDROOT
BRANCH   1   2
ATOM      2  C   UNL A   1      33.465  27.647  26.133  1.00  0.00     0.117 C 
BRANCH   2   3
ATOM      3  N   UNL A   1      32.328  26.710  26.194  1.00  0.00    -0.356 N 
ATOM      4  C   UNL A   1      32.162  25.354  26.394  1.00  0.00     0.220 C 
ATOM      5  O   UNL A   1      31.038  24.973  26.749  1.00  0.00    -0.275 OA
ATOM      6  H   UNL A   1      31.467  27.168  26.057  1.00  0.00     0.163 HD
BRANCH   4   7
ATOM      7  C   UNL A   1      33.253  24.297  26.260  1.00  0.00     0.108 C 
BRANCH   7   8
ATOM      8  C   UNL A   1      34.682  24.872  26.176  1.00  0.00     0.089 C 
BRANCH   8   9
ATOM      9  C   UNL A   1      35.565  23.917  25.489  1.00  0.00     0.152 A 
ATOM     10  C   UNL A   1      35.384  19.802  24.831  1.00  0.00     0.090 C 
ATOM     11  C   UNL A   1      36.588  20.675  25.039  1.00  0.00     0.131 A 
ATOM     12  N   UNL A   1      37.775  20.165  25.208  1.00  0.00    -0.222 NA
ATOM     13  N   UNL A   1      36.377  22.057  25.101  1.00  0.00    -0.199 N 
ATOM     14  C   UNL A   1      38.733  21.052  25.634  1.00  0.00     0.129 A 
ATOM     15  C   UNL A   1      37.382  22.951  25.399  1.00  0.00     0.168 A 
ATOM     16  N   UNL A   1      35.179  22.672  25.164  1.00  0.00    -0.150 NA
ATOM     17  S   UNL A   1      40.180  20.498  26.231  1.00  0.00    -0.120 S 
ATOM     18  C   UNL A   1      38.681  22.428  25.821  1.00  0.00     0.060 A 
ATOM     19  N   UNL A   1      36.904  24.152  25.510  1.00  0.00    -0.211 NA
ATOM     20  C   UNL A   1      40.502  21.940  27.067  1.00  0.00     0.011 A 
ATOM     21  C   UNL A   1      39.764  23.001  26.591  1.00  0.00    -0.018 A 
ATOM     22  C   UNL A   1      41.343  22.058  28.290  1.00  0.00     0.047 C 
ATOM     23  C   UNL A   1      40.116  24.404  27.109  1.00  0.00     0.018 C 
ATOM     24  C   UNL A   1      42.101  23.333  28.313  1.00  0.00     0.006 C 
ATOM     25  C   UNL A   1      38.949  25.186  27.640  1.00  0.00     0.013 C 
ATOM     26  C   UNL A   1      41.096  24.436  28.329  1.00  0.00     0.008 C 
ENDBRANCH   8   9
ENDBRANCH   7   8
ENDBRANCH   4   7
ENDBRANCH   2   3
ENDBRANCH   1   2
BRANCH   1  27
ATOM     27  C   UNL A   1      32.960  30.180  27.258  1.00  0.00     0.118 C 
BRANCH  27  28
ATOM     28  N   UNL A   1      33.746  31.544  27.519  1.00  0.00    -0.352 N 
ATOM     29  C   UNL A   1      34.982  32.187  27.941  1.00  0.00     0.251 C 
ATOM     30  H   UNL A   1      33.120  32.270  27.296  1.00  0.00     0.163 HD
ATOM     31  O   UNL A   1      35.083  33.357  27.536  1.00  0.00    -0.269 OA
BRANCH  29  32
ATOM     32  C   UNL A   1      36.217  31.724  28.772  1.00  0.00     0.039 A 
ATOM     33  C   UNL A   1      37.416  32.452  28.892  1.00  0.00     0.014 A 
ATOM     34  C   UNL A   1      36.248  30.586  29.579  1.00  0.00     0.014 A 
ATOM     35  C   UNL A   1      38.675  31.808  29.211  1.00  0.00     0.010 A 
ATOM     36  C   UNL A   1      37.489  29.893  29.796  1.00  0.00     0.010 A 
ATOM     37  C   UNL A   1      38.748  30.430  29.415  1.00  0.00    -0.014 A 
BRANCH  37  38
ATOM     38  C   UNL A   1      40.000  29.537  29.313  1.00  0.00     0.031 A 
ATOM     39  C   UNL A   1      40.333  28.922  30.629  1.00  0.00     0.074 A 
ATOM     40  C   UNL A   1      40.786  29.000  28.312  1.00  0.00     0.049 A 
ATOM     41  N   UNL A   1      40.878  29.567  31.604  1.00  0.00    -0.248 NA
ATOM     42  C   UNL A   1      39.844  27.578  30.998  1.00  0.00     0.031 C 
ATOM     43  C   UNL A   1      40.620  28.987  26.849  1.00  0.00     0.029 A 
ATOM     44  N   UNL A   1      41.939  28.218  28.432  1.00  0.00    -0.354 N 
ATOM     45  C   UNL A   1      41.065  28.630  32.600  1.00  0.00     0.074 A 
ATOM     46  C   UNL A   1      40.155  27.552  32.301  1.00  0.00     0.031 C 
ATOM     47  C   UNL A   1      41.453  28.076  26.266  1.00  0.00     0.029 A 
ATOM     48  C   UNL A   1      42.411  27.607  27.253  1.00  0.00     0.049 A 
ATOM     49  H   UNL A   1      42.397  28.101  29.295  1.00  0.00     0.167 HD
ATOM     50  C   UNL A   1      42.193  28.651  33.364  1.00  0.00     0.031 A 
ATOM     51  C   UNL A   1      43.572  26.902  27.069  1.00  0.00     0.031 A 
ATOM     52  C   UNL A   1      43.073  29.719  32.934  1.00  0.00     0.049 A 
ATOM     53  C   UNL A   1      44.534  27.468  28.040  1.00  0.00     0.074 A 
ATOM     54  C   UNL A   1      43.114  31.094  32.999  1.00  0.00     0.029 A 
ATOM     55  N   UNL A   1      43.911  29.337  31.916  1.00  0.00    -0.354 N 
ATOM     56  N   UNL A   1      44.934  28.708  28.007  1.00  0.00    -0.248 NA
ATOM     57  C   UNL A   1      44.907  26.714  29.227  1.00  0.00     0.031 C 
ATOM     58  C   UNL A   1      43.874  31.528  31.867  1.00  0.00     0.029 A 
ATOM     59  C   UNL A   1      44.320  30.411  31.168  1.00  0.00     0.049 A 
ATOM     60  H   UNL A   1      44.184  28.407  31.745  1.00  0.00     0.167 HD
ATOM     61  C   UNL A   1      45.170  29.005  29.329  1.00  0.00     0.074 A 
ATOM     62  C   UNL A   1      45.328  27.720  29.995  1.00  0.00     0.031 C 
ATOM     63  C   UNL A   1      44.846  30.229  29.829  1.00  0.00     0.031 A 
BRANCH  50  64
ATOM     64  C   UNL A   1      42.752  27.487  34.141  1.00  0.00    -0.014 A 
ATOM     65  C   UNL A   1      42.740  27.561  35.549  1.00  0.00     0.010 A 
ATOM     66  C   UNL A   1      43.468  26.422  33.563  1.00  0.00     0.010 A 
ATOM     67  C   UNL A   1      43.417  26.621  36.337  1.00  0.00     0.020 A 
ATOM     68  C   UNL A   1      44.116  25.457  34.340  1.00  0.00     0.020 A 
ATOM     69  C   UNL A   1      44.097  25.570  35.723  1.00  0.00     0.054 A 
BRANCH  69  70
ATOM     70  S   UNL A   1      44.988  24.379  36.753  1.00  0.00     0.124 S 
ATOM     71  O   UNL A   1      44.423  24.612  38.059  1.00  0.00    -0.237 OA
ATOM     72  O   UNL A   1      44.638  23.105  36.115  1.00  0.00    -0.237 OA
ATOM     73  O   UNL A   1      46.395  24.774  36.584  1.00  0.00    -0.744 OA
ENDBRANCH  69  70
ENDBRANCH  50  64
BRANCH  51  74
ATOM     74  C   UNL A   1      44.060  25.779  26.192  1.00  0.00    -0.014 A 
ATOM     75  C   UNL A   1      45.278  25.106  26.483  1.00  0.00     0.010 A 
ATOM     76  C   UNL A   1      43.157  25.102  25.352  1.00  0.00     0.010 A 
ATOM     77  C   UNL A   1      45.523  23.780  26.067  1.00  0.00     0.020 A 
ATOM     78  C   UNL A   1      43.398  23.777  24.925  1.00  0.00     0.020 A 
ATOM     79  C   UNL A   1      44.559  23.106  25.320  1.00  0.00     0.054 A 
BRANCH  79  80
ATOM     80  S   UNL A   1      44.760  21.317  25.010  1.00  0.00     0.124 S 
ATOM     81  O   UNL A   1      46.134  21.072  25.439  1.00  0.00    -0.237 OA
ATOM     82  O   UNL A   1      43.723  20.729  25.852  1.00  0.00    -0.237 OA
ATOM     83  O   UNL A   1      44.530  21.190  23.571  1.00  0.00    -0.744 OA
ENDBRANCH  79  80
ENDBRANCH  51  74
BRANCH  63  84
ATOM     84  C   UNL A   1      44.900  31.413  28.900  1.00  0.00    -0.014 A 
ATOM     85  C   UNL A   1      46.077  32.018  28.420  1.00  0.00     0.010 A 
ATOM     86  C   UNL A   1      43.662  31.902  28.448  1.00  0.00     0.010 A 
ATOM     87  C   UNL A   1      46.010  33.082  27.506  1.00  0.00     0.020 A 
ATOM     88  C   UNL A   1      43.589  32.948  27.528  1.00  0.00     0.020 A 
ATOM     89  C   UNL A   1      44.763  33.535  27.061  1.00  0.00     0.054 A 
BRANCH  89  90
ATOM     90  S   UNL A   1      44.679  34.869  25.832  1.00  0.00     0.124 S 
ATOM     91  O   UNL A   1      43.268  34.869  25.456  1.00  0.00    -0.237 OA
ATOM     92  O   UNL A   1      45.129  36.033  26.591  1.00  0.00    -0.237 OA
ATOM     93  O   UNL A   1      45.598  34.432  24.780  1.00  0.00    -0.744 OA
ENDBRANCH  89  90
ENDBRANCH  63  84
ENDBRANCH  37  38
ENDBRANCH  29  32
ENDBRANCH  27  28
ENDBRANCH   1  27
TORSDOF 15
ENDMDL
