MODEL 1
REMARK VINA RESULT:      -9.5      0.000      0.000
REMARK SMILES CC(C)OC(=O)N[C@H]1C=C[C@@H](C(=O)NCCCNC(=O)c2ccc(-c3c4nc(c(-c5ccc(S(=O)(=O)[O-])cc5)c5ccc([nH]5)c(-c5ccc(S(=O)(=O)[O-])cc5)c5nc(c(-c6ccc(S(=O)(=O)[O-])cc6)c6ccc3[nH]6)C=C5)C=C4)cc2)C1
REMARK SMILES IDX 16 1 15 2 14 3 12 4 13 5 11 7 8 8 9 9 81 10 10 11 7 12 5 13
REMARK SMILES IDX 6 14 4 16 2 17 1 18 3 19 17 20 18 21 19 22 20 24 21 25 22 26
REMARK SMILES IDX 80 27 23 28 79 29 24 30 25 31 26 32 73 33 27 34 78 35 72 36
REMARK SMILES IDX 74 37 28 38 77 39 71 40 70 41 29 43 59 44 40 45 58 46 41 47
REMARK SMILES IDX 44 48 57 49 75 50 42 51 43 52 56 54 76 55 45 56 30 57 31 58
REMARK SMILES IDX 39 59 32 60 38 61 33 62 34 63 35 64 36 65 37 66 60 67 61 68
REMARK SMILES IDX 69 69 62 70 68 71 63 72 64 73 65 74 66 75 67 76 46 77 47 78
REMARK SMILES IDX 55 79 48 80 54 81 49 82 50 83 51 84 52 85 53 86
REMARK H PARENT 14 6 7 15 18 23 74 42 44 53
REMARK Flexibility Score: inf
ROOT
ATOM      1  C   UNL A   1      40.604  20.183  26.122  1.00  0.00     0.042 C 
ENDROOT
BRANCH   1   2
ATOM      2  C   UNL A   1      41.873  19.629  26.753  1.00  0.00     0.117 C 
BRANCH   2   3
ATOM      3  N   UNL A   1      42.880  19.434  25.734  1.00  0.00    -0.356 N 
ATOM      4  C   UNL A   1      43.736  20.335  25.184  1.00  0.00     0.227 C 
ATOM      5  O   UNL A   1      44.394  19.961  24.208  1.00  0.00    -0.274 OA
ATOM      6  H   UNL A   1      42.957  18.515  25.388  1.00  0.00     0.163 HD
BRANCH   4   7
ATOM      7  C   UNL A   1      43.947  21.736  25.767  1.00  0.00     0.103 C 
ATOM      8  C   UNL A   1      45.029  23.885  25.562  1.00  0.00     0.109 C 
ATOM      9  C   UNL A   1      43.647  23.943  25.006  1.00  0.00    -0.006 C 
ATOM     10  C   UNL A   1      45.336  22.384  25.630  1.00  0.00     0.047 C 
ATOM     11  C   UNL A   1      43.030  22.763  25.153  1.00  0.00    -0.016 C 
BRANCH   8  12
ATOM     12  N   UNL A   1      45.947  24.764  24.884  1.00  0.00    -0.315 N 
ATOM     13  C   UNL A   1      46.446  26.002  25.138  1.00  0.00     0.407 C 
ATOM     14  O   UNL A   1      47.257  26.489  24.358  1.00  0.00    -0.225 OA
ATOM     15  H   UNL A   1      46.290  24.382  24.044  1.00  0.00     0.167 HD
BRANCH  13  16
ATOM     16  O   UNL A   1      45.982  26.604  26.255  1.00  0.00    -0.447 OA
BRANCH  16  17
ATOM     17  C   UNL A   1      45.228  27.839  26.110  1.00  0.00     0.172 C 
ATOM     18  C   UNL A   1      43.754  27.622  25.792  1.00  0.00     0.053 C 
ATOM     19  C   UNL A   1      45.459  28.805  27.273  1.00  0.00     0.053 C 
ENDBRANCH  16  17
ENDBRANCH  13  16
ENDBRANCH   8  12
ENDBRANCH   4   7
ENDBRANCH   2   3
ENDBRANCH   1   2
BRANCH   1  20
ATOM     20  C   UNL A   1      40.072  21.470  26.735  1.00  0.00     0.118 C 
BRANCH  20  21
ATOM     21  N   UNL A   1      38.992  22.111  25.995  1.00  0.00    -0.352 N 
ATOM     22  C   UNL A   1      38.532  23.404  25.956  1.00  0.00     0.251 C 
ATOM     23  H   UNL A   1      38.495  21.497  25.408  1.00  0.00     0.163 HD
ATOM     24  O   UNL A   1      37.547  23.651  25.263  1.00  0.00    -0.269 OA
BRANCH  22  25
ATOM     25  C   UNL A   1      39.157  24.484  26.753  1.00  0.00     0.039 A 
ATOM     26  C   UNL A   1      40.070  25.336  26.118  1.00  0.00     0.014 A 
ATOM     27  C   UNL A   1      38.881  24.666  28.107  1.00  0.00     0.014 A 
ATOM     28  C   UNL A   1      40.620  26.415  26.814  1.00  0.00     0.010 A 
ATOM     29  C   UNL A   1      39.337  25.803  28.765  1.00  0.00     0.010 A 
ATOM     30  C   UNL A   1      40.211  26.693  28.127  1.00  0.00    -0.014 A 
BRANCH  30  31
ATOM     31  C   UNL A   1      40.664  27.910  28.848  1.00  0.00     0.031 A 
ATOM     32  C   UNL A   1      42.013  27.939  29.515  1.00  0.00     0.074 A 
ATOM     33  C   UNL A   1      39.822  28.955  28.980  1.00  0.00     0.049 A 
ATOM     34  N   UNL A   1      42.533  28.862  30.282  1.00  0.00    -0.248 NA
ATOM     35  C   UNL A   1      42.882  26.765  29.318  1.00  0.00     0.031 C 
ATOM     36  C   UNL A   1      38.473  29.036  28.411  1.00  0.00     0.029 A 
ATOM     37  N   UNL A   1      39.968  30.145  29.648  1.00  0.00    -0.354 N 
ATOM     38  C   UNL A   1      43.776  28.375  30.674  1.00  0.00     0.074 A 
ATOM     39  C   UNL A   1      43.909  27.052  30.104  1.00  0.00     0.031 C 
ATOM     40  C   UNL A   1      37.930  30.221  28.729  1.00  0.00     0.029 A 
ATOM     41  C   UNL A   1      38.863  30.961  29.572  1.00  0.00     0.049 A 
ATOM     42  H   UNL A   1      40.787  30.392  30.135  1.00  0.00     0.167 HD
ATOM     43  C   UNL A   1      44.727  28.981  31.423  1.00  0.00     0.031 A 
ATOM     44  C   UNL A   1      38.617  32.161  30.132  1.00  0.00     0.031 A 
ATOM     45  C   UNL A   1      44.591  30.300  31.982  1.00  0.00     0.049 A 
ATOM     46  C   UNL A   1      39.674  32.797  30.992  1.00  0.00     0.074 A 
ATOM     47  C   UNL A   1      45.519  31.024  32.710  1.00  0.00     0.029 A 
ATOM     48  N   UNL A   1      43.457  31.092  31.881  1.00  0.00    -0.354 N 
ATOM     49  N   UNL A   1      40.869  32.348  31.296  1.00  0.00    -0.248 NA
ATOM     50  C   UNL A   1      39.353  34.104  31.582  1.00  0.00     0.031 C 
ATOM     51  C   UNL A   1      44.922  32.225  33.105  1.00  0.00     0.029 A 
ATOM     52  C   UNL A   1      43.648  32.281  32.564  1.00  0.00     0.049 A 
ATOM     53  H   UNL A   1      42.636  30.844  31.396  1.00  0.00     0.167 HD
ATOM     54  C   UNL A   1      41.451  33.330  32.089  1.00  0.00     0.074 A 
ATOM     55  C   UNL A   1      40.486  34.403  32.203  1.00  0.00     0.031 C 
ATOM     56  C   UNL A   1      42.677  33.342  32.669  1.00  0.00     0.031 A 
BRANCH  43  57
ATOM     57  C   UNL A   1      45.999  28.218  31.691  1.00  0.00    -0.014 A 
ATOM     58  C   UNL A   1      46.109  27.349  32.792  1.00  0.00     0.010 A 
ATOM     59  C   UNL A   1      47.085  28.333  30.804  1.00  0.00     0.010 A 
ATOM     60  C   UNL A   1      47.293  26.644  33.024  1.00  0.00     0.020 A 
ATOM     61  C   UNL A   1      48.259  27.604  31.013  1.00  0.00     0.020 A 
ATOM     62  C   UNL A   1      48.361  26.777  32.133  1.00  0.00     0.054 A 
BRANCH  62  63
ATOM     63  S   UNL A   1      49.876  25.829  32.446  1.00  0.00     0.124 S 
ATOM     64  O   UNL A   1      50.737  26.836  33.065  1.00  0.00    -0.237 OA
ATOM     65  O   UNL A   1      49.410  24.769  33.337  1.00  0.00    -0.237 OA
ATOM     66  O   UNL A   1      50.292  25.387  31.118  1.00  0.00    -0.744 OA
ENDBRANCH  62  63
ENDBRANCH  43  57
BRANCH  44  67
ATOM     67  C   UNL A   1      37.312  32.840  29.893  1.00  0.00    -0.014 A 
ATOM     68  C   UNL A   1      37.081  33.540  28.695  1.00  0.00     0.010 A 
ATOM     69  C   UNL A   1      36.288  32.782  30.857  1.00  0.00     0.010 A 
ATOM     70  C   UNL A   1      35.861  34.185  28.474  1.00  0.00     0.020 A 
ATOM     71  C   UNL A   1      35.056  33.398  30.627  1.00  0.00     0.020 A 
ATOM     72  C   UNL A   1      34.855  34.107  29.441  1.00  0.00     0.054 A 
BRANCH  72  73
ATOM     73  S   UNL A   1      33.265  34.917  29.112  1.00  0.00     0.124 S 
ATOM     74  O   UNL A   1      33.685  36.250  28.690  1.00  0.00    -0.237 OA
ATOM     75  O   UNL A   1      32.694  34.073  28.066  1.00  0.00    -0.237 OA
ATOM     76  O   UNL A   1      32.575  34.856  30.398  1.00  0.00    -0.744 OA
ENDBRANCH  72  73
ENDBRANCH  44  67
BRANCH  56  77
ATOM     77  C   UNL A   1      43.064  34.565  33.459  1.00  0.00    -0.014 A 
ATOM     78  C   UNL A   1      42.926  34.604  34.857  1.00  0.00     0.010 A 
ATOM     79  C   UNL A   1      43.643  35.662  32.796  1.00  0.00     0.010 A 
ATOM     80  C   UNL A   1      43.342  35.729  35.576  1.00  0.00     0.020 A 
ATOM     81  C   UNL A   1      44.090  36.774  33.514  1.00  0.00     0.020 A 
ATOM     82  C   UNL A   1      43.927  36.804  34.901  1.00  0.00     0.054 A 
BRANCH  82  83
ATOM     83  S   UNL A   1      44.517  38.221  35.866  1.00  0.00     0.124 S 
ATOM     84  O   UNL A   1      45.947  37.945  35.971  1.00  0.00    -0.237 OA
ATOM     85  O   UNL A   1      44.155  39.356  35.020  1.00  0.00    -0.237 OA
ATOM     86  O   UNL A   1      43.770  38.123  37.119  1.00  0.00    -0.744 OA
ENDBRANCH  82  83
ENDBRANCH  56  77
ENDBRANCH  30  31
ENDBRANCH  22  25
ENDBRANCH  20  21
ENDBRANCH   1  20
TORSDOF 16
ENDMDL
MODEL 2
REMARK VINA RESULT:      -9.4      3.745     10.623
REMARK SMILES CC(C)OC(=O)N[C@H]1C=C[C@@H](C(=O)NCCCNC(=O)c2ccc(-c3c4nc(c(-c5ccc(S(=O)(=O)[O-])cc5)c5ccc([nH]5)c(-c5ccc(S(=O)(=O)[O-])cc5)c5nc(c(-c6ccc(S(=O)(=O)[O-])cc6)c6ccc3[nH]6)C=C5)C=C4)cc2)C1
REMARK SMILES IDX 16 1 15 2 14 3 12 4 13 5 11 7 8 8 9 9 81 10 10 11 7 12 5 13
REMARK SMILES IDX 6 14 4 16 2 17 1 18 3 19 17 20 18 21 19 22 20 24 21 25 22 26
REMARK SMILES IDX 80 27 23 28 79 29 24 30 25 31 26 32 73 33 27 34 78 35 72 36
REMARK SMILES IDX 74 37 28 38 77 39 71 40 70 41 29 43 59 44 40 45 58 46 41 47
REMARK SMILES IDX 44 48 57 49 75 50 42 51 43 52 56 54 76 55 45 56 30 57 31 58
REMARK SMILES IDX 39 59 32 60 38 61 33 62 34 63 35 64 36 65 37 66 60 67 61 68
REMARK SMILES IDX 69 69 62 70 68 71 63 72 64 73 65 74 66 75 67 76 46 77 47 78
REMARK SMILES IDX 55 79 48 80 54 81 49 82 50 83 51 84 52 85 53 86
REMARK H PARENT 14 6 7 15 18 23 74 42 44 53
REMARK Flexibility Score: inf
ROOT
ATOM      1  C   UNL A   1      32.088  28.112  26.655  1.00  0.00     0.042 C 
ENDROOT
BRANCH   1   2
ATOM      2  C   UNL A   1      31.812  28.409  25.188  1.00  0.00     0.117 C 
BRANCH   2   3
ATOM      3  N   UNL A   1      30.791  27.514  24.692  1.00  0.00    -0.356 N 
ATOM      4  C   UNL A   1      30.921  26.388  23.942  1.00  0.00     0.227 C 
ATOM      5  O   UNL A   1      29.883  25.882  23.504  1.00  0.00    -0.274 OA
ATOM      6  H   UNL A   1      29.867  27.754  24.934  1.00  0.00     0.163 HD
BRANCH   4   7
ATOM      7  C   UNL A   1      32.274  25.715  23.691  1.00  0.00     0.103 C 
ATOM      8  C   UNL A   1      33.624  23.722  23.879  1.00  0.00     0.109 C 
ATOM      9  C   UNL A   1      33.023  23.817  22.518  1.00  0.00    -0.006 C 
ATOM     10  C   UNL A   1      32.787  24.692  24.720  1.00  0.00     0.047 C 
ATOM     11  C   UNL A   1      32.305  24.941  22.397  1.00  0.00    -0.016 C 
BRANCH   8  12
ATOM     12  N   UNL A   1      33.793  22.363  24.327  1.00  0.00    -0.315 N 
ATOM     13  C   UNL A   1      34.865  21.582  24.621  1.00  0.00     0.407 C 
ATOM     14  O   UNL A   1      34.677  20.436  25.016  1.00  0.00    -0.225 OA
ATOM     15  H   UNL A   1      32.937  21.892  24.445  1.00  0.00     0.167 HD
BRANCH  13  16
ATOM     16  O   UNL A   1      36.076  22.154  24.438  1.00  0.00    -0.447 OA
BRANCH  16  17
ATOM     17  C   UNL A   1      36.896  22.420  25.609  1.00  0.00     0.172 C 
ATOM     18  C   UNL A   1      38.293  21.820  25.527  1.00  0.00     0.053 C 
ATOM     19  C   UNL A   1      36.896  23.900  25.997  1.00  0.00     0.053 C 
ENDBRANCH  16  17
ENDBRANCH  13  16
ENDBRANCH   8  12
ENDBRANCH   4   7
ENDBRANCH   2   3
ENDBRANCH   1   2
BRANCH   1  20
ATOM     20  C   UNL A   1      33.447  28.557  27.174  1.00  0.00     0.118 C 
BRANCH  20  21
ATOM     21  N   UNL A   1      33.504  29.923  27.678  1.00  0.00    -0.352 N 
ATOM     22  C   UNL A   1      34.503  30.654  28.271  1.00  0.00     0.251 C 
ATOM     23  H   UNL A   1      32.659  30.419  27.574  1.00  0.00     0.163 HD
ATOM     24  O   UNL A   1      34.243  31.794  28.651  1.00  0.00    -0.269 OA
BRANCH  22  25
ATOM     25  C   UNL A   1      35.854  30.095  28.500  1.00  0.00     0.039 A 
ATOM     26  C   UNL A   1      36.754  30.066  27.427  1.00  0.00     0.014 A 
ATOM     27  C   UNL A   1      36.249  29.585  29.736  1.00  0.00     0.014 A 
ATOM     28  C   UNL A   1      38.062  29.620  27.623  1.00  0.00     0.010 A 
ATOM     29  C   UNL A   1      37.580  29.250  29.959  1.00  0.00     0.010 A 
ATOM     30  C   UNL A   1      38.505  29.265  28.906  1.00  0.00    -0.014 A 
BRANCH  30  31
ATOM     31  C   UNL A   1      39.924  28.923  29.181  1.00  0.00     0.031 A 
ATOM     32  C   UNL A   1      40.862  29.964  29.732  1.00  0.00     0.074 A 
ATOM     33  C   UNL A   1      40.389  27.703  28.846  1.00  0.00     0.049 A 
ATOM     34  N   UNL A   1      42.153  29.887  29.929  1.00  0.00    -0.248 NA
ATOM     35  C   UNL A   1      40.280  31.270  30.083  1.00  0.00     0.031 C 
ATOM     36  C   UNL A   1      39.589  26.617  28.271  1.00  0.00     0.029 A 
ATOM     37  N   UNL A   1      41.653  27.171  28.928  1.00  0.00    -0.354 N 
ATOM     38  C   UNL A   1      42.539  31.136  30.406  1.00  0.00     0.074 A 
ATOM     39  C   UNL A   1      41.355  31.967  30.417  1.00  0.00     0.031 C 
ATOM     40  C   UNL A   1      40.373  25.545  28.080  1.00  0.00     0.029 A 
ATOM     41  C   UNL A   1      41.741  25.881  28.461  1.00  0.00     0.049 A 
ATOM     42  H   UNL A   1      42.423  27.668  29.288  1.00  0.00     0.167 HD
ATOM     43  C   UNL A   1      43.762  31.547  30.814  1.00  0.00     0.031 A 
ATOM     44  C   UNL A   1      42.804  25.063  28.335  1.00  0.00     0.031 A 
ATOM     45  C   UNL A   1      44.935  30.713  30.806  1.00  0.00     0.049 A 
ATOM     46  C   UNL A   1      44.159  25.555  28.759  1.00  0.00     0.074 A 
ATOM     47  C   UNL A   1      46.209  31.019  31.250  1.00  0.00     0.029 A 
ATOM     48  N   UNL A   1      44.981  29.413  30.325  1.00  0.00    -0.354 N 
ATOM     49  N   UNL A   1      44.491  26.718  29.269  1.00  0.00    -0.248 NA
ATOM     50  C   UNL A   1      45.285  24.625  28.596  1.00  0.00     0.031 C 
ATOM     51  C   UNL A   1      47.040  29.928  30.978  1.00  0.00     0.029 A 
ATOM     52  C   UNL A   1      46.269  28.915  30.429  1.00  0.00     0.049 A 
ATOM     53  H   UNL A   1      44.211  28.917  29.963  1.00  0.00     0.167 HD
ATOM     54  C   UNL A   1      45.858  26.647  29.514  1.00  0.00     0.074 A 
ATOM     55  C   UNL A   1      46.287  25.324  29.112  1.00  0.00     0.031 C 
ATOM     56  C   UNL A   1      46.682  27.594  30.025  1.00  0.00     0.031 A 
BRANCH  43  57
ATOM     57  C   UNL A   1      43.899  32.968  31.297  1.00  0.00    -0.014 A 
ATOM     58  C   UNL A   1      44.142  34.023  30.399  1.00  0.00     0.010 A 
ATOM     59  C   UNL A   1      43.734  33.262  32.663  1.00  0.00     0.010 A 
ATOM     60  C   UNL A   1      44.260  35.336  30.861  1.00  0.00     0.020 A 
ATOM     61  C   UNL A   1      43.817  34.578  33.127  1.00  0.00     0.020 A 
ATOM     62  C   UNL A   1      44.098  35.605  32.223  1.00  0.00     0.054 A 
BRANCH  62  63
ATOM     63  S   UNL A   1      44.231  37.323  32.790  1.00  0.00     0.124 S 
ATOM     64  O   UNL A   1      44.085  38.064  31.538  1.00  0.00    -0.237 OA
ATOM     65  O   UNL A   1      43.113  37.440  33.722  1.00  0.00    -0.237 OA
ATOM     66  O   UNL A   1      45.557  37.387  33.399  1.00  0.00    -0.744 OA
ENDBRANCH  62  63
ENDBRANCH  43  57
BRANCH  44  67
ATOM     67  C   UNL A   1      42.625  23.691  27.782  1.00  0.00    -0.014 A 
ATOM     68  C   UNL A   1      42.337  22.610  28.635  1.00  0.00     0.010 A 
ATOM     69  C   UNL A   1      42.730  23.457  26.398  1.00  0.00     0.010 A 
ATOM     70  C   UNL A   1      42.179  21.321  28.119  1.00  0.00     0.020 A 
ATOM     71  C   UNL A   1      42.540  22.176  25.874  1.00  0.00     0.020 A 
ATOM     72  C   UNL A   1      42.278  21.113  26.740  1.00  0.00     0.054 A 
BRANCH  72  73
ATOM     73  S   UNL A   1      42.026  19.437  26.091  1.00  0.00     0.124 S 
ATOM     74  O   UNL A   1      42.903  19.428  24.924  1.00  0.00    -0.237 OA
ATOM     75  O   UNL A   1      42.452  18.600  27.210  1.00  0.00    -0.237 OA
ATOM     76  O   UNL A   1      40.595  19.395  25.798  1.00  0.00    -0.744 OA
ENDBRANCH  72  73
ENDBRANCH  44  67
BRANCH  56  77
ATOM     77  C   UNL A   1      48.132  27.230  30.213  1.00  0.00    -0.014 A 
ATOM     78  C   UNL A   1      49.087  27.503  29.218  1.00  0.00     0.010 A 
ATOM     79  C   UNL A   1      48.554  26.674  31.434  1.00  0.00     0.010 A 
ATOM     80  C   UNL A   1      50.436  27.206  29.434  1.00  0.00     0.020 A 
ATOM     81  C   UNL A   1      49.906  26.406  31.666  1.00  0.00     0.020 A 
ATOM     82  C   UNL A   1      50.837  26.666  30.660  1.00  0.00     0.054 A 
BRANCH  82  83
ATOM     83  S   UNL A   1      52.602  26.353  30.937  1.00  0.00     0.124 S 
ATOM     84  O   UNL A   1      52.574  25.133  31.738  1.00  0.00    -0.237 OA
ATOM     85  O   UNL A   1      53.116  26.202  29.577  1.00  0.00    -0.237 OA
ATOM     86  O   UNL A   1      53.061  27.550  31.640  1.00  0.00    -0.744 OA
ENDBRANCH  82  83
ENDBRANCH  56  77
ENDBRANCH  30  31
ENDBRANCH  22  25
ENDBRANCH  20  21
ENDBRANCH   1  20
TORSDOF 16
ENDMDL
MODEL 3
REMARK VINA RESULT:      -9.3      5.061     11.989
REMARK SMILES CC(C)OC(=O)N[C@H]1C=C[C@@H](C(=O)NCCCNC(=O)c2ccc(-c3c4nc(c(-c5ccc(S(=O)(=O)[O-])cc5)c5ccc([nH]5)c(-c5ccc(S(=O)(=O)[O-])cc5)c5nc(c(-c6ccc(S(=O)(=O)[O-])cc6)c6ccc3[nH]6)C=C5)C=C4)cc2)C1
REMARK SMILES IDX 16 1 15 2 14 3 12 4 13 5 11 7 8 8 9 9 81 10 10 11 7 12 5 13
REMARK SMILES IDX 6 14 4 16 2 17 1 18 3 19 17 20 18 21 19 22 20 24 21 25 22 26
REMARK SMILES IDX 80 27 23 28 79 29 24 30 25 31 26 32 73 33 27 34 78 35 72 36
REMARK SMILES IDX 74 37 28 38 77 39 71 40 70 41 29 43 59 44 40 45 58 46 41 47
REMARK SMILES IDX 44 48 57 49 75 50 42 51 43 52 56 54 76 55 45 56 30 57 31 58
REMARK SMILES IDX 39 59 32 60 38 61 33 62 34 63 35 64 36 65 37 66 60 67 61 68
REMARK SMILES IDX 69 69 62 70 68 71 63 72 64 73 65 74 66 75 67 76 46 77 47 78
REMARK SMILES IDX 55 79 48 80 54 81 49 82 50 83 51 84 52 85 53 86
REMARK H PARENT 14 6 7 15 18 23 74 42 44 53
REMARK Flexibility Score: inf
ROOT
ATOM      1  C   UNL A   1      33.989  28.890  27.049  1.00  0.00     0.042 C 
ENDROOT
BRANCH   1   2
ATOM      2  C   UNL A   1      33.780  29.016  25.547  1.00  0.00     0.117 C 
BRANCH   2   3
ATOM      3  N   UNL A   1      32.528  29.690  25.283  1.00  0.00    -0.356 N 
ATOM      4  C   UNL A   1      31.417  29.229  24.651  1.00  0.00     0.227 C 
ATOM      5  O   UNL A   1      30.530  30.052  24.403  1.00  0.00    -0.274 OA
ATOM      6  H   UNL A   1      32.472  30.617  25.611  1.00  0.00     0.163 HD
BRANCH   4   7
ATOM      7  C   UNL A   1      31.216  27.750  24.307  1.00  0.00     0.103 C 
ATOM      8  C   UNL A   1      30.470  25.573  25.038  1.00  0.00     0.109 C 
ATOM      9  C   UNL A   1      29.395  26.259  24.265  1.00  0.00    -0.006 C 
ATOM     10  C   UNL A   1      31.432  26.704  25.415  1.00  0.00     0.047 C 
ATOM     11  C   UNL A   1      29.819  27.452  23.826  1.00  0.00    -0.016 C 
BRANCH   8  12
ATOM     12  N   UNL A   1      29.957  24.707  26.069  1.00  0.00    -0.315 N 
ATOM     13  C   UNL A   1      30.411  23.583  26.682  1.00  0.00     0.407 C 
ATOM     14  O   UNL A   1      29.735  23.075  27.570  1.00  0.00    -0.225 OA
ATOM     15  H   UNL A   1      29.077  24.993  26.404  1.00  0.00     0.167 HD
BRANCH  13  16
ATOM     16  O   UNL A   1      31.596  23.108  26.238  1.00  0.00    -0.447 OA
BRANCH  16  17
ATOM     17  C   UNL A   1      32.787  23.386  27.024  1.00  0.00     0.172 C 
ATOM     18  C   UNL A   1      33.164  22.263  27.982  1.00  0.00     0.053 C 
ATOM     19  C   UNL A   1      33.957  23.864  26.163  1.00  0.00     0.053 C 
ENDBRANCH  16  17
ENDBRANCH  13  16
ENDBRANCH   8  12
ENDBRANCH   4   7
ENDBRANCH   2   3
ENDBRANCH   1   2
BRANCH   1  20
ATOM     20  C   UNL A   1      35.328  29.388  27.572  1.00  0.00     0.118 C 
BRANCH  20  21
ATOM     21  N   UNL A   1      35.296  29.970  28.908  1.00  0.00    -0.352 N 
ATOM     22  C   UNL A   1      36.284  30.285  29.807  1.00  0.00     0.251 C 
ATOM     23  H   UNL A   1      34.389  30.178  29.228  1.00  0.00     0.163 HD
ATOM     24  O   UNL A   1      35.952  30.727  30.906  1.00  0.00    -0.269 OA
BRANCH  22  25
ATOM     25  C   UNL A   1      37.717  30.067  29.508  1.00  0.00     0.039 A 
ATOM     26  C   UNL A   1      38.606  29.919  30.580  1.00  0.00     0.014 A 
ATOM     27  C   UNL A   1      38.207  30.023  28.204  1.00  0.00     0.014 A 
ATOM     28  C   UNL A   1      39.951  29.632  30.339  1.00  0.00     0.010 A 
ATOM     29  C   UNL A   1      39.518  29.626  27.965  1.00  0.00     0.010 A 
ATOM     30  C   UNL A   1      40.407  29.423  29.029  1.00  0.00    -0.014 A 
BRANCH  30  31
ATOM     31  C   UNL A   1      41.795  28.977  28.742  1.00  0.00     0.031 A 
ATOM     32  C   UNL A   1      42.926  29.970  28.746  1.00  0.00     0.074 A 
ATOM     33  C   UNL A   1      42.020  27.695  28.389  1.00  0.00     0.049 A 
ATOM     34  N   UNL A   1      44.178  29.792  28.411  1.00  0.00    -0.248 NA
ATOM     35  C   UNL A   1      42.606  31.349  29.152  1.00  0.00     0.031 C 
ATOM     36  C   UNL A   1      41.001  26.644  28.313  1.00  0.00     0.029 A 
ATOM     37  N   UNL A   1      43.177  27.060  28.012  1.00  0.00    -0.354 N 
ATOM     38  C   UNL A   1      44.788  31.035  28.546  1.00  0.00     0.074 A 
ATOM     39  C   UNL A   1      43.757  31.969  28.941  1.00  0.00     0.031 C 
ATOM     40  C   UNL A   1      41.583  25.492  27.943  1.00  0.00     0.029 A 
ATOM     41  C   UNL A   1      43.001  25.732  27.698  1.00  0.00     0.049 A 
ATOM     42  H   UNL A   1      44.050  27.512  27.971  1.00  0.00     0.167 HD
ATOM     43  C   UNL A   1      46.090  31.365  28.376  1.00  0.00     0.031 A 
ATOM     44  C   UNL A   1      43.876  24.813  27.246  1.00  0.00     0.031 A 
ATOM     45  C   UNL A   1      47.112  30.430  27.988  1.00  0.00     0.049 A 
ATOM     46  C   UNL A   1      45.308  25.213  27.027  1.00  0.00     0.074 A 
ATOM     47  C   UNL A   1      48.470  30.654  27.841  1.00  0.00     0.029 A 
ATOM     48  N   UNL A   1      46.892  29.095  27.680  1.00  0.00    -0.354 N 
ATOM     49  N   UNL A   1      45.878  26.378  27.225  1.00  0.00    -0.248 NA
ATOM     50  C   UNL A   1      46.219  24.173  26.529  1.00  0.00     0.031 C 
ATOM     51  C   UNL A   1      49.059  29.472  27.381  1.00  0.00     0.029 A 
ATOM     52  C   UNL A   1      48.082  28.492  27.310  1.00  0.00     0.049 A 
ATOM     53  H   UNL A   1      46.017  28.644  27.719  1.00  0.00     0.167 HD
ATOM     54  C   UNL A   1      47.219  26.203  26.901  1.00  0.00     0.074 A 
ATOM     55  C   UNL A   1      47.379  24.818  26.513  1.00  0.00     0.031 C 
ATOM     56  C   UNL A   1      48.226  27.110  26.925  1.00  0.00     0.031 A 
BRANCH  43  57
ATOM     57  C   UNL A   1      46.483  32.803  28.598  1.00  0.00    -0.014 A 
ATOM     58  C   UNL A   1      46.486  33.730  27.539  1.00  0.00     0.010 A 
ATOM     59  C   UNL A   1      46.808  33.247  29.893  1.00  0.00     0.010 A 
ATOM     60  C   UNL A   1      46.848  35.061  27.763  1.00  0.00     0.020 A 
ATOM     61  C   UNL A   1      47.138  34.586  30.128  1.00  0.00     0.020 A 
ATOM     62  C   UNL A   1      47.172  35.480  29.056  1.00  0.00     0.054 A 
BRANCH  62  63
ATOM     63  S   UNL A   1      47.612  37.220  29.320  1.00  0.00     0.124 S 
ATOM     64  O   UNL A   1      48.914  37.303  28.661  1.00  0.00    -0.237 OA
ATOM     65  O   UNL A   1      46.525  37.929  28.650  1.00  0.00    -0.237 OA
ATOM     66  O   UNL A   1      47.641  37.356  30.773  1.00  0.00    -0.744 OA
ENDBRANCH  62  63
ENDBRANCH  43  57
BRANCH  44  67
ATOM     67  C   UNL A   1      43.417  23.422  26.972  1.00  0.00    -0.014 A 
ATOM     68  C   UNL A   1      43.333  22.945  25.651  1.00  0.00     0.010 A 
ATOM     69  C   UNL A   1      43.071  22.560  28.030  1.00  0.00     0.010 A 
ATOM     70  C   UNL A   1      42.894  21.644  25.393  1.00  0.00     0.020 A 
ATOM     71  C   UNL A   1      42.662  21.249  27.778  1.00  0.00     0.020 A 
ATOM     72  C   UNL A   1      42.564  20.803  26.459  1.00  0.00     0.054 A 
BRANCH  72  73
ATOM     73  S   UNL A   1      42.037  19.104  26.098  1.00  0.00     0.124 S 
ATOM     74  O   UNL A   1      40.600  19.268  25.900  1.00  0.00    -0.237 OA
ATOM     75  O   UNL A   1      42.809  18.784  24.901  1.00  0.00    -0.237 OA
ATOM     76  O   UNL A   1      42.423  18.363  27.297  1.00  0.00    -0.744 OA
ENDBRANCH  72  73
ENDBRANCH  44  67
BRANCH  56  77
ATOM     77  C   UNL A   1      49.605  26.632  26.550  1.00  0.00    -0.014 A 
ATOM     78  C   UNL A   1      50.088  26.757  25.236  1.00  0.00     0.010 A 
ATOM     79  C   UNL A   1      50.455  26.118  27.547  1.00  0.00     0.010 A 
ATOM     80  C   UNL A   1      51.389  26.356  24.921  1.00  0.00     0.020 A 
ATOM     81  C   UNL A   1      51.767  25.747  27.243  1.00  0.00     0.020 A 
ATOM     82  C   UNL A   1      52.223  25.860  25.928  1.00  0.00     0.054 A 
BRANCH  82  83
ATOM     83  S   UNL A   1      53.928  25.410  25.504  1.00  0.00     0.124 S 
ATOM     84  O   UNL A   1      54.495  25.095  26.811  1.00  0.00    -0.237 OA
ATOM     85  O   UNL A   1      53.743  24.272  24.606  1.00  0.00    -0.237 OA
ATOM     86  O   UNL A   1      54.458  26.616  24.870  1.00  0.00    -0.744 OA
ENDBRANCH  82  83
ENDBRANCH  56  77
ENDBRANCH  30  31
ENDBRANCH  22  25
ENDBRANCH  20  21
ENDBRANCH   1  20
TORSDOF 16
ENDMDL
