MODEL 1
REMARK VINA RESULT:     -11.5      0.000      0.000
REMARK SMILES COc1ccc(-c2cccc(/C=C\C(=O)NCCCNC(=O)c3ccc(-c4c5nc(c(-c6ccc(S(=O)(=O)[O-])cc6)c6ccc([nH]6)c(-c6ccc(S(=O)(=O)[O-])cc6)c6nc(c(-c7ccc(S(=O)(=O)[O-])cc7)c7ccc4[nH]7)C=C6)C=C5)cc3)c2)c(Cl)c1OC
REMARK SMILES IDX 18 1 17 2 16 3 14 4 15 5 13 7 12 8 11 9 7 10 8 11 83 12 9 13
REMARK SMILES IDX 10 14 6 15 3 16 4 17 86 18 5 19 84 20 85 21 2 22 1 23 87 24
REMARK SMILES IDX 88 25 19 26 20 27 21 28 22 30 23 31 24 32 82 33 25 34 81 35
REMARK SMILES IDX 26 36 27 37 28 38 75 39 29 40 80 41 74 42 76 43 30 44 79 45
REMARK SMILES IDX 73 46 72 47 31 49 61 50 42 51 60 52 43 53 46 54 59 55 77 56
REMARK SMILES IDX 44 57 45 58 58 60 78 61 47 62 32 63 33 64 41 65 34 66 40 67
REMARK SMILES IDX 35 68 36 69 37 70 38 71 39 72 62 73 63 74 71 75 64 76 70 77
REMARK SMILES IDX 65 78 66 79 67 80 68 81 69 82 48 83 49 84 57 85 50 86 56 87
REMARK SMILES IDX 51 88 52 89 53 90 54 91 55 92
REMARK H PARENT 16 6 20 29 76 48 46 59
REMARK Flexibility Score: inf
ROOT
ATOM      1  C   UNL A   1      32.868  27.983  25.846  1.00  0.00     0.042 C 
ENDROOT
BRANCH   1   2
ATOM      2  C   UNL A   1      32.810  28.868  24.624  1.00  0.00     0.118 C 
BRANCH   2   3
ATOM      3  N   UNL A   1      31.602  29.631  24.427  1.00  0.00    -0.352 N 
ATOM      4  C   UNL A   1      30.573  29.364  23.578  1.00  0.00     0.244 C 
ATOM      5  O   UNL A   1      29.580  30.094  23.594  1.00  0.00    -0.270 OA
ATOM      6  H   UNL A   1      31.511  30.445  24.974  1.00  0.00     0.163 HD
BRANCH   4   7
ATOM      7  C   UNL A   1      30.636  28.294  22.537  1.00  0.00     0.072 C 
ATOM      8  C   UNL A   1      30.648  26.949  22.556  1.00  0.00     0.014 C 
BRANCH   8   9
ATOM      9  C   UNL A   1      30.635  26.041  23.708  1.00  0.00    -0.025 A 
ATOM     10  C   UNL A   1      31.740  24.214  24.924  1.00  0.00    -0.016 A 
ATOM     11  C   UNL A   1      30.956  24.562  26.043  1.00  0.00     0.009 A 
ATOM     12  C   UNL A   1      31.562  24.978  23.757  1.00  0.00     0.017 A 
ATOM     13  C   UNL A   1      29.954  25.532  25.964  1.00  0.00     0.001 A 
ATOM     14  C   UNL A   1      29.772  26.253  24.786  1.00  0.00     0.008 A 
BRANCH  10  15
ATOM     15  C   UNL A   1      32.606  23.000  24.973  1.00  0.00     0.004 A 
ATOM     16  C   UNL A   1      33.990  20.530  24.903  1.00  0.00     0.162 A 
ATOM     17  C   UNL A   1      32.601  20.550  24.890  1.00  0.00     0.051 A 
ATOM     18  C   UNL A   1      34.725  21.734  25.016  1.00  0.00     0.180 A 
ATOM     19  C   UNL A   1      31.929  21.764  24.902  1.00  0.00     0.014 A 
ATOM     20  C   UNL A   1      34.027  22.969  25.073  1.00  0.00     0.094 A 
ATOM     21  Cl  UNL A   1      34.853  24.468  25.389  1.00  0.00    -0.079 Cl
BRANCH  16  22
ATOM     22  O   UNL A   1      34.701  19.352  24.848  1.00  0.00    -0.493 OA
ATOM     23  C   UNL A   1      34.015  18.239  24.282  1.00  0.00     0.278 C 
ENDBRANCH  16  22
BRANCH  18  24
ATOM     24  O   UNL A   1      36.076  21.507  25.125  1.00  0.00    -0.491 OA
ATOM     25  C   UNL A   1      36.991  21.992  24.160  1.00  0.00     0.278 C 
ENDBRANCH  18  24
ENDBRANCH  10  15
ENDBRANCH   8   9
ENDBRANCH   4   7
ENDBRANCH   2   3
ENDBRANCH   1   2
BRANCH   1  26
ATOM     26  C   UNL A   1      33.833  28.458  26.925  1.00  0.00     0.118 C 
BRANCH  26  27
ATOM     27  N   UNL A   1      33.645  29.845  27.359  1.00  0.00    -0.352 N 
ATOM     28  C   UNL A   1      34.448  30.730  28.054  1.00  0.00     0.251 C 
ATOM     29  H   UNL A   1      32.771  30.221  27.106  1.00  0.00     0.163 HD
ATOM     30  O   UNL A   1      33.997  31.820  28.366  1.00  0.00    -0.269 OA
BRANCH  28  31
ATOM     31  C   UNL A   1      35.829  30.356  28.452  1.00  0.00     0.039 A 
ATOM     32  C   UNL A   1      36.047  29.711  29.674  1.00  0.00     0.014 A 
ATOM     33  C   UNL A   1      36.914  30.634  27.630  1.00  0.00     0.014 A 
ATOM     34  C   UNL A   1      37.334  29.268  30.009  1.00  0.00     0.010 A 
ATOM     35  C   UNL A   1      38.145  30.045  27.877  1.00  0.00     0.010 A 
ATOM     36  C   UNL A   1      38.386  29.385  29.087  1.00  0.00    -0.014 A 
BRANCH  36  37
ATOM     37  C   UNL A   1      39.766  28.910  29.373  1.00  0.00     0.031 A 
ATOM     38  C   UNL A   1      40.736  29.832  30.079  1.00  0.00     0.074 A 
ATOM     39  C   UNL A   1      40.177  27.701  28.939  1.00  0.00     0.049 A 
ATOM     40  N   UNL A   1      42.018  29.681  30.294  1.00  0.00    -0.248 NA
ATOM     41  C   UNL A   1      40.203  31.121  30.559  1.00  0.00     0.031 C 
ATOM     42  C   UNL A   1      39.363  26.736  28.192  1.00  0.00     0.029 A 
ATOM     43  N   UNL A   1      41.393  27.075  29.061  1.00  0.00    -0.354 N 
ATOM     44  C   UNL A   1      42.440  30.862  30.897  1.00  0.00     0.074 A 
ATOM     45  C   UNL A   1      41.304  31.753  30.931  1.00  0.00     0.031 C 
ATOM     46  C   UNL A   1      40.086  25.627  27.966  1.00  0.00     0.029 A 
ATOM     47  C   UNL A   1      41.426  25.815  28.511  1.00  0.00     0.049 A 
ATOM     48  H   UNL A   1      42.169  27.491  29.502  1.00  0.00     0.167 HD
ATOM     49  C   UNL A   1      43.649  31.166  31.426  1.00  0.00     0.031 A 
ATOM     50  C   UNL A   1      42.425  24.913  28.458  1.00  0.00     0.031 A 
ATOM     51  C   UNL A   1      44.759  30.256  31.450  1.00  0.00     0.049 A 
ATOM     52  C   UNL A   1      43.751  25.262  29.084  1.00  0.00     0.074 A 
ATOM     53  C   UNL A   1      46.016  30.441  31.998  1.00  0.00     0.029 A 
ATOM     54  N   UNL A   1      44.732  28.972  30.929  1.00  0.00    -0.354 N 
ATOM     55  N   UNL A   1      44.118  26.374  29.678  1.00  0.00    -0.248 NA
ATOM     56  C   UNL A   1      44.789  24.223  29.053  1.00  0.00     0.031 C 
ATOM     57  C   UNL A   1      46.758  29.274  31.788  1.00  0.00     0.029 A 
ATOM     58  C   UNL A   1      45.946  28.348  31.152  1.00  0.00     0.049 A 
ATOM     59  H   UNL A   1      43.963  28.565  30.468  1.00  0.00     0.167 HD
ATOM     60  C   UNL A   1      45.415  26.151  30.126  1.00  0.00     0.074 A 
ATOM     61  C   UNL A   1      45.759  24.794  29.753  1.00  0.00     0.031 C 
ATOM     62  C   UNL A   1      46.253  26.990  30.785  1.00  0.00     0.031 A 
BRANCH  49  63
ATOM     63  C   UNL A   1      43.806  32.522  32.067  1.00  0.00    -0.014 A 
ATOM     64  C   UNL A   1      44.220  33.631  31.306  1.00  0.00     0.010 A 
ATOM     65  C   UNL A   1      43.508  32.702  33.429  1.00  0.00     0.010 A 
ATOM     66  C   UNL A   1      44.377  34.884  31.903  1.00  0.00     0.020 A 
ATOM     67  C   UNL A   1      43.631  33.962  34.024  1.00  0.00     0.020 A 
ATOM     68  C   UNL A   1      44.080  35.041  33.259  1.00  0.00     0.054 A 
BRANCH  68  69
ATOM     69  S   UNL A   1      44.253  36.690  33.995  1.00  0.00     0.124 S 
ATOM     70  O   UNL A   1      43.606  36.511  35.292  1.00  0.00    -0.237 OA
ATOM     71  O   UNL A   1      45.702  36.872  34.036  1.00  0.00    -0.237 OA
ATOM     72  O   UNL A   1      43.544  37.562  33.061  1.00  0.00    -0.744 OA
ENDBRANCH  68  69
ENDBRANCH  49  63
BRANCH  50  73
ATOM     73  C   UNL A   1      42.218  23.580  27.823  1.00  0.00    -0.014 A 
ATOM     74  C   UNL A   1      41.749  22.495  28.587  1.00  0.00     0.010 A 
ATOM     75  C   UNL A   1      42.525  23.373  26.467  1.00  0.00     0.010 A 
ATOM     76  C   UNL A   1      41.648  21.219  28.025  1.00  0.00     0.020 A 
ATOM     77  C   UNL A   1      42.394  22.105  25.891  1.00  0.00     0.020 A 
ATOM     78  C   UNL A   1      41.980  21.031  26.681  1.00  0.00     0.054 A 
BRANCH  78  79
ATOM     79  S   UNL A   1      41.852  19.366  25.972  1.00  0.00     0.124 S 
ATOM     80  O   UNL A   1      42.310  18.530  27.078  1.00  0.00    -0.237 OA
ATOM     81  O   UNL A   1      40.431  19.264  25.649  1.00  0.00    -0.237 OA
ATOM     82  O   UNL A   1      42.744  19.418  24.815  1.00  0.00    -0.744 OA
ENDBRANCH  78  79
ENDBRANCH  50  73
BRANCH  62  83
ATOM     83  C   UNL A   1      47.590  26.438  31.197  1.00  0.00    -0.014 A 
ATOM     84  C   UNL A   1      48.693  26.466  30.327  1.00  0.00     0.010 A 
ATOM     85  C   UNL A   1      47.742  25.895  32.486  1.00  0.00     0.010 A 
ATOM     86  C   UNL A   1      49.912  25.905  30.717  1.00  0.00     0.020 A 
ATOM     87  C   UNL A   1      48.968  25.362  32.892  1.00  0.00     0.020 A 
ATOM     88  C   UNL A   1      50.038  25.350  31.994  1.00  0.00     0.054 A 
BRANCH  88  89
ATOM     89  S   UNL A   1      51.628  24.630  32.481  1.00  0.00     0.124 S 
ATOM     90  O   UNL A   1      51.675  24.934  33.908  1.00  0.00    -0.237 OA
ATOM     91  O   UNL A   1      51.460  23.218  32.144  1.00  0.00    -0.237 OA
ATOM     92  O   UNL A   1      52.600  25.347  31.658  1.00  0.00    -0.744 OA
ENDBRANCH  88  89
ENDBRANCH  62  83
ENDBRANCH  36  37
ENDBRANCH  28  31
ENDBRANCH  26  27
ENDBRANCH   1  26
TORSDOF 17
ENDMDL
MODEL 2
REMARK VINA RESULT:     -10.8      2.427      3.149
REMARK SMILES COc1ccc(-c2cccc(/C=C\C(=O)NCCCNC(=O)c3ccc(-c4c5nc(c(-c6ccc(S(=O)(=O)[O-])cc6)c6ccc([nH]6)c(-c6ccc(S(=O)(=O)[O-])cc6)c6nc(c(-c7ccc(S(=O)(=O)[O-])cc7)c7ccc4[nH]7)C=C6)C=C5)cc3)c2)c(Cl)c1OC
REMARK SMILES IDX 18 1 17 2 16 3 14 4 15 5 13 7 12 8 11 9 7 10 8 11 83 12 9 13
REMARK SMILES IDX 10 14 6 15 3 16 4 17 86 18 5 19 84 20 85 21 2 22 1 23 87 24
REMARK SMILES IDX 88 25 19 26 20 27 21 28 22 30 23 31 24 32 82 33 25 34 81 35
REMARK SMILES IDX 26 36 27 37 28 38 75 39 29 40 80 41 74 42 76 43 30 44 79 45
REMARK SMILES IDX 73 46 72 47 31 49 61 50 42 51 60 52 43 53 46 54 59 55 77 56
REMARK SMILES IDX 44 57 45 58 58 60 78 61 47 62 32 63 33 64 41 65 34 66 40 67
REMARK SMILES IDX 35 68 36 69 37 70 38 71 39 72 62 73 63 74 71 75 64 76 70 77
REMARK SMILES IDX 65 78 66 79 67 80 68 81 69 82 48 83 49 84 57 85 50 86 56 87
REMARK SMILES IDX 51 88 52 89 53 90 54 91 55 92
REMARK H PARENT 16 6 20 29 76 48 46 59
REMARK Flexibility Score: inf
ROOT
ATOM      1  C   UNL A   1      33.360  28.423  25.171  1.00  0.00     0.042 C 
ENDROOT
BRANCH   1   2
ATOM      2  C   UNL A   1      31.964  28.997  25.162  1.00  0.00     0.118 C 
BRANCH   2   3
ATOM      3  N   UNL A   1      31.501  29.566  23.920  1.00  0.00    -0.352 N 
ATOM      4  C   UNL A   1      30.418  29.197  23.183  1.00  0.00     0.244 C 
ATOM      5  O   UNL A   1      30.132  29.848  22.176  1.00  0.00    -0.270 OA
ATOM      6  H   UNL A   1      32.034  30.312  23.562  1.00  0.00     0.163 HD
BRANCH   4   7
ATOM      7  C   UNL A   1      29.624  27.965  23.468  1.00  0.00     0.072 C 
ATOM      8  C   UNL A   1      29.852  26.642  23.369  1.00  0.00     0.014 C 
BRANCH   8   9
ATOM      9  C   UNL A   1      31.045  25.945  22.876  1.00  0.00    -0.025 A 
ATOM     10  C   UNL A   1      32.364  23.872  22.821  1.00  0.00    -0.016 A 
ATOM     11  C   UNL A   1      33.021  24.389  21.686  1.00  0.00     0.009 A 
ATOM     12  C   UNL A   1      31.367  24.676  23.403  1.00  0.00     0.017 A 
ATOM     13  C   UNL A   1      32.792  25.691  21.235  1.00  0.00     0.001 A 
ATOM     14  C   UNL A   1      31.824  26.482  21.848  1.00  0.00     0.008 A 
BRANCH  10  15
ATOM     15  C   UNL A   1      32.828  22.590  23.428  1.00  0.00     0.004 A 
ATOM     16  C   UNL A   1      33.532  19.997  24.323  1.00  0.00     0.162 A 
ATOM     17  C   UNL A   1      32.364  20.190  23.596  1.00  0.00     0.051 A 
ATOM     18  C   UNL A   1      34.347  21.099  24.679  1.00  0.00     0.180 A 
ATOM     19  C   UNL A   1      32.036  21.459  23.141  1.00  0.00     0.014 A 
ATOM     20  C   UNL A   1      33.978  22.401  24.246  1.00  0.00     0.094 A 
ATOM     21  Cl  UNL A   1      34.831  23.816  24.793  1.00  0.00    -0.079 Cl
BRANCH  16  22
ATOM     22  O   UNL A   1      33.923  18.750  24.758  1.00  0.00    -0.493 OA
ATOM     23  C   UNL A   1      32.977  18.050  25.561  1.00  0.00     0.278 C 
ENDBRANCH  16  22
BRANCH  18  24
ATOM     24  O   UNL A   1      35.393  20.729  25.489  1.00  0.00    -0.491 OA
ATOM     25  C   UNL A   1      36.735  20.793  25.044  1.00  0.00     0.278 C 
ENDBRANCH  18  24
ENDBRANCH  10  15
ENDBRANCH   8   9
ENDBRANCH   4   7
ENDBRANCH   2   3
ENDBRANCH   1   2
BRANCH   1  26
ATOM     26  C   UNL A   1      34.287  29.034  26.215  1.00  0.00     0.118 C 
BRANCH  26  27
ATOM     27  N   UNL A   1      33.935  30.391  26.640  1.00  0.00    -0.352 N 
ATOM     28  C   UNL A   1      34.458  31.243  27.594  1.00  0.00     0.251 C 
ATOM     29  H   UNL A   1      33.174  30.773  26.146  1.00  0.00     0.163 HD
ATOM     30  O   UNL A   1      33.903  32.309  27.805  1.00  0.00    -0.269 OA
BRANCH  28  31
ATOM     31  C   UNL A   1      35.657  30.862  28.383  1.00  0.00     0.039 A 
ATOM     32  C   UNL A   1      35.586  29.784  29.273  1.00  0.00     0.014 A 
ATOM     33  C   UNL A   1      36.854  31.555  28.254  1.00  0.00     0.014 A 
ATOM     34  C   UNL A   1      36.740  29.358  29.945  1.00  0.00     0.010 A 
ATOM     35  C   UNL A   1      38.025  31.029  28.778  1.00  0.00     0.010 A 
ATOM     36  C   UNL A   1      37.983  29.945  29.663  1.00  0.00    -0.014 A 
BRANCH  36  37
ATOM     37  C   UNL A   1      39.245  29.519  30.322  1.00  0.00     0.031 A 
ATOM     38  C   UNL A   1      39.707  30.236  31.573  1.00  0.00     0.074 A 
ATOM     39  C   UNL A   1      40.015  28.558  29.771  1.00  0.00     0.049 A 
ATOM     40  N   UNL A   1      40.839  30.130  32.220  1.00  0.00    -0.248 NA
ATOM     41  C   UNL A   1      38.794  31.247  32.139  1.00  0.00     0.031 C 
ATOM     42  C   UNL A   1      39.719  27.828  28.534  1.00  0.00     0.029 A 
ATOM     43  N   UNL A   1      41.213  28.030  30.182  1.00  0.00    -0.354 N 
ATOM     44  C   UNL A   1      40.782  31.078  33.237  1.00  0.00     0.074 A 
ATOM     45  C   UNL A   1      39.549  31.811  33.067  1.00  0.00     0.031 C 
ATOM     46  C   UNL A   1      40.682  26.918  28.315  1.00  0.00     0.029 A 
ATOM     47  C   UNL A   1      41.687  27.028  29.368  1.00  0.00     0.049 A 
ATOM     48  H   UNL A   1      41.690  28.341  30.986  1.00  0.00     0.167 HD
ATOM     49  C   UNL A   1      41.647  31.291  34.256  1.00  0.00     0.031 A 
ATOM     50  C   UNL A   1      42.803  26.279  29.464  1.00  0.00     0.031 A 
ATOM     51  C   UNL A   1      42.841  30.519  34.462  1.00  0.00     0.049 A 
ATOM     52  C   UNL A   1      43.733  26.513  30.627  1.00  0.00     0.074 A 
ATOM     53  C   UNL A   1      43.767  30.618  35.484  1.00  0.00     0.029 A 
ATOM     54  N   UNL A   1      43.253  29.480  33.643  1.00  0.00    -0.354 N 
ATOM     55  N   UNL A   1      43.641  27.395  31.596  1.00  0.00    -0.248 NA
ATOM     56  C   UNL A   1      44.904  25.631  30.722  1.00  0.00     0.031 C 
ATOM     57  C   UNL A   1      44.755  29.650  35.270  1.00  0.00     0.029 A 
ATOM     58  C   UNL A   1      44.415  28.920  34.142  1.00  0.00     0.049 A 
ATOM     59  H   UNL A   1      42.787  29.184  32.827  1.00  0.00     0.167 HD
ATOM     60  C   UNL A   1      44.722  27.146  32.434  1.00  0.00     0.074 A 
ATOM     61  C   UNL A   1      45.438  26.020  31.870  1.00  0.00     0.031 C 
ATOM     62  C   UNL A   1      45.095  27.789  33.569  1.00  0.00     0.031 A 
BRANCH  49  63
ATOM     63  C   UNL A   1      41.299  32.370  35.250  1.00  0.00    -0.014 A 
ATOM     64  C   UNL A   1      41.742  33.692  35.059  1.00  0.00     0.010 A 
ATOM     65  C   UNL A   1      40.497  32.074  36.367  1.00  0.00     0.010 A 
ATOM     66  C   UNL A   1      41.428  34.688  35.986  1.00  0.00     0.020 A 
ATOM     67  C   UNL A   1      40.152  33.075  37.280  1.00  0.00     0.020 A 
ATOM     68  C   UNL A   1      40.634  34.373  37.092  1.00  0.00     0.054 A 
BRANCH  68  69
ATOM     69  S   UNL A   1      40.209  35.698  38.255  1.00  0.00     0.124 S 
ATOM     70  O   UNL A   1      41.454  35.853  39.002  1.00  0.00    -0.237 OA
ATOM     71  O   UNL A   1      39.867  36.806  37.367  1.00  0.00    -0.237 OA
ATOM     72  O   UNL A   1      39.091  35.145  39.016  1.00  0.00    -0.744 OA
ENDBRANCH  68  69
ENDBRANCH  49  63
BRANCH  50  73
ATOM     73  C   UNL A   1      43.098  25.216  28.463  1.00  0.00    -0.014 A 
ATOM     74  C   UNL A   1      43.825  25.520  27.297  1.00  0.00     0.010 A 
ATOM     75  C   UNL A   1      42.622  23.905  28.644  1.00  0.00     0.010 A 
ATOM     76  C   UNL A   1      44.019  24.554  26.306  1.00  0.00     0.020 A 
ATOM     77  C   UNL A   1      42.843  22.925  27.670  1.00  0.00     0.020 A 
ATOM     78  C   UNL A   1      43.518  23.263  26.495  1.00  0.00     0.054 A 
BRANCH  78  79
ATOM     79  S   UNL A   1      43.771  22.025  25.193  1.00  0.00     0.124 S 
ATOM     80  O   UNL A   1      43.519  22.802  23.984  1.00  0.00    -0.237 OA
ATOM     81  O   UNL A   1      45.158  21.617  25.405  1.00  0.00    -0.237 OA
ATOM     82  O   UNL A   1      42.774  21.001  25.499  1.00  0.00    -0.744 OA
ENDBRANCH  78  79
ENDBRANCH  50  73
BRANCH  62  83
ATOM     83  C   UNL A   1      46.291  27.245  34.302  1.00  0.00    -0.014 A 
ATOM     84  C   UNL A   1      47.590  27.709  34.031  1.00  0.00     0.010 A 
ATOM     85  C   UNL A   1      46.103  26.261  35.290  1.00  0.00     0.010 A 
ATOM     86  C   UNL A   1      48.688  27.155  34.693  1.00  0.00     0.020 A 
ATOM     87  C   UNL A   1      47.196  25.727  35.977  1.00  0.00     0.020 A 
ATOM     88  C   UNL A   1      48.483  26.162  35.656  1.00  0.00     0.054 A 
BRANCH  88  89
ATOM     89  S   UNL A   1      49.922  25.458  36.505  1.00  0.00     0.124 S 
ATOM     90  O   UNL A   1      51.018  25.863  35.629  1.00  0.00    -0.237 OA
ATOM     91  O   UNL A   1      49.882  26.117  37.809  1.00  0.00    -0.237 OA
ATOM     92  O   UNL A   1      49.642  24.025  36.531  1.00  0.00    -0.744 OA
ENDBRANCH  88  89
ENDBRANCH  62  83
ENDBRANCH  36  37
ENDBRANCH  28  31
ENDBRANCH  26  27
ENDBRANCH   1  26
TORSDOF 17
ENDMDL
MODEL 3
REMARK VINA RESULT:     -10.6      4.282     10.475
REMARK SMILES COc1ccc(-c2cccc(/C=C\C(=O)NCCCNC(=O)c3ccc(-c4c5nc(c(-c6ccc(S(=O)(=O)[O-])cc6)c6ccc([nH]6)c(-c6ccc(S(=O)(=O)[O-])cc6)c6nc(c(-c7ccc(S(=O)(=O)[O-])cc7)c7ccc4[nH]7)C=C6)C=C5)cc3)c2)c(Cl)c1OC
REMARK SMILES IDX 18 1 17 2 16 3 14 4 15 5 13 7 12 8 11 9 7 10 8 11 83 12 9 13
REMARK SMILES IDX 10 14 6 15 3 16 4 17 86 18 5 19 84 20 85 21 2 22 1 23 87 24
REMARK SMILES IDX 88 25 19 26 20 27 21 28 22 30 23 31 24 32 82 33 25 34 81 35
REMARK SMILES IDX 26 36 27 37 28 38 75 39 29 40 80 41 74 42 76 43 30 44 79 45
REMARK SMILES IDX 73 46 72 47 31 49 61 50 42 51 60 52 43 53 46 54 59 55 77 56
REMARK SMILES IDX 44 57 45 58 58 60 78 61 47 62 32 63 33 64 41 65 34 66 40 67
REMARK SMILES IDX 35 68 36 69 37 70 38 71 39 72 62 73 63 74 71 75 64 76 70 77
REMARK SMILES IDX 65 78 66 79 67 80 68 81 69 82 48 83 49 84 57 85 50 86 56 87
REMARK SMILES IDX 51 88 52 89 53 90 54 91 55 92
REMARK H PARENT 16 6 20 29 76 48 46 59
REMARK Flexibility Score: inf
ROOT
ATOM      1  C   UNL A   1      37.939  23.888  25.970  1.00  0.00     0.042 C 
ENDROOT
BRANCH   1   2
ATOM      2  C   UNL A   1      37.111  22.699  25.548  1.00  0.00     0.118 C 
BRANCH   2   3
ATOM      3  N   UNL A   1      36.223  22.139  26.538  1.00  0.00    -0.352 N 
ATOM      4  C   UNL A   1      34.998  21.579  26.342  1.00  0.00     0.244 C 
ATOM      5  O   UNL A   1      34.407  21.085  27.304  1.00  0.00    -0.270 OA
ATOM      6  H   UNL A   1      36.542  22.167  27.469  1.00  0.00     0.163 HD
BRANCH   4   7
ATOM      7  C   UNL A   1      34.278  21.639  25.035  1.00  0.00     0.072 C 
ATOM      8  C   UNL A   1      33.166  22.252  24.589  1.00  0.00     0.014 C 
BRANCH   8   9
ATOM      9  C   UNL A   1      32.218  23.096  25.325  1.00  0.00    -0.025 A 
ATOM     10  C   UNL A   1      31.260  25.334  25.662  1.00  0.00    -0.016 A 
ATOM     11  C   UNL A   1      30.191  24.710  26.336  1.00  0.00     0.009 A 
ATOM     12  C   UNL A   1      32.271  24.496  25.157  1.00  0.00     0.017 A 
ATOM     13  C   UNL A   1      30.193  23.341  26.610  1.00  0.00     0.001 A 
ATOM     14  C   UNL A   1      31.223  22.536  26.129  1.00  0.00     0.008 A 
BRANCH  10  15
ATOM     15  C   UNL A   1      31.349  26.823  25.626  1.00  0.00     0.004 A 
ATOM     16  C   UNL A   1      31.786  29.617  25.777  1.00  0.00     0.162 A 
ATOM     17  C   UNL A   1      32.162  28.795  26.832  1.00  0.00     0.051 A 
ATOM     18  C   UNL A   1      31.124  29.078  24.647  1.00  0.00     0.180 A 
ATOM     19  C   UNL A   1      31.965  27.424  26.742  1.00  0.00     0.014 A 
ATOM     20  C   UNL A   1      30.888  27.680  24.585  1.00  0.00     0.094 A 
ATOM     21  Cl  UNL A   1      29.928  26.975  23.315  1.00  0.00    -0.079 Cl
BRANCH  16  22
ATOM     22  O   UNL A   1      32.000  30.977  25.801  1.00  0.00    -0.493 OA
ATOM     23  C   UNL A   1      31.134  31.726  26.650  1.00  0.00     0.278 C 
ENDBRANCH  16  22
BRANCH  18  24
ATOM     24  O   UNL A   1      30.733  30.055  23.764  1.00  0.00    -0.491 OA
ATOM     25  C   UNL A   1      29.366  30.309  23.495  1.00  0.00     0.278 C 
ENDBRANCH  18  24
ENDBRANCH  10  15
ENDBRANCH   8   9
ENDBRANCH   4   7
ENDBRANCH   2   3
ENDBRANCH   1   2
BRANCH   1  26
ATOM     26  C   UNL A   1      39.215  23.534  26.723  1.00  0.00     0.118 C 
BRANCH  26  27
ATOM     27  N   UNL A   1      40.457  23.980  26.085  1.00  0.00    -0.352 N 
ATOM     28  C   UNL A   1      41.260  25.090  26.264  1.00  0.00     0.251 C 
ATOM     29  H   UNL A   1      40.785  23.364  25.391  1.00  0.00     0.163 HD
ATOM     30  O   UNL A   1      42.211  25.260  25.518  1.00  0.00    -0.269 OA
BRANCH  28  31
ATOM     31  C   UNL A   1      40.958  26.088  27.321  1.00  0.00     0.039 A 
ATOM     32  C   UNL A   1      40.077  25.757  28.357  1.00  0.00     0.014 A 
ATOM     33  C   UNL A   1      41.537  27.351  27.304  1.00  0.00     0.014 A 
ATOM     34  C   UNL A   1      39.866  26.658  29.408  1.00  0.00     0.010 A 
ATOM     35  C   UNL A   1      41.468  28.165  28.424  1.00  0.00     0.010 A 
ATOM     36  C   UNL A   1      40.602  27.852  29.478  1.00  0.00    -0.014 A 
BRANCH  36  37
ATOM     37  C   UNL A   1      40.443  28.834  30.582  1.00  0.00     0.031 A 
ATOM     38  C   UNL A   1      41.333  28.729  31.801  1.00  0.00     0.074 A 
ATOM     39  C   UNL A   1      39.463  29.760  30.538  1.00  0.00     0.049 A 
ATOM     40  N   UNL A   1      41.269  29.380  32.935  1.00  0.00    -0.248 NA
ATOM     41  C   UNL A   1      42.406  27.717  31.760  1.00  0.00     0.031 C 
ATOM     42  C   UNL A   1      38.495  29.933  29.451  1.00  0.00     0.029 A 
ATOM     43  N   UNL A   1      39.117  30.736  31.441  1.00  0.00    -0.354 N 
ATOM     44  C   UNL A   1      42.263  28.833  33.740  1.00  0.00     0.074 A 
ATOM     45  C   UNL A   1      42.854  27.739  33.005  1.00  0.00     0.031 C 
ATOM     46  C   UNL A   1      37.699  30.979  29.728  1.00  0.00     0.029 A 
ATOM     47  C   UNL A   1      38.068  31.525  31.030  1.00  0.00     0.049 A 
ATOM     48  H   UNL A   1      39.578  30.859  32.302  1.00  0.00     0.167 HD
ATOM     49  C   UNL A   1      42.689  29.231  34.962  1.00  0.00     0.031 A 
ATOM     50  C   UNL A   1      37.476  32.573  31.634  1.00  0.00     0.031 A 
ATOM     51  C   UNL A   1      42.145  30.359  35.666  1.00  0.00     0.049 A 
ATOM     52  C   UNL A   1      37.991  33.019  32.979  1.00  0.00     0.074 A 
ATOM     53  C   UNL A   1      42.528  30.880  36.888  1.00  0.00     0.029 A 
ATOM     54  N   UNL A   1      41.120  31.161  35.189  1.00  0.00    -0.354 N 
ATOM     55  N   UNL A   1      38.954  32.505  33.708  1.00  0.00    -0.248 NA
ATOM     56  C   UNL A   1      37.352  34.203  33.569  1.00  0.00     0.031 C 
ATOM     57  C   UNL A   1      41.717  31.987  37.161  1.00  0.00     0.029 A 
ATOM     58  C   UNL A   1      40.864  32.181  36.086  1.00  0.00     0.049 A 
ATOM     59  H   UNL A   1      40.645  31.024  34.337  1.00  0.00     0.167 HD
ATOM     60  C   UNL A   1      39.062  33.328  34.823  1.00  0.00     0.074 A 
ATOM     61  C   UNL A   1      38.081  34.382  34.661  1.00  0.00     0.031 C 
ATOM     62  C   UNL A   1      39.893  33.226  35.890  1.00  0.00     0.031 A 
BRANCH  49  63
ATOM     63  C   UNL A   1      43.832  28.470  35.583  1.00  0.00    -0.014 A 
ATOM     64  C   UNL A   1      43.613  27.222  36.197  1.00  0.00     0.010 A 
ATOM     65  C   UNL A   1      45.140  28.983  35.528  1.00  0.00     0.010 A 
ATOM     66  C   UNL A   1      44.671  26.522  36.781  1.00  0.00     0.020 A 
ATOM     67  C   UNL A   1      46.208  28.270  36.083  1.00  0.00     0.020 A 
ATOM     68  C   UNL A   1      45.963  27.052  36.720  1.00  0.00     0.054 A 
BRANCH  68  69
ATOM     69  S   UNL A   1      47.322  26.099  37.452  1.00  0.00     0.124 S 
ATOM     70  O   UNL A   1      46.645  24.869  37.853  1.00  0.00    -0.237 OA
ATOM     71  O   UNL A   1      48.256  25.966  36.337  1.00  0.00    -0.237 OA
ATOM     72  O   UNL A   1      47.784  26.943  38.551  1.00  0.00    -0.744 OA
ENDBRANCH  68  69
ENDBRANCH  49  63
BRANCH  50  73
ATOM     73  C   UNL A   1      36.355  33.302  30.975  1.00  0.00    -0.014 A 
ATOM     74  C   UNL A   1      36.530  33.866  29.697  1.00  0.00     0.010 A 
ATOM     75  C   UNL A   1      35.124  33.474  31.631  1.00  0.00     0.010 A 
ATOM     76  C   UNL A   1      35.519  34.636  29.115  1.00  0.00     0.020 A 
ATOM     77  C   UNL A   1      34.097  34.217  31.038  1.00  0.00     0.020 A 
ATOM     78  C   UNL A   1      34.311  34.815  29.795  1.00  0.00     0.054 A 
BRANCH  78  79
ATOM     79  S   UNL A   1      33.015  35.827  29.028  1.00  0.00     0.124 S 
ATOM     80  O   UNL A   1      32.356  34.862  28.153  1.00  0.00    -0.237 OA
ATOM     81  O   UNL A   1      32.234  36.273  30.179  1.00  0.00    -0.237 OA
ATOM     82  O   UNL A   1      33.764  36.880  28.346  1.00  0.00    -0.744 OA
ENDBRANCH  78  79
ENDBRANCH  50  73
BRANCH  62  83
ATOM     83  C   UNL A   1      39.818  34.316  36.924  1.00  0.00    -0.014 A 
ATOM     84  C   UNL A   1      40.505  35.530  36.759  1.00  0.00     0.010 A 
ATOM     85  C   UNL A   1      39.031  34.120  38.073  1.00  0.00     0.010 A 
ATOM     86  C   UNL A   1      40.456  36.507  37.756  1.00  0.00     0.020 A 
ATOM     87  C   UNL A   1      38.953  35.107  39.058  1.00  0.00     0.020 A 
ATOM     88  C   UNL A   1      39.686  36.286  38.902  1.00  0.00     0.054 A 
BRANCH  88  89
ATOM     89  S   UNL A   1      39.634  37.568  40.182  1.00  0.00     0.124 S 
ATOM     90  O   UNL A   1      39.812  36.786  41.402  1.00  0.00    -0.237 OA
ATOM     91  O   UNL A   1      40.754  38.433  39.818  1.00  0.00    -0.237 OA
ATOM     92  O   UNL A   1      38.313  38.170  40.015  1.00  0.00    -0.744 OA
ENDBRANCH  88  89
ENDBRANCH  62  83
ENDBRANCH  36  37
ENDBRANCH  28  31
ENDBRANCH  26  27
ENDBRANCH   1  26
TORSDOF 17
ENDMDL
