MODEL 1
REMARK VINA RESULT:     -10.7      0.000      0.000
REMARK SMILES O=C(NCCCNC(=O)[C@@H]1CCC[N@@H+](Cc2ccc(F)cc2Cl)C1)c1ccc(-c2c3nc(c(-c4ccc(S(=O)(=O)[O-])cc4)c4ccc([nH]4)c(-c4ccc(S(=O)(=O)[O-])cc4)c4nc(c(-c5ccc(S(=O)(=O)[O-])cc5)c5ccc2[nH]5)C=C4)C=C3)cc1
REMARK SMILES IDX 4 1 3 2 1 3 2 4 25 6 26 7 84 8 27 9 83 10 28 11 29 12 30 13
REMARK SMILES IDX 77 14 31 15 82 16 76 17 78 18 32 19 81 20 75 21 74 22 33 24
REMARK SMILES IDX 63 25 44 26 62 27 45 28 48 29 61 30 79 31 46 32 47 33 60 35
REMARK SMILES IDX 80 36 49 37 34 38 35 39 43 40 36 41 42 42 37 43 38 44 39 45
REMARK SMILES IDX 40 46 41 47 64 48 65 49 73 50 66 51 72 52 67 53 68 54 69 55
REMARK SMILES IDX 70 56 71 57 50 58 51 59 59 60 52 61 58 62 53 63 54 64 55 65
REMARK SMILES IDX 56 66 57 67 5 68 6 69 7 70 8 71 9 73 10 74 11 75 24 76 12 77
REMARK SMILES IDX 14 78 13 79 15 81 16 82 17 83 22 84 18 85 21 86 23 87 19 88
REMARK SMILES IDX 20 89
REMARK H PARENT 3 5 78 23 48 34 7 72 14 80
REMARK Flexibility Score: inf
ROOT
ATOM      1  C   UNL A   1      34.588  32.381  28.953  1.00  0.00     0.118 C 
ENDROOT
BRANCH   1   2
ATOM      2  N   UNL A   1      34.011  31.184  28.360  1.00  0.00    -0.352 N 
ATOM      3  O   UNL A   1      33.955  29.191  27.324  1.00  0.00    -0.269 OA
ATOM      4  C   UNL A   1      34.610  30.018  27.956  1.00  0.00     0.251 C 
ATOM      5  H   UNL A   1      33.035  31.215  28.229  1.00  0.00     0.163 HD
BRANCH   4   6
ATOM      6  C   UNL A   1      36.035  29.759  28.257  1.00  0.00     0.039 A 
ATOM      7  C   UNL A   1      36.430  29.269  29.505  1.00  0.00     0.014 A 
ATOM      8  C   UNL A   1      36.989  29.963  27.256  1.00  0.00     0.014 A 
ATOM      9  C   UNL A   1      37.780  29.104  29.793  1.00  0.00     0.010 A 
ATOM     10  C   UNL A   1      38.340  29.712  27.517  1.00  0.00     0.010 A 
ATOM     11  C   UNL A   1      38.746  29.293  28.793  1.00  0.00    -0.014 A 
BRANCH  11  12
ATOM     12  C   UNL A   1      40.159  28.921  29.062  1.00  0.00     0.031 A 
ATOM     13  C   UNL A   1      40.708  27.584  28.652  1.00  0.00     0.074 A 
ATOM     14  C   UNL A   1      40.939  29.812  29.705  1.00  0.00     0.049 A 
ATOM     15  N   UNL A   1      41.909  27.102  28.844  1.00  0.00    -0.248 NA
ATOM     16  C   UNL A   1      39.800  26.667  27.945  1.00  0.00     0.031 C 
ATOM     17  C   UNL A   1      40.504  31.137  30.164  1.00  0.00     0.029 A 
ATOM     18  N   UNL A   1      42.254  29.747  30.090  1.00  0.00    -0.354 N 
ATOM     19  C   UNL A   1      41.897  25.819  28.308  1.00  0.00     0.074 A 
ATOM     20  C   UNL A   1      40.566  25.593  27.787  1.00  0.00     0.031 C 
ATOM     21  C   UNL A   1      41.536  31.763  30.747  1.00  0.00     0.029 A 
ATOM     22  C   UNL A   1      42.682  30.865  30.768  1.00  0.00     0.049 A 
ATOM     23  H   UNL A   1      42.834  28.975  29.899  1.00  0.00     0.167 HD
ATOM     24  C   UNL A   1      42.906  24.917  28.262  1.00  0.00     0.031 A 
ATOM     25  C   UNL A   1      43.853  31.126  31.380  1.00  0.00     0.031 A 
ATOM     26  C   UNL A   1      44.229  25.160  28.778  1.00  0.00     0.049 A 
ATOM     27  C   UNL A   1      44.936  30.086  31.347  1.00  0.00     0.074 A 
ATOM     28  C   UNL A   1      45.339  24.334  28.709  1.00  0.00     0.029 A 
ATOM     29  N   UNL A   1      44.617  26.293  29.475  1.00  0.00    -0.354 N 
ATOM     30  N   UNL A   1      44.932  28.916  30.755  1.00  0.00    -0.248 NA
ATOM     31  C   UNL A   1      46.177  30.398  32.068  1.00  0.00     0.031 C 
ATOM     32  C   UNL A   1      46.376  24.937  29.427  1.00  0.00     0.029 A 
ATOM     33  C   UNL A   1      45.933  26.166  29.888  1.00  0.00     0.049 A 
ATOM     34  H   UNL A   1      44.043  27.072  29.650  1.00  0.00     0.167 HD
ATOM     35  C   UNL A   1      46.173  28.354  31.026  1.00  0.00     0.074 A 
ATOM     36  C   UNL A   1      46.912  29.325  31.807  1.00  0.00     0.031 C 
ATOM     37  C   UNL A   1      46.654  27.139  30.669  1.00  0.00     0.031 A 
BRANCH  24  38
ATOM     38  C   UNL A   1      42.632  23.563  27.663  1.00  0.00    -0.014 A 
ATOM     39  C   UNL A   1      42.840  23.308  26.296  1.00  0.00     0.010 A 
ATOM     40  C   UNL A   1      42.270  22.496  28.510  1.00  0.00     0.010 A 
ATOM     41  C   UNL A   1      42.677  22.017  25.785  1.00  0.00     0.020 A 
ATOM     42  C   UNL A   1      42.129  21.200  28.007  1.00  0.00     0.020 A 
ATOM     43  C   UNL A   1      42.327  20.969  26.645  1.00  0.00     0.054 A 
BRANCH  43  44
ATOM     44  S   UNL A   1      42.185  19.294  25.962  1.00  0.00     0.124 S 
ATOM     45  O   UNL A   1      40.750  19.193  25.708  1.00  0.00    -0.237 OA
ATOM     46  O   UNL A   1      43.030  19.361  24.772  1.00  0.00    -0.237 OA
ATOM     47  O   UNL A   1      42.689  18.437  27.033  1.00  0.00    -0.744 OA
ENDBRANCH  43  44
ENDBRANCH  24  38
BRANCH  25  48
ATOM     48  C   UNL A   1      44.032  32.399  32.129  1.00  0.00    -0.014 A 
ATOM     49  C   UNL A   1      44.519  33.552  31.491  1.00  0.00     0.010 A 
ATOM     50  C   UNL A   1      43.718  32.457  33.501  1.00  0.00     0.010 A 
ATOM     51  C   UNL A   1      44.718  34.730  32.216  1.00  0.00     0.020 A 
ATOM     52  C   UNL A   1      43.882  33.642  34.221  1.00  0.00     0.020 A 
ATOM     53  C   UNL A   1      44.401  34.766  33.578  1.00  0.00     0.054 A 
BRANCH  53  54
ATOM     54  S   UNL A   1      44.652  36.309  34.498  1.00  0.00     0.124 S 
ATOM     55  O   UNL A   1      45.745  35.950  35.395  1.00  0.00    -0.237 OA
ATOM     56  O   UNL A   1      44.988  37.257  33.438  1.00  0.00    -0.237 OA
ATOM     57  O   UNL A   1      43.361  36.538  35.141  1.00  0.00    -0.744 OA
ENDBRANCH  53  54
ENDBRANCH  25  48
BRANCH  37  58
ATOM     58  C   UNL A   1      48.049  26.791  31.109  1.00  0.00    -0.014 A 
ATOM     59  C   UNL A   1      48.283  26.205  32.366  1.00  0.00     0.010 A 
ATOM     60  C   UNL A   1      49.128  26.987  30.229  1.00  0.00     0.010 A 
ATOM     61  C   UNL A   1      49.577  25.834  32.740  1.00  0.00     0.020 A 
ATOM     62  C   UNL A   1      50.419  26.590  30.589  1.00  0.00     0.020 A 
ATOM     63  C   UNL A   1      50.635  26.023  31.847  1.00  0.00     0.054 A 
BRANCH  63  64
ATOM     64  S   UNL A   1      52.292  25.466  32.331  1.00  0.00     0.124 S 
ATOM     65  O   UNL A   1      53.136  26.114  31.331  1.00  0.00    -0.237 OA
ATOM     66  O   UNL A   1      52.418  25.984  33.691  1.00  0.00    -0.237 OA
ATOM     67  O   UNL A   1      52.212  24.010  32.230  1.00  0.00    -0.744 OA
ENDBRANCH  63  64
ENDBRANCH  37  58
ENDBRANCH  11  12
ENDBRANCH   4   6
ENDBRANCH   1   2
BRANCH   1  68
ATOM     68  C   UNL A   1      34.468  33.606  28.057  1.00  0.00     0.042 C 
BRANCH  68  69
ATOM     69  C   UNL A   1      33.161  34.372  28.200  1.00  0.00     0.117 C 
BRANCH  69  70
ATOM     70  N   UNL A   1      33.352  35.777  28.504  1.00  0.00    -0.356 N 
ATOM     71  C   UNL A   1      33.203  36.479  29.660  1.00  0.00     0.228 C 
ATOM     72  H   UNL A   1      33.642  36.320  27.736  1.00  0.00     0.163 HD
ATOM     73  O   UNL A   1      33.335  37.703  29.583  1.00  0.00    -0.275 OA
BRANCH  71  74
ATOM     74  C   UNL A   1      32.806  35.773  30.953  1.00  0.00     0.133 C 
ATOM     75  C   UNL A   1      32.677  36.759  32.122  1.00  0.00     0.025 C 
ATOM     76  C   UNL A   1      33.729  34.610  31.354  1.00  0.00     0.276 C 
ATOM     77  C   UNL A   1      34.047  37.172  32.654  1.00  0.00     0.062 C 
ATOM     78  N   UNL A   1      34.996  34.963  32.003  1.00  0.00    -0.330 N 
ATOM     79  C   UNL A   1      34.863  35.953  33.074  1.00  0.00     0.262 C 
ATOM     80  H   UNL A   1      35.536  35.437  31.279  1.00  0.00     0.348 HD
BRANCH  78  81
ATOM     81  C   UNL A   1      35.791  33.779  32.401  1.00  0.00     0.300 C 
BRANCH  81  82
ATOM     82  C   UNL A   1      37.288  34.002  32.573  1.00  0.00     0.025 A 
ATOM     83  C   UNL A   1      37.823  34.120  33.873  1.00  0.00     0.014 A 
ATOM     84  C   UNL A   1      38.165  34.164  31.483  1.00  0.00     0.052 A 
ATOM     85  C   UNL A   1      39.157  34.480  34.074  1.00  0.00     0.040 A 
ATOM     86  C   UNL A   1      39.505  34.507  31.687  1.00  0.00     0.060 A 
ATOM     87  Cl  UNL A   1      37.655  33.963  29.843  1.00  0.00    -0.084 Cl
ATOM     88  C   UNL A   1      39.980  34.682  32.978  1.00  0.00     0.124 A 
ATOM     89  F   UNL A   1      41.254  35.049  33.168  1.00  0.00    -0.207 F 
ENDBRANCH  81  82
ENDBRANCH  78  81
ENDBRANCH  71  74
ENDBRANCH  69  70
ENDBRANCH  68  69
ENDBRANCH   1  68
TORSDOF 15
ENDMDL
MODEL 2
REMARK VINA RESULT:     -10.7      4.636      7.660
REMARK SMILES O=C(NCCCNC(=O)[C@@H]1CCC[N@@H+](Cc2ccc(F)cc2Cl)C1)c1ccc(-c2c3nc(c(-c4ccc(S(=O)(=O)[O-])cc4)c4ccc([nH]4)c(-c4ccc(S(=O)(=O)[O-])cc4)c4nc(c(-c5ccc(S(=O)(=O)[O-])cc5)c5ccc2[nH]5)C=C4)C=C3)cc1
REMARK SMILES IDX 4 1 3 2 1 3 2 4 25 6 26 7 84 8 27 9 83 10 28 11 29 12 30 13
REMARK SMILES IDX 77 14 31 15 82 16 76 17 78 18 32 19 81 20 75 21 74 22 33 24
REMARK SMILES IDX 63 25 44 26 62 27 45 28 48 29 61 30 79 31 46 32 47 33 60 35
REMARK SMILES IDX 80 36 49 37 34 38 35 39 43 40 36 41 42 42 37 43 38 44 39 45
REMARK SMILES IDX 40 46 41 47 64 48 65 49 73 50 66 51 72 52 67 53 68 54 69 55
REMARK SMILES IDX 70 56 71 57 50 58 51 59 59 60 52 61 58 62 53 63 54 64 55 65
REMARK SMILES IDX 56 66 57 67 5 68 6 69 7 70 8 71 9 73 10 74 11 75 24 76 12 77
REMARK SMILES IDX 14 78 13 79 15 81 16 82 17 83 22 84 18 85 21 86 23 87 19 88
REMARK SMILES IDX 20 89
REMARK H PARENT 3 5 78 23 48 34 7 72 14 80
REMARK Flexibility Score: inf
ROOT
ATOM      1  C   UNL A   1      33.472  28.415  27.267  1.00  0.00     0.118 C 
ENDROOT
BRANCH   1   2
ATOM      2  N   UNL A   1      33.387  29.837  27.565  1.00  0.00    -0.352 N 
ATOM      3  O   UNL A   1      33.980  31.823  28.431  1.00  0.00    -0.269 OA
ATOM      4  C   UNL A   1      34.317  30.685  28.110  1.00  0.00     0.251 C 
ATOM      5  H   UNL A   1      32.525  30.257  27.339  1.00  0.00     0.163 HD
BRANCH   4   6
ATOM      6  C   UNL A   1      35.709  30.235  28.330  1.00  0.00     0.039 A 
ATOM      7  C   UNL A   1      36.675  30.370  27.330  1.00  0.00     0.014 A 
ATOM      8  C   UNL A   1      36.066  29.716  29.577  1.00  0.00     0.014 A 
ATOM      9  C   UNL A   1      37.958  29.873  27.530  1.00  0.00     0.010 A 
ATOM     10  C   UNL A   1      37.380  29.298  29.809  1.00  0.00     0.010 A 
ATOM     11  C   UNL A   1      38.333  29.361  28.782  1.00  0.00    -0.014 A 
BRANCH  11  12
ATOM     12  C   UNL A   1      39.756  29.021  29.036  1.00  0.00     0.031 A 
ATOM     13  C   UNL A   1      40.327  27.690  28.636  1.00  0.00     0.074 A 
ATOM     14  C   UNL A   1      40.527  29.936  29.658  1.00  0.00     0.049 A 
ATOM     15  N   UNL A   1      41.540  27.235  28.818  1.00  0.00    -0.248 NA
ATOM     16  C   UNL A   1      39.428  26.747  27.953  1.00  0.00     0.031 C 
ATOM     17  C   UNL A   1      40.072  31.258  30.106  1.00  0.00     0.029 A 
ATOM     18  N   UNL A   1      41.848  29.903  30.026  1.00  0.00    -0.354 N 
ATOM     19  C   UNL A   1      41.547  25.945  28.298  1.00  0.00     0.074 A 
ATOM     20  C   UNL A   1      40.214  25.686  27.798  1.00  0.00     0.031 C 
ATOM     21  C   UNL A   1      41.098  31.912  30.667  1.00  0.00     0.029 A 
ATOM     22  C   UNL A   1      42.262  31.037  30.684  1.00  0.00     0.049 A 
ATOM     23  H   UNL A   1      42.441  29.140  29.837  1.00  0.00     0.167 HD
ATOM     24  C   UNL A   1      42.574  25.063  28.250  1.00  0.00     0.031 A 
ATOM     25  C   UNL A   1      43.435  31.330  31.276  1.00  0.00     0.031 A 
ATOM     26  C   UNL A   1      43.898  25.339  28.746  1.00  0.00     0.049 A 
ATOM     27  C   UNL A   1      44.539  30.312  31.242  1.00  0.00     0.074 A 
ATOM     28  C   UNL A   1      45.023  24.535  28.672  1.00  0.00     0.029 A 
ATOM     29  N   UNL A   1      44.272  26.489  29.423  1.00  0.00    -0.354 N 
ATOM     30  N   UNL A   1      44.551  29.134  30.665  1.00  0.00    -0.248 NA
ATOM     31  C   UNL A   1      45.783  30.657  31.943  1.00  0.00     0.031 C 
ATOM     32  C   UNL A   1      46.057  25.167  29.368  1.00  0.00     0.029 A 
ATOM     33  C   UNL A   1      45.596  26.393  29.819  1.00  0.00     0.049 A 
ATOM     34  H   UNL A   1      43.685  27.259  29.596  1.00  0.00     0.167 HD
ATOM     35  C   UNL A   1      45.806  28.601  30.927  1.00  0.00     0.074 A 
ATOM     36  C   UNL A   1      46.536  29.596  31.685  1.00  0.00     0.031 C 
ATOM     37  C   UNL A   1      46.307  27.391  30.578  1.00  0.00     0.031 A 
BRANCH  24  38
ATOM     38  C   UNL A   1      42.319  23.696  27.672  1.00  0.00    -0.014 A 
ATOM     39  C   UNL A   1      42.570  23.412  26.319  1.00  0.00     0.010 A 
ATOM     40  C   UNL A   1      41.930  22.648  28.530  1.00  0.00     0.010 A 
ATOM     41  C   UNL A   1      42.424  22.110  25.831  1.00  0.00     0.020 A 
ATOM     42  C   UNL A   1      41.805  21.341  28.051  1.00  0.00     0.020 A 
ATOM     43  C   UNL A   1      42.047  21.081  26.702  1.00  0.00     0.054 A 
BRANCH  43  44
ATOM     44  S   UNL A   1      41.928  19.391  26.051  1.00  0.00     0.124 S 
ATOM     45  O   UNL A   1      42.799  19.457  24.881  1.00  0.00    -0.237 OA
ATOM     46  O   UNL A   1      42.429  18.585  27.162  1.00  0.00    -0.237 OA
ATOM     47  O   UNL A   1      40.506  19.229  25.759  1.00  0.00    -0.744 OA
ENDBRANCH  43  44
ENDBRANCH  24  38
BRANCH  25  48
ATOM     48  C   UNL A   1      43.599  32.616  32.006  1.00  0.00    -0.014 A 
ATOM     49  C   UNL A   1      43.246  32.729  33.361  1.00  0.00     0.010 A 
ATOM     50  C   UNL A   1      44.109  33.745  31.336  1.00  0.00     0.010 A 
ATOM     51  C   UNL A   1      43.370  33.954  34.024  1.00  0.00     0.020 A 
ATOM     52  C   UNL A   1      44.267  34.961  32.003  1.00  0.00     0.020 A 
ATOM     53  C   UNL A   1      43.876  35.062  33.339  1.00  0.00     0.054 A 
BRANCH  53  54
ATOM     54  S   UNL A   1      44.043  36.638  34.221  1.00  0.00     0.124 S 
ATOM     55  O   UNL A   1      44.664  37.486  33.208  1.00  0.00    -0.237 OA
ATOM     56  O   UNL A   1      42.658  36.961  34.555  1.00  0.00    -0.237 OA
ATOM     57  O   UNL A   1      44.889  36.303  35.364  1.00  0.00    -0.744 OA
ENDBRANCH  53  54
ENDBRANCH  25  48
BRANCH  37  58
ATOM     58  C   UNL A   1      47.715  27.076  31.004  1.00  0.00    -0.014 A 
ATOM     59  C   UNL A   1      47.965  26.287  32.141  1.00  0.00     0.010 A 
ATOM     60  C   UNL A   1      48.796  27.515  30.219  1.00  0.00     0.010 A 
ATOM     61  C   UNL A   1      49.274  25.955  32.493  1.00  0.00     0.020 A 
ATOM     62  C   UNL A   1      50.105  27.160  30.553  1.00  0.00     0.020 A 
ATOM     63  C   UNL A   1      50.336  26.388  31.693  1.00  0.00     0.054 A 
BRANCH  63  64
ATOM     64  S   UNL A   1      52.021  25.882  32.135  1.00  0.00     0.124 S 
ATOM     65  O   UNL A   1      51.801  24.558  32.710  1.00  0.00    -0.237 OA
ATOM     66  O   UNL A   1      52.708  25.901  30.846  1.00  0.00    -0.237 OA
ATOM     67  O   UNL A   1      52.454  26.908  33.081  1.00  0.00    -0.744 OA
ENDBRANCH  63  64
ENDBRANCH  37  58
ENDBRANCH  11  12
ENDBRANCH   4   6
ENDBRANCH   1   2
BRANCH   1  68
ATOM     68  C   UNL A   1      32.110  27.733  27.227  1.00  0.00     0.042 C 
BRANCH  68  69
ATOM     69  C   UNL A   1      31.589  27.438  25.828  1.00  0.00     0.117 C 
BRANCH  69  70
ATOM     70  N   UNL A   1      31.179  26.059  25.650  1.00  0.00    -0.356 N 
ATOM     71  C   UNL A   1      31.896  24.925  25.425  1.00  0.00     0.228 C 
ATOM     72  H   UNL A   1      30.206  25.917  25.702  1.00  0.00     0.163 HD
ATOM     73  O   UNL A   1      31.250  23.898  25.204  1.00  0.00    -0.275 OA
BRANCH  71  74
ATOM     74  C   UNL A   1      33.420  24.968  25.368  1.00  0.00     0.133 C 
ATOM     75  C   UNL A   1      33.926  25.355  23.972  1.00  0.00     0.025 C 
ATOM     76  C   UNL A   1      34.114  23.676  25.832  1.00  0.00     0.276 C 
ATOM     77  C   UNL A   1      33.826  24.181  23.001  1.00  0.00     0.062 C 
ATOM     78  N   UNL A   1      34.166  22.571  24.870  1.00  0.00    -0.330 N 
ATOM     79  C   UNL A   1      34.590  22.969  23.526  1.00  0.00     0.262 C 
ATOM     80  H   UNL A   1      33.196  22.276  24.759  1.00  0.00     0.348 HD
BRANCH  78  81
ATOM     81  C   UNL A   1      34.898  21.390  25.384  1.00  0.00     0.300 C 
BRANCH  81  82
ATOM     82  C   UNL A   1      34.444  20.035  24.858  1.00  0.00     0.025 A 
ATOM     83  C   UNL A   1      33.075  19.822  24.592  1.00  0.00     0.014 A 
ATOM     84  C   UNL A   1      35.325  18.950  24.685  1.00  0.00     0.052 A 
ATOM     85  C   UNL A   1      32.593  18.555  24.260  1.00  0.00     0.040 A 
ATOM     86  C   UNL A   1      34.843  17.686  24.335  1.00  0.00     0.060 A 
ATOM     87  Cl  UNL A   1      37.034  19.099  24.897  1.00  0.00    -0.084 Cl
ATOM     88  C   UNL A   1      33.481  17.497  24.148  1.00  0.00     0.124 A 
ATOM     89  F   UNL A   1      33.019  16.275  23.852  1.00  0.00    -0.207 F 
ENDBRANCH  81  82
ENDBRANCH  78  81
ENDBRANCH  71  74
ENDBRANCH  69  70
ENDBRANCH  68  69
ENDBRANCH   1  68
TORSDOF 15
ENDMDL
MODEL 3
REMARK VINA RESULT:     -10.6      1.888      2.752
REMARK SMILES O=C(NCCCNC(=O)[C@@H]1CCC[N@@H+](Cc2ccc(F)cc2Cl)C1)c1ccc(-c2c3nc(c(-c4ccc(S(=O)(=O)[O-])cc4)c4ccc([nH]4)c(-c4ccc(S(=O)(=O)[O-])cc4)c4nc(c(-c5ccc(S(=O)(=O)[O-])cc5)c5ccc2[nH]5)C=C4)C=C3)cc1
REMARK SMILES IDX 4 1 3 2 1 3 2 4 25 6 26 7 84 8 27 9 83 10 28 11 29 12 30 13
REMARK SMILES IDX 77 14 31 15 82 16 76 17 78 18 32 19 81 20 75 21 74 22 33 24
REMARK SMILES IDX 63 25 44 26 62 27 45 28 48 29 61 30 79 31 46 32 47 33 60 35
REMARK SMILES IDX 80 36 49 37 34 38 35 39 43 40 36 41 42 42 37 43 38 44 39 45
REMARK SMILES IDX 40 46 41 47 64 48 65 49 73 50 66 51 72 52 67 53 68 54 69 55
REMARK SMILES IDX 70 56 71 57 50 58 51 59 59 60 52 61 58 62 53 63 54 64 55 65
REMARK SMILES IDX 56 66 57 67 5 68 6 69 7 70 8 71 9 73 10 74 11 75 24 76 12 77
REMARK SMILES IDX 14 78 13 79 15 81 16 82 17 83 22 84 18 85 21 86 23 87 19 88
REMARK SMILES IDX 20 89
REMARK H PARENT 3 5 78 23 48 34 7 72 14 80
REMARK Flexibility Score: inf
ROOT
ATOM      1  C   UNL A   1      34.875  33.011  28.192  1.00  0.00     0.118 C 
ENDROOT
BRANCH   1   2
ATOM      2  N   UNL A   1      34.044  31.826  28.046  1.00  0.00    -0.352 N 
ATOM      3  O   UNL A   1      33.537  29.671  27.666  1.00  0.00    -0.269 OA
ATOM      4  C   UNL A   1      34.395  30.503  27.952  1.00  0.00     0.251 C 
ATOM      5  H   UNL A   1      33.075  32.001  28.012  1.00  0.00     0.163 HD
BRANCH   4   6
ATOM      6  C   UNL A   1      35.796  30.079  28.169  1.00  0.00     0.039 A 
ATOM      7  C   UNL A   1      36.732  30.133  27.134  1.00  0.00     0.014 A 
ATOM      8  C   UNL A   1      36.191  29.667  29.445  1.00  0.00     0.014 A 
ATOM      9  C   UNL A   1      38.023  29.659  27.339  1.00  0.00     0.010 A 
ATOM     10  C   UNL A   1      37.513  29.274  29.674  1.00  0.00     0.010 A 
ATOM     11  C   UNL A   1      38.436  29.255  28.618  1.00  0.00    -0.014 A 
BRANCH  11  12
ATOM     12  C   UNL A   1      39.868  28.943  28.859  1.00  0.00     0.031 A 
ATOM     13  C   UNL A   1      40.456  27.616  28.471  1.00  0.00     0.074 A 
ATOM     14  C   UNL A   1      40.631  29.879  29.458  1.00  0.00     0.049 A 
ATOM     15  N   UNL A   1      41.679  27.183  28.644  1.00  0.00    -0.248 NA
ATOM     16  C   UNL A   1      39.566  26.648  27.812  1.00  0.00     0.031 C 
ATOM     17  C   UNL A   1      40.158  31.199  29.893  1.00  0.00     0.029 A 
ATOM     18  N   UNL A   1      41.956  29.873  29.810  1.00  0.00    -0.354 N 
ATOM     19  C   UNL A   1      41.702  25.887  28.142  1.00  0.00     0.074 A 
ATOM     20  C   UNL A   1      40.367  25.598  27.663  1.00  0.00     0.031 C 
ATOM     21  C   UNL A   1      41.180  31.878  30.432  1.00  0.00     0.029 A 
ATOM     22  C   UNL A   1      42.359  31.024  30.447  1.00  0.00     0.049 A 
ATOM     23  H   UNL A   1      42.559  29.118  29.624  1.00  0.00     0.167 HD
ATOM     24  C   UNL A   1      42.742  25.022  28.094  1.00  0.00     0.031 A 
ATOM     25  C   UNL A   1      43.534  31.345  31.020  1.00  0.00     0.031 A 
ATOM     26  C   UNL A   1      44.068  25.327  28.569  1.00  0.00     0.049 A 
ATOM     27  C   UNL A   1      44.655  30.345  30.987  1.00  0.00     0.074 A 
ATOM     28  C   UNL A   1      45.206  24.541  28.493  1.00  0.00     0.029 A 
ATOM     29  N   UNL A   1      44.431  26.492  29.225  1.00  0.00    -0.354 N 
ATOM     30  N   UNL A   1      44.680  29.159  30.427  1.00  0.00    -0.248 NA
ATOM     31  C   UNL A   1      45.901  30.721  31.667  1.00  0.00     0.031 C 
ATOM     32  C   UNL A   1      46.237  25.200  29.167  1.00  0.00     0.029 A 
ATOM     33  C   UNL A   1      45.760  26.425  29.606  1.00  0.00     0.049 A 
ATOM     34  H   UNL A   1      43.832  27.255  29.394  1.00  0.00     0.167 HD
ATOM     35  C   UNL A   1      45.947  28.651  30.680  1.00  0.00     0.074 A 
ATOM     36  C   UNL A   1      46.669  29.669  31.415  1.00  0.00     0.031 C 
ATOM     37  C   UNL A   1      46.463  27.445  30.342  1.00  0.00     0.031 A 
BRANCH  24  38
ATOM     38  C   UNL A   1      42.504  23.642  27.539  1.00  0.00    -0.014 A 
ATOM     39  C   UNL A   1      42.778  23.334  26.195  1.00  0.00     0.010 A 
ATOM     40  C   UNL A   1      42.107  22.608  28.410  1.00  0.00     0.010 A 
ATOM     41  C   UNL A   1      42.647  22.022  25.730  1.00  0.00     0.020 A 
ATOM     42  C   UNL A   1      41.996  21.292  27.955  1.00  0.00     0.020 A 
ATOM     43  C   UNL A   1      42.261  21.008  26.614  1.00  0.00     0.054 A 
BRANCH  43  44
ATOM     44  S   UNL A   1      42.160  19.305  25.995  1.00  0.00     0.124 S 
ATOM     45  O   UNL A   1      42.679  18.541  27.128  1.00  0.00    -0.237 OA
ATOM     46  O   UNL A   1      40.733  19.144  25.731  1.00  0.00    -0.237 OA
ATOM     47  O   UNL A   1      43.013  19.314  24.809  1.00  0.00    -0.744 OA
ENDBRANCH  43  44
ENDBRANCH  24  38
BRANCH  25  48
ATOM     48  C   UNL A   1      43.685  32.644  31.730  1.00  0.00    -0.014 A 
ATOM     49  C   UNL A   1      43.374  32.763  33.095  1.00  0.00     0.010 A 
ATOM     50  C   UNL A   1      44.139  33.779  31.030  1.00  0.00     0.010 A 
ATOM     51  C   UNL A   1      43.485  33.998  33.739  1.00  0.00     0.020 A 
ATOM     52  C   UNL A   1      44.284  35.007  31.679  1.00  0.00     0.020 A 
ATOM     53  C   UNL A   1      43.936  35.113  33.026  1.00  0.00     0.054 A 
BRANCH  53  54
ATOM     54  S   UNL A   1      44.086  36.703  33.884  1.00  0.00     0.124 S 
ATOM     55  O   UNL A   1      43.427  37.612  32.952  1.00  0.00    -0.237 OA
ATOM     56  O   UNL A   1      43.375  36.455  35.136  1.00  0.00    -0.237 OA
ATOM     57  O   UNL A   1      45.529  36.883  34.022  1.00  0.00    -0.744 OA
ENDBRANCH  53  54
ENDBRANCH  25  48
BRANCH  37  58
ATOM     58  C   UNL A   1      47.882  27.160  30.755  1.00  0.00    -0.014 A 
ATOM     59  C   UNL A   1      48.160  26.463  31.943  1.00  0.00     0.010 A 
ATOM     60  C   UNL A   1      48.943  27.532  29.910  1.00  0.00     0.010 A 
ATOM     61  C   UNL A   1      49.479  26.155  32.287  1.00  0.00     0.020 A 
ATOM     62  C   UNL A   1      50.260  27.200  30.236  1.00  0.00     0.020 A 
ATOM     63  C   UNL A   1      50.519  26.520  31.428  1.00  0.00     0.054 A 
BRANCH  63  64
ATOM     64  S   UNL A   1      52.215  26.044  31.864  1.00  0.00     0.124 S 
ATOM     65  O   UNL A   1      52.903  26.158  30.582  1.00  0.00    -0.237 OA
ATOM     66  O   UNL A   1      52.579  27.044  32.865  1.00  0.00    -0.237 OA
ATOM     67  O   UNL A   1      52.071  24.682  32.377  1.00  0.00    -0.744 OA
ENDBRANCH  63  64
ENDBRANCH  37  58
ENDBRANCH  11  12
ENDBRANCH   4   6
ENDBRANCH   1   2
BRANCH   1  68
ATOM     68  C   UNL A   1      34.145  34.174  28.852  1.00  0.00     0.042 C 
BRANCH  68  69
ATOM     69  C   UNL A   1      34.638  34.523  30.248  1.00  0.00     0.117 C 
BRANCH  69  70
ATOM     70  N   UNL A   1      36.042  34.219  30.451  1.00  0.00    -0.356 N 
ATOM     71  C   UNL A   1      36.691  33.589  31.466  1.00  0.00     0.228 C 
ATOM     72  H   UNL A   1      36.630  34.522  29.721  1.00  0.00     0.163 HD
ATOM     73  O   UNL A   1      37.923  33.575  31.409  1.00  0.00    -0.275 OA
BRANCH  71  74
ATOM     74  C   UNL A   1      35.915  33.015  32.648  1.00  0.00     0.133 C 
ATOM     75  C   UNL A   1      35.715  34.057  33.756  1.00  0.00     0.025 C 
ATOM     76  C   UNL A   1      36.518  31.731  33.245  1.00  0.00     0.276 C 
ATOM     77  C   UNL A   1      36.992  34.256  34.568  1.00  0.00     0.062 C 
ATOM     78  N   UNL A   1      37.661  31.895  34.148  1.00  0.00    -0.330 N 
ATOM     79  C   UNL A   1      37.478  32.937  35.160  1.00  0.00     0.262 C 
ATOM     80  H   UNL A   1      38.415  32.240  33.555  1.00  0.00     0.348 HD
BRANCH  78  81
ATOM     81  C   UNL A   1      38.138  30.612  34.715  1.00  0.00     0.300 C 
BRANCH  81  82
ATOM     82  C   UNL A   1      39.353  29.989  34.039  1.00  0.00     0.025 A 
ATOM     83  C   UNL A   1      39.161  29.012  33.040  1.00  0.00     0.014 A 
ATOM     84  C   UNL A   1      40.675  30.296  34.415  1.00  0.00     0.052 A 
ATOM     85  C   UNL A   1      40.239  28.303  32.508  1.00  0.00     0.040 A 
ATOM     86  C   UNL A   1      41.755  29.598  33.867  1.00  0.00     0.060 A 
ATOM     87  Cl  UNL A   1      41.050  31.531  35.565  1.00  0.00    -0.084 Cl
ATOM     88  C   UNL A   1      41.524  28.595  32.937  1.00  0.00     0.124 A 
ATOM     89  F   UNL A   1      42.558  27.902  32.444  1.00  0.00    -0.207 F 
ENDBRANCH  81  82
ENDBRANCH  78  81
ENDBRANCH  71  74
ENDBRANCH  69  70
ENDBRANCH  68  69
ENDBRANCH   1  68
TORSDOF 15
ENDMDL
