MODEL 1
REMARK VINA RESULT:      -9.0      0.000      0.000
REMARK SMILES Cc1noc(C)c1COc1ccc(C(=O)NCCCNC(=O)c2ccc(-c3c4nc(c(-c5ccc(S(=O)(=O)[O-])cc5)c5ccc([nH]5)c(-c5ccc(S(=O)(=O)[O-])cc5)c5nc(c(-c6ccc(S(=O)(=O)[O-])cc6)c6ccc3[nH]6)C=C5)C=C4)cc2)cc1
REMARK SMILES IDX 18 1 17 2 16 3 14 4 15 5 13 7 10 8 11 9 84 10 12 11 83 12
REMARK SMILES IDX 9 13 8 14 7 15 1 16 2 17 3 18 4 19 5 20 6 21 19 22 20 23
REMARK SMILES IDX 21 24 22 26 23 27 24 28 82 29 25 30 81 31 26 32 27 33 28 34
REMARK SMILES IDX 75 35 29 36 80 37 74 38 76 39 30 40 79 41 73 42 72 43 31 45
REMARK SMILES IDX 61 46 42 47 60 48 43 49 46 50 59 51 77 52 44 53 45 54 58 56
REMARK SMILES IDX 78 57 47 58 32 59 33 60 41 61 34 62 40 63 35 64 36 65 37 66
REMARK SMILES IDX 38 67 39 68 62 69 63 70 71 71 64 72 70 73 65 74 66 75 67 76
REMARK SMILES IDX 68 77 69 78 48 79 49 80 57 81 50 82 56 83 51 84 52 85 53 86
REMARK SMILES IDX 54 87 55 88
REMARK H PARENT 16 6 20 25 76 44 46 55
REMARK Flexibility Score: inf
ROOT
ATOM      1  C   UNL A   1      41.631  20.847  26.418  1.00  0.00     0.042 C 
ENDROOT
BRANCH   1   2
ATOM      2  C   UNL A   1      42.819  21.800  26.297  1.00  0.00     0.118 C 
BRANCH   2   3
ATOM      3  N   UNL A   1      43.302  21.895  24.927  1.00  0.00    -0.352 N 
ATOM      4  C   UNL A   1      44.156  22.790  24.330  1.00  0.00     0.251 C 
ATOM      5  O   UNL A   1      44.532  22.567  23.180  1.00  0.00    -0.269 OA
ATOM      6  H   UNL A   1      42.956  21.197  24.326  1.00  0.00     0.163 HD
BRANCH   4   7
ATOM      7  C   UNL A   1      44.675  23.986  25.044  1.00  0.00     0.040 A 
ATOM      8  C   UNL A   1      45.581  26.313  26.308  1.00  0.00     0.119 A 
ATOM      9  C   UNL A   1      44.238  26.200  25.957  1.00  0.00     0.047 A 
ATOM     10  C   UNL A   1      46.440  25.235  26.124  1.00  0.00     0.047 A 
ATOM     11  C   UNL A   1      43.788  25.038  25.320  1.00  0.00     0.017 A 
ATOM     12  C   UNL A   1      45.987  24.076  25.503  1.00  0.00     0.017 A 
BRANCH   8  13
ATOM     13  O   UNL A   1      46.022  27.447  26.935  1.00  0.00    -0.489 OA
BRANCH  13  14
ATOM     14  C   UNL A   1      45.692  28.640  26.195  1.00  0.00     0.271 C 
BRANCH  14  15
ATOM     15  C   UNL A   1      44.943  29.669  26.970  1.00  0.00     0.055 A 
ATOM     16  C   UNL A   1      46.858  30.898  28.270  1.00  0.00     0.071 C 
ATOM     17  C   UNL A   1      45.451  30.639  27.881  1.00  0.00     0.087 A 
ATOM     18  N   UNL A   1      44.472  31.413  28.362  1.00  0.00    -0.085 NA
ATOM     19  O   UNL A   1      43.310  30.973  27.767  1.00  0.00    -0.361 OA
ATOM     20  C   UNL A   1      43.591  29.940  26.931  1.00  0.00     0.140 A 
ATOM     21  C   UNL A   1      42.448  29.380  26.186  1.00  0.00     0.091 C 
ENDBRANCH  14  15
ENDBRANCH  13  14
ENDBRANCH   8  13
ENDBRANCH   4   7
ENDBRANCH   2   3
ENDBRANCH   1   2
BRANCH   1  22
ATOM     22  C   UNL A   1      40.459  21.431  27.198  1.00  0.00     0.118 C 
BRANCH  22  23
ATOM     23  N   UNL A   1      39.364  21.824  26.325  1.00  0.00    -0.352 N 
ATOM     24  C   UNL A   1      38.707  23.026  26.229  1.00  0.00     0.251 C 
ATOM     25  H   UNL A   1      39.047  21.124  25.709  1.00  0.00     0.163 HD
ATOM     26  O   UNL A   1      37.666  23.094  25.583  1.00  0.00    -0.269 OA
BRANCH  24  27
ATOM     27  C   UNL A   1      39.241  24.229  26.907  1.00  0.00     0.039 A 
ATOM     28  C   UNL A   1      40.050  25.110  26.184  1.00  0.00     0.014 A 
ATOM     29  C   UNL A   1      38.976  24.472  28.258  1.00  0.00     0.014 A 
ATOM     30  C   UNL A   1      40.552  26.258  26.801  1.00  0.00     0.010 A 
ATOM     31  C   UNL A   1      39.412  25.655  28.849  1.00  0.00     0.010 A 
ATOM     32  C   UNL A   1      40.214  26.554  28.131  1.00  0.00    -0.014 A 
BRANCH  32  33
ATOM     33  C   UNL A   1      40.701  27.786  28.804  1.00  0.00     0.031 A 
ATOM     34  C   UNL A   1      42.084  27.821  29.398  1.00  0.00     0.074 A 
ATOM     35  C   UNL A   1      39.876  28.843  28.944  1.00  0.00     0.049 A 
ATOM     36  N   UNL A   1      42.654  28.760  30.109  1.00  0.00    -0.248 NA
ATOM     37  C   UNL A   1      42.928  26.632  29.187  1.00  0.00     0.031 C 
ATOM     38  C   UNL A   1      38.504  28.922  28.438  1.00  0.00     0.029 A 
ATOM     39  N   UNL A   1      40.067  30.051  29.568  1.00  0.00    -0.354 N 
ATOM     40  C   UNL A   1      43.909  28.267  30.449  1.00  0.00     0.074 A 
ATOM     41  C   UNL A   1      44.000  26.929  29.908  1.00  0.00     0.031 C 
ATOM     42  C   UNL A   1      37.986  30.119  28.753  1.00  0.00     0.029 A 
ATOM     43  C   UNL A   1      38.969  30.876  29.524  1.00  0.00     0.049 A 
ATOM     44  H   UNL A   1      40.913  30.303  30.006  1.00  0.00     0.167 HD
ATOM     45  C   UNL A   1      44.903  28.880  31.137  1.00  0.00     0.031 A 
ATOM     46  C   UNL A   1      38.767  32.098  30.055  1.00  0.00     0.031 A 
ATOM     47  C   UNL A   1      44.810  30.216  31.662  1.00  0.00     0.049 A 
ATOM     48  C   UNL A   1      39.880  32.752  30.829  1.00  0.00     0.074 A 
ATOM     49  C   UNL A   1      45.779  30.946  32.328  1.00  0.00     0.029 A 
ATOM     50  N   UNL A   1      43.685  31.021  31.581  1.00  0.00    -0.354 N 
ATOM     51  N   UNL A   1      41.079  32.291  31.094  1.00  0.00    -0.248 NA
ATOM     52  C   UNL A   1      39.617  34.094  31.365  1.00  0.00     0.031 C 
ATOM     53  C   UNL A   1      45.221  32.174  32.698  1.00  0.00     0.029 A 
ATOM     54  C   UNL A   1      43.928  32.235  32.205  1.00  0.00     0.049 A 
ATOM     55  H   UNL A   1      42.839  30.770  31.146  1.00  0.00     0.167 HD
ATOM     56  C   UNL A   1      41.726  33.303  31.797  1.00  0.00     0.074 A 
ATOM     57  C   UNL A   1      40.787  34.400  31.908  1.00  0.00     0.031 C 
ATOM     58  C   UNL A   1      42.985  33.321  32.299  1.00  0.00     0.031 A 
BRANCH  45  59
ATOM     59  C   UNL A   1      46.175  28.103  31.367  1.00  0.00    -0.014 A 
ATOM     60  C   UNL A   1      46.311  27.236  32.467  1.00  0.00     0.010 A 
ATOM     61  C   UNL A   1      47.234  28.210  30.447  1.00  0.00     0.010 A 
ATOM     62  C   UNL A   1      47.498  26.528  32.667  1.00  0.00     0.020 A 
ATOM     63  C   UNL A   1      48.412  27.478  30.627  1.00  0.00     0.020 A 
ATOM     64  C   UNL A   1      48.543  26.656  31.747  1.00  0.00     0.054 A 
BRANCH  64  65
ATOM     65  S   UNL A   1      50.064  25.707  32.023  1.00  0.00     0.124 S 
ATOM     66  O   UNL A   1      49.794  25.075  33.313  1.00  0.00    -0.237 OA
ATOM     67  O   UNL A   1      50.091  24.804  30.876  1.00  0.00    -0.237 OA
ATOM     68  O   UNL A   1      51.111  26.726  32.037  1.00  0.00    -0.744 OA
ENDBRANCH  64  65
ENDBRANCH  45  59
BRANCH  46  69
ATOM     69  C   UNL A   1      37.460  32.786  29.863  1.00  0.00    -0.014 A 
ATOM     70  C   UNL A   1      37.215  33.538  28.701  1.00  0.00     0.010 A 
ATOM     71  C   UNL A   1      36.448  32.681  30.835  1.00  0.00     0.010 A 
ATOM     72  C   UNL A   1      35.991  34.191  28.523  1.00  0.00     0.020 A 
ATOM     73  C   UNL A   1      35.212  33.307  30.647  1.00  0.00     0.020 A 
ATOM     74  C   UNL A   1      34.996  34.069  29.498  1.00  0.00     0.054 A 
BRANCH  74  75
ATOM     75  S   UNL A   1      33.400  34.887  29.223  1.00  0.00     0.124 S 
ATOM     76  O   UNL A   1      33.811  36.225  28.813  1.00  0.00    -0.237 OA
ATOM     77  O   UNL A   1      32.797  34.062  28.180  1.00  0.00    -0.237 OA
ATOM     78  O   UNL A   1      32.745  34.805  30.528  1.00  0.00    -0.744 OA
ENDBRANCH  74  75
ENDBRANCH  46  69
BRANCH  58  79
ATOM     79  C   UNL A   1      43.450  34.585  32.972  1.00  0.00    -0.014 A 
ATOM     80  C   UNL A   1      43.310  34.773  34.358  1.00  0.00     0.010 A 
ATOM     81  C   UNL A   1      44.108  35.569  32.210  1.00  0.00     0.010 A 
ATOM     82  C   UNL A   1      43.800  35.933  34.965  1.00  0.00     0.020 A 
ATOM     83  C   UNL A   1      44.625  36.714  32.817  1.00  0.00     0.020 A 
ATOM     84  C   UNL A   1      44.458  36.894  34.192  1.00  0.00     0.054 A 
BRANCH  84  85
ATOM     85  S   UNL A   1      45.140  38.360  35.015  1.00  0.00     0.124 S 
ATOM     86  O   UNL A   1      43.960  39.209  35.151  1.00  0.00    -0.237 OA
ATOM     87  O   UNL A   1      45.667  37.811  36.262  1.00  0.00    -0.237 OA
ATOM     88  O   UNL A   1      46.152  38.845  34.078  1.00  0.00    -0.744 OA
ENDBRANCH  84  85
ENDBRANCH  58  79
ENDBRANCH  32  33
ENDBRANCH  24  27
ENDBRANCH  22  23
ENDBRANCH   1  22
TORSDOF 16
ENDMDL
MODEL 2
REMARK VINA RESULT:      -8.9      4.500     11.374
REMARK SMILES Cc1noc(C)c1COc1ccc(C(=O)NCCCNC(=O)c2ccc(-c3c4nc(c(-c5ccc(S(=O)(=O)[O-])cc5)c5ccc([nH]5)c(-c5ccc(S(=O)(=O)[O-])cc5)c5nc(c(-c6ccc(S(=O)(=O)[O-])cc6)c6ccc3[nH]6)C=C5)C=C4)cc2)cc1
REMARK SMILES IDX 18 1 17 2 16 3 14 4 15 5 13 7 10 8 11 9 84 10 12 11 83 12
REMARK SMILES IDX 9 13 8 14 7 15 1 16 2 17 3 18 4 19 5 20 6 21 19 22 20 23
REMARK SMILES IDX 21 24 22 26 23 27 24 28 82 29 25 30 81 31 26 32 27 33 28 34
REMARK SMILES IDX 75 35 29 36 80 37 74 38 76 39 30 40 79 41 73 42 72 43 31 45
REMARK SMILES IDX 61 46 42 47 60 48 43 49 46 50 59 51 77 52 44 53 45 54 58 56
REMARK SMILES IDX 78 57 47 58 32 59 33 60 41 61 34 62 40 63 35 64 36 65 37 66
REMARK SMILES IDX 38 67 39 68 62 69 63 70 71 71 64 72 70 73 65 74 66 75 67 76
REMARK SMILES IDX 68 77 69 78 48 79 49 80 57 81 50 82 56 83 51 84 52 85 53 86
REMARK SMILES IDX 54 87 55 88
REMARK H PARENT 16 6 20 25 76 44 46 55
REMARK Flexibility Score: inf
ROOT
ATOM      1  C   UNL A   1      33.185  28.083  25.340  1.00  0.00     0.042 C 
ENDROOT
BRANCH   1   2
ATOM      2  C   UNL A   1      31.658  28.023  25.356  1.00  0.00     0.118 C 
BRANCH   2   3
ATOM      3  N   UNL A   1      31.089  28.336  24.054  1.00  0.00    -0.352 N 
ATOM      4  C   UNL A   1      30.964  27.577  22.916  1.00  0.00     0.251 C 
ATOM      5  O   UNL A   1      30.302  28.024  21.980  1.00  0.00    -0.269 OA
ATOM      6  H   UNL A   1      30.732  29.250  23.976  1.00  0.00     0.163 HD
BRANCH   4   7
ATOM      7  C   UNL A   1      31.559  26.220  22.800  1.00  0.00     0.040 A 
ATOM      8  C   UNL A   1      32.631  23.636  22.702  1.00  0.00     0.119 A 
ATOM      9  C   UNL A   1      31.343  23.828  23.195  1.00  0.00     0.047 A 
ATOM     10  C   UNL A   1      33.336  24.709  22.168  1.00  0.00     0.047 A 
ATOM     11  C   UNL A   1      30.810  25.121  23.248  1.00  0.00     0.017 A 
ATOM     12  C   UNL A   1      32.800  25.992  22.210  1.00  0.00     0.017 A 
BRANCH   8  13
ATOM     13  O   UNL A   1      33.152  22.372  22.645  1.00  0.00    -0.489 OA
BRANCH  13  14
ATOM     14  C   UNL A   1      32.123  21.362  22.601  1.00  0.00     0.271 C 
BRANCH  14  15
ATOM     15  C   UNL A   1      32.224  20.322  23.663  1.00  0.00     0.055 A 
ATOM     16  C   UNL A   1      32.413  18.111  22.268  1.00  0.00     0.071 C 
ATOM     17  C   UNL A   1      32.336  18.909  23.516  1.00  0.00     0.087 A 
ATOM     18  N   UNL A   1      32.434  18.303  24.704  1.00  0.00    -0.085 NA
ATOM     19  O   UNL A   1      32.401  19.306  25.648  1.00  0.00    -0.361 OA
ATOM     20  C   UNL A   1      32.284  20.509  25.029  1.00  0.00     0.140 A 
ATOM     21  C   UNL A   1      32.272  21.693  25.909  1.00  0.00     0.091 C 
ENDBRANCH  14  15
ENDBRANCH  13  14
ENDBRANCH   8  13
ENDBRANCH   4   7
ENDBRANCH   2   3
ENDBRANCH   1   2
BRANCH   1  22
ATOM     22  C   UNL A   1      33.798  28.351  26.710  1.00  0.00     0.118 C 
BRANCH  22  23
ATOM     23  N   UNL A   1      33.613  29.732  27.131  1.00  0.00    -0.352 N 
ATOM     24  C   UNL A   1      34.419  30.527  27.906  1.00  0.00     0.251 C 
ATOM     25  H   UNL A   1      32.786  30.160  26.810  1.00  0.00     0.163 HD
ATOM     26  O   UNL A   1      33.984  31.595  28.329  1.00  0.00    -0.269 OA
BRANCH  24  27
ATOM     27  C   UNL A   1      35.796  30.101  28.240  1.00  0.00     0.039 A 
ATOM     28  C   UNL A   1      36.775  30.134  27.243  1.00  0.00     0.014 A 
ATOM     29  C   UNL A   1      36.117  29.638  29.520  1.00  0.00     0.014 A 
ATOM     30  C   UNL A   1      38.085  29.749  27.542  1.00  0.00     0.010 A 
ATOM     31  C   UNL A   1      37.437  29.329  29.835  1.00  0.00     0.010 A 
ATOM     32  C   UNL A   1      38.433  29.369  28.848  1.00  0.00    -0.014 A 
BRANCH  32  33
ATOM     33  C   UNL A   1      39.824  28.992  29.206  1.00  0.00     0.031 A 
ATOM     34  C   UNL A   1      40.732  30.001  29.857  1.00  0.00     0.074 A 
ATOM     35  C   UNL A   1      40.291  27.770  28.880  1.00  0.00     0.049 A 
ATOM     36  N   UNL A   1      42.002  29.898  30.154  1.00  0.00    -0.248 NA
ATOM     37  C   UNL A   1      40.140  31.307  30.195  1.00  0.00     0.031 C 
ATOM     38  C   UNL A   1      39.519  26.714  28.222  1.00  0.00     0.029 A 
ATOM     39  N   UNL A   1      41.535  27.214  29.047  1.00  0.00    -0.354 N 
ATOM     40  C   UNL A   1      42.366  31.130  30.689  1.00  0.00     0.074 A 
ATOM     41  C   UNL A   1      41.195  31.978  30.632  1.00  0.00     0.031 C 
ATOM     42  C   UNL A   1      40.299  25.634  28.060  1.00  0.00     0.029 A 
ATOM     43  C   UNL A   1      41.639  25.934  28.557  1.00  0.00     0.049 A 
ATOM     44  H   UNL A   1      42.283  27.688  29.477  1.00  0.00     0.167 HD
ATOM     45  C   UNL A   1      43.562  31.514  31.196  1.00  0.00     0.031 A 
ATOM     46  C   UNL A   1      42.694  25.098  28.501  1.00  0.00     0.031 A 
ATOM     47  C   UNL A   1      44.718  30.661  31.260  1.00  0.00     0.049 A 
ATOM     48  C   UNL A   1      44.017  25.553  29.055  1.00  0.00     0.074 A 
ATOM     49  C   UNL A   1      45.961  30.938  31.802  1.00  0.00     0.029 A 
ATOM     50  N   UNL A   1      44.774  29.366  30.767  1.00  0.00    -0.354 N 
ATOM     51  N   UNL A   1      44.327  26.702  29.607  1.00  0.00    -0.248 NA
ATOM     52  C   UNL A   1      45.129  24.595  28.992  1.00  0.00     0.031 C 
ATOM     53  C   UNL A   1      46.786  29.829  31.588  1.00  0.00     0.029 A 
ATOM     54  C   UNL A   1      46.038  28.837  30.973  1.00  0.00     0.049 A 
ATOM     55  H   UNL A   1      44.028  28.892  30.335  1.00  0.00     0.167 HD
ATOM     56  C   UNL A   1      45.661  26.592  29.988  1.00  0.00     0.074 A 
ATOM     57  C   UNL A   1      46.094  25.262  29.611  1.00  0.00     0.031 C 
ATOM     58  C   UNL A   1      46.451  27.508  30.600  1.00  0.00     0.031 A 
BRANCH  45  59
ATOM     59  C   UNL A   1      43.679  32.925  31.715  1.00  0.00    -0.014 A 
ATOM     60  C   UNL A   1      44.053  33.984  30.867  1.00  0.00     0.010 A 
ATOM     61  C   UNL A   1      43.373  33.202  33.059  1.00  0.00     0.010 A 
ATOM     62  C   UNL A   1      44.161  35.285  31.366  1.00  0.00     0.020 A 
ATOM     63  C   UNL A   1      43.450  34.508  33.554  1.00  0.00     0.020 A 
ATOM     64  C   UNL A   1      43.862  35.538  32.707  1.00  0.00     0.054 A 
BRANCH  64  65
ATOM     65  S   UNL A   1      43.993  37.240  33.320  1.00  0.00     0.124 S 
ATOM     66  O   UNL A   1      44.042  38.005  32.076  1.00  0.00    -0.237 OA
ATOM     67  O   UNL A   1      42.769  37.394  34.102  1.00  0.00    -0.237 OA
ATOM     68  O   UNL A   1      45.229  37.236  34.097  1.00  0.00    -0.744 OA
ENDBRANCH  64  65
ENDBRANCH  45  59
BRANCH  46  69
ATOM     69  C   UNL A   1      42.539  23.742  27.904  1.00  0.00    -0.014 A 
ATOM     70  C   UNL A   1      42.023  22.682  28.669  1.00  0.00     0.010 A 
ATOM     71  C   UNL A   1      42.894  23.507  26.563  1.00  0.00     0.010 A 
ATOM     72  C   UNL A   1      41.885  21.407  28.112  1.00  0.00     0.020 A 
ATOM     73  C   UNL A   1      42.728  22.241  25.994  1.00  0.00     0.020 A 
ATOM     74  C   UNL A   1      42.236  21.196  26.776  1.00  0.00     0.054 A 
BRANCH  74  75
ATOM     75  S   UNL A   1      42.004  19.544  26.062  1.00  0.00     0.124 S 
ATOM     76  O   UNL A   1      42.812  19.620  24.850  1.00  0.00    -0.237 OA
ATOM     77  O   UNL A   1      42.519  18.671  27.114  1.00  0.00    -0.237 OA
ATOM     78  O   UNL A   1      40.560  19.464  25.849  1.00  0.00    -0.744 OA
ENDBRANCH  74  75
ENDBRANCH  46  69
BRANCH  58  79
ATOM     79  C   UNL A   1      47.855  27.093  30.953  1.00  0.00    -0.014 A 
ATOM     80  C   UNL A   1      48.130  26.344  32.110  1.00  0.00     0.010 A 
ATOM     81  C   UNL A   1      48.906  27.396  30.066  1.00  0.00     0.010 A 
ATOM     82  C   UNL A   1      49.435  25.925  32.385  1.00  0.00     0.020 A 
ATOM     83  C   UNL A   1      50.205  26.954  30.322  1.00  0.00     0.020 A 
ATOM     84  C   UNL A   1      50.464  26.230  31.487  1.00  0.00     0.054 A 
BRANCH  84  85
ATOM     85  S   UNL A   1      52.136  25.620  31.836  1.00  0.00     0.124 S 
ATOM     86  O   UNL A   1      51.887  24.221  32.169  1.00  0.00    -0.237 OA
ATOM     87  O   UNL A   1      52.832  25.852  30.573  1.00  0.00    -0.237 OA
ATOM     88  O   UNL A   1      52.584  26.455  32.949  1.00  0.00    -0.744 OA
ENDBRANCH  84  85
ENDBRANCH  58  79
ENDBRANCH  32  33
ENDBRANCH  24  27
ENDBRANCH  22  23
ENDBRANCH   1  22
TORSDOF 16
ENDMDL
MODEL 3
REMARK VINA RESULT:      -8.8      4.227     11.079
REMARK SMILES Cc1noc(C)c1COc1ccc(C(=O)NCCCNC(=O)c2ccc(-c3c4nc(c(-c5ccc(S(=O)(=O)[O-])cc5)c5ccc([nH]5)c(-c5ccc(S(=O)(=O)[O-])cc5)c5nc(c(-c6ccc(S(=O)(=O)[O-])cc6)c6ccc3[nH]6)C=C5)C=C4)cc2)cc1
REMARK SMILES IDX 18 1 17 2 16 3 14 4 15 5 13 7 10 8 11 9 84 10 12 11 83 12
REMARK SMILES IDX 9 13 8 14 7 15 1 16 2 17 3 18 4 19 5 20 6 21 19 22 20 23
REMARK SMILES IDX 21 24 22 26 23 27 24 28 82 29 25 30 81 31 26 32 27 33 28 34
REMARK SMILES IDX 75 35 29 36 80 37 74 38 76 39 30 40 79 41 73 42 72 43 31 45
REMARK SMILES IDX 61 46 42 47 60 48 43 49 46 50 59 51 77 52 44 53 45 54 58 56
REMARK SMILES IDX 78 57 47 58 32 59 33 60 41 61 34 62 40 63 35 64 36 65 37 66
REMARK SMILES IDX 38 67 39 68 62 69 63 70 71 71 64 72 70 73 65 74 66 75 67 76
REMARK SMILES IDX 68 77 69 78 48 79 49 80 57 81 50 82 56 83 51 84 52 85 53 86
REMARK SMILES IDX 54 87 55 88
REMARK H PARENT 16 6 20 25 76 44 46 55
REMARK Flexibility Score: inf
ROOT
ATOM      1  C   UNL A   1      33.360  28.063  25.152  1.00  0.00     0.042 C 
ENDROOT
BRANCH   1   2
ATOM      2  C   UNL A   1      31.868  28.373  25.255  1.00  0.00     0.118 C 
BRANCH   2   3
ATOM      3  N   UNL A   1      31.270  28.605  23.950  1.00  0.00    -0.352 N 
ATOM      4  C   UNL A   1      30.899  27.731  22.956  1.00  0.00     0.251 C 
ATOM      5  O   UNL A   1      30.268  28.166  21.995  1.00  0.00    -0.269 OA
ATOM      6  H   UNL A   1      31.102  29.552  23.743  1.00  0.00     0.163 HD
BRANCH   4   7
ATOM      7  C   UNL A   1      31.193  26.276  23.033  1.00  0.00     0.040 A 
ATOM      8  C   UNL A   1      31.782  23.540  23.049  1.00  0.00     0.119 A 
ATOM      9  C   UNL A   1      32.633  24.421  22.389  1.00  0.00     0.047 A 
ATOM     10  C   UNL A   1      30.705  24.030  23.780  1.00  0.00     0.047 A 
ATOM     11  C   UNL A   1      32.335  25.789  22.378  1.00  0.00     0.017 A 
ATOM     12  C   UNL A   1      30.418  25.391  23.778  1.00  0.00     0.017 A 
BRANCH   8  13
ATOM     13  O   UNL A   1      32.074  22.203  23.066  1.00  0.00    -0.489 OA
BRANCH  13  14
ATOM     14  C   UNL A   1      32.207  21.692  24.408  1.00  0.00     0.271 C 
BRANCH  14  15
ATOM     15  C   UNL A   1      33.611  21.564  24.892  1.00  0.00     0.055 A 
ATOM     16  C   UNL A   1      34.120  23.975  25.783  1.00  0.00     0.071 C 
ATOM     17  C   UNL A   1      34.443  22.560  25.476  1.00  0.00     0.087 A 
ATOM     18  N   UNL A   1      35.637  22.060  25.813  1.00  0.00    -0.085 NA
ATOM     19  O   UNL A   1      35.603  20.727  25.468  1.00  0.00    -0.361 OA
ATOM     20  C   UNL A   1      34.394  20.428  24.927  1.00  0.00     0.140 A 
ATOM     21  C   UNL A   1      34.187  19.020  24.538  1.00  0.00     0.091 C 
ENDBRANCH  14  15
ENDBRANCH  13  14
ENDBRANCH   8  13
ENDBRANCH   4   7
ENDBRANCH   2   3
ENDBRANCH   1   2
BRANCH   1  22
ATOM     22  C   UNL A   1      34.130  28.336  26.439  1.00  0.00     0.118 C 
BRANCH  22  23
ATOM     23  N   UNL A   1      33.805  29.638  27.003  1.00  0.00    -0.352 N 
ATOM     24  C   UNL A   1      34.516  30.412  27.886  1.00  0.00     0.251 C 
ATOM     25  H   UNL A   1      32.948  30.021  26.706  1.00  0.00     0.163 HD
ATOM     26  O   UNL A   1      33.973  31.381  28.410  1.00  0.00    -0.269 OA
BRANCH  24  27
ATOM     27  C   UNL A   1      35.920  30.080  28.214  1.00  0.00     0.039 A 
ATOM     28  C   UNL A   1      36.230  29.650  29.507  1.00  0.00     0.014 A 
ATOM     29  C   UNL A   1      36.936  30.226  27.264  1.00  0.00     0.014 A 
ATOM     30  C   UNL A   1      37.548  29.318  29.832  1.00  0.00     0.010 A 
ATOM     31  C   UNL A   1      38.233  29.822  27.567  1.00  0.00     0.010 A 
ATOM     32  C   UNL A   1      38.556  29.375  28.857  1.00  0.00    -0.014 A 
BRANCH  32  33
ATOM     33  C   UNL A   1      39.958  28.993  29.162  1.00  0.00     0.031 A 
ATOM     34  C   UNL A   1      40.899  30.004  29.761  1.00  0.00     0.074 A 
ATOM     35  C   UNL A   1      40.404  27.764  28.832  1.00  0.00     0.049 A 
ATOM     36  N   UNL A   1      42.180  29.897  30.006  1.00  0.00    -0.248 NA
ATOM     37  C   UNL A   1      40.329  31.319  30.107  1.00  0.00     0.031 C 
ATOM     38  C   UNL A   1      39.599  26.705  28.221  1.00  0.00     0.029 A 
ATOM     39  N   UNL A   1      41.651  27.203  28.954  1.00  0.00    -0.354 N 
ATOM     40  C   UNL A   1      42.573  31.133  30.510  1.00  0.00     0.074 A 
ATOM     41  C   UNL A   1      41.406  31.988  30.491  1.00  0.00     0.031 C 
ATOM     42  C   UNL A   1      40.365  25.618  28.039  1.00  0.00     0.029 A 
ATOM     43  C   UNL A   1      41.726  25.915  28.477  1.00  0.00     0.049 A 
ATOM     44  H   UNL A   1      42.419  27.677  29.346  1.00  0.00     0.167 HD
ATOM     45  C   UNL A   1      43.791  31.516  30.962  1.00  0.00     0.031 A 
ATOM     46  C   UNL A   1      42.774  25.073  28.387  1.00  0.00     0.031 A 
ATOM     47  C   UNL A   1      44.944  30.656  30.988  1.00  0.00     0.049 A 
ATOM     48  C   UNL A   1      44.121  25.526  28.880  1.00  0.00     0.074 A 
ATOM     49  C   UNL A   1      46.210  30.931  31.474  1.00  0.00     0.029 A 
ATOM     50  N   UNL A   1      44.972  29.355  30.510  1.00  0.00    -0.354 N 
ATOM     51  N   UNL A   1      44.461  26.680  29.403  1.00  0.00    -0.248 NA
ATOM     52  C   UNL A   1      45.224  24.560  28.782  1.00  0.00     0.031 C 
ATOM     53  C   UNL A   1      47.019  29.815  31.240  1.00  0.00     0.029 A 
ATOM     54  C   UNL A   1      46.240  28.821  30.669  1.00  0.00     0.049 A 
ATOM     55  H   UNL A   1      44.205  28.881  30.115  1.00  0.00     0.167 HD
ATOM     56  C   UNL A   1      45.809  26.566  29.730  1.00  0.00     0.074 A 
ATOM     57  C   UNL A   1      46.218  25.228  29.352  1.00  0.00     0.031 C 
ATOM     58  C   UNL A   1      46.629  27.484  30.296  1.00  0.00     0.031 A 
BRANCH  45  59
ATOM     59  C   UNL A   1      43.939  32.932  31.457  1.00  0.00    -0.014 A 
ATOM     60  C   UNL A   1      44.384  33.960  30.605  1.00  0.00     0.010 A 
ATOM     61  C   UNL A   1      43.589  33.248  32.782  1.00  0.00     0.010 A 
ATOM     62  C   UNL A   1      44.520  35.265  31.082  1.00  0.00     0.020 A 
ATOM     63  C   UNL A   1      43.692  34.561  33.254  1.00  0.00     0.020 A 
ATOM     64  C   UNL A   1      44.175  35.558  32.405  1.00  0.00     0.054 A 
BRANCH  64  65
ATOM     65  S   UNL A   1      44.343  37.267  32.988  1.00  0.00     0.124 S 
ATOM     66  O   UNL A   1      45.718  37.283  33.481  1.00  0.00    -0.237 OA
ATOM     67  O   UNL A   1      44.102  38.045  31.776  1.00  0.00    -0.237 OA
ATOM     68  O   UNL A   1      43.312  37.385  34.017  1.00  0.00    -0.744 OA
ENDBRANCH  64  65
ENDBRANCH  45  59
BRANCH  46  69
ATOM     69  C   UNL A   1      42.586  23.710  27.815  1.00  0.00    -0.014 A 
ATOM     70  C   UNL A   1      42.193  22.640  28.637  1.00  0.00     0.010 A 
ATOM     71  C   UNL A   1      42.786  23.479  26.441  1.00  0.00     0.010 A 
ATOM     72  C   UNL A   1      42.024  21.359  28.102  1.00  0.00     0.020 A 
ATOM     73  C   UNL A   1      42.588  22.206  25.897  1.00  0.00     0.020 A 
ATOM     74  C   UNL A   1      42.220  21.152  26.733  1.00  0.00     0.054 A 
BRANCH  74  75
ATOM     75  S   UNL A   1      41.950  19.491  26.055  1.00  0.00     0.124 S 
ATOM     76  O   UNL A   1      40.532  19.531  25.710  1.00  0.00    -0.237 OA
ATOM     77  O   UNL A   1      42.876  19.457  24.926  1.00  0.00    -0.237 OA
ATOM     78  O   UNL A   1      42.300  18.607  27.165  1.00  0.00    -0.744 OA
ENDBRANCH  74  75
ENDBRANCH  46  69
BRANCH  58  79
ATOM     79  C   UNL A   1      48.044  27.065  30.596  1.00  0.00    -0.014 A 
ATOM     80  C   UNL A   1      49.088  27.298  29.683  1.00  0.00     0.010 A 
ATOM     81  C   UNL A   1      48.343  26.496  31.848  1.00  0.00     0.010 A 
ATOM     82  C   UNL A   1      50.401  26.949  30.009  1.00  0.00     0.020 A 
ATOM     83  C   UNL A   1      49.658  26.174  32.189  1.00  0.00     0.020 A 
ATOM     84  C   UNL A   1      50.679  26.393  31.262  1.00  0.00     0.054 A 
BRANCH  84  85
ATOM     85  S   UNL A   1      52.400  26.008  31.684  1.00  0.00     0.124 S 
ATOM     86  O   UNL A   1      52.681  26.981  32.735  1.00  0.00    -0.237 OA
ATOM     87  O   UNL A   1      52.319  24.616  32.120  1.00  0.00    -0.237 OA
ATOM     88  O   UNL A   1      53.121  26.220  30.430  1.00  0.00    -0.744 OA
ENDBRANCH  84  85
ENDBRANCH  58  79
ENDBRANCH  32  33
ENDBRANCH  24  27
ENDBRANCH  22  23
ENDBRANCH   1  22
TORSDOF 16
ENDMDL
