MODEL 1
REMARK VINA RESULT:     -12.8      0.000      0.000
REMARK SMILES Cc1cc(C)n(-c2nc(C)c(C)c(Oc3cccc(C(=O)NCCCNC(=O)c4ccc(-c5c6nc(c(-c7ccc(S(=O)(=O)[O-])cc7)c7ccc([nH]7)c(-c7ccc(S(=O)(=O)[O-])cc7)c7nc(c(-c8ccc(S(=O)(=O)[O-])cc8)c8ccc5[nH]8)C=C7)C=C6)cc4)c3)n2)n1
REMARK SMILES IDX 24 1 23 2 22 3 20 4 21 5 19 7 15 8 16 9 89 10 17 11 18 12
REMARK SMILES IDX 14 13 13 14 7 15 8 16 90 17 9 18 10 19 11 20 12 21 6 22 1 23
REMARK SMILES IDX 2 24 3 25 91 26 4 27 5 28 25 29 26 30 27 31 28 33 29 34
REMARK SMILES IDX 30 35 88 36 31 37 87 38 32 39 33 40 34 41 81 42 35 43 86 44
REMARK SMILES IDX 80 45 82 46 36 47 85 48 79 49 78 50 37 52 67 53 48 54 66 55
REMARK SMILES IDX 49 56 52 57 65 58 83 59 50 60 51 61 64 63 84 64 53 65 38 66
REMARK SMILES IDX 39 67 47 68 40 69 46 70 41 71 42 72 43 73 44 74 45 75 68 76
REMARK SMILES IDX 69 77 77 78 70 79 76 80 71 81 72 82 73 83 74 84 75 85 54 86
REMARK SMILES IDX 55 87 63 88 56 89 62 90 57 91 58 92 59 93 60 94 61 95
REMARK H PARENT 22 6 26 32 82 51 52 62
REMARK Flexibility Score: inf
ROOT
ATOM      1  C   UNL A   1      37.274  22.227  24.759  1.00  0.00     0.042 C 
ENDROOT
BRANCH   1   2
ATOM      2  C   UNL A   1      36.562  23.406  24.078  1.00  0.00     0.118 C 
BRANCH   2   3
ATOM      3  N   UNL A   1      35.442  22.959  23.267  1.00  0.00    -0.352 N 
ATOM      4  C   UNL A   1      34.102  22.816  23.529  1.00  0.00     0.251 C 
ATOM      5  O   UNL A   1      33.384  22.456  22.594  1.00  0.00    -0.269 OA
ATOM      6  H   UNL A   1      35.694  22.709  22.349  1.00  0.00     0.163 HD
BRANCH   4   7
ATOM      7  C   UNL A   1      33.468  23.115  24.847  1.00  0.00     0.043 A 
ATOM      8  C   UNL A   1      31.980  24.342  26.320  1.00  0.00     0.130 A 
ATOM      9  C   UNL A   1      32.218  23.439  27.350  1.00  0.00     0.047 A 
ATOM     10  C   UNL A   1      32.673  24.229  25.113  1.00  0.00     0.061 A 
ATOM     11  C   UNL A   1      33.088  22.372  27.140  1.00  0.00     0.005 A 
ATOM     12  C   UNL A   1      33.689  22.198  25.889  1.00  0.00     0.014 A 
BRANCH   8  13
ATOM     13  O   UNL A   1      31.100  25.371  26.561  1.00  0.00    -0.439 OA
BRANCH  13  14
ATOM     14  C   UNL A   1      31.443  26.645  26.095  1.00  0.00     0.227 A 
ATOM     15  C   UNL A   1      32.682  28.566  26.248  1.00  0.00     0.254 A 
ATOM     16  N   UNL A   1      32.039  29.116  25.195  1.00  0.00    -0.216 NA
ATOM     17  N   UNL A   1      32.443  27.322  26.698  1.00  0.00    -0.175 NA
ATOM     18  C   UNL A   1      31.136  28.360  24.534  1.00  0.00     0.050 A 
ATOM     19  C   UNL A   1      30.683  28.938  23.225  1.00  0.00     0.067 C 
ATOM     20  C   UNL A   1      30.744  27.111  24.990  1.00  0.00     0.033 A 
ATOM     21  C   UNL A   1      29.672  26.310  24.321  1.00  0.00     0.052 C 
BRANCH  15  22
ATOM     22  N   UNL A   1      33.685  29.373  26.896  1.00  0.00    -0.203 N 
ATOM     23  C   UNL A   1      37.084  29.812  27.873  1.00  0.00     0.069 C 
ATOM     24  C   UNL A   1      35.635  29.938  27.579  1.00  0.00     0.060 A 
ATOM     25  C   UNL A   1      34.855  31.109  27.627  1.00  0.00     0.049 A 
ATOM     26  N   UNL A   1      34.912  28.870  27.226  1.00  0.00    -0.170 NA
ATOM     27  C   UNL A   1      33.597  30.724  27.221  1.00  0.00     0.045 A 
ATOM     28  C   UNL A   1      32.335  31.506  27.183  1.00  0.00     0.067 C 
ENDBRANCH  15  22
ENDBRANCH  13  14
ENDBRANCH   8  13
ENDBRANCH   4   7
ENDBRANCH   2   3
ENDBRANCH   1   2
BRANCH   1  29
ATOM     29  C   UNL A   1      37.870  22.638  26.093  1.00  0.00     0.118 C 
BRANCH  29  30
ATOM     30  N   UNL A   1      39.147  21.964  26.360  1.00  0.00    -0.352 N 
ATOM     31  C   UNL A   1      40.387  22.515  26.651  1.00  0.00     0.251 C 
ATOM     32  H   UNL A   1      39.121  20.979  26.329  1.00  0.00     0.163 HD
ATOM     33  O   UNL A   1      41.404  21.859  26.515  1.00  0.00    -0.269 OA
BRANCH  31  34
ATOM     34  C   UNL A   1      40.436  23.909  27.130  1.00  0.00     0.039 A 
ATOM     35  C   UNL A   1      39.393  24.818  26.936  1.00  0.00     0.014 A 
ATOM     36  C   UNL A   1      41.573  24.284  27.831  1.00  0.00     0.014 A 
ATOM     37  C   UNL A   1      39.504  26.083  27.514  1.00  0.00     0.010 A 
ATOM     38  C   UNL A   1      41.542  25.386  28.626  1.00  0.00     0.010 A 
ATOM     39  C   UNL A   1      40.586  26.349  28.368  1.00  0.00    -0.014 A 
BRANCH  39  40
ATOM     40  C   UNL A   1      40.763  27.611  29.061  1.00  0.00     0.031 A 
ATOM     41  C   UNL A   1      41.810  28.481  28.482  1.00  0.00     0.074 A 
ATOM     42  C   UNL A   1      39.892  28.053  29.996  1.00  0.00     0.049 A 
ATOM     43  N   UNL A   1      42.980  28.713  28.970  1.00  0.00    -0.248 NA
ATOM     44  C   UNL A   1      41.609  29.018  27.127  1.00  0.00     0.031 C 
ATOM     45  C   UNL A   1      38.624  27.454  30.446  1.00  0.00     0.029 A 
ATOM     46  N   UNL A   1      39.912  29.224  30.678  1.00  0.00    -0.354 N 
ATOM     47  C   UNL A   1      43.584  29.611  28.101  1.00  0.00     0.074 A 
ATOM     48  C   UNL A   1      42.786  29.604  26.900  1.00  0.00     0.031 C 
ATOM     49  C   UNL A   1      37.905  28.369  31.138  1.00  0.00     0.029 A 
ATOM     50  C   UNL A   1      38.733  29.541  31.342  1.00  0.00     0.049 A 
ATOM     51  H   UNL A   1      40.706  29.807  30.702  1.00  0.00     0.167 HD
ATOM     52  C   UNL A   1      44.557  30.462  28.531  1.00  0.00     0.031 A 
ATOM     53  C   UNL A   1      38.470  30.695  32.009  1.00  0.00     0.031 A 
ATOM     54  C   UNL A   1      44.999  30.122  29.862  1.00  0.00     0.049 A 
ATOM     55  C   UNL A   1      39.789  31.292  32.340  1.00  0.00     0.074 A 
ATOM     56  C   UNL A   1      45.620  29.029  30.432  1.00  0.00     0.029 A 
ATOM     57  N   UNL A   1      44.410  30.809  30.902  1.00  0.00    -0.354 N 
ATOM     58  N   UNL A   1      40.644  30.724  33.146  1.00  0.00    -0.248 NA
ATOM     59  C   UNL A   1      40.356  32.255  31.412  1.00  0.00     0.031 C 
ATOM     60  C   UNL A   1      44.980  28.858  31.696  1.00  0.00     0.029 A 
ATOM     61  C   UNL A   1      44.060  29.896  31.866  1.00  0.00     0.049 A 
ATOM     62  H   UNL A   1      44.267  31.782  30.946  1.00  0.00     0.167 HD
ATOM     63  C   UNL A   1      41.881  30.915  32.548  1.00  0.00     0.074 A 
ATOM     64  C   UNL A   1      41.651  31.946  31.534  1.00  0.00     0.031 C 
ATOM     65  C   UNL A   1      42.904  30.027  32.734  1.00  0.00     0.031 A 
BRANCH  52  66
ATOM     66  C   UNL A   1      44.832  31.815  27.929  1.00  0.00    -0.014 A 
ATOM     67  C   UNL A   1      46.158  32.138  27.579  1.00  0.00     0.010 A 
ATOM     68  C   UNL A   1      43.894  32.867  27.931  1.00  0.00     0.010 A 
ATOM     69  C   UNL A   1      46.541  33.459  27.319  1.00  0.00     0.020 A 
ATOM     70  C   UNL A   1      44.256  34.183  27.631  1.00  0.00     0.020 A 
ATOM     71  C   UNL A   1      45.586  34.475  27.362  1.00  0.00     0.054 A 
BRANCH  71  72
ATOM     72  S   UNL A   1      46.115  36.191  27.137  1.00  0.00     0.124 S 
ATOM     73  O   UNL A   1      47.135  36.329  28.171  1.00  0.00    -0.237 OA
ATOM     74  O   UNL A   1      46.603  36.184  25.760  1.00  0.00    -0.237 OA
ATOM     75  O   UNL A   1      44.891  36.957  27.356  1.00  0.00    -0.744 OA
ENDBRANCH  71  72
ENDBRANCH  52  66
BRANCH  53  76
ATOM     76  C   UNL A   1      37.205  31.472  32.061  1.00  0.00    -0.014 A 
ATOM     77  C   UNL A   1      36.733  31.999  33.280  1.00  0.00     0.010 A 
ATOM     78  C   UNL A   1      36.631  31.967  30.871  1.00  0.00     0.010 A 
ATOM     79  C   UNL A   1      35.785  33.038  33.304  1.00  0.00     0.020 A 
ATOM     80  C   UNL A   1      35.684  33.001  30.889  1.00  0.00     0.020 A 
ATOM     81  C   UNL A   1      35.288  33.553  32.104  1.00  0.00     0.054 A 
BRANCH  81  82
ATOM     82  S   UNL A   1      34.222  35.029  32.140  1.00  0.00     0.124 S 
ATOM     83  O   UNL A   1      35.004  35.959  32.950  1.00  0.00    -0.237 OA
ATOM     84  O   UNL A   1      34.105  35.369  30.725  1.00  0.00    -0.237 OA
ATOM     85  O   UNL A   1      32.989  34.549  32.763  1.00  0.00    -0.744 OA
ENDBRANCH  81  82
ENDBRANCH  53  76
BRANCH  65  86
ATOM     86  C   UNL A   1      42.732  28.955  33.794  1.00  0.00    -0.014 A 
ATOM     87  C   UNL A   1      43.204  29.075  35.119  1.00  0.00     0.010 A 
ATOM     88  C   UNL A   1      41.936  27.843  33.473  1.00  0.00     0.010 A 
ATOM     89  C   UNL A   1      42.910  28.093  36.082  1.00  0.00     0.020 A 
ATOM     90  C   UNL A   1      41.626  26.872  34.430  1.00  0.00     0.020 A 
ATOM     91  C   UNL A   1      42.123  26.994  35.727  1.00  0.00     0.054 A 
BRANCH  91  92
ATOM     92  S   UNL A   1      41.726  25.736  36.975  1.00  0.00     0.124 S 
ATOM     93  O   UNL A   1      42.900  25.764  37.842  1.00  0.00    -0.237 OA
ATOM     94  O   UNL A   1      40.492  26.244  37.570  1.00  0.00    -0.237 OA
ATOM     95  O   UNL A   1      41.567  24.508  36.194  1.00  0.00    -0.744 OA
ENDBRANCH  91  92
ENDBRANCH  65  86
ENDBRANCH  39  40
ENDBRANCH  31  34
ENDBRANCH  29  30
ENDBRANCH   1  29
TORSDOF 16
ENDMDL
MODEL 2
REMARK VINA RESULT:     -12.5      2.678      9.556
REMARK SMILES Cc1cc(C)n(-c2nc(C)c(C)c(Oc3cccc(C(=O)NCCCNC(=O)c4ccc(-c5c6nc(c(-c7ccc(S(=O)(=O)[O-])cc7)c7ccc([nH]7)c(-c7ccc(S(=O)(=O)[O-])cc7)c7nc(c(-c8ccc(S(=O)(=O)[O-])cc8)c8ccc5[nH]8)C=C7)C=C6)cc4)c3)n2)n1
REMARK SMILES IDX 24 1 23 2 22 3 20 4 21 5 19 7 15 8 16 9 89 10 17 11 18 12
REMARK SMILES IDX 14 13 13 14 7 15 8 16 90 17 9 18 10 19 11 20 12 21 6 22 1 23
REMARK SMILES IDX 2 24 3 25 91 26 4 27 5 28 25 29 26 30 27 31 28 33 29 34
REMARK SMILES IDX 30 35 88 36 31 37 87 38 32 39 33 40 34 41 81 42 35 43 86 44
REMARK SMILES IDX 80 45 82 46 36 47 85 48 79 49 78 50 37 52 67 53 48 54 66 55
REMARK SMILES IDX 49 56 52 57 65 58 83 59 50 60 51 61 64 63 84 64 53 65 38 66
REMARK SMILES IDX 39 67 47 68 40 69 46 70 41 71 42 72 43 73 44 74 45 75 68 76
REMARK SMILES IDX 69 77 77 78 70 79 76 80 71 81 72 82 73 83 74 84 75 85 54 86
REMARK SMILES IDX 55 87 63 88 56 89 62 90 57 91 58 92 59 93 60 94 61 95
REMARK H PARENT 22 6 26 32 82 51 52 62
REMARK Flexibility Score: inf
ROOT
ATOM      1  C   UNL A   1      32.455  29.856  26.727  1.00  0.00     0.042 C 
ENDROOT
BRANCH   1   2
ATOM      2  C   UNL A   1      32.222  28.997  25.475  1.00  0.00     0.118 C 
BRANCH   2   3
ATOM      3  N   UNL A   1      33.251  29.220  24.473  1.00  0.00    -0.352 N 
ATOM      4  C   UNL A   1      33.784  28.421  23.492  1.00  0.00     0.251 C 
ATOM      5  O   UNL A   1      34.628  28.931  22.752  1.00  0.00    -0.269 OA
ATOM      6  H   UNL A   1      33.644  30.122  24.505  1.00  0.00     0.163 HD
BRANCH   4   7
ATOM      7  C   UNL A   1      33.371  27.008  23.245  1.00  0.00     0.043 A 
ATOM      8  C   UNL A   1      32.837  24.744  23.934  1.00  0.00     0.130 A 
ATOM      9  C   UNL A   1      32.400  24.432  22.651  1.00  0.00     0.047 A 
ATOM     10  C   UNL A   1      33.403  25.992  24.199  1.00  0.00     0.061 A 
ATOM     11  C   UNL A   1      32.452  25.402  21.654  1.00  0.00     0.005 A 
ATOM     12  C   UNL A   1      32.911  26.688  21.956  1.00  0.00     0.014 A 
BRANCH   8  13
ATOM     13  O   UNL A   1      32.752  23.764  24.896  1.00  0.00    -0.439 OA
BRANCH  13  14
ATOM     14  C   UNL A   1      33.798  22.839  24.979  1.00  0.00     0.227 A 
ATOM     15  C   UNL A   1      35.986  22.325  25.424  1.00  0.00     0.254 A 
ATOM     16  N   UNL A   1      35.798  21.032  25.078  1.00  0.00    -0.216 NA
ATOM     17  N   UNL A   1      35.004  23.244  25.429  1.00  0.00    -0.175 NA
ATOM     18  C   UNL A   1      34.548  20.634  24.759  1.00  0.00     0.050 A 
ATOM     19  C   UNL A   1      34.377  19.145  24.666  1.00  0.00     0.067 C 
ATOM     20  C   UNL A   1      33.498  21.529  24.629  1.00  0.00     0.033 A 
ATOM     21  C   UNL A   1      32.134  21.111  24.178  1.00  0.00     0.052 C 
BRANCH  15  22
ATOM     22  N   UNL A   1      37.317  22.709  25.820  1.00  0.00    -0.203 N 
ATOM     23  C   UNL A   1      39.455  25.018  27.491  1.00  0.00     0.069 C 
ATOM     24  C   UNL A   1      38.842  23.879  26.766  1.00  0.00     0.060 A 
ATOM     25  C   UNL A   1      39.431  22.631  26.485  1.00  0.00     0.049 A 
ATOM     26  N   UNL A   1      37.597  23.963  26.285  1.00  0.00    -0.170 NA
ATOM     27  C   UNL A   1      38.452  21.903  25.847  1.00  0.00     0.045 A 
ATOM     28  C   UNL A   1      38.532  20.561  25.217  1.00  0.00     0.067 C 
ENDBRANCH  15  22
ENDBRANCH  13  14
ENDBRANCH   8  13
ENDBRANCH   4   7
ENDBRANCH   2   3
ENDBRANCH   1   2
BRANCH   1  29
ATOM     29  C   UNL A   1      33.935  30.092  26.967  1.00  0.00     0.118 C 
BRANCH  29  30
ATOM     30  N   UNL A   1      34.228  31.497  27.280  1.00  0.00    -0.352 N 
ATOM     31  C   UNL A   1      35.242  32.030  28.063  1.00  0.00     0.251 C 
ATOM     32  H   UNL A   1      33.619  32.157  26.874  1.00  0.00     0.163 HD
ATOM     33  O   UNL A   1      35.158  33.163  28.499  1.00  0.00    -0.269 OA
BRANCH  31  34
ATOM     34  C   UNL A   1      36.418  31.186  28.349  1.00  0.00     0.039 A 
ATOM     35  C   UNL A   1      36.501  29.842  27.978  1.00  0.00     0.014 A 
ATOM     36  C   UNL A   1      37.483  31.806  28.989  1.00  0.00     0.014 A 
ATOM     37  C   UNL A   1      37.698  29.165  28.213  1.00  0.00     0.010 A 
ATOM     38  C   UNL A   1      38.719  31.240  28.941  1.00  0.00     0.010 A 
ATOM     39  C   UNL A   1      38.805  29.885  28.689  1.00  0.00    -0.014 A 
BRANCH  39  40
ATOM     40  C   UNL A   1      40.108  29.287  28.913  1.00  0.00     0.031 A 
ATOM     41  C   UNL A   1      40.425  29.036  30.336  1.00  0.00     0.074 A 
ATOM     42  C   UNL A   1      40.857  28.785  27.906  1.00  0.00     0.049 A 
ATOM     43  N   UNL A   1      41.247  29.700  31.074  1.00  0.00    -0.248 NA
ATOM     44  C   UNL A   1      39.618  28.051  31.074  1.00  0.00     0.031 C 
ATOM     45  C   UNL A   1      40.535  28.663  26.474  1.00  0.00     0.029 A 
ATOM     46  N   UNL A   1      42.059  28.161  27.981  1.00  0.00    -0.354 N 
ATOM     47  C   UNL A   1      41.236  29.075  32.314  1.00  0.00     0.074 A 
ATOM     48  C   UNL A   1      40.084  28.208  32.315  1.00  0.00     0.031 C 
ATOM     49  C   UNL A   1      41.404  27.811  25.879  1.00  0.00     0.029 A 
ATOM     50  C   UNL A   1      42.445  27.482  26.832  1.00  0.00     0.049 A 
ATOM     51  H   UNL A   1      42.617  28.188  28.792  1.00  0.00     0.167 HD
ATOM     52  C   UNL A   1      42.311  29.146  33.147  1.00  0.00     0.031 A 
ATOM     53  C   UNL A   1      43.549  26.705  26.689  1.00  0.00     0.031 A 
ATOM     54  C   UNL A   1      43.274  30.113  32.678  1.00  0.00     0.049 A 
ATOM     55  C   UNL A   1      44.495  27.128  27.753  1.00  0.00     0.074 A 
ATOM     56  C   UNL A   1      43.264  31.478  32.478  1.00  0.00     0.029 A 
ATOM     57  N   UNL A   1      44.320  29.626  31.923  1.00  0.00    -0.354 N 
ATOM     58  N   UNL A   1      45.028  28.319  27.798  1.00  0.00    -0.248 NA
ATOM     59  C   UNL A   1      44.465  26.412  29.018  1.00  0.00     0.031 C 
ATOM     60  C   UNL A   1      43.985  31.679  31.263  1.00  0.00     0.029 A 
ATOM     61  C   UNL A   1      44.463  30.440  30.826  1.00  0.00     0.049 A 
ATOM     62  H   UNL A   1      44.867  28.836  32.134  1.00  0.00     0.167 HD
ATOM     63  C   UNL A   1      44.996  28.674  29.139  1.00  0.00     0.074 A 
ATOM     64  C   UNL A   1      44.728  27.424  29.852  1.00  0.00     0.031 C 
ATOM     65  C   UNL A   1      44.909  29.984  29.523  1.00  0.00     0.031 A 
BRANCH  52  66
ATOM     66  C   UNL A   1      42.679  28.087  34.153  1.00  0.00    -0.014 A 
ATOM     67  C   UNL A   1      42.858  28.470  35.497  1.00  0.00     0.010 A 
ATOM     68  C   UNL A   1      43.106  26.793  33.792  1.00  0.00     0.010 A 
ATOM     69  C   UNL A   1      43.499  27.629  36.414  1.00  0.00     0.020 A 
ATOM     70  C   UNL A   1      43.709  25.929  34.710  1.00  0.00     0.020 A 
ATOM     71  C   UNL A   1      43.934  26.367  36.007  1.00  0.00     0.054 A 
BRANCH  71  72
ATOM     72  S   UNL A   1      44.862  25.338  37.170  1.00  0.00     0.124 S 
ATOM     73  O   UNL A   1      44.649  24.001  36.624  1.00  0.00    -0.237 OA
ATOM     74  O   UNL A   1      46.216  25.869  37.037  1.00  0.00    -0.237 OA
ATOM     75  O   UNL A   1      44.215  25.603  38.453  1.00  0.00    -0.744 OA
ENDBRANCH  71  72
ENDBRANCH  52  66
BRANCH  53  76
ATOM     76  C   UNL A   1      43.696  25.422  25.953  1.00  0.00    -0.014 A 
ATOM     77  C   UNL A   1      44.876  25.132  25.241  1.00  0.00     0.010 A 
ATOM     78  C   UNL A   1      42.812  24.354  26.214  1.00  0.00     0.010 A 
ATOM     79  C   UNL A   1      45.199  23.812  24.876  1.00  0.00     0.020 A 
ATOM     80  C   UNL A   1      43.127  23.037  25.851  1.00  0.00     0.020 A 
ATOM     81  C   UNL A   1      44.333  22.767  25.210  1.00  0.00     0.054 A 
BRANCH  81  82
ATOM     82  S   UNL A   1      44.855  21.048  24.918  1.00  0.00     0.124 S 
ATOM     83  O   UNL A   1      46.228  21.048  25.417  1.00  0.00    -0.237 OA
ATOM     84  O   UNL A   1      43.895  20.287  25.712  1.00  0.00    -0.237 OA
ATOM     85  O   UNL A   1      44.721  20.888  23.471  1.00  0.00    -0.744 OA
ENDBRANCH  81  82
ENDBRANCH  53  76
BRANCH  65  86
ATOM     86  C   UNL A   1      45.084  31.051  28.459  1.00  0.00    -0.014 A 
ATOM     87  C   UNL A   1      44.029  31.565  27.676  1.00  0.00     0.010 A 
ATOM     88  C   UNL A   1      46.347  31.658  28.348  1.00  0.00     0.010 A 
ATOM     89  C   UNL A   1      44.241  32.635  26.788  1.00  0.00     0.020 A 
ATOM     90  C   UNL A   1      46.561  32.733  27.480  1.00  0.00     0.020 A 
ATOM     91  C   UNL A   1      45.512  33.210  26.696  1.00  0.00     0.054 A 
BRANCH  91  92
ATOM     92  S   UNL A   1      45.784  34.605  25.564  1.00  0.00     0.124 S 
ATOM     93  O   UNL A   1      45.251  35.736  26.317  1.00  0.00    -0.237 OA
ATOM     94  O   UNL A   1      47.233  34.597  25.380  1.00  0.00    -0.237 OA
ATOM     95  O   UNL A   1      45.016  34.242  24.372  1.00  0.00    -0.744 OA
ENDBRANCH  91  92
ENDBRANCH  65  86
ENDBRANCH  39  40
ENDBRANCH  31  34
ENDBRANCH  29  30
ENDBRANCH   1  29
TORSDOF 16
ENDMDL
MODEL 3
REMARK VINA RESULT:     -12.2      1.889      3.248
REMARK SMILES Cc1cc(C)n(-c2nc(C)c(C)c(Oc3cccc(C(=O)NCCCNC(=O)c4ccc(-c5c6nc(c(-c7ccc(S(=O)(=O)[O-])cc7)c7ccc([nH]7)c(-c7ccc(S(=O)(=O)[O-])cc7)c7nc(c(-c8ccc(S(=O)(=O)[O-])cc8)c8ccc5[nH]8)C=C7)C=C6)cc4)c3)n2)n1
REMARK SMILES IDX 24 1 23 2 22 3 20 4 21 5 19 7 15 8 16 9 89 10 17 11 18 12
REMARK SMILES IDX 14 13 13 14 7 15 8 16 90 17 9 18 10 19 11 20 12 21 6 22 1 23
REMARK SMILES IDX 2 24 3 25 91 26 4 27 5 28 25 29 26 30 27 31 28 33 29 34
REMARK SMILES IDX 30 35 88 36 31 37 87 38 32 39 33 40 34 41 81 42 35 43 86 44
REMARK SMILES IDX 80 45 82 46 36 47 85 48 79 49 78 50 37 52 67 53 48 54 66 55
REMARK SMILES IDX 49 56 52 57 65 58 83 59 50 60 51 61 64 63 84 64 53 65 38 66
REMARK SMILES IDX 39 67 47 68 40 69 46 70 41 71 42 72 43 73 44 74 45 75 68 76
REMARK SMILES IDX 69 77 77 78 70 79 76 80 71 81 72 82 73 83 74 84 75 85 54 86
REMARK SMILES IDX 55 87 63 88 56 89 62 90 57 91 58 92 59 93 60 94 61 95
REMARK H PARENT 22 6 26 32 82 51 52 62
REMARK Flexibility Score: inf
ROOT
ATOM      1  C   UNL A   1      40.400  22.068  27.581  1.00  0.00     0.042 C 
ENDROOT
BRANCH   1   2
ATOM      2  C   UNL A   1      40.131  22.043  26.068  1.00  0.00     0.118 C 
BRANCH   2   3
ATOM      3  N   UNL A   1      39.425  20.837  25.669  1.00  0.00    -0.352 N 
ATOM      4  C   UNL A   1      38.165  20.617  25.173  1.00  0.00     0.251 C 
ATOM      5  O   UNL A   1      37.875  19.456  24.877  1.00  0.00    -0.269 OA
ATOM      6  H   UNL A   1      39.957  20.015  25.777  1.00  0.00     0.163 HD
BRANCH   4   7
ATOM      7  C   UNL A   1      37.159  21.693  24.930  1.00  0.00     0.043 A 
ATOM      8  C   UNL A   1      35.623  23.435  25.632  1.00  0.00     0.130 A 
ATOM      9  C   UNL A   1      35.422  23.822  24.311  1.00  0.00     0.047 A 
ATOM     10  C   UNL A   1      36.411  22.321  25.925  1.00  0.00     0.061 A 
ATOM     11  C   UNL A   1      36.082  23.144  23.290  1.00  0.00     0.005 A 
ATOM     12  C   UNL A   1      36.964  22.104  23.600  1.00  0.00     0.014 A 
BRANCH   8  13
ATOM     13  O   UNL A   1      34.967  24.142  26.613  1.00  0.00    -0.439 OA
BRANCH  13  14
ATOM     14  C   UNL A   1      33.636  24.505  26.377  1.00  0.00     0.227 A 
ATOM     15  C   UNL A   1      32.073  25.990  25.602  1.00  0.00     0.254 A 
ATOM     16  N   UNL A   1      31.057  25.186  25.985  1.00  0.00    -0.216 NA
ATOM     17  N   UNL A   1      33.371  25.666  25.741  1.00  0.00    -0.175 NA
ATOM     18  C   UNL A   1      31.361  23.975  26.497  1.00  0.00     0.050 A 
ATOM     19  C   UNL A   1      30.189  23.046  26.629  1.00  0.00     0.067 C 
ATOM     20  C   UNL A   1      32.665  23.599  26.781  1.00  0.00     0.033 A 
ATOM     21  C   UNL A   1      33.003  22.300  27.441  1.00  0.00     0.052 C 
BRANCH  15  22
ATOM     22  N   UNL A   1      31.719  27.251  25.001  1.00  0.00    -0.203 N 
ATOM     23  C   UNL A   1      30.314  29.032  22.253  1.00  0.00     0.069 C 
ATOM     24  C   UNL A   1      30.908  28.589  23.538  1.00  0.00     0.060 A 
ATOM     25  C   UNL A   1      31.043  29.344  24.719  1.00  0.00     0.049 A 
ATOM     26  N   UNL A   1      31.398  27.353  23.676  1.00  0.00    -0.170 NA
ATOM     27  C   UNL A   1      31.598  28.482  25.639  1.00  0.00     0.045 A 
ATOM     28  C   UNL A   1      32.072  28.751  27.020  1.00  0.00     0.067 C 
ENDBRANCH  15  22
ENDBRANCH  13  14
ENDBRANCH   8  13
ENDBRANCH   4   7
ENDBRANCH   2   3
ENDBRANCH   1   2
BRANCH   1  29
ATOM     29  C   UNL A   1      41.848  22.412  27.878  1.00  0.00     0.118 C 
BRANCH  29  30
ATOM     30  N   UNL A   1      42.665  22.470  26.658  1.00  0.00    -0.352 N 
ATOM     31  C   UNL A   1      42.851  23.523  25.774  1.00  0.00     0.251 C 
ATOM     32  H   UNL A   1      43.152  21.643  26.436  1.00  0.00     0.163 HD
ATOM     33  O   UNL A   1      43.274  23.322  24.651  1.00  0.00    -0.269 OA
BRANCH  31  34
ATOM     34  C   UNL A   1      42.524  24.886  26.235  1.00  0.00     0.039 A 
ATOM     35  C   UNL A   1      41.449  25.623  25.732  1.00  0.00     0.014 A 
ATOM     36  C   UNL A   1      43.326  25.409  27.239  1.00  0.00     0.014 A 
ATOM     37  C   UNL A   1      41.173  26.864  26.307  1.00  0.00     0.010 A 
ATOM     38  C   UNL A   1      42.880  26.458  27.981  1.00  0.00     0.010 A 
ATOM     39  C   UNL A   1      41.896  27.264  27.442  1.00  0.00    -0.014 A 
BRANCH  39  40
ATOM     40  C   UNL A   1      41.650  28.508  28.147  1.00  0.00     0.031 A 
ATOM     41  C   UNL A   1      42.652  29.565  27.885  1.00  0.00     0.074 A 
ATOM     42  C   UNL A   1      40.486  28.759  28.789  1.00  0.00     0.049 A 
ATOM     43  N   UNL A   1      43.577  29.969  28.685  1.00  0.00    -0.248 NA
ATOM     44  C   UNL A   1      42.753  30.116  26.525  1.00  0.00     0.031 C 
ATOM     45  C   UNL A   1      39.265  27.938  28.862  1.00  0.00     0.029 A 
ATOM     46  N   UNL A   1      40.110  29.887  29.439  1.00  0.00    -0.354 N 
ATOM     47  C   UNL A   1      44.239  30.990  28.018  1.00  0.00     0.074 A 
ATOM     48  C   UNL A   1      43.828  30.900  26.639  1.00  0.00     0.031 C 
ATOM     49  C   UNL A   1      38.233  28.690  29.312  1.00  0.00     0.029 A 
ATOM     50  C   UNL A   1      38.755  29.975  29.735  1.00  0.00     0.049 A 
ATOM     51  H   UNL A   1      40.752  30.593  29.684  1.00  0.00     0.167 HD
ATOM     52  C   UNL A   1      44.888  31.973  28.703  1.00  0.00     0.031 A 
ATOM     53  C   UNL A   1      38.119  31.039  30.288  1.00  0.00     0.031 A 
ATOM     54  C   UNL A   1      44.985  31.657  30.107  1.00  0.00     0.049 A 
ATOM     55  C   UNL A   1      39.167  31.834  30.979  1.00  0.00     0.074 A 
ATOM     56  C   UNL A   1      45.598  30.660  30.840  1.00  0.00     0.029 A 
ATOM     57  N   UNL A   1      44.017  32.192  30.929  1.00  0.00    -0.354 N 
ATOM     58  N   UNL A   1      39.843  31.384  32.001  1.00  0.00    -0.248 NA
ATOM     59  C   UNL A   1      39.799  32.917  30.244  1.00  0.00     0.031 C 
ATOM     60  C   UNL A   1      44.665  30.332  31.869  1.00  0.00     0.029 A 
ATOM     61  C   UNL A   1      43.570  31.194  31.760  1.00  0.00     0.049 A 
ATOM     62  H   UNL A   1      43.703  33.124  30.923  1.00  0.00     0.167 HD
ATOM     63  C   UNL A   1      41.146  31.805  31.780  1.00  0.00     0.074 A 
ATOM     64  C   UNL A   1      41.039  32.824  30.735  1.00  0.00     0.031 C 
ATOM     65  C   UNL A   1      42.212  31.093  32.259  1.00  0.00     0.031 A 
BRANCH  52  66
ATOM     66  C   UNL A   1      45.085  33.376  28.193  1.00  0.00    -0.014 A 
ATOM     67  C   UNL A   1      45.828  34.279  28.980  1.00  0.00     0.010 A 
ATOM     68  C   UNL A   1      44.361  33.915  27.110  1.00  0.00     0.010 A 
ATOM     69  C   UNL A   1      45.787  35.658  28.740  1.00  0.00     0.020 A 
ATOM     70  C   UNL A   1      44.348  35.285  26.835  1.00  0.00     0.020 A 
ATOM     71  C   UNL A   1      45.033  36.151  27.675  1.00  0.00     0.054 A 
BRANCH  71  72
ATOM     72  S   UNL A   1      44.897  37.941  27.447  1.00  0.00     0.124 S 
ATOM     73  O   UNL A   1      43.516  38.083  26.999  1.00  0.00    -0.237 OA
ATOM     74  O   UNL A   1      45.184  38.444  28.787  1.00  0.00    -0.237 OA
ATOM     75  O   UNL A   1      45.917  38.235  26.443  1.00  0.00    -0.744 OA
ENDBRANCH  71  72
ENDBRANCH  52  66
BRANCH  53  76
ATOM     76  C   UNL A   1      36.777  31.591  29.970  1.00  0.00    -0.014 A 
ATOM     77  C   UNL A   1      36.018  32.253  30.955  1.00  0.00     0.010 A 
ATOM     78  C   UNL A   1      36.380  31.749  28.626  1.00  0.00     0.010 A 
ATOM     79  C   UNL A   1      34.956  33.106  30.603  1.00  0.00     0.020 A 
ATOM     80  C   UNL A   1      35.321  32.596  28.269  1.00  0.00     0.020 A 
ATOM     81  C   UNL A   1      34.633  33.295  29.257  1.00  0.00     0.054 A 
BRANCH  81  82
ATOM     82  S   UNL A   1      33.397  34.553  28.804  1.00  0.00     0.124 S 
ATOM     83  O   UNL A   1      34.226  35.622  28.255  1.00  0.00    -0.237 OA
ATOM     84  O   UNL A   1      32.563  33.843  27.838  1.00  0.00    -0.237 OA
ATOM     85  O   UNL A   1      32.741  34.865  30.073  1.00  0.00    -0.744 OA
ENDBRANCH  81  82
ENDBRANCH  53  76
BRANCH  65  86
ATOM     86  C   UNL A   1      41.934  29.965  33.234  1.00  0.00    -0.014 A 
ATOM     87  C   UNL A   1      41.661  28.635  32.846  1.00  0.00     0.010 A 
ATOM     88  C   UNL A   1      42.095  30.233  34.604  1.00  0.00     0.010 A 
ATOM     89  C   UNL A   1      41.526  27.615  33.804  1.00  0.00     0.020 A 
ATOM     90  C   UNL A   1      41.979  29.221  35.561  1.00  0.00     0.020 A 
ATOM     91  C   UNL A   1      41.684  27.919  35.159  1.00  0.00     0.054 A 
BRANCH  91  92
ATOM     92  S   UNL A   1      41.530  26.598  36.397  1.00  0.00     0.124 S 
ATOM     93  O   UNL A   1      40.656  27.201  37.399  1.00  0.00    -0.237 OA
ATOM     94  O   UNL A   1      40.945  25.500  35.631  1.00  0.00    -0.237 OA
ATOM     95  O   UNL A   1      42.906  26.370  36.838  1.00  0.00    -0.744 OA
ENDBRANCH  91  92
ENDBRANCH  65  86
ENDBRANCH  39  40
ENDBRANCH  31  34
ENDBRANCH  29  30
ENDBRANCH   1  29
TORSDOF 16
ENDMDL
