MODEL 1
REMARK VINA RESULT:     -11.7      0.000      0.000
REMARK SMILES O=C(C[C@@H](NS(=O)(=O)c1ccc2c(c1)OCCO2)c1ccccc1)NCCCNC(=O)c1ccc(-c2c3nc(c(-c4ccc(S(=O)(=O)[O-])cc4)c4ccc([nH]4)c(-c4ccc(S(=O)(=O)[O-])cc4)c4nc(c(-c5ccc(S(=O)(=O)[O-])cc5)c5ccc2[nH]5)C=C4)C=C3)cc1
REMARK SMILES IDX 26 1 25 2 1 3 2 4 3 6 4 7 5 8 6 10 7 11 8 12 9 13 10 14
REMARK SMILES IDX 14 15 11 16 13 17 12 18 15 19 18 20 16 21 17 22 19 23 20 24
REMARK SMILES IDX 24 25 21 26 23 27 22 28 27 29 28 30 29 31 30 32 31 34 32 35
REMARK SMILES IDX 33 36 91 37 34 38 90 39 35 40 36 41 37 42 84 43 38 44 89 45
REMARK SMILES IDX 83 46 85 47 39 48 88 49 82 50 81 51 40 53 70 54 51 55 69 56
REMARK SMILES IDX 52 57 55 58 68 59 86 60 53 61 54 62 67 64 87 65 56 66 41 67
REMARK SMILES IDX 42 68 50 69 43 70 49 71 44 72 45 73 46 74 47 75 48 76 71 77
REMARK SMILES IDX 72 78 80 79 73 80 79 81 74 82 75 83 76 84 77 85 78 86 57 87
REMARK SMILES IDX 58 88 66 89 59 90 65 91 60 92 61 93 62 94 63 95 64 96
REMARK H PARENT 25 5 5 9 29 33 85 52 55 63
REMARK Flexibility Score: inf
ROOT
ATOM      1  C   UNL A   1      31.207  27.073  27.148  1.00  0.00     0.117 C 
ENDROOT
BRANCH   1   2
ATOM      2  N   UNL A   1      31.898  25.946  26.556  1.00  0.00    -0.356 N 
ATOM      3  O   UNL A   1      30.351  25.513  24.906  1.00  0.00    -0.275 OA
ATOM      4  C   UNL A   1      31.400  25.249  25.481  1.00  0.00     0.221 C 
ATOM      5  H   UNL A   1      32.760  25.667  26.940  1.00  0.00     0.163 HD
BRANCH   4   6
ATOM      6  C   UNL A   1      32.298  24.125  25.046  1.00  0.00     0.124 C 
BRANCH   6   7
ATOM      7  C   UNL A   1      33.233  24.574  23.913  1.00  0.00     0.109 C 
BRANCH   7   8
ATOM      8  N   UNL A   1      33.250  26.064  23.807  1.00  0.00    -0.203 NA
ATOM      9  H   UNL A   1      34.219  26.363  23.923  1.00  0.00     0.142 HD
BRANCH   8  10
ATOM     10  S   UNL A   1      32.673  26.783  22.379  1.00  0.00     0.241 S 
ATOM     11  O   UNL A   1      33.800  27.420  21.738  1.00  0.00    -0.207 OA
ATOM     12  O   UNL A   1      31.927  25.741  21.703  1.00  0.00    -0.207 OA
BRANCH  10  13
ATOM     13  C   UNL A   1      31.518  28.018  22.895  1.00  0.00     0.086 A 
ATOM     14  C   UNL A   1      31.743  28.753  24.064  1.00  0.00     0.026 A 
ATOM     15  C   UNL A   1      30.389  28.257  22.105  1.00  0.00     0.072 A 
ATOM     16  C   UNL A   1      30.869  29.792  24.398  1.00  0.00     0.052 A 
ATOM     17  C   UNL A   1      29.542  29.313  22.429  1.00  0.00     0.162 A 
ATOM     18  C   UNL A   1      29.781  30.083  23.573  1.00  0.00     0.161 A 
ATOM     19  O   UNL A   1      28.513  29.558  21.557  1.00  0.00    -0.486 OA
ATOM     20  O   UNL A   1      29.009  31.161  23.925  1.00  0.00    -0.486 OA
ATOM     21  C   UNL A   1      28.029  30.895  21.702  1.00  0.00     0.271 C 
ATOM     22  C   UNL A   1      27.797  31.226  23.167  1.00  0.00     0.271 C 
ENDBRANCH  10  13
ENDBRANCH   8  10
ENDBRANCH   7   8
BRANCH   7  23
ATOM     23  C   UNL A   1      34.600  24.007  24.253  1.00  0.00    -0.029 A 
ATOM     24  C   UNL A   1      35.326  23.257  23.312  1.00  0.00     0.005 A 
ATOM     25  C   UNL A   1      35.173  24.261  25.507  1.00  0.00     0.005 A 
ATOM     26  C   UNL A   1      36.572  22.724  23.638  1.00  0.00     0.000 A 
ATOM     27  C   UNL A   1      36.427  23.740  25.824  1.00  0.00     0.000 A 
ATOM     28  C   UNL A   1      37.120  22.965  24.895  1.00  0.00     0.000 A 
ENDBRANCH   7  23
ENDBRANCH   6   7
ENDBRANCH   4   6
ENDBRANCH   1   2
BRANCH   1  29
ATOM     29  C   UNL A   1      32.149  27.928  27.983  1.00  0.00     0.042 C 
BRANCH  29  30
ATOM     30  C   UNL A   1      33.261  28.606  27.188  1.00  0.00     0.118 C 
BRANCH  30  31
ATOM     31  N   UNL A   1      33.315  30.047  27.382  1.00  0.00    -0.352 N 
ATOM     32  C   UNL A   1      34.328  30.818  27.901  1.00  0.00     0.251 C 
ATOM     33  H   UNL A   1      32.511  30.541  27.101  1.00  0.00     0.163 HD
ATOM     34  O   UNL A   1      34.135  32.007  28.131  1.00  0.00    -0.269 OA
BRANCH  32  35
ATOM     35  C   UNL A   1      35.634  30.202  28.219  1.00  0.00     0.039 A 
ATOM     36  C   UNL A   1      36.614  30.160  27.225  1.00  0.00     0.014 A 
ATOM     37  C   UNL A   1      35.903  29.697  29.494  1.00  0.00     0.014 A 
ATOM     38  C   UNL A   1      37.893  29.692  27.536  1.00  0.00     0.010 A 
ATOM     39  C   UNL A   1      37.199  29.304  29.821  1.00  0.00     0.010 A 
ATOM     40  C   UNL A   1      38.210  29.309  28.850  1.00  0.00    -0.014 A 
BRANCH  40  41
ATOM     41  C   UNL A   1      39.602  28.955  29.233  1.00  0.00     0.031 A 
ATOM     42  C   UNL A   1      40.491  29.964  29.906  1.00  0.00     0.074 A 
ATOM     43  C   UNL A   1      40.090  27.739  28.907  1.00  0.00     0.049 A 
ATOM     44  N   UNL A   1      41.748  29.855  30.248  1.00  0.00    -0.248 NA
ATOM     45  C   UNL A   1      39.895  31.273  30.217  1.00  0.00     0.031 C 
ATOM     46  C   UNL A   1      39.340  26.682  28.223  1.00  0.00     0.029 A 
ATOM     47  N   UNL A   1      41.333  27.190  29.099  1.00  0.00    -0.354 N 
ATOM     48  C   UNL A   1      42.099  31.080  30.803  1.00  0.00     0.074 A 
ATOM     49  C   UNL A   1      40.934  31.933  30.708  1.00  0.00     0.031 C 
ATOM     50  C   UNL A   1      40.129  25.606  28.077  1.00  0.00     0.029 A 
ATOM     51  C   UNL A   1      41.455  25.911  28.608  1.00  0.00     0.049 A 
ATOM     52  H   UNL A   1      42.069  27.667  29.547  1.00  0.00     0.167 HD
ATOM     53  C   UNL A   1      43.277  31.455  31.357  1.00  0.00     0.031 A 
ATOM     54  C   UNL A   1      42.514  25.080  28.570  1.00  0.00     0.031 A 
ATOM     55  C   UNL A   1      44.435  30.603  31.448  1.00  0.00     0.049 A 
ATOM     56  C   UNL A   1      43.825  25.536  29.153  1.00  0.00     0.074 A 
ATOM     57  C   UNL A   1      45.658  30.876  32.035  1.00  0.00     0.029 A 
ATOM     58  N   UNL A   1      44.520  29.319  30.930  1.00  0.00    -0.354 N 
ATOM     59  N   UNL A   1      44.115  26.674  29.736  1.00  0.00    -0.248 NA
ATOM     60  C   UNL A   1      44.948  24.591  29.080  1.00  0.00     0.031 C 
ATOM     61  C   UNL A   1      46.504  29.785  31.813  1.00  0.00     0.029 A 
ATOM     62  C   UNL A   1      45.785  28.802  31.151  1.00  0.00     0.049 A 
ATOM     63  H   UNL A   1      43.788  28.845  30.471  1.00  0.00     0.167 HD
ATOM     64  C   UNL A   1      45.448  26.573  30.119  1.00  0.00     0.074 A 
ATOM     65  C   UNL A   1      45.899  25.256  29.723  1.00  0.00     0.031 C 
ATOM     66  C   UNL A   1      46.227  27.491  30.744  1.00  0.00     0.031 A 
BRANCH  53  67
ATOM     67  C   UNL A   1      43.381  32.859  31.896  1.00  0.00    -0.014 A 
ATOM     68  C   UNL A   1      43.069  33.149  33.238  1.00  0.00     0.010 A 
ATOM     69  C   UNL A   1      43.844  33.895  31.064  1.00  0.00     0.010 A 
ATOM     70  C   UNL A   1      43.178  34.455  33.723  1.00  0.00     0.020 A 
ATOM     71  C   UNL A   1      43.984  35.196  31.554  1.00  0.00     0.020 A 
ATOM     72  C   UNL A   1      43.634  35.471  32.877  1.00  0.00     0.054 A 
BRANCH  72  73
ATOM     73  S   UNL A   1      43.787  37.152  33.544  1.00  0.00     0.124 S 
ATOM     74  O   UNL A   1      42.595  37.252  34.383  1.00  0.00    -0.237 OA
ATOM     75  O   UNL A   1      45.057  37.097  34.261  1.00  0.00    -0.237 OA
ATOM     76  O   UNL A   1      43.781  37.999  32.353  1.00  0.00    -0.744 OA
ENDBRANCH  72  73
ENDBRANCH  53  67
BRANCH  54  77
ATOM     77  C   UNL A   1      42.382  23.730  27.952  1.00  0.00    -0.014 A 
ATOM     78  C   UNL A   1      42.650  23.540  26.585  1.00  0.00     0.010 A 
ATOM     79  C   UNL A   1      41.989  22.626  28.731  1.00  0.00     0.010 A 
ATOM     80  C   UNL A   1      42.512  22.275  26.005  1.00  0.00     0.020 A 
ATOM     81  C   UNL A   1      41.882  21.354  28.162  1.00  0.00     0.020 A 
ATOM     82  C   UNL A   1      42.133  21.189  26.799  1.00  0.00     0.054 A 
BRANCH  82  83
ATOM     83  S   UNL A   1      42.008  19.549  26.034  1.00  0.00     0.124 S 
ATOM     84  O   UNL A   1      40.586  19.471  25.714  1.00  0.00    -0.237 OA
ATOM     85  O   UNL A   1      42.910  19.666  24.890  1.00  0.00    -0.237 OA
ATOM     86  O   UNL A   1      42.464  18.645  27.088  1.00  0.00    -0.744 OA
ENDBRANCH  82  83
ENDBRANCH  54  77
BRANCH  66  87
ATOM     87  C   UNL A   1      47.647  27.096  31.061  1.00  0.00    -0.014 A 
ATOM     88  C   UNL A   1      47.987  26.522  32.298  1.00  0.00     0.010 A 
ATOM     89  C   UNL A   1      48.647  27.252  30.082  1.00  0.00     0.010 A 
ATOM     90  C   UNL A   1      49.305  26.139  32.562  1.00  0.00     0.020 A 
ATOM     91  C   UNL A   1      49.958  26.841  30.330  1.00  0.00     0.020 A 
ATOM     92  C   UNL A   1      50.282  26.298  31.575  1.00  0.00     0.054 A 
BRANCH  92  93
ATOM     93  S   UNL A   1      51.974  25.747  31.927  1.00  0.00     0.124 S 
ATOM     94  O   UNL A   1      52.282  26.474  33.154  1.00  0.00    -0.237 OA
ATOM     95  O   UNL A   1      51.814  24.302  32.074  1.00  0.00    -0.237 OA
ATOM     96  O   UNL A   1      52.728  26.167  30.748  1.00  0.00    -0.744 OA
ENDBRANCH  92  93
ENDBRANCH  66  87
ENDBRANCH  40  41
ENDBRANCH  32  35
ENDBRANCH  30  31
ENDBRANCH  29  30
ENDBRANCH   1  29
TORSDOF 18
ENDMDL
MODEL 2
REMARK VINA RESULT:     -11.4      2.670      9.365
REMARK SMILES O=C(C[C@@H](NS(=O)(=O)c1ccc2c(c1)OCCO2)c1ccccc1)NCCCNC(=O)c1ccc(-c2c3nc(c(-c4ccc(S(=O)(=O)[O-])cc4)c4ccc([nH]4)c(-c4ccc(S(=O)(=O)[O-])cc4)c4nc(c(-c5ccc(S(=O)(=O)[O-])cc5)c5ccc2[nH]5)C=C4)C=C3)cc1
REMARK SMILES IDX 26 1 25 2 1 3 2 4 3 6 4 7 5 8 6 10 7 11 8 12 9 13 10 14
REMARK SMILES IDX 14 15 11 16 13 17 12 18 15 19 18 20 16 21 17 22 19 23 20 24
REMARK SMILES IDX 24 25 21 26 23 27 22 28 27 29 28 30 29 31 30 32 31 34 32 35
REMARK SMILES IDX 33 36 91 37 34 38 90 39 35 40 36 41 37 42 84 43 38 44 89 45
REMARK SMILES IDX 83 46 85 47 39 48 88 49 82 50 81 51 40 53 70 54 51 55 69 56
REMARK SMILES IDX 52 57 55 58 68 59 86 60 53 61 54 62 67 64 87 65 56 66 41 67
REMARK SMILES IDX 42 68 50 69 43 70 49 71 44 72 45 73 46 74 47 75 48 76 71 77
REMARK SMILES IDX 72 78 80 79 73 80 79 81 74 82 75 83 76 84 77 85 78 86 57 87
REMARK SMILES IDX 58 88 66 89 59 90 65 91 60 92 61 93 62 94 63 95 64 96
REMARK H PARENT 25 5 5 9 29 33 85 52 55 63
REMARK Flexibility Score: inf
ROOT
ATOM      1  C   UNL A   1      35.121  23.339  23.384  1.00  0.00     0.117 C 
ENDROOT
BRANCH   1   2
ATOM      2  N   UNL A   1      34.698  24.641  23.859  1.00  0.00    -0.356 N 
ATOM      3  O   UNL A   1      33.598  25.285  21.942  1.00  0.00    -0.275 OA
ATOM      4  C   UNL A   1      33.974  25.515  23.084  1.00  0.00     0.221 C 
ATOM      5  H   UNL A   1      34.940  24.911  24.774  1.00  0.00     0.163 HD
BRANCH   4   6
ATOM      6  C   UNL A   1      33.653  26.799  23.796  1.00  0.00     0.124 C 
BRANCH   6   7
ATOM      7  C   UNL A   1      32.405  26.642  24.678  1.00  0.00     0.109 C 
BRANCH   7   8
ATOM      8  N   UNL A   1      32.566  25.488  25.614  1.00  0.00    -0.203 NA
ATOM      9  H   UNL A   1      32.856  25.869  26.515  1.00  0.00     0.142 HD
BRANCH   8  10
ATOM     10  S   UNL A   1      31.225  24.484  25.905  1.00  0.00     0.241 S 
ATOM     11  O   UNL A   1      31.258  24.126  27.304  1.00  0.00    -0.207 OA
ATOM     12  O   UNL A   1      30.092  25.194  25.347  1.00  0.00    -0.207 OA
BRANCH  10  13
ATOM     13  C   UNL A   1      31.486  23.037  24.924  1.00  0.00     0.086 A 
ATOM     14  C   UNL A   1      31.456  23.115  23.527  1.00  0.00     0.026 A 
ATOM     15  C   UNL A   1      31.740  21.822  25.568  1.00  0.00     0.072 A 
ATOM     16  C   UNL A   1      31.764  21.979  22.772  1.00  0.00     0.052 A 
ATOM     17  C   UNL A   1      32.076  20.706  24.809  1.00  0.00     0.162 A 
ATOM     18  C   UNL A   1      32.091  20.781  23.412  1.00  0.00     0.161 A 
ATOM     19  O   UNL A   1      32.414  19.574  25.505  1.00  0.00    -0.486 OA
ATOM     20  O   UNL A   1      32.453  19.731  22.607  1.00  0.00    -0.486 OA
ATOM     21  C   UNL A   1      33.183  18.686  24.692  1.00  0.00     0.271 C 
ATOM     22  C   UNL A   1      32.530  18.499  23.333  1.00  0.00     0.271 C 
ENDBRANCH  10  13
ENDBRANCH   8  10
ENDBRANCH   7   8
BRANCH   7  23
ATOM     23  C   UNL A   1      32.247  27.960  25.415  1.00  0.00    -0.029 A 
ATOM     24  C   UNL A   1      32.762  28.130  26.712  1.00  0.00     0.005 A 
ATOM     25  C   UNL A   1      31.613  29.042  24.789  1.00  0.00     0.005 A 
ATOM     26  C   UNL A   1      32.597  29.337  27.388  1.00  0.00     0.000 A 
ATOM     27  C   UNL A   1      31.464  30.254  25.463  1.00  0.00     0.000 A 
ATOM     28  C   UNL A   1      31.947  30.397  26.764  1.00  0.00     0.000 A 
ENDBRANCH   7  23
ENDBRANCH   6   7
ENDBRANCH   4   6
ENDBRANCH   1   2
BRANCH   1  29
ATOM     29  C   UNL A   1      36.625  23.154  23.531  1.00  0.00     0.042 C 
BRANCH  29  30
ATOM     30  C   UNL A   1      37.170  23.477  24.919  1.00  0.00     0.118 C 
BRANCH  30  31
ATOM     31  N   UNL A   1      38.165  22.524  25.386  1.00  0.00    -0.352 N 
ATOM     32  C   UNL A   1      39.275  22.738  26.168  1.00  0.00     0.251 C 
ATOM     33  H   UNL A   1      38.024  21.592  25.100  1.00  0.00     0.163 HD
ATOM     34  O   UNL A   1      40.090  21.836  26.335  1.00  0.00    -0.269 OA
BRANCH  32  35
ATOM     35  C   UNL A   1      39.505  24.068  26.774  1.00  0.00     0.039 A 
ATOM     36  C   UNL A   1      38.984  24.324  28.044  1.00  0.00     0.014 A 
ATOM     37  C   UNL A   1      40.252  25.044  26.110  1.00  0.00     0.014 A 
ATOM     38  C   UNL A   1      39.288  25.527  28.685  1.00  0.00     0.010 A 
ATOM     39  C   UNL A   1      40.617  26.209  26.781  1.00  0.00     0.010 A 
ATOM     40  C   UNL A   1      40.150  26.457  28.080  1.00  0.00    -0.014 A 
BRANCH  40  41
ATOM     41  C   UNL A   1      40.606  27.670  28.809  1.00  0.00     0.031 A 
ATOM     42  C   UNL A   1      41.950  27.697  29.484  1.00  0.00     0.074 A 
ATOM     43  C   UNL A   1      39.774  28.726  28.923  1.00  0.00     0.049 A 
ATOM     44  N   UNL A   1      42.483  28.638  30.219  1.00  0.00    -0.248 NA
ATOM     45  C   UNL A   1      42.796  26.503  29.328  1.00  0.00     0.031 C 
ATOM     46  C   UNL A   1      38.431  28.812  28.343  1.00  0.00     0.029 A 
ATOM     47  N   UNL A   1      39.930  29.926  29.572  1.00  0.00    -0.354 N 
ATOM     48  C   UNL A   1      43.719  28.149  30.624  1.00  0.00     0.074 A 
ATOM     49  C   UNL A   1      43.836  26.809  30.092  1.00  0.00     0.031 C 
ATOM     50  C   UNL A   1      37.899  30.008  28.639  1.00  0.00     0.029 A 
ATOM     51  C   UNL A   1      38.836  30.754  29.473  1.00  0.00     0.049 A 
ATOM     52  H   UNL A   1      40.748  30.170  30.061  1.00  0.00     0.167 HD
ATOM     53  C   UNL A   1      44.677  28.766  31.358  1.00  0.00     0.031 A 
ATOM     54  C   UNL A   1      38.603  31.970  30.004  1.00  0.00     0.031 A 
ATOM     55  C   UNL A   1      44.555  30.099  31.888  1.00  0.00     0.049 A 
ATOM     56  C   UNL A   1      39.665  32.616  30.852  1.00  0.00     0.074 A 
ATOM     57  C   UNL A   1      45.490  30.829  32.602  1.00  0.00     0.029 A 
ATOM     58  N   UNL A   1      43.428  30.901  31.774  1.00  0.00    -0.354 N 
ATOM     59  N   UNL A   1      40.856  32.165  31.165  1.00  0.00    -0.248 NA
ATOM     60  C   UNL A   1      39.354  33.939  31.411  1.00  0.00     0.031 C 
ATOM     61  C   UNL A   1      44.906  32.043  32.977  1.00  0.00     0.029 A 
ATOM     62  C   UNL A   1      43.632  32.100  32.435  1.00  0.00     0.049 A 
ATOM     63  H   UNL A   1      42.605  30.652  31.294  1.00  0.00     0.167 HD
ATOM     64  C   UNL A   1      41.445  33.158  31.939  1.00  0.00     0.074 A 
ATOM     65  C   UNL A   1      40.489  34.243  32.027  1.00  0.00     0.031 C 
ATOM     66  C   UNL A   1      42.669  33.171  32.524  1.00  0.00     0.031 A 
BRANCH  53  67
ATOM     67  C   UNL A   1      45.940  27.996  31.647  1.00  0.00    -0.014 A 
ATOM     68  C   UNL A   1      46.062  27.204  32.804  1.00  0.00     0.010 A 
ATOM     69  C   UNL A   1      47.002  28.024  30.725  1.00  0.00     0.010 A 
ATOM     70  C   UNL A   1      47.237  26.490  33.052  1.00  0.00     0.020 A 
ATOM     71  C   UNL A   1      48.167  27.287  30.954  1.00  0.00     0.020 A 
ATOM     72  C   UNL A   1      48.284  26.537  32.126  1.00  0.00     0.054 A 
BRANCH  72  73
ATOM     73  S   UNL A   1      49.787  25.580  32.465  1.00  0.00     0.124 S 
ATOM     74  O   UNL A   1      50.157  25.117  31.130  1.00  0.00    -0.237 OA
ATOM     75  O   UNL A   1      50.675  26.579  33.052  1.00  0.00    -0.237 OA
ATOM     76  O   UNL A   1      49.334  24.536  33.382  1.00  0.00    -0.744 OA
ENDBRANCH  72  73
ENDBRANCH  53  67
BRANCH  54  77
ATOM     77  C   UNL A   1      37.303  32.655  29.755  1.00  0.00    -0.014 A 
ATOM     78  C   UNL A   1      37.156  33.542  28.674  1.00  0.00     0.010 A 
ATOM     79  C   UNL A   1      36.201  32.420  30.599  1.00  0.00     0.010 A 
ATOM     80  C   UNL A   1      35.939  34.193  28.451  1.00  0.00     0.020 A 
ATOM     81  C   UNL A   1      34.974  33.044  30.359  1.00  0.00     0.020 A 
ATOM     82  C   UNL A   1      34.854  33.936  29.293  1.00  0.00     0.054 A 
BRANCH  82  83
ATOM     83  S   UNL A   1      33.272  34.755  28.953  1.00  0.00     0.124 S 
ATOM     84  O   UNL A   1      33.705  36.051  28.439  1.00  0.00    -0.237 OA
ATOM     85  O   UNL A   1      32.657  33.859  27.977  1.00  0.00    -0.237 OA
ATOM     86  O   UNL A   1      32.616  34.786  30.259  1.00  0.00    -0.744 OA
ENDBRANCH  82  83
ENDBRANCH  54  77
BRANCH  66  87
ATOM     87  C   UNL A   1      43.058  34.406  33.295  1.00  0.00    -0.014 A 
ATOM     88  C   UNL A   1      42.870  34.488  34.687  1.00  0.00     0.010 A 
ATOM     89  C   UNL A   1      43.674  35.480  32.624  1.00  0.00     0.010 A 
ATOM     90  C   UNL A   1      43.261  35.632  35.386  1.00  0.00     0.020 A 
ATOM     91  C   UNL A   1      44.097  36.611  33.326  1.00  0.00     0.020 A 
ATOM     92  C   UNL A   1      43.876  36.685  34.703  1.00  0.00     0.054 A 
BRANCH  92  93
ATOM     93  S   UNL A   1      44.419  38.137  35.645  1.00  0.00     0.124 S 
ATOM     94  O   UNL A   1      43.911  39.236  34.830  1.00  0.00    -0.237 OA
ATOM     95  O   UNL A   1      43.753  37.948  36.932  1.00  0.00    -0.237 OA
ATOM     96  O   UNL A   1      45.874  38.005  35.677  1.00  0.00    -0.744 OA
ENDBRANCH  92  93
ENDBRANCH  66  87
ENDBRANCH  40  41
ENDBRANCH  32  35
ENDBRANCH  30  31
ENDBRANCH  29  30
ENDBRANCH   1  29
TORSDOF 18
ENDMDL
MODEL 3
REMARK VINA RESULT:     -11.0      2.332      2.923
REMARK SMILES O=C(C[C@@H](NS(=O)(=O)c1ccc2c(c1)OCCO2)c1ccccc1)NCCCNC(=O)c1ccc(-c2c3nc(c(-c4ccc(S(=O)(=O)[O-])cc4)c4ccc([nH]4)c(-c4ccc(S(=O)(=O)[O-])cc4)c4nc(c(-c5ccc(S(=O)(=O)[O-])cc5)c5ccc2[nH]5)C=C4)C=C3)cc1
REMARK SMILES IDX 26 1 25 2 1 3 2 4 3 6 4 7 5 8 6 10 7 11 8 12 9 13 10 14
REMARK SMILES IDX 14 15 11 16 13 17 12 18 15 19 18 20 16 21 17 22 19 23 20 24
REMARK SMILES IDX 24 25 21 26 23 27 22 28 27 29 28 30 29 31 30 32 31 34 32 35
REMARK SMILES IDX 33 36 91 37 34 38 90 39 35 40 36 41 37 42 84 43 38 44 89 45
REMARK SMILES IDX 83 46 85 47 39 48 88 49 82 50 81 51 40 53 70 54 51 55 69 56
REMARK SMILES IDX 52 57 55 58 68 59 86 60 53 61 54 62 67 64 87 65 56 66 41 67
REMARK SMILES IDX 42 68 50 69 43 70 49 71 44 72 45 73 46 74 47 75 48 76 71 77
REMARK SMILES IDX 72 78 80 79 73 80 79 81 74 82 75 83 76 84 77 85 78 86 57 87
REMARK SMILES IDX 58 88 66 89 59 90 65 91 60 92 61 93 62 94 63 95 64 96
REMARK H PARENT 25 5 5 9 29 33 85 52 55 63
REMARK Flexibility Score: inf
ROOT
ATOM      1  C   UNL A   1      31.358  27.121  26.611  1.00  0.00     0.117 C 
ENDROOT
BRANCH   1   2
ATOM      2  N   UNL A   1      32.355  26.080  26.468  1.00  0.00    -0.356 N 
ATOM      3  O   UNL A   1      30.945  24.299  26.848  1.00  0.00    -0.275 OA
ATOM      4  C   UNL A   1      32.061  24.744  26.611  1.00  0.00     0.221 C 
ATOM      5  H   UNL A   1      33.281  26.339  26.260  1.00  0.00     0.163 HD
BRANCH   4   6
ATOM      6  C   UNL A   1      33.259  23.858  26.414  1.00  0.00     0.124 C 
BRANCH   6   7
ATOM      7  C   UNL A   1      33.494  23.574  24.922  1.00  0.00     0.109 C 
BRANCH   7   8
ATOM      8  N   UNL A   1      33.584  24.851  24.153  1.00  0.00    -0.203 NA
ATOM      9  H   UNL A   1      34.575  25.068  24.043  1.00  0.00     0.142 HD
BRANCH   8  10
ATOM     10  S   UNL A   1      32.884  24.919  22.605  1.00  0.00     0.241 S 
ATOM     11  O   UNL A   1      33.804  25.636  21.753  1.00  0.00    -0.207 OA
ATOM     12  O   UNL A   1      32.502  23.555  22.301  1.00  0.00    -0.207 OA
BRANCH  10  13
ATOM     13  C   UNL A   1      31.400  25.862  22.789  1.00  0.00     0.086 A 
ATOM     14  C   UNL A   1      30.333  25.361  23.543  1.00  0.00     0.026 A 
ATOM     15  C   UNL A   1      31.321  27.119  22.183  1.00  0.00     0.072 A 
ATOM     16  C   UNL A   1      29.210  26.166  23.758  1.00  0.00     0.052 A 
ATOM     17  C   UNL A   1      30.213  27.925  22.429  1.00  0.00     0.162 A 
ATOM     18  C   UNL A   1      29.158  27.453  23.217  1.00  0.00     0.161 A 
ATOM     19  O   UNL A   1      30.245  29.185  21.889  1.00  0.00    -0.486 OA
ATOM     20  O   UNL A   1      28.058  28.210  23.530  1.00  0.00    -0.486 OA
ATOM     21  C   UNL A   1      29.344  30.056  22.576  1.00  0.00     0.271 C 
ATOM     22  C   UNL A   1      27.983  29.402  22.740  1.00  0.00     0.271 C 
ENDBRANCH  10  13
ENDBRANCH   8  10
ENDBRANCH   7   8
BRANCH   7  23
ATOM     23  C   UNL A   1      34.779  22.769  24.850  1.00  0.00    -0.029 A 
ATOM     24  C   UNL A   1      36.022  23.405  24.684  1.00  0.00     0.005 A 
ATOM     25  C   UNL A   1      34.742  21.374  24.986  1.00  0.00     0.005 A 
ATOM     26  C   UNL A   1      37.195  22.657  24.600  1.00  0.00     0.000 A 
ATOM     27  C   UNL A   1      35.920  20.631  24.917  1.00  0.00     0.000 A 
ATOM     28  C   UNL A   1      37.143  21.271  24.715  1.00  0.00     0.000 A 
ENDBRANCH   7  23
ENDBRANCH   6   7
ENDBRANCH   4   6
ENDBRANCH   1   2
BRANCH   1  29
ATOM     29  C   UNL A   1      31.858  28.254  27.496  1.00  0.00     0.042 C 
BRANCH  29  30
ATOM     30  C   UNL A   1      33.259  28.753  27.152  1.00  0.00     0.118 C 
BRANCH  30  31
ATOM     31  N   UNL A   1      33.369  30.204  27.141  1.00  0.00    -0.352 N 
ATOM     32  C   UNL A   1      34.350  31.007  27.673  1.00  0.00     0.251 C 
ATOM     33  H   UNL A   1      32.635  30.679  26.687  1.00  0.00     0.163 HD
ATOM     34  O   UNL A   1      34.197  32.224  27.700  1.00  0.00    -0.269 OA
BRANCH  32  35
ATOM     35  C   UNL A   1      35.569  30.398  28.247  1.00  0.00     0.039 A 
ATOM     36  C   UNL A   1      36.775  30.534  27.556  1.00  0.00     0.014 A 
ATOM     37  C   UNL A   1      35.532  29.726  29.472  1.00  0.00     0.014 A 
ATOM     38  C   UNL A   1      37.959  30.072  28.136  1.00  0.00     0.010 A 
ATOM     39  C   UNL A   1      36.722  29.335  30.081  1.00  0.00     0.010 A 
ATOM     40  C   UNL A   1      37.949  29.516  29.427  1.00  0.00    -0.014 A 
BRANCH  40  41
ATOM     41  C   UNL A   1      39.214  29.160  30.120  1.00  0.00     0.031 A 
ATOM     42  C   UNL A   1      39.665  29.929  31.331  1.00  0.00     0.074 A 
ATOM     43  C   UNL A   1      39.996  28.184  29.612  1.00  0.00     0.049 A 
ATOM     44  N   UNL A   1      40.770  29.805  32.021  1.00  0.00    -0.248 NA
ATOM     45  C   UNL A   1      38.769  30.989  31.819  1.00  0.00     0.031 C 
ATOM     46  C   UNL A   1      39.687  27.385  28.423  1.00  0.00     0.029 A 
ATOM     47  N   UNL A   1      41.214  27.703  30.026  1.00  0.00    -0.354 N 
ATOM     48  C   UNL A   1      40.708  30.774  33.014  1.00  0.00     0.074 A 
ATOM     49  C   UNL A   1      39.480  31.510  32.808  1.00  0.00     0.031 C 
ATOM     50  C   UNL A   1      40.675  26.498  28.220  1.00  0.00     0.029 A 
ATOM     51  C   UNL A   1      41.710  26.698  29.229  1.00  0.00     0.049 A 
ATOM     52  H   UNL A   1      41.686  28.045  30.818  1.00  0.00     0.167 HD
ATOM     53  C   UNL A   1      41.587  31.019  34.017  1.00  0.00     0.031 A 
ATOM     54  C   UNL A   1      42.874  26.022  29.289  1.00  0.00     0.031 A 
ATOM     55  C   UNL A   1      42.810  30.286  34.217  1.00  0.00     0.049 A 
ATOM     56  C   UNL A   1      43.852  26.341  30.387  1.00  0.00     0.074 A 
ATOM     57  C   UNL A   1      43.740  30.428  35.232  1.00  0.00     0.029 A 
ATOM     58  N   UNL A   1      43.281  29.283  33.382  1.00  0.00    -0.354 N 
ATOM     59  N   UNL A   1      43.742  27.216  31.358  1.00  0.00    -0.248 NA
ATOM     60  C   UNL A   1      45.108  25.578  30.400  1.00  0.00     0.031 C 
ATOM     61  C   UNL A   1      44.804  29.558  34.975  1.00  0.00     0.029 A 
ATOM     62  C   UNL A   1      44.505  28.823  33.840  1.00  0.00     0.049 A 
ATOM     63  H   UNL A   1      42.814  28.948  32.583  1.00  0.00     0.167 HD
ATOM     64  C   UNL A   1      44.904  27.091  32.112  1.00  0.00     0.074 A 
ATOM     65  C   UNL A   1      45.692  26.042  31.497  1.00  0.00     0.031 C 
ATOM     66  C   UNL A   1      45.284  27.783  33.214  1.00  0.00     0.031 A 
BRANCH  53  67
ATOM     67  C   UNL A   1      41.263  32.142  34.970  1.00  0.00    -0.014 A 
ATOM     68  C   UNL A   1      41.543  33.481  34.641  1.00  0.00     0.010 A 
ATOM     69  C   UNL A   1      40.625  31.859  36.192  1.00  0.00     0.010 A 
ATOM     70  C   UNL A   1      41.230  34.510  35.533  1.00  0.00     0.020 A 
ATOM     71  C   UNL A   1      40.281  32.887  37.073  1.00  0.00     0.020 A 
ATOM     72  C   UNL A   1      40.601  34.206  36.745  1.00  0.00     0.054 A 
BRANCH  72  73
ATOM     73  S   UNL A   1      40.186  35.566  37.871  1.00  0.00     0.124 S 
ATOM     74  O   UNL A   1      38.947  35.086  38.479  1.00  0.00    -0.237 OA
ATOM     75  O   UNL A   1      41.344  35.612  38.758  1.00  0.00    -0.237 OA
ATOM     76  O   UNL A   1      40.037  36.718  36.984  1.00  0.00    -0.744 OA
ENDBRANCH  72  73
ENDBRANCH  53  67
BRANCH  54  77
ATOM     77  C   UNL A   1      43.182  24.976  28.272  1.00  0.00    -0.014 A 
ATOM     78  C   UNL A   1      42.818  23.636  28.491  1.00  0.00     0.010 A 
ATOM     79  C   UNL A   1      43.838  25.319  27.075  1.00  0.00     0.010 A 
ATOM     80  C   UNL A   1      43.120  22.655  27.541  1.00  0.00     0.020 A 
ATOM     81  C   UNL A   1      44.113  24.347  26.109  1.00  0.00     0.020 A 
ATOM     82  C   UNL A   1      43.761  23.019  26.354  1.00  0.00     0.054 A 
BRANCH  82  83
ATOM     83  S   UNL A   1      44.098  21.737  25.115  1.00  0.00     0.124 S 
ATOM     84  O   UNL A   1      45.445  21.307  25.482  1.00  0.00    -0.237 OA
ATOM     85  O   UNL A   1      43.034  20.769  25.367  1.00  0.00    -0.237 OA
ATOM     86  O   UNL A   1      43.993  22.453  23.846  1.00  0.00    -0.744 OA
ENDBRANCH  82  83
ENDBRANCH  54  77
BRANCH  66  87
ATOM     87  C   UNL A   1      46.603  27.416  33.846  1.00  0.00    -0.014 A 
ATOM     88  C   UNL A   1      46.693  26.392  34.806  1.00  0.00     0.010 A 
ATOM     89  C   UNL A   1      47.779  28.068  33.430  1.00  0.00     0.010 A 
ATOM     90  C   UNL A   1      47.929  26.050  35.360  1.00  0.00     0.020 A 
ATOM     91  C   UNL A   1      49.020  27.706  33.957  1.00  0.00     0.020 A 
ATOM     92  C   UNL A   1      49.086  26.706  34.930  1.00  0.00     0.054 A 
BRANCH  92  93
ATOM     93  S   UNL A   1      50.683  26.207  35.630  1.00  0.00     0.124 S 
ATOM     94  O   UNL A   1      50.282  25.572  36.882  1.00  0.00    -0.237 OA
ATOM     95  O   UNL A   1      51.210  25.306  34.608  1.00  0.00    -0.237 OA
ATOM     96  O   UNL A   1      51.408  27.467  35.775  1.00  0.00    -0.744 OA
ENDBRANCH  92  93
ENDBRANCH  66  87
ENDBRANCH  40  41
ENDBRANCH  32  35
ENDBRANCH  30  31
ENDBRANCH  29  30
ENDBRANCH   1  29
TORSDOF 18
ENDMDL
