MODEL 1
REMARK VINA RESULT:      -9.8      0.000      0.000
REMARK SMILES C=CCNC(=O)C[NH2+][C@](C)(C(=O)NCCCNC(=O)c1ccc(-c2c3nc(c(-c4ccc(S(=O)(=O)[O-])cc4)c4ccc([nH]4)c(-c4ccc(S(=O)(=O)[O-])cc4)c4nc(c(-c5ccc(S(=O)(=O)[O-])cc5)c5ccc2[nH]5)C=C4)C=C3)cc1)C(F)(F)F
REMARK SMILES IDX 14 1 13 2 11 3 12 4 9 6 10 7 8 8 7 11 5 12 4 13 6 15 3 16
REMARK SMILES IDX 2 17 1 18 80 19 81 20 82 21 83 22 15 23 16 24 17 25 18 26
REMARK SMILES IDX 19 28 20 29 21 30 79 31 22 32 78 33 23 34 24 35 25 36 72 37
REMARK SMILES IDX 26 38 77 39 71 40 73 41 27 42 76 43 70 44 69 45 28 47 58 48
REMARK SMILES IDX 39 49 57 50 40 51 43 52 56 53 74 54 41 55 42 56 55 58 75 59
REMARK SMILES IDX 44 60 29 61 30 62 38 63 31 64 37 65 32 66 33 67 34 68 35 69
REMARK SMILES IDX 36 70 59 71 60 72 68 73 61 74 67 75 62 76 63 77 64 78 65 79
REMARK SMILES IDX 66 80 45 81 46 82 54 83 47 84 53 85 48 86 49 87 50 88 51 89
REMARK SMILES IDX 52 90
REMARK H PARENT 13 5 8 9 8 10 4 14 17 27 73 46 43 57
REMARK Flexibility Score: inf
ROOT
ATOM      1  C   UNL A   1      34.265  24.324  25.671  1.00  0.00     0.118 C 
ENDROOT
BRANCH   1   2
ATOM      2  N   UNL A   1      33.081  23.971  26.444  1.00  0.00    -0.350 N 
ATOM      3  C   UNL A   1      31.783  24.403  26.419  1.00  0.00     0.290 C 
ATOM      4  O   UNL A   1      31.041  23.906  27.268  1.00  0.00    -0.267 OA
ATOM      5  H   UNL A   1      33.250  23.280  27.123  1.00  0.00     0.163 HD
BRANCH   3   6
ATOM      6  C   UNL A   1      31.272  25.397  25.355  1.00  0.00     0.268 C 
ATOM      7  C   UNL A   1      29.862  25.914  25.718  1.00  0.00     0.101 C 
BRANCH   6   8
ATOM      8  N   UNL A   1      32.193  26.592  25.302  1.00  0.00    -0.318 N 
ATOM      9  H   UNL A   1      32.900  26.483  26.028  1.00  0.00     0.347 HD
ATOM     10  H   UNL A   1      32.589  26.614  24.363  1.00  0.00     0.347 HD
BRANCH   8  11
ATOM     11  C   UNL A   1      31.519  27.888  25.505  1.00  0.00     0.362 C 
BRANCH  11  12
ATOM     12  C   UNL A   1      32.074  28.900  24.492  1.00  0.00     0.275 C 
ATOM     13  N   UNL A   1      31.245  29.408  23.533  1.00  0.00    -0.348 N 
ATOM     14  H   UNL A   1      31.657  30.033  22.896  1.00  0.00     0.163 HD
ATOM     15  O   UNL A   1      33.249  29.271  24.531  1.00  0.00    -0.268 OA
BRANCH  13  16
ATOM     16  C   UNL A   1      29.838  29.142  23.337  1.00  0.00     0.143 C 
BRANCH  16  17
ATOM     17  C   UNL A   1      29.155  30.455  23.126  1.00  0.00    -0.014 C 
ATOM     18  C   UNL A   1      27.873  30.698  23.424  1.00  0.00     0.006 C 
ENDBRANCH  16  17
ENDBRANCH  13  16
ENDBRANCH  11  12
ENDBRANCH   8  11
ENDBRANCH   6   8
BRANCH   6  19
ATOM     19  C   UNL A   1      31.128  24.609  24.016  1.00  0.00     0.453 C 
ATOM     20  F   UNL A   1      30.827  23.304  24.206  1.00  0.00    -0.164 F 
ATOM     21  F   UNL A   1      30.109  25.132  23.277  1.00  0.00    -0.164 F 
ATOM     22  F   UNL A   1      32.229  24.671  23.233  1.00  0.00    -0.164 F 
ENDBRANCH   6  19
ENDBRANCH   3   6
ENDBRANCH   1   2
BRANCH   1  23
ATOM     23  C   UNL A   1      35.447  23.425  25.991  1.00  0.00     0.042 C 
BRANCH  23  24
ATOM     24  C   UNL A   1      36.751  23.873  25.352  1.00  0.00     0.118 C 
BRANCH  24  25
ATOM     25  N   UNL A   1      37.830  22.916  25.553  1.00  0.00    -0.352 N 
ATOM     26  C   UNL A   1      39.071  23.098  26.111  1.00  0.00     0.251 C 
ATOM     27  H   UNL A   1      37.641  22.001  25.243  1.00  0.00     0.163 HD
ATOM     28  O   UNL A   1      39.917  22.211  26.004  1.00  0.00    -0.269 OA
BRANCH  26  29
ATOM     29  C   UNL A   1      39.397  24.356  26.815  1.00  0.00     0.039 A 
ATOM     30  C   UNL A   1      38.970  24.530  28.133  1.00  0.00     0.014 A 
ATOM     31  C   UNL A   1      40.116  25.370  26.176  1.00  0.00     0.014 A 
ATOM     32  C   UNL A   1      39.316  25.692  28.825  1.00  0.00     0.010 A 
ATOM     33  C   UNL A   1      40.552  26.473  26.899  1.00  0.00     0.010 A 
ATOM     34  C   UNL A   1      40.139  26.659  28.225  1.00  0.00    -0.014 A 
BRANCH  34  35
ATOM     35  C   UNL A   1      40.553  27.887  28.951  1.00  0.00     0.031 A 
ATOM     36  C   UNL A   1      41.906  27.946  29.614  1.00  0.00     0.074 A 
ATOM     37  C   UNL A   1      39.697  28.922  29.067  1.00  0.00     0.049 A 
ATOM     38  N   UNL A   1      42.424  28.898  30.346  1.00  0.00    -0.248 NA
ATOM     39  C   UNL A   1      42.778  26.769  29.458  1.00  0.00     0.031 C 
ATOM     40  C   UNL A   1      38.345  28.972  28.505  1.00  0.00     0.029 A 
ATOM     41  N   UNL A   1      39.836  30.132  29.700  1.00  0.00    -0.354 N 
ATOM     42  C   UNL A   1      43.669  28.426  30.752  1.00  0.00     0.074 A 
ATOM     43  C   UNL A   1      43.801  27.082  30.238  1.00  0.00     0.031 C 
ATOM     44  C   UNL A   1      37.794  30.163  28.790  1.00  0.00     0.029 A 
ATOM     45  C   UNL A   1      38.731  30.943  29.593  1.00  0.00     0.049 A 
ATOM     46  H   UNL A   1      40.651  30.394  30.185  1.00  0.00     0.167 HD
ATOM     47  C   UNL A   1      44.626  29.063  31.468  1.00  0.00     0.031 A 
ATOM     48  C   UNL A   1      38.494  32.172  30.091  1.00  0.00     0.031 A 
ATOM     49  C   UNL A   1      44.496  30.407  31.964  1.00  0.00     0.049 A 
ATOM     50  C   UNL A   1      39.569  32.855  30.894  1.00  0.00     0.074 A 
ATOM     51  C   UNL A   1      45.428  31.161  32.654  1.00  0.00     0.029 A 
ATOM     52  N   UNL A   1      43.364  31.196  31.826  1.00  0.00    -0.354 N 
ATOM     53  N   UNL A   1      40.763  32.416  31.214  1.00  0.00    -0.248 NA
ATOM     54  C   UNL A   1      39.269  34.205  31.389  1.00  0.00     0.031 C 
ATOM     55  C   UNL A   1      44.838  32.386  32.984  1.00  0.00     0.029 A 
ATOM     56  C   UNL A   1      43.565  32.421  32.437  1.00  0.00     0.049 A 
ATOM     57  H   UNL A   1      42.540  30.925  31.362  1.00  0.00     0.167 HD
ATOM     58  C   UNL A   1      41.370  33.451  31.918  1.00  0.00     0.074 A 
ATOM     59  C   UNL A   1      40.415  34.540  31.965  1.00  0.00     0.031 C 
ATOM     60  C   UNL A   1      42.606  33.497  32.472  1.00  0.00     0.031 A 
BRANCH  47  61
ATOM     61  C   UNL A   1      45.898  28.308  31.757  1.00  0.00    -0.014 A 
ATOM     62  C   UNL A   1      46.013  27.477  32.887  1.00  0.00     0.010 A 
ATOM     63  C   UNL A   1      46.985  28.402  30.868  1.00  0.00     0.010 A 
ATOM     64  C   UNL A   1      47.203  26.792  33.146  1.00  0.00     0.020 A 
ATOM     65  C   UNL A   1      48.164  27.691  31.104  1.00  0.00     0.020 A 
ATOM     66  C   UNL A   1      48.272  26.905  32.253  1.00  0.00     0.054 A 
BRANCH  66  67
ATOM     67  S   UNL A   1      49.794  25.983  32.603  1.00  0.00     0.124 S 
ATOM     68  O   UNL A   1      50.327  25.762  31.260  1.00  0.00    -0.237 OA
ATOM     69  O   UNL A   1      50.550  26.916  33.433  1.00  0.00    -0.237 OA
ATOM     70  O   UNL A   1      49.323  24.782  33.290  1.00  0.00    -0.744 OA
ENDBRANCH  66  67
ENDBRANCH  47  61
BRANCH  48  71
ATOM     71  C   UNL A   1      37.191  32.844  29.828  1.00  0.00    -0.014 A 
ATOM     72  C   UNL A   1      36.240  32.990  30.854  1.00  0.00     0.010 A 
ATOM     73  C   UNL A   1      36.897  33.351  28.549  1.00  0.00     0.010 A 
ATOM     74  C   UNL A   1      35.012  33.608  30.601  1.00  0.00     0.020 A 
ATOM     75  C   UNL A   1      35.683  33.998  28.299  1.00  0.00     0.020 A 
ATOM     76  C   UNL A   1      34.743  34.112  29.325  1.00  0.00     0.054 A 
BRANCH  76  77
ATOM     77  S   UNL A   1      33.162  34.952  29.032  1.00  0.00     0.124 S 
ATOM     78  O   UNL A   1      32.525  34.866  30.342  1.00  0.00    -0.237 OA
ATOM     79  O   UNL A   1      33.587  36.286  28.620  1.00  0.00    -0.237 OA
ATOM     80  O   UNL A   1      32.539  34.152  27.980  1.00  0.00    -0.744 OA
ENDBRANCH  76  77
ENDBRANCH  48  71
BRANCH  60  81
ATOM     81  C   UNL A   1      43.025  34.784  33.134  1.00  0.00    -0.014 A 
ATOM     82  C   UNL A   1      42.844  34.996  34.512  1.00  0.00     0.010 A 
ATOM     83  C   UNL A   1      43.666  35.775  32.367  1.00  0.00     0.010 A 
ATOM     84  C   UNL A   1      43.263  36.191  35.104  1.00  0.00     0.020 A 
ATOM     85  C   UNL A   1      44.116  36.956  32.961  1.00  0.00     0.020 A 
ATOM     86  C   UNL A   1      43.898  37.163  34.324  1.00  0.00     0.054 A 
BRANCH  86  87
ATOM     87  S   UNL A   1      44.471  38.686  35.124  1.00  0.00     0.124 S 
ATOM     88  O   UNL A   1      44.100  38.454  36.517  1.00  0.00    -0.237 OA
ATOM     89  O   UNL A   1      45.904  38.674  34.845  1.00  0.00    -0.237 OA
ATOM     90  O   UNL A   1      43.719  39.739  34.446  1.00  0.00    -0.744 OA
ENDBRANCH  86  87
ENDBRANCH  60  81
ENDBRANCH  34  35
ENDBRANCH  26  29
ENDBRANCH  24  25
ENDBRANCH  23  24
ENDBRANCH   1  23
TORSDOF 19
ENDMDL
MODEL 2
REMARK VINA RESULT:      -9.7      3.128      8.845
REMARK SMILES C=CCNC(=O)C[NH2+][C@](C)(C(=O)NCCCNC(=O)c1ccc(-c2c3nc(c(-c4ccc(S(=O)(=O)[O-])cc4)c4ccc([nH]4)c(-c4ccc(S(=O)(=O)[O-])cc4)c4nc(c(-c5ccc(S(=O)(=O)[O-])cc5)c5ccc2[nH]5)C=C4)C=C3)cc1)C(F)(F)F
REMARK SMILES IDX 14 1 13 2 11 3 12 4 9 6 10 7 8 8 7 11 5 12 4 13 6 15 3 16
REMARK SMILES IDX 2 17 1 18 80 19 81 20 82 21 83 22 15 23 16 24 17 25 18 26
REMARK SMILES IDX 19 28 20 29 21 30 79 31 22 32 78 33 23 34 24 35 25 36 72 37
REMARK SMILES IDX 26 38 77 39 71 40 73 41 27 42 76 43 70 44 69 45 28 47 58 48
REMARK SMILES IDX 39 49 57 50 40 51 43 52 56 53 74 54 41 55 42 56 55 58 75 59
REMARK SMILES IDX 44 60 29 61 30 62 38 63 31 64 37 65 32 66 33 67 34 68 35 69
REMARK SMILES IDX 36 70 59 71 60 72 68 73 61 74 67 75 62 76 63 77 64 78 65 79
REMARK SMILES IDX 66 80 45 81 46 82 54 83 47 84 53 85 48 86 49 87 50 88 51 89
REMARK SMILES IDX 52 90
REMARK H PARENT 13 5 8 9 8 10 4 14 17 27 73 46 43 57
REMARK Flexibility Score: inf
ROOT
ATOM      1  C   UNL A   1      31.922  27.920  26.435  1.00  0.00     0.118 C 
ENDROOT
BRANCH   1   2
ATOM      2  N   UNL A   1      31.057  26.780  26.713  1.00  0.00    -0.350 N 
ATOM      3  C   UNL A   1      30.169  26.070  25.953  1.00  0.00     0.290 C 
ATOM      4  O   UNL A   1      29.562  25.174  26.542  1.00  0.00    -0.267 OA
ATOM      5  H   UNL A   1      31.125  26.455  27.639  1.00  0.00     0.163 HD
BRANCH   3   6
ATOM      6  C   UNL A   1      29.992  26.334  24.443  1.00  0.00     0.268 C 
ATOM      7  C   UNL A   1      28.515  26.159  24.024  1.00  0.00     0.101 C 
BRANCH   6   8
ATOM      8  N   UNL A   1      30.384  27.759  24.134  1.00  0.00    -0.318 N 
ATOM      9  H   UNL A   1      30.244  28.319  24.975  1.00  0.00     0.347 HD
ATOM     10  H   UNL A   1      31.356  27.735  23.830  1.00  0.00     0.347 HD
BRANCH   8  11
ATOM     11  C   UNL A   1      29.616  28.377  23.037  1.00  0.00     0.362 C 
BRANCH  11  12
ATOM     12  C   UNL A   1      30.492  29.435  22.352  1.00  0.00     0.275 C 
ATOM     13  N   UNL A   1      29.896  30.496  21.733  1.00  0.00    -0.348 N 
ATOM     14  H   UNL A   1      30.502  31.131  21.290  1.00  0.00     0.163 HD
ATOM     15  O   UNL A   1      31.722  29.353  22.356  1.00  0.00    -0.268 OA
BRANCH  13  16
ATOM     16  C   UNL A   1      28.486  30.804  21.647  1.00  0.00     0.143 C 
BRANCH  16  17
ATOM     17  C   UNL A   1      28.186  31.838  22.684  1.00  0.00    -0.014 C 
ATOM     18  C   UNL A   1      28.859  32.987  22.824  1.00  0.00     0.006 C 
ENDBRANCH  16  17
ENDBRANCH  13  16
ENDBRANCH  11  12
ENDBRANCH   8  11
ENDBRANCH   6   8
BRANCH   6  19
ATOM     19  C   UNL A   1      30.805  25.242  23.682  1.00  0.00     0.453 C 
ATOM     20  F   UNL A   1      30.072  24.137  23.411  1.00  0.00    -0.164 F 
ATOM     21  F   UNL A   1      31.223  25.727  22.480  1.00  0.00    -0.164 F 
ATOM     22  F   UNL A   1      31.921  24.848  24.337  1.00  0.00    -0.164 F 
ENDBRANCH   6  19
ENDBRANCH   3   6
ENDBRANCH   1   2
BRANCH   1  23
ATOM     23  C   UNL A   1      33.259  27.496  25.853  1.00  0.00     0.042 C 
BRANCH  23  24
ATOM     24  C   UNL A   1      34.407  28.425  26.209  1.00  0.00     0.118 C 
BRANCH  24  25
ATOM     25  N   UNL A   1      33.952  29.758  26.580  1.00  0.00    -0.352 N 
ATOM     26  C   UNL A   1      34.426  30.609  27.548  1.00  0.00     0.251 C 
ATOM     27  H   UNL A   1      33.191  30.100  26.059  1.00  0.00     0.163 HD
ATOM     28  O   UNL A   1      33.776  31.610  27.843  1.00  0.00    -0.269 OA
BRANCH  26  29
ATOM     29  C   UNL A   1      35.696  30.315  28.245  1.00  0.00     0.039 A 
ATOM     30  C   UNL A   1      35.662  29.631  29.462  1.00  0.00     0.014 A 
ATOM     31  C   UNL A   1      36.920  30.720  27.707  1.00  0.00     0.014 A 
ATOM     32  C   UNL A   1      36.858  29.302  30.104  1.00  0.00     0.010 A 
ATOM     33  C   UNL A   1      38.109  30.297  28.289  1.00  0.00     0.010 A 
ATOM     34  C   UNL A   1      38.093  29.603  29.506  1.00  0.00    -0.014 A 
BRANCH  34  35
ATOM     35  C   UNL A   1      39.380  29.232  30.149  1.00  0.00     0.031 A 
ATOM     36  C   UNL A   1      39.865  30.001  31.352  1.00  0.00     0.074 A 
ATOM     37  C   UNL A   1      40.138  28.251  29.623  1.00  0.00     0.049 A 
ATOM     38  N   UNL A   1      40.986  29.875  32.014  1.00  0.00    -0.248 NA
ATOM     39  C   UNL A   1      38.988  31.072  31.859  1.00  0.00     0.031 C 
ATOM     40  C   UNL A   1      39.799  27.458  28.438  1.00  0.00     0.029 A 
ATOM     41  N   UNL A   1      41.357  27.754  30.014  1.00  0.00    -0.354 N 
ATOM     42  C   UNL A   1      40.957  30.859  32.997  1.00  0.00     0.074 A 
ATOM     43  C   UNL A   1      39.739  31.613  32.806  1.00  0.00     0.031 C 
ATOM     44  C   UNL A   1      40.768  26.554  28.221  1.00  0.00     0.029 A 
ATOM     45  C   UNL A   1      41.819  26.732  29.218  1.00  0.00     0.049 A 
ATOM     46  H   UNL A   1      41.852  28.096  30.792  1.00  0.00     0.167 HD
ATOM     47  C   UNL A   1      41.851  31.100  33.985  1.00  0.00     0.031 A 
ATOM     48  C   UNL A   1      42.962  26.023  29.279  1.00  0.00     0.031 A 
ATOM     49  C   UNL A   1      43.055  30.337  34.180  1.00  0.00     0.049 A 
ATOM     50  C   UNL A   1      43.947  26.315  30.379  1.00  0.00     0.074 A 
ATOM     51  C   UNL A   1      44.001  30.466  35.181  1.00  0.00     0.029 A 
ATOM     52  N   UNL A   1      43.481  29.306  33.357  1.00  0.00    -0.354 N 
ATOM     53  N   UNL A   1      43.872  27.210  31.336  1.00  0.00    -0.248 NA
ATOM     54  C   UNL A   1      45.164  25.494  30.415  1.00  0.00     0.031 C 
ATOM     55  C   UNL A   1      45.028  29.551  34.931  1.00  0.00     0.029 A 
ATOM     56  C   UNL A   1      44.687  28.804  33.815  1.00  0.00     0.049 A 
ATOM     57  H   UNL A   1      42.997  28.978  32.565  1.00  0.00     0.167 HD
ATOM     58  C   UNL A   1      45.014  27.033  32.110  1.00  0.00     0.074 A 
ATOM     59  C   UNL A   1      45.756  25.940  31.514  1.00  0.00     0.031 C 
ATOM     60  C   UNL A   1      45.411  27.712  33.214  1.00  0.00     0.031 A 
BRANCH  47  61
ATOM     61  C   UNL A   1      41.559  32.237  34.928  1.00  0.00    -0.014 A 
ATOM     62  C   UNL A   1      40.854  32.028  36.129  1.00  0.00     0.010 A 
ATOM     63  C   UNL A   1      42.026  33.531  34.630  1.00  0.00     0.010 A 
ATOM     64  C   UNL A   1      40.583  33.096  36.988  1.00  0.00     0.020 A 
ATOM     65  C   UNL A   1      41.787  34.596  35.504  1.00  0.00     0.020 A 
ATOM     66  C   UNL A   1      41.051  34.374  36.670  1.00  0.00     0.054 A 
BRANCH  66  67
ATOM     67  S   UNL A   1      40.705  35.734  37.818  1.00  0.00     0.124 S 
ATOM     68  O   UNL A   1      40.012  35.044  38.902  1.00  0.00    -0.237 OA
ATOM     69  O   UNL A   1      42.041  36.228  38.140  1.00  0.00    -0.237 OA
ATOM     70  O   UNL A   1      39.878  36.649  37.033  1.00  0.00    -0.744 OA
ENDBRANCH  66  67
ENDBRANCH  47  61
BRANCH  48  71
ATOM     71  C   UNL A   1      43.229  24.952  28.278  1.00  0.00    -0.014 A 
ATOM     72  C   UNL A   1      43.898  25.245  27.076  1.00  0.00     0.010 A 
ATOM     73  C   UNL A   1      42.822  23.628  28.525  1.00  0.00     0.010 A 
ATOM     74  C   UNL A   1      44.135  24.241  26.132  1.00  0.00     0.020 A 
ATOM     75  C   UNL A   1      43.084  22.615  27.598  1.00  0.00     0.020 A 
ATOM     76  C   UNL A   1      43.728  22.932  26.401  1.00  0.00     0.054 A 
BRANCH  76  77
ATOM     77  S   UNL A   1      44.088  21.637  25.182  1.00  0.00     0.124 S 
ATOM     78  O   UNL A   1      45.449  21.252  25.539  1.00  0.00    -0.237 OA
ATOM     79  O   UNL A   1      43.053  20.645  25.462  1.00  0.00    -0.237 OA
ATOM     80  O   UNL A   1      43.947  22.326  23.900  1.00  0.00    -0.744 OA
ENDBRANCH  76  77
ENDBRANCH  48  71
BRANCH  60  81
ATOM     81  C   UNL A   1      46.681  27.262  33.888  1.00  0.00    -0.014 A 
ATOM     82  C   UNL A   1      47.927  27.829  33.566  1.00  0.00     0.010 A 
ATOM     83  C   UNL A   1      46.613  26.292  34.907  1.00  0.00     0.010 A 
ATOM     84  C   UNL A   1      49.086  27.408  34.224  1.00  0.00     0.020 A 
ATOM     85  C   UNL A   1      47.764  25.894  35.590  1.00  0.00     0.020 A 
ATOM     86  C   UNL A   1      48.996  26.444  35.233  1.00  0.00     0.054 A 
BRANCH  86  87
ATOM     87  S   UNL A   1      50.509  25.946  36.101  1.00  0.00     0.124 S 
ATOM     88  O   UNL A   1      51.321  25.410  35.012  1.00  0.00    -0.237 OA
ATOM     89  O   UNL A   1      50.977  27.206  36.674  1.00  0.00    -0.237 OA
ATOM     90  O   UNL A   1      50.042  24.961  37.074  1.00  0.00    -0.744 OA
ENDBRANCH  86  87
ENDBRANCH  60  81
ENDBRANCH  34  35
ENDBRANCH  26  29
ENDBRANCH  24  25
ENDBRANCH  23  24
ENDBRANCH   1  23
TORSDOF 19
ENDMDL
MODEL 3
REMARK VINA RESULT:      -9.6      2.533      3.136
REMARK SMILES C=CCNC(=O)C[NH2+][C@](C)(C(=O)NCCCNC(=O)c1ccc(-c2c3nc(c(-c4ccc(S(=O)(=O)[O-])cc4)c4ccc([nH]4)c(-c4ccc(S(=O)(=O)[O-])cc4)c4nc(c(-c5ccc(S(=O)(=O)[O-])cc5)c5ccc2[nH]5)C=C4)C=C3)cc1)C(F)(F)F
REMARK SMILES IDX 14 1 13 2 11 3 12 4 9 6 10 7 8 8 7 11 5 12 4 13 6 15 3 16
REMARK SMILES IDX 2 17 1 18 80 19 81 20 82 21 83 22 15 23 16 24 17 25 18 26
REMARK SMILES IDX 19 28 20 29 21 30 79 31 22 32 78 33 23 34 24 35 25 36 72 37
REMARK SMILES IDX 26 38 77 39 71 40 73 41 27 42 76 43 70 44 69 45 28 47 58 48
REMARK SMILES IDX 39 49 57 50 40 51 43 52 56 53 74 54 41 55 42 56 55 58 75 59
REMARK SMILES IDX 44 60 29 61 30 62 38 63 31 64 37 65 32 66 33 67 34 68 35 69
REMARK SMILES IDX 36 70 59 71 60 72 68 73 61 74 67 75 62 76 63 77 64 78 65 79
REMARK SMILES IDX 66 80 45 81 46 82 54 83 47 84 53 85 48 86 49 87 50 88 51 89
REMARK SMILES IDX 52 90
REMARK H PARENT 13 5 8 9 8 10 4 14 17 27 73 46 43 57
REMARK Flexibility Score: inf
ROOT
ATOM      1  C   UNL A   1      34.345  24.943  25.420  1.00  0.00     0.118 C 
ENDROOT
BRANCH   1   2
ATOM      2  N   UNL A   1      34.385  25.269  24.000  1.00  0.00    -0.350 N 
ATOM      3  C   UNL A   1      33.415  25.510  23.066  1.00  0.00     0.290 C 
ATOM      4  O   UNL A   1      33.820  25.714  21.920  1.00  0.00    -0.267 OA
ATOM      5  H   UNL A   1      35.299  25.327  23.639  1.00  0.00     0.163 HD
BRANCH   3   6
ATOM      6  C   UNL A   1      31.921  25.586  23.441  1.00  0.00     0.268 C 
ATOM      7  C   UNL A   1      31.741  26.167  24.862  1.00  0.00     0.101 C 
BRANCH   6   8
ATOM      8  N   UNL A   1      31.209  26.509  22.481  1.00  0.00    -0.318 N 
ATOM      9  H   UNL A   1      31.859  26.759  21.737  1.00  0.00     0.347 HD
ATOM     10  H   UNL A   1      30.392  26.002  22.141  1.00  0.00     0.347 HD
BRANCH   8  11
ATOM     11  C   UNL A   1      30.707  27.753  23.093  1.00  0.00     0.362 C 
BRANCH  11  12
ATOM     12  C   UNL A   1      31.463  28.944  22.488  1.00  0.00     0.275 C 
ATOM     13  N   UNL A   1      30.756  29.985  21.960  1.00  0.00    -0.348 N 
ATOM     14  H   UNL A   1      31.289  30.711  21.564  1.00  0.00     0.163 HD
ATOM     15  O   UNL A   1      32.695  28.985  22.477  1.00  0.00    -0.268 OA
BRANCH  13  16
ATOM     16  C   UNL A   1      29.321  30.157  21.909  1.00  0.00     0.143 C 
BRANCH  16  17
ATOM     17  C   UNL A   1      28.912  30.906  23.136  1.00  0.00    -0.014 C 
ATOM     18  C   UNL A   1      27.682  31.390  23.352  1.00  0.00     0.006 C 
ENDBRANCH  16  17
ENDBRANCH  13  16
ENDBRANCH  11  12
ENDBRANCH   8  11
ENDBRANCH   6   8
BRANCH   6  19
ATOM     19  C   UNL A   1      31.378  24.124  23.484  1.00  0.00     0.453 C 
ATOM     20  F   UNL A   1      30.140  24.008  22.951  1.00  0.00    -0.164 F 
ATOM     21  F   UNL A   1      32.187  23.307  22.753  1.00  0.00    -0.164 F 
ATOM     22  F   UNL A   1      31.344  23.600  24.731  1.00  0.00    -0.164 F 
ENDBRANCH   6  19
ENDBRANCH   3   6
ENDBRANCH   1   2
BRANCH   1  23
ATOM     23  C   UNL A   1      35.196  23.730  25.755  1.00  0.00     0.042 C 
BRANCH  23  24
ATOM     24  C   UNL A   1      36.595  23.779  25.163  1.00  0.00     0.118 C 
BRANCH  24  25
ATOM     25  N   UNL A   1      37.437  22.687  25.630  1.00  0.00    -0.352 N 
ATOM     26  C   UNL A   1      38.674  22.725  26.225  1.00  0.00     0.251 C 
ATOM     27  H   UNL A   1      37.064  21.786  25.498  1.00  0.00     0.163 HD
ATOM     28  O   UNL A   1      39.312  21.683  26.360  1.00  0.00    -0.269 OA
BRANCH  26  29
ATOM     29  C   UNL A   1      39.245  24.011  26.681  1.00  0.00     0.039 A 
ATOM     30  C   UNL A   1      39.087  24.390  28.015  1.00  0.00     0.014 A 
ATOM     31  C   UNL A   1      39.927  24.847  25.794  1.00  0.00     0.014 A 
ATOM     32  C   UNL A   1      39.666  25.576  28.470  1.00  0.00     0.010 A 
ATOM     33  C   UNL A   1      40.594  25.969  26.272  1.00  0.00     0.010 A 
ATOM     34  C   UNL A   1      40.454  26.360  27.610  1.00  0.00    -0.014 A 
BRANCH  34  35
ATOM     35  C   UNL A   1      41.111  27.607  28.076  1.00  0.00     0.031 A 
ATOM     36  C   UNL A   1      42.612  27.733  28.012  1.00  0.00     0.074 A 
ATOM     37  C   UNL A   1      40.371  28.599  28.611  1.00  0.00     0.049 A 
ATOM     38  N   UNL A   1      43.376  28.709  28.428  1.00  0.00    -0.248 NA
ATOM     39  C   UNL A   1      43.353  26.599  27.431  1.00  0.00     0.031 C 
ATOM     40  C   UNL A   1      38.915  28.583  28.766  1.00  0.00     0.029 A 
ATOM     41  N   UNL A   1      40.745  29.815  29.127  1.00  0.00    -0.354 N 
ATOM     42  C   UNL A   1      44.682  28.299  28.178  1.00  0.00     0.074 A 
ATOM     43  C   UNL A   1      44.610  26.963  27.634  1.00  0.00     0.031 C 
ATOM     44  C   UNL A   1      38.517  29.746  29.307  1.00  0.00     0.029 A 
ATOM     45  C   UNL A   1      39.689  30.571  29.580  1.00  0.00     0.049 A 
ATOM     46  H   UNL A   1      41.680  30.117  29.169  1.00  0.00     0.167 HD
ATOM     47  C   UNL A   1      45.836  28.983  28.362  1.00  0.00     0.031 A 
ATOM     48  C   UNL A   1      39.667  31.788  30.159  1.00  0.00     0.031 A 
ATOM     49  C   UNL A   1      45.903  30.319  28.890  1.00  0.00     0.049 A 
ATOM     50  C   UNL A   1      40.964  32.524  30.364  1.00  0.00     0.074 A 
ATOM     51  C   UNL A   1      47.017  31.119  29.067  1.00  0.00     0.029 A 
ATOM     52  N   UNL A   1      44.810  31.052  29.328  1.00  0.00    -0.354 N 
ATOM     53  N   UNL A   1      42.184  32.143  30.064  1.00  0.00    -0.248 NA
ATOM     54  C   UNL A   1      40.881  33.857  30.973  1.00  0.00     0.031 C 
ATOM     55  C   UNL A   1      46.605  32.313  29.666  1.00  0.00     0.029 A 
ATOM     56  C   UNL A   1      45.226  32.286  29.796  1.00  0.00     0.049 A 
ATOM     57  H   UNL A   1      43.876  30.741  29.309  1.00  0.00     0.167 HD
ATOM     58  C   UNL A   1      43.008  33.207  30.414  1.00  0.00     0.074 A 
ATOM     59  C   UNL A   1      42.147  34.248  30.938  1.00  0.00     0.031 C 
ATOM     60  C   UNL A   1      44.356  33.314  30.310  1.00  0.00     0.031 A 
BRANCH  47  61
ATOM     61  C   UNL A   1      47.123  28.291  27.990  1.00  0.00    -0.014 A 
ATOM     62  C   UNL A   1      47.815  27.488  28.917  1.00  0.00     0.010 A 
ATOM     63  C   UNL A   1      47.631  28.416  26.684  1.00  0.00     0.010 A 
ATOM     64  C   UNL A   1      49.011  26.862  28.558  1.00  0.00     0.020 A 
ATOM     65  C   UNL A   1      48.810  27.763  26.311  1.00  0.00     0.020 A 
ATOM     66  C   UNL A   1      49.502  27.004  27.257  1.00  0.00     0.054 A 
BRANCH  66  67
ATOM     67  S   UNL A   1      51.044  26.158  26.815  1.00  0.00     0.124 S 
ATOM     68  O   UNL A   1      50.804  24.810  27.325  1.00  0.00    -0.237 OA
ATOM     69  O   UNL A   1      51.073  26.284  25.361  1.00  0.00    -0.237 OA
ATOM     70  O   UNL A   1      52.072  26.917  27.525  1.00  0.00    -0.744 OA
ENDBRANCH  66  67
ENDBRANCH  47  61
BRANCH  48  71
ATOM     71  C   UNL A   1      38.369  32.396  30.567  1.00  0.00    -0.014 A 
ATOM     72  C   UNL A   1      37.633  33.184  29.665  1.00  0.00     0.010 A 
ATOM     73  C   UNL A   1      37.859  32.182  31.860  1.00  0.00     0.010 A 
ATOM     74  C   UNL A   1      36.422  33.765  30.056  1.00  0.00     0.020 A 
ATOM     75  C   UNL A   1      36.634  32.735  32.245  1.00  0.00     0.020 A 
ATOM     76  C   UNL A   1      35.929  33.534  31.342  1.00  0.00     0.054 A 
BRANCH  76  77
ATOM     77  S   UNL A   1      34.334  34.260  31.811  1.00  0.00     0.124 S 
ATOM     78  O   UNL A   1      33.666  34.386  30.520  1.00  0.00    -0.237 OA
ATOM     79  O   UNL A   1      33.783  33.253  32.714  1.00  0.00    -0.237 OA
ATOM     80  O   UNL A   1      34.706  35.520  32.450  1.00  0.00    -0.744 OA
ENDBRANCH  76  77
ENDBRANCH  48  71
BRANCH  60  81
ATOM     81  C   UNL A   1      44.984  34.621  30.719  1.00  0.00    -0.014 A 
ATOM     82  C   UNL A   1      45.510  34.812  32.009  1.00  0.00     0.010 A 
ATOM     83  C   UNL A   1      45.102  35.655  29.770  1.00  0.00     0.010 A 
ATOM     84  C   UNL A   1      46.108  36.028  32.354  1.00  0.00     0.020 A 
ATOM     85  C   UNL A   1      45.729  36.858  30.102  1.00  0.00     0.020 A 
ATOM     86  C   UNL A   1      46.215  37.042  31.397  1.00  0.00     0.054 A 
BRANCH  86  87
ATOM     87  S   UNL A   1      47.034  38.593  31.857  1.00  0.00     0.124 S 
ATOM     88  O   UNL A   1      48.283  38.512  31.104  1.00  0.00    -0.237 OA
ATOM     89  O   UNL A   1      46.087  39.604  31.396  1.00  0.00    -0.237 OA
ATOM     90  O   UNL A   1      47.173  38.494  33.308  1.00  0.00    -0.744 OA
ENDBRANCH  86  87
ENDBRANCH  60  81
ENDBRANCH  34  35
ENDBRANCH  26  29
ENDBRANCH  24  25
ENDBRANCH  23  24
ENDBRANCH   1  23
TORSDOF 19
ENDMDL
