MODEL 1
REMARK VINA RESULT:     -11.2      0.000      0.000
REMARK SMILES O=C(NCCCNC(=O)c1ccc(-c2c3nc(c(-c4ccc(S(=O)(=O)[O-])cc4)c4ccc([nH]4)c(-c4ccc(S(=O)(=O)[O-])cc4)c4nc(c(-c5ccc(S(=O)(=O)[O-])cc5)c5ccc2[nH]5)C=C4)C=C3)cc1)c1ccc(NC(=O)[C@H]2CCS(=O)(=O)C2)cc1
REMARK SMILES IDX 5 1 4 2 3 3 1 4 2 5 70 7 71 8 85 9 72 10 84 11 73 12 74 13
REMARK SMILES IDX 75 14 76 16 77 17 78 18 83 19 79 20 80 21 81 22 82 23 6 24
REMARK SMILES IDX 7 25 8 26 9 28 10 29 11 30 69 31 12 32 68 33 13 34 14 35
REMARK SMILES IDX 15 36 62 37 16 38 67 39 61 40 63 41 17 42 66 43 60 44 59 45
REMARK SMILES IDX 18 47 48 48 29 49 47 50 30 51 33 52 46 53 64 54 31 55 32 56
REMARK SMILES IDX 45 58 65 59 34 60 19 61 20 62 28 63 21 64 27 65 22 66 23 67
REMARK SMILES IDX 24 68 25 69 26 70 49 71 50 72 58 73 51 74 57 75 52 76 53 77
REMARK SMILES IDX 54 78 55 79 56 80 35 81 36 82 44 83 37 84 43 85 38 86 39 87
REMARK SMILES IDX 40 88 41 89 42 90
REMARK H PARENT 3 6 74 15 7 27 63 46 33 57
REMARK Flexibility Score: inf
ROOT
ATOM      1  C   UNL A   1      32.595  28.282  26.183  1.00  0.00     0.042 C 
ENDROOT
BRANCH   1   2
ATOM      2  C   UNL A   1      32.702  29.169  24.958  1.00  0.00     0.118 C 
BRANCH   2   3
ATOM      3  N   UNL A   1      31.417  29.729  24.544  1.00  0.00    -0.352 N 
ATOM      4  O   UNL A   1      29.459  29.813  23.401  1.00  0.00    -0.269 OA
ATOM      5  C   UNL A   1      30.420  29.157  23.785  1.00  0.00     0.251 C 
ATOM      6  H   UNL A   1      31.237  30.647  24.853  1.00  0.00     0.163 HD
BRANCH   5   7
ATOM      7  C   UNL A   1      30.524  27.728  23.435  1.00  0.00     0.039 A 
ATOM      8  C   UNL A   1      29.900  26.787  24.243  1.00  0.00     0.016 A 
ATOM      9  C   UNL A   1      31.286  27.307  22.348  1.00  0.00     0.016 A 
ATOM     10  C   UNL A   1      30.176  25.437  24.077  1.00  0.00     0.027 A 
ATOM     11  C   UNL A   1      31.488  25.935  22.138  1.00  0.00     0.027 A 
ATOM     12  C   UNL A   1      30.953  24.975  23.017  1.00  0.00     0.041 A 
BRANCH  12  13
ATOM     13  N   UNL A   1      31.244  23.621  22.739  1.00  0.00    -0.326 N 
ATOM     14  C   UNL A   1      32.160  22.721  23.218  1.00  0.00     0.228 C 
ATOM     15  H   UNL A   1      30.656  23.237  22.049  1.00  0.00     0.169 HD
ATOM     16  O   UNL A   1      32.120  21.562  22.800  1.00  0.00    -0.274 OA
BRANCH  14  17
ATOM     17  C   UNL A   1      33.212  23.136  24.210  1.00  0.00     0.095 C 
ATOM     18  C   UNL A   1      32.835  23.075  25.694  1.00  0.00     0.030 C 
ATOM     19  C   UNL A   1      34.426  22.215  24.094  1.00  0.00     0.150 C 
ATOM     20  C   UNL A   1      34.131  23.435  26.430  1.00  0.00     0.138 C 
ATOM     21  S   UNL A   1      35.451  22.711  25.459  1.00  0.00     0.151 S 
ATOM     22  O   UNL A   1      36.314  23.779  24.991  1.00  0.00    -0.229 OA
ATOM     23  O   UNL A   1      35.954  21.538  26.133  1.00  0.00    -0.229 OA
ENDBRANCH  14  17
ENDBRANCH  12  13
ENDBRANCH   5   7
ENDBRANCH   2   3
ENDBRANCH   1   2
BRANCH   1  24
ATOM     24  C   UNL A   1      33.583  28.634  27.279  1.00  0.00     0.118 C 
BRANCH  24  25
ATOM     25  N   UNL A   1      33.549  30.044  27.641  1.00  0.00    -0.352 N 
ATOM     26  C   UNL A   1      34.501  30.823  28.253  1.00  0.00     0.251 C 
ATOM     27  H   UNL A   1      32.713  30.512  27.412  1.00  0.00     0.163 HD
ATOM     28  O   UNL A   1      34.211  31.959  28.618  1.00  0.00    -0.269 OA
BRANCH  26  29
ATOM     29  C   UNL A   1      35.858  30.287  28.495  1.00  0.00     0.039 A 
ATOM     30  C   UNL A   1      36.806  30.349  27.470  1.00  0.00     0.014 A 
ATOM     31  C   UNL A   1      36.202  29.732  29.730  1.00  0.00     0.014 A 
ATOM     32  C   UNL A   1      38.114  29.927  27.712  1.00  0.00     0.010 A 
ATOM     33  C   UNL A   1      37.527  29.414  30.002  1.00  0.00     0.010 A 
ATOM     34  C   UNL A   1      38.498  29.498  28.994  1.00  0.00    -0.014 A 
BRANCH  34  35
ATOM     35  C   UNL A   1      39.901  29.123  29.301  1.00  0.00     0.031 A 
ATOM     36  C   UNL A   1      40.826  30.125  29.940  1.00  0.00     0.074 A 
ATOM     37  C   UNL A   1      40.364  27.909  28.942  1.00  0.00     0.049 A 
ATOM     38  N   UNL A   1      42.099  30.009  30.222  1.00  0.00    -0.248 NA
ATOM     39  C   UNL A   1      40.255  31.439  30.281  1.00  0.00     0.031 C 
ATOM     40  C   UNL A   1      39.580  26.864  28.277  1.00  0.00     0.029 A 
ATOM     41  N   UNL A   1      41.608  27.348  29.081  1.00  0.00    -0.354 N 
ATOM     42  C   UNL A   1      42.482  31.235  30.753  1.00  0.00     0.074 A 
ATOM     43  C   UNL A   1      41.323  32.100  30.701  1.00  0.00     0.031 C 
ATOM     44  C   UNL A   1      40.354  25.782  28.096  1.00  0.00     0.029 A 
ATOM     45  C   UNL A   1      41.698  26.068  28.587  1.00  0.00     0.049 A 
ATOM     46  H   UNL A   1      42.368  27.818  29.496  1.00  0.00     0.167 HD
ATOM     47  C   UNL A   1      43.682  31.605  31.260  1.00  0.00     0.031 A 
ATOM     48  C   UNL A   1      42.744  25.221  28.527  1.00  0.00     0.031 A 
ATOM     49  C   UNL A   1      44.830  30.738  31.320  1.00  0.00     0.049 A 
ATOM     50  C   UNL A   1      44.071  25.658  29.083  1.00  0.00     0.074 A 
ATOM     51  C   UNL A   1      46.073  30.998  31.867  1.00  0.00     0.029 A 
ATOM     52  N   UNL A   1      44.875  29.448  30.816  1.00  0.00    -0.354 N 
ATOM     53  N   UNL A   1      44.395  26.798  29.644  1.00  0.00    -0.248 NA
ATOM     54  C   UNL A   1      45.174  24.688  29.008  1.00  0.00     0.031 C 
ATOM     55  C   UNL A   1      46.889  29.885  31.641  1.00  0.00     0.029 A 
ATOM     56  C   UNL A   1      46.134  28.907  31.012  1.00  0.00     0.049 A 
ATOM     57  H   UNL A   1      44.122  28.983  30.381  1.00  0.00     0.167 HD
ATOM     58  C   UNL A   1      45.730  26.674  30.014  1.00  0.00     0.074 A 
ATOM     59  C   UNL A   1      46.146  25.341  29.627  1.00  0.00     0.031 C 
ATOM     60  C   UNL A   1      46.536  27.579  30.620  1.00  0.00     0.031 A 
BRANCH  47  61
ATOM     61  C   UNL A   1      43.815  33.012  31.784  1.00  0.00    -0.014 A 
ATOM     62  C   UNL A   1      43.513  33.322  33.122  1.00  0.00     0.010 A 
ATOM     63  C   UNL A   1      44.281  34.032  30.934  1.00  0.00     0.010 A 
ATOM     64  C   UNL A   1      43.630  34.634  33.589  1.00  0.00     0.020 A 
ATOM     65  C   UNL A   1      44.432  35.340  31.407  1.00  0.00     0.020 A 
ATOM     66  C   UNL A   1      44.086  35.635  32.727  1.00  0.00     0.054 A 
BRANCH  66  67
ATOM     67  S   UNL A   1      44.249  37.324  33.367  1.00  0.00     0.124 S 
ATOM     68  O   UNL A   1      44.144  38.119  32.147  1.00  0.00    -0.237 OA
ATOM     69  O   UNL A   1      43.118  37.429  34.284  1.00  0.00    -0.237 OA
ATOM     70  O   UNL A   1      45.565  37.330  34.003  1.00  0.00    -0.744 OA
ENDBRANCH  66  67
ENDBRANCH  47  61
BRANCH  48  71
ATOM     71  C   UNL A   1      42.571  23.868  27.930  1.00  0.00    -0.014 A 
ATOM     72  C   UNL A   1      42.749  23.669  26.549  1.00  0.00     0.010 A 
ATOM     73  C   UNL A   1      42.242  22.766  28.740  1.00  0.00     0.010 A 
ATOM     74  C   UNL A   1      42.582  22.399  25.988  1.00  0.00     0.020 A 
ATOM     75  C   UNL A   1      42.104  21.490  28.189  1.00  0.00     0.020 A 
ATOM     76  C   UNL A   1      42.265  21.316  26.812  1.00  0.00     0.054 A 
BRANCH  76  77
ATOM     77  S   UNL A   1      42.105  19.668  26.071  1.00  0.00     0.124 S 
ATOM     78  O   UNL A   1      40.687  19.626  25.728  1.00  0.00    -0.237 OA
ATOM     79  O   UNL A   1      43.028  19.741  24.941  1.00  0.00    -0.237 OA
ATOM     80  O   UNL A   1      42.517  18.768  27.146  1.00  0.00    -0.744 OA
ENDBRANCH  76  77
ENDBRANCH  48  71
BRANCH  60  81
ATOM     81  C   UNL A   1      47.946  27.153  30.937  1.00  0.00    -0.014 A 
ATOM     82  C   UNL A   1      48.260  26.509  32.147  1.00  0.00     0.010 A 
ATOM     83  C   UNL A   1      48.959  27.352  29.982  1.00  0.00     0.010 A 
ATOM     84  C   UNL A   1      49.570  26.098  32.408  1.00  0.00     0.020 A 
ATOM     85  C   UNL A   1      50.264  26.914  30.226  1.00  0.00     0.020 A 
ATOM     86  C   UNL A   1      50.563  26.302  31.444  1.00  0.00     0.054 A 
BRANCH  86  87
ATOM     87  S   UNL A   1      52.245  25.716  31.788  1.00  0.00     0.124 S 
ATOM     88  O   UNL A   1      52.929  25.997  30.529  1.00  0.00    -0.237 OA
ATOM     89  O   UNL A   1      52.648  26.545  32.921  1.00  0.00    -0.237 OA
ATOM     90  O   UNL A   1      52.062  24.299  32.094  1.00  0.00    -0.744 OA
ENDBRANCH  86  87
ENDBRANCH  60  81
ENDBRANCH  34  35
ENDBRANCH  26  29
ENDBRANCH  24  25
ENDBRANCH   1  24
TORSDOF 15
ENDMDL
MODEL 2
REMARK VINA RESULT:     -11.0      2.939      3.707
REMARK SMILES O=C(NCCCNC(=O)c1ccc(-c2c3nc(c(-c4ccc(S(=O)(=O)[O-])cc4)c4ccc([nH]4)c(-c4ccc(S(=O)(=O)[O-])cc4)c4nc(c(-c5ccc(S(=O)(=O)[O-])cc5)c5ccc2[nH]5)C=C4)C=C3)cc1)c1ccc(NC(=O)[C@H]2CCS(=O)(=O)C2)cc1
REMARK SMILES IDX 5 1 4 2 3 3 1 4 2 5 70 7 71 8 85 9 72 10 84 11 73 12 74 13
REMARK SMILES IDX 75 14 76 16 77 17 78 18 83 19 79 20 80 21 81 22 82 23 6 24
REMARK SMILES IDX 7 25 8 26 9 28 10 29 11 30 69 31 12 32 68 33 13 34 14 35
REMARK SMILES IDX 15 36 62 37 16 38 67 39 61 40 63 41 17 42 66 43 60 44 59 45
REMARK SMILES IDX 18 47 48 48 29 49 47 50 30 51 33 52 46 53 64 54 31 55 32 56
REMARK SMILES IDX 45 58 65 59 34 60 19 61 20 62 28 63 21 64 27 65 22 66 23 67
REMARK SMILES IDX 24 68 25 69 26 70 49 71 50 72 58 73 51 74 57 75 52 76 53 77
REMARK SMILES IDX 54 78 55 79 56 80 35 81 36 82 44 83 37 84 43 85 38 86 39 87
REMARK SMILES IDX 40 88 41 89 42 90
REMARK H PARENT 3 6 74 15 7 27 63 46 33 57
REMARK Flexibility Score: inf
ROOT
ATOM      1  C   UNL A   1      35.138  30.424  27.236  1.00  0.00     0.042 C 
ENDROOT
BRANCH   1   2
ATOM      2  C   UNL A   1      33.683  30.332  26.819  1.00  0.00     0.118 C 
BRANCH   2   3
ATOM      3  N   UNL A   1      32.896  29.453  27.681  1.00  0.00    -0.352 N 
ATOM      4  O   UNL A   1      31.559  27.691  28.185  1.00  0.00    -0.269 OA
ATOM      5  C   UNL A   1      32.314  28.239  27.390  1.00  0.00     0.251 C 
ATOM      6  H   UNL A   1      32.762  29.774  28.603  1.00  0.00     0.163 HD
BRANCH   5   7
ATOM      7  C   UNL A   1      32.614  27.598  26.097  1.00  0.00     0.039 A 
ATOM      8  C   UNL A   1      31.683  27.676  25.071  1.00  0.00     0.016 A 
ATOM      9  C   UNL A   1      33.786  26.867  25.912  1.00  0.00     0.016 A 
ATOM     10  C   UNL A   1      31.832  26.888  23.937  1.00  0.00     0.027 A 
ATOM     11  C   UNL A   1      33.967  26.143  24.724  1.00  0.00     0.027 A 
ATOM     12  C   UNL A   1      32.978  26.124  23.724  1.00  0.00     0.041 A 
BRANCH  12  13
ATOM     13  N   UNL A   1      33.239  25.336  22.581  1.00  0.00    -0.326 N 
ATOM     14  C   UNL A   1      33.255  23.988  22.330  1.00  0.00     0.228 C 
ATOM     15  H   UNL A   1      33.457  25.874  21.786  1.00  0.00     0.169 HD
ATOM     16  O   UNL A   1      33.472  23.606  21.178  1.00  0.00    -0.274 OA
BRANCH  14  17
ATOM     17  C   UNL A   1      33.042  22.990  23.435  1.00  0.00     0.095 C 
ATOM     18  C   UNL A   1      32.259  21.720  23.088  1.00  0.00     0.030 C 
ATOM     19  C   UNL A   1      34.391  22.472  23.933  1.00  0.00     0.150 C 
ATOM     20  C   UNL A   1      32.319  20.874  24.365  1.00  0.00     0.138 C 
ATOM     21  S   UNL A   1      33.943  21.174  25.061  1.00  0.00     0.151 S 
ATOM     22  O   UNL A   1      33.776  21.772  26.372  1.00  0.00    -0.229 OA
ATOM     23  O   UNL A   1      34.784  20.024  24.828  1.00  0.00    -0.229 OA
ENDBRANCH  14  17
ENDBRANCH  12  13
ENDBRANCH   5   7
ENDBRANCH   2   3
ENDBRANCH   1   2
BRANCH   1  24
ATOM     24  C   UNL A   1      35.471  29.605  28.469  1.00  0.00     0.118 C 
BRANCH  24  25
ATOM     25  N   UNL A   1      35.445  30.392  29.695  1.00  0.00    -0.352 N 
ATOM     26  C   UNL A   1      36.470  30.748  30.538  1.00  0.00     0.251 C 
ATOM     27  H   UNL A   1      34.556  30.719  29.961  1.00  0.00     0.163 HD
ATOM     28  O   UNL A   1      36.212  31.281  31.614  1.00  0.00    -0.269 OA
BRANCH  26  29
ATOM     29  C   UNL A   1      37.873  30.465  30.166  1.00  0.00     0.039 A 
ATOM     30  C   UNL A   1      38.754  29.999  31.145  1.00  0.00     0.014 A 
ATOM     31  C   UNL A   1      38.320  30.647  28.855  1.00  0.00     0.014 A 
ATOM     32  C   UNL A   1      40.058  29.645  30.790  1.00  0.00     0.010 A 
ATOM     33  C   UNL A   1      39.579  30.193  28.483  1.00  0.00     0.010 A 
ATOM     34  C   UNL A   1      40.468  29.696  29.447  1.00  0.00    -0.014 A 
BRANCH  34  35
ATOM     35  C   UNL A   1      41.819  29.246  29.029  1.00  0.00     0.031 A 
ATOM     36  C   UNL A   1      42.958  30.229  28.976  1.00  0.00     0.074 A 
ATOM     37  C   UNL A   1      42.006  27.972  28.628  1.00  0.00     0.049 A 
ATOM     38  N   UNL A   1      44.190  30.043  28.573  1.00  0.00    -0.248 NA
ATOM     39  C   UNL A   1      42.672  31.608  29.405  1.00  0.00     0.031 C 
ATOM     40  C   UNL A   1      40.973  26.933  28.590  1.00  0.00     0.029 A 
ATOM     41  N   UNL A   1      43.131  27.334  28.171  1.00  0.00    -0.354 N 
ATOM     42  C   UNL A   1      44.814  31.280  28.681  1.00  0.00     0.074 A 
ATOM     43  C   UNL A   1      43.813  32.222  29.133  1.00  0.00     0.031 C 
ATOM     44  C   UNL A   1      41.520  25.784  28.166  1.00  0.00     0.029 A 
ATOM     45  C   UNL A   1      42.927  26.010  27.856  1.00  0.00     0.049 A 
ATOM     46  H   UNL A   1      44.003  27.781  28.076  1.00  0.00     0.167 HD
ATOM     47  C   UNL A   1      46.109  31.602  28.449  1.00  0.00     0.031 A 
ATOM     48  C   UNL A   1      43.775  25.084  27.366  1.00  0.00     0.031 A 
ATOM     49  C   UNL A   1      47.105  30.660  28.011  1.00  0.00     0.049 A 
ATOM     50  C   UNL A   1      45.205  25.468  27.101  1.00  0.00     0.074 A 
ATOM     51  C   UNL A   1      48.455  30.873  27.804  1.00  0.00     0.029 A 
ATOM     52  N   UNL A   1      46.859  29.329  27.712  1.00  0.00    -0.354 N 
ATOM     53  N   UNL A   1      45.793  26.627  27.276  1.00  0.00    -0.248 NA
ATOM     54  C   UNL A   1      46.090  24.415  26.583  1.00  0.00     0.031 C 
ATOM     55  C   UNL A   1      49.015  29.685  27.322  1.00  0.00     0.029 A 
ATOM     56  C   UNL A   1      48.026  28.714  27.293  1.00  0.00     0.049 A 
ATOM     57  H   UNL A   1      45.982  28.885  27.786  1.00  0.00     0.167 HD
ATOM     58  C   UNL A   1      47.123  26.436  26.916  1.00  0.00     0.074 A 
ATOM     59  C   UNL A   1      47.254  25.046  26.530  1.00  0.00     0.031 C 
ATOM     60  C   UNL A   1      48.142  27.330  26.909  1.00  0.00     0.031 A 
BRANCH  47  61
ATOM     61  C   UNL A   1      46.519  33.037  28.660  1.00  0.00    -0.014 A 
ATOM     62  C   UNL A   1      46.478  33.968  27.607  1.00  0.00     0.010 A 
ATOM     63  C   UNL A   1      46.919  33.468  29.938  1.00  0.00     0.010 A 
ATOM     64  C   UNL A   1      46.872  35.293  27.817  1.00  0.00     0.020 A 
ATOM     65  C   UNL A   1      47.283  34.800  30.160  1.00  0.00     0.020 A 
ATOM     66  C   UNL A   1      47.275  35.699  29.091  1.00  0.00     0.054 A 
BRANCH  66  67
ATOM     67  S   UNL A   1      47.761  37.429  29.338  1.00  0.00     0.124 S 
ATOM     68  O   UNL A   1      46.545  38.141  28.952  1.00  0.00    -0.237 OA
ATOM     69  O   UNL A   1      48.087  37.470  30.760  1.00  0.00    -0.237 OA
ATOM     70  O   UNL A   1      48.897  37.603  28.435  1.00  0.00    -0.744 OA
ENDBRANCH  66  67
ENDBRANCH  47  61
BRANCH  48  71
ATOM     71  C   UNL A   1      43.293  23.700  27.107  1.00  0.00    -0.014 A 
ATOM     72  C   UNL A   1      43.055  23.260  25.792  1.00  0.00     0.010 A 
ATOM     73  C   UNL A   1      43.082  22.806  28.173  1.00  0.00     0.010 A 
ATOM     74  C   UNL A   1      42.599  21.961  25.550  1.00  0.00     0.020 A 
ATOM     75  C   UNL A   1      42.654  21.498  27.934  1.00  0.00     0.020 A 
ATOM     76  C   UNL A   1      42.405  21.086  26.623  1.00  0.00     0.054 A 
BRANCH  76  77
ATOM     77  S   UNL A   1      41.862  19.389  26.282  1.00  0.00     0.124 S 
ATOM     78  O   UNL A   1      40.414  19.547  26.183  1.00  0.00    -0.237 OA
ATOM     79  O   UNL A   1      42.553  19.083  25.031  1.00  0.00    -0.237 OA
ATOM     80  O   UNL A   1      42.333  18.639  27.445  1.00  0.00    -0.744 OA
ENDBRANCH  76  77
ENDBRANCH  48  71
BRANCH  60  81
ATOM     81  C   UNL A   1      49.503  26.829  26.501  1.00  0.00    -0.014 A 
ATOM     82  C   UNL A   1      50.352  26.189  27.422  1.00  0.00     0.010 A 
ATOM     83  C   UNL A   1      49.912  26.952  25.161  1.00  0.00     0.010 A 
ATOM     84  C   UNL A   1      51.599  25.708  27.014  1.00  0.00     0.020 A 
ATOM     85  C   UNL A   1      51.145  26.444  24.743  1.00  0.00     0.020 A 
ATOM     86  C   UNL A   1      51.987  25.837  25.676  1.00  0.00     0.054 A 
BRANCH  86  87
ATOM     87  S   UNL A   1      53.590  25.161  25.164  1.00  0.00     0.124 S 
ATOM     88  O   UNL A   1      53.363  23.723  25.275  1.00  0.00    -0.237 OA
ATOM     89  O   UNL A   1      53.733  25.672  23.803  1.00  0.00    -0.237 OA
ATOM     90  O   UNL A   1      54.527  25.719  26.135  1.00  0.00    -0.744 OA
ENDBRANCH  86  87
ENDBRANCH  60  81
ENDBRANCH  34  35
ENDBRANCH  26  29
ENDBRANCH  24  25
ENDBRANCH   1  24
TORSDOF 15
ENDMDL
MODEL 3
REMARK VINA RESULT:     -10.9      2.758      9.370
REMARK SMILES O=C(NCCCNC(=O)c1ccc(-c2c3nc(c(-c4ccc(S(=O)(=O)[O-])cc4)c4ccc([nH]4)c(-c4ccc(S(=O)(=O)[O-])cc4)c4nc(c(-c5ccc(S(=O)(=O)[O-])cc5)c5ccc2[nH]5)C=C4)C=C3)cc1)c1ccc(NC(=O)[C@H]2CCS(=O)(=O)C2)cc1
REMARK SMILES IDX 5 1 4 2 3 3 1 4 2 5 70 7 71 8 85 9 72 10 84 11 73 12 74 13
REMARK SMILES IDX 75 14 76 16 77 17 78 18 83 19 79 20 80 21 81 22 82 23 6 24
REMARK SMILES IDX 7 25 8 26 9 28 10 29 11 30 69 31 12 32 68 33 13 34 14 35
REMARK SMILES IDX 15 36 62 37 16 38 67 39 61 40 63 41 17 42 66 43 60 44 59 45
REMARK SMILES IDX 18 47 48 48 29 49 47 50 30 51 33 52 46 53 64 54 31 55 32 56
REMARK SMILES IDX 45 58 65 59 34 60 19 61 20 62 28 63 21 64 27 65 22 66 23 67
REMARK SMILES IDX 24 68 25 69 26 70 49 71 50 72 58 73 51 74 57 75 52 76 53 77
REMARK SMILES IDX 54 78 55 79 56 80 35 81 36 82 44 83 37 84 43 85 38 86 39 87
REMARK SMILES IDX 40 88 41 89 42 90
REMARK H PARENT 3 6 74 15 7 27 63 46 33 57
REMARK Flexibility Score: inf
ROOT
ATOM      1  C   UNL A   1      35.359  22.347  26.086  1.00  0.00     0.042 C 
ENDROOT
BRANCH   1   2
ATOM      2  C   UNL A   1      35.492  21.179  25.128  1.00  0.00     0.118 C 
BRANCH   2   3
ATOM      3  N   UNL A   1      34.356  20.261  25.186  1.00  0.00    -0.352 N 
ATOM      4  O   UNL A   1      32.169  19.657  25.157  1.00  0.00    -0.269 OA
ATOM      5  C   UNL A   1      33.026  20.501  24.920  1.00  0.00     0.251 C 
ATOM      6  H   UNL A   1      34.572  19.338  25.454  1.00  0.00     0.163 HD
BRANCH   5   7
ATOM      7  C   UNL A   1      32.640  21.799  24.338  1.00  0.00     0.039 A 
ATOM      8  C   UNL A   1      31.698  22.581  24.992  1.00  0.00     0.016 A 
ATOM      9  C   UNL A   1      33.160  22.222  23.116  1.00  0.00     0.016 A 
ATOM     10  C   UNL A   1      31.145  23.683  24.353  1.00  0.00     0.027 A 
ATOM     11  C   UNL A   1      32.655  23.387  22.518  1.00  0.00     0.027 A 
ATOM     12  C   UNL A   1      31.620  24.125  23.119  1.00  0.00     0.041 A 
BRANCH  12  13
ATOM     13  N   UNL A   1      31.156  25.263  22.421  1.00  0.00    -0.326 N 
ATOM     14  C   UNL A   1      31.221  26.614  22.641  1.00  0.00     0.228 C 
ATOM     15  H   UNL A   1      30.680  25.034  21.590  1.00  0.00     0.169 HD
ATOM     16  O   UNL A   1      30.754  27.372  21.789  1.00  0.00    -0.274 OA
BRANCH  14  17
ATOM     17  C   UNL A   1      31.824  27.167  23.904  1.00  0.00     0.095 C 
ATOM     18  C   UNL A   1      33.233  27.759  23.803  1.00  0.00     0.030 C 
ATOM     19  C   UNL A   1      30.969  28.323  24.423  1.00  0.00     0.150 C 
ATOM     20  C   UNL A   1      33.505  28.333  25.199  1.00  0.00     0.138 C 
ATOM     21  S   UNL A   1      31.931  28.974  25.767  1.00  0.00     0.151 S 
ATOM     22  O   UNL A   1      31.549  28.255  26.967  1.00  0.00    -0.229 OA
ATOM     23  O   UNL A   1      31.947  30.417  25.691  1.00  0.00    -0.229 OA
ENDBRANCH  14  17
ENDBRANCH  12  13
ENDBRANCH   5   7
ENDBRANCH   2   3
ENDBRANCH   1   2
BRANCH   1  24
ATOM     24  C   UNL A   1      36.596  23.222  26.155  1.00  0.00     0.118 C 
BRANCH  24  25
ATOM     25  N   UNL A   1      37.835  22.456  26.100  1.00  0.00    -0.352 N 
ATOM     26  C   UNL A   1      39.126  22.845  26.366  1.00  0.00     0.251 C 
ATOM     27  H   UNL A   1      37.731  21.516  25.830  1.00  0.00     0.163 HD
ATOM     28  O   UNL A   1      40.053  22.085  26.101  1.00  0.00    -0.269 OA
BRANCH  26  29
ATOM     29  C   UNL A   1      39.399  24.180  26.941  1.00  0.00     0.039 A 
ATOM     30  C   UNL A   1      39.014  24.442  28.259  1.00  0.00     0.014 A 
ATOM     31  C   UNL A   1      40.039  25.169  26.192  1.00  0.00     0.014 A 
ATOM     32  C   UNL A   1      39.342  25.666  28.844  1.00  0.00     0.010 A 
ATOM     33  C   UNL A   1      40.459  26.341  26.807  1.00  0.00     0.010 A 
ATOM     34  C   UNL A   1      40.108  26.610  28.137  1.00  0.00    -0.014 A 
BRANCH  34  35
ATOM     35  C   UNL A   1      40.543  27.884  28.763  1.00  0.00     0.031 A 
ATOM     36  C   UNL A   1      41.925  28.003  29.348  1.00  0.00     0.074 A 
ATOM     37  C   UNL A   1      39.673  28.909  28.868  1.00  0.00     0.049 A 
ATOM     38  N   UNL A   1      42.463  29.006  29.994  1.00  0.00    -0.248 NA
ATOM     39  C   UNL A   1      42.810  26.833  29.216  1.00  0.00     0.031 C 
ATOM     40  C   UNL A   1      38.291  28.904  28.381  1.00  0.00     0.029 A 
ATOM     41  N   UNL A   1      39.821  30.154  29.425  1.00  0.00    -0.354 N 
ATOM     42  C   UNL A   1      43.735  28.581  30.360  1.00  0.00     0.074 A 
ATOM     43  C   UNL A   1      43.869  27.211  29.915  1.00  0.00     0.031 C 
ATOM     44  C   UNL A   1      37.732  30.098  28.632  1.00  0.00     0.029 A 
ATOM     45  C   UNL A   1      38.694  30.937  29.339  1.00  0.00     0.049 A 
ATOM     46  H   UNL A   1      40.656  30.459  29.849  1.00  0.00     0.167 HD
ATOM     47  C   UNL A   1      44.715  29.274  30.989  1.00  0.00     0.031 A 
ATOM     48  C   UNL A   1      38.456  32.187  29.784  1.00  0.00     0.031 A 
ATOM     49  C   UNL A   1      44.583  30.641  31.419  1.00  0.00     0.049 A 
ATOM     50  C   UNL A   1      39.554  32.932  30.492  1.00  0.00     0.074 A 
ATOM     51  C   UNL A   1      45.534  31.450  32.012  1.00  0.00     0.029 A 
ATOM     52  N   UNL A   1      43.428  31.399  31.305  1.00  0.00    -0.354 N 
ATOM     53  N   UNL A   1      40.774  32.536  30.768  1.00  0.00    -0.248 NA
ATOM     54  C   UNL A   1      39.246  34.297  30.941  1.00  0.00     0.031 C 
ATOM     55  C   UNL A   1      44.937  32.679  32.311  1.00  0.00     0.029 A 
ATOM     56  C   UNL A   1      43.632  32.658  31.843  1.00  0.00     0.049 A 
ATOM     57  H   UNL A   1      42.584  31.088  30.901  1.00  0.00     0.167 HD
ATOM     58  C   UNL A   1      41.389  33.614  31.397  1.00  0.00     0.074 A 
ATOM     59  C   UNL A   1      40.410  34.681  31.446  1.00  0.00     0.031 C 
ATOM     60  C   UNL A   1      42.649  33.711  31.887  1.00  0.00     0.031 A 
BRANCH  47  61
ATOM     61  C   UNL A   1      46.015  28.559  31.253  1.00  0.00    -0.014 A 
ATOM     62  C   UNL A   1      46.237  27.875  32.462  1.00  0.00     0.010 A 
ATOM     63  C   UNL A   1      47.016  28.541  30.265  1.00  0.00     0.010 A 
ATOM     64  C   UNL A   1      47.452  27.226  32.697  1.00  0.00     0.020 A 
ATOM     65  C   UNL A   1      48.220  27.865  30.482  1.00  0.00     0.020 A 
ATOM     66  C   UNL A   1      48.438  27.228  31.706  1.00  0.00     0.054 A 
BRANCH  66  67
ATOM     67  S   UNL A   1      49.996  26.360  32.030  1.00  0.00     0.124 S 
ATOM     68  O   UNL A   1      49.525  25.097  32.595  1.00  0.00    -0.237 OA
ATOM     69  O   UNL A   1      50.594  26.268  30.701  1.00  0.00    -0.237 OA
ATOM     70  O   UNL A   1      50.696  27.238  32.965  1.00  0.00    -0.744 OA
ENDBRANCH  66  67
ENDBRANCH  47  61
BRANCH  48  71
ATOM     71  C   UNL A   1      37.126  32.815  29.558  1.00  0.00    -0.014 A 
ATOM     72  C   UNL A   1      36.135  32.768  30.555  1.00  0.00     0.010 A 
ATOM     73  C   UNL A   1      36.845  33.478  28.349  1.00  0.00     0.010 A 
ATOM     74  C   UNL A   1      34.884  33.355  30.341  1.00  0.00     0.020 A 
ATOM     75  C   UNL A   1      35.607  34.091  28.142  1.00  0.00     0.020 A 
ATOM     76  C   UNL A   1      34.629  34.017  29.137  1.00  0.00     0.054 A 
BRANCH  76  77
ATOM     77  S   UNL A   1      33.018  34.816  28.901  1.00  0.00     0.124 S 
ATOM     78  O   UNL A   1      32.378  33.929  27.934  1.00  0.00    -0.237 OA
ATOM     79  O   UNL A   1      32.456  34.795  30.249  1.00  0.00    -0.237 OA
ATOM     80  O   UNL A   1      33.365  36.144  28.398  1.00  0.00    -0.744 OA
ENDBRANCH  76  77
ENDBRANCH  48  71
BRANCH  60  81
ATOM     81  C   UNL A   1      43.060  35.027  32.492  1.00  0.00    -0.014 A 
ATOM     82  C   UNL A   1      43.634  36.044  31.708  1.00  0.00     0.010 A 
ATOM     83  C   UNL A   1      42.816  35.267  33.857  1.00  0.00     0.010 A 
ATOM     84  C   UNL A   1      43.982  37.268  32.286  1.00  0.00     0.020 A 
ATOM     85  C   UNL A   1      43.135  36.501  34.431  1.00  0.00     0.020 A 
ATOM     86  C   UNL A   1      43.728  37.489  33.644  1.00  0.00     0.054 A 
BRANCH  86  87
ATOM     87  S   UNL A   1      44.147  39.103  34.358  1.00  0.00     0.124 S 
ATOM     88  O   UNL A   1      44.123  38.818  35.789  1.00  0.00    -0.237 OA
ATOM     89  O   UNL A   1      45.466  39.371  33.792  1.00  0.00    -0.237 OA
ATOM     90  O   UNL A   1      43.080  39.980  33.880  1.00  0.00    -0.744 OA
ENDBRANCH  86  87
ENDBRANCH  60  81
ENDBRANCH  34  35
ENDBRANCH  26  29
ENDBRANCH  24  25
ENDBRANCH   1  24
TORSDOF 15
ENDMDL
