MODEL 1
REMARK VINA RESULT:      -9.7      0.000      0.000
REMARK SMILES O=C(NCCCNC(=O)[C@H](O)Cc1ccc(O)cc1)c1ccc(-c2c3nc(c(-c4ccc(S(=O)(=O)[O-])cc4)c4ccc([nH]4)c(-c4ccc(S(=O)(=O)[O-])cc4)c4nc(c(-c5ccc(S(=O)(=O)[O-])cc5)c5ccc2[nH]5)C=C4)C=C3)cc1
REMARK SMILES IDX 5 1 4 2 3 3 1 4 2 5 20 7 21 8 79 9 22 10 78 11 23 12 24 13
REMARK SMILES IDX 25 14 72 15 26 16 77 17 71 18 73 19 27 20 76 21 70 22 69 23
REMARK SMILES IDX 28 25 58 26 39 27 57 28 40 29 43 30 56 31 74 32 41 33 42 34
REMARK SMILES IDX 55 36 75 37 44 38 29 39 30 40 38 41 31 42 37 43 32 44 33 45
REMARK SMILES IDX 34 46 35 47 36 48 59 49 60 50 68 51 61 52 67 53 62 54 63 55
REMARK SMILES IDX 64 56 65 57 66 58 45 59 46 60 54 61 47 62 53 63 48 64 49 65
REMARK SMILES IDX 50 66 51 67 52 68 6 69 7 70 8 71 9 73 10 74 12 75 13 76
REMARK SMILES IDX 14 77 19 78 15 79 18 80 16 81 17 82 11 84
REMARK H PARENT 3 6 73 24 43 35 7 72 17 83 11 85
REMARK Flexibility Score: inf
ROOT
ATOM      1  C   UNL A   1      33.980  33.782  28.399  1.00  0.00     0.042 C 
ENDROOT
BRANCH   1   2
ATOM      2  C   UNL A   1      34.393  32.452  29.013  1.00  0.00     0.118 C 
BRANCH   2   3
ATOM      3  N   UNL A   1      33.830  31.301  28.320  1.00  0.00    -0.352 N 
ATOM      4  O   UNL A   1      33.805  29.389  27.138  1.00  0.00    -0.269 OA
ATOM      5  C   UNL A   1      34.441  30.163  27.842  1.00  0.00     0.251 C 
ATOM      6  H   UNL A   1      32.857  31.343  28.170  1.00  0.00     0.163 HD
BRANCH   5   7
ATOM      7  C   UNL A   1      35.862  29.885  28.158  1.00  0.00     0.039 A 
ATOM      8  C   UNL A   1      36.864  30.113  27.216  1.00  0.00     0.014 A 
ATOM      9  C   UNL A   1      36.200  29.414  29.432  1.00  0.00     0.014 A 
ATOM     10  C   UNL A   1      38.169  29.714  27.481  1.00  0.00     0.010 A 
ATOM     11  C   UNL A   1      37.533  29.113  29.734  1.00  0.00     0.010 A 
ATOM     12  C   UNL A   1      38.526  29.231  28.750  1.00  0.00    -0.014 A 
BRANCH  12  13
ATOM     13  C   UNL A   1      39.954  28.933  29.035  1.00  0.00     0.031 A 
ATOM     14  C   UNL A   1      40.840  29.930  29.729  1.00  0.00     0.074 A 
ATOM     15  C   UNL A   1      40.437  27.722  28.688  1.00  0.00     0.049 A 
ATOM     16  N   UNL A   1      42.095  29.807  30.079  1.00  0.00    -0.248 NA
ATOM     17  C   UNL A   1      40.249  31.234  30.072  1.00  0.00     0.031 C 
ATOM     18  C   UNL A   1      39.674  26.674  28.003  1.00  0.00     0.029 A 
ATOM     19  N   UNL A   1      41.670  27.156  28.884  1.00  0.00    -0.354 N 
ATOM     20  C   UNL A   1      42.452  31.017  30.662  1.00  0.00     0.074 A 
ATOM     21  C   UNL A   1      41.285  31.872  30.600  1.00  0.00     0.031 C 
ATOM     22  C   UNL A   1      40.434  25.576  27.891  1.00  0.00     0.029 A 
ATOM     23  C   UNL A   1      41.759  25.863  28.427  1.00  0.00     0.049 A 
ATOM     24  H   UNL A   1      42.420  27.630  29.312  1.00  0.00     0.167 HD
ATOM     25  C   UNL A   1      43.641  31.381  31.202  1.00  0.00     0.031 A 
ATOM     26  C   UNL A   1      42.793  25.002  28.418  1.00  0.00     0.031 A 
ATOM     27  C   UNL A   1      44.798  30.524  31.259  1.00  0.00     0.049 A 
ATOM     28  C   UNL A   1      44.106  25.440  28.997  1.00  0.00     0.074 A 
ATOM     29  C   UNL A   1      46.041  30.791  31.808  1.00  0.00     0.029 A 
ATOM     30  N   UNL A   1      44.859  29.235  30.747  1.00  0.00    -0.354 N 
ATOM     31  N   UNL A   1      44.413  26.581  29.565  1.00  0.00    -0.248 NA
ATOM     32  C   UNL A   1      45.212  24.477  28.932  1.00  0.00     0.031 C 
ATOM     33  C   UNL A   1      46.868  29.686  31.582  1.00  0.00     0.029 A 
ATOM     34  C   UNL A   1      46.124  28.706  30.945  1.00  0.00     0.049 A 
ATOM     35  H   UNL A   1      44.113  28.767  30.308  1.00  0.00     0.167 HD
ATOM     36  C   UNL A   1      45.746  26.470  29.939  1.00  0.00     0.074 A 
ATOM     37  C   UNL A   1      46.178  25.141  29.551  1.00  0.00     0.031 C 
ATOM     38  C   UNL A   1      46.541  27.386  30.544  1.00  0.00     0.031 A 
BRANCH  25  39
ATOM     39  C   UNL A   1      43.764  32.780  31.751  1.00  0.00    -0.014 A 
ATOM     40  C   UNL A   1      44.225  33.841  30.952  1.00  0.00     0.010 A 
ATOM     41  C   UNL A   1      43.361  33.046  33.073  1.00  0.00     0.010 A 
ATOM     42  C   UNL A   1      44.320  35.133  31.477  1.00  0.00     0.020 A 
ATOM     43  C   UNL A   1      43.430  34.342  33.594  1.00  0.00     0.020 A 
ATOM     44  C   UNL A   1      43.927  35.375  32.797  1.00  0.00     0.054 A 
BRANCH  44  45
ATOM     45  S   UNL A   1      44.046  37.065  33.447  1.00  0.00     0.124 S 
ATOM     46  O   UNL A   1      45.439  37.121  33.885  1.00  0.00    -0.237 OA
ATOM     47  O   UNL A   1      43.723  37.882  32.280  1.00  0.00    -0.237 OA
ATOM     48  O   UNL A   1      43.055  37.096  34.519  1.00  0.00    -0.744 OA
ENDBRANCH  44  45
ENDBRANCH  25  39
BRANCH  26  49
ATOM     49  C   UNL A   1      42.622  23.650  27.821  1.00  0.00    -0.014 A 
ATOM     50  C   UNL A   1      42.820  23.442  26.446  1.00  0.00     0.010 A 
ATOM     51  C   UNL A   1      42.296  22.553  28.641  1.00  0.00     0.010 A 
ATOM     52  C   UNL A   1      42.683  22.163  25.899  1.00  0.00     0.020 A 
ATOM     53  C   UNL A   1      42.188  21.268  28.103  1.00  0.00     0.020 A 
ATOM     54  C   UNL A   1      42.371  21.084  26.732  1.00  0.00     0.054 A 
BRANCH  54  55
ATOM     55  S   UNL A   1      42.257  19.423  26.011  1.00  0.00     0.124 S 
ATOM     56  O   UNL A   1      42.692  18.581  27.121  1.00  0.00    -0.237 OA
ATOM     57  O   UNL A   1      40.844  19.327  25.658  1.00  0.00    -0.237 OA
ATOM     58  O   UNL A   1      43.172  19.482  24.874  1.00  0.00    -0.744 OA
ENDBRANCH  54  55
ENDBRANCH  26  49
BRANCH  38  59
ATOM     59  C   UNL A   1      47.955  26.969  30.846  1.00  0.00    -0.014 A 
ATOM     60  C   UNL A   1      48.996  27.219  29.935  1.00  0.00     0.010 A 
ATOM     61  C   UNL A   1      48.250  26.355  32.076  1.00  0.00     0.010 A 
ATOM     62  C   UNL A   1      50.304  26.829  30.236  1.00  0.00     0.020 A 
ATOM     63  C   UNL A   1      49.559  25.988  32.391  1.00  0.00     0.020 A 
ATOM     64  C   UNL A   1      50.577  26.215  31.462  1.00  0.00     0.054 A 
BRANCH  64  65
ATOM     65  S   UNL A   1      52.288  25.751  31.844  1.00  0.00     0.124 S 
ATOM     66  O   UNL A   1      52.146  24.347  32.218  1.00  0.00    -0.237 OA
ATOM     67  O   UNL A   1      52.978  25.999  30.581  1.00  0.00    -0.237 OA
ATOM     68  O   UNL A   1      52.654  26.653  32.934  1.00  0.00    -0.744 OA
ENDBRANCH  64  65
ENDBRANCH  38  59
ENDBRANCH  12  13
ENDBRANCH   5   7
ENDBRANCH   2   3
ENDBRANCH   1   2
BRANCH   1  69
ATOM     69  C   UNL A   1      34.741  34.988  28.931  1.00  0.00     0.117 C 
BRANCH  69  70
ATOM     70  N   UNL A   1      33.858  36.002  29.495  1.00  0.00    -0.354 N 
ATOM     71  C   UNL A   1      33.299  36.111  30.733  1.00  0.00     0.249 C 
ATOM     72  H   UNL A   1      33.628  36.732  28.876  1.00  0.00     0.163 HD
ATOM     73  O   UNL A   1      32.573  37.084  30.953  1.00  0.00    -0.272 OA
BRANCH  71  74
ATOM     74  C   UNL A   1      33.540  35.048  31.822  1.00  0.00     0.207 C 
BRANCH  74  75
ATOM     75  C   UNL A   1      34.869  35.356  32.531  1.00  0.00     0.077 C 
BRANCH  75  76
ATOM     76  C   UNL A   1      35.791  34.162  32.656  1.00  0.00    -0.045 A 
ATOM     77  C   UNL A   1      37.155  34.361  32.918  1.00  0.00     0.007 A 
ATOM     78  C   UNL A   1      35.317  32.851  32.501  1.00  0.00     0.007 A 
ATOM     79  C   UNL A   1      38.026  33.280  33.048  1.00  0.00     0.046 A 
ATOM     80  C   UNL A   1      36.191  31.766  32.622  1.00  0.00     0.046 A 
ATOM     81  C   UNL A   1      37.535  31.989  32.901  1.00  0.00     0.115 A 
BRANCH  81  82
ATOM     82  O   UNL A   1      38.353  30.904  33.027  1.00  0.00    -0.508 OA
ATOM     83  H   UNL A   1      39.120  30.955  33.563  1.00  0.00     0.293 HD
ENDBRANCH  81  82
ENDBRANCH  75  76
ENDBRANCH  74  75
BRANCH  74  84
ATOM     84  O   UNL A   1      32.448  34.932  32.729  1.00  0.00    -0.383 OA
ATOM     85  H   UNL A   1      32.752  34.518  33.551  1.00  0.00     0.211 HD
ENDBRANCH  74  84
ENDBRANCH  71  74
ENDBRANCH  69  70
ENDBRANCH   1  69
TORSDOF 17
ENDMDL
MODEL 2
REMARK VINA RESULT:      -9.7      2.829     11.818
REMARK SMILES O=C(NCCCNC(=O)[C@H](O)Cc1ccc(O)cc1)c1ccc(-c2c3nc(c(-c4ccc(S(=O)(=O)[O-])cc4)c4ccc([nH]4)c(-c4ccc(S(=O)(=O)[O-])cc4)c4nc(c(-c5ccc(S(=O)(=O)[O-])cc5)c5ccc2[nH]5)C=C4)C=C3)cc1
REMARK SMILES IDX 5 1 4 2 3 3 1 4 2 5 20 7 21 8 79 9 22 10 78 11 23 12 24 13
REMARK SMILES IDX 25 14 72 15 26 16 77 17 71 18 73 19 27 20 76 21 70 22 69 23
REMARK SMILES IDX 28 25 58 26 39 27 57 28 40 29 43 30 56 31 74 32 41 33 42 34
REMARK SMILES IDX 55 36 75 37 44 38 29 39 30 40 38 41 31 42 37 43 32 44 33 45
REMARK SMILES IDX 34 46 35 47 36 48 59 49 60 50 68 51 61 52 67 53 62 54 63 55
REMARK SMILES IDX 64 56 65 57 66 58 45 59 46 60 54 61 47 62 53 63 48 64 49 65
REMARK SMILES IDX 50 66 51 67 52 68 6 69 7 70 8 71 9 73 10 74 12 75 13 76
REMARK SMILES IDX 14 77 19 78 15 79 18 80 16 81 17 82 11 84
REMARK H PARENT 3 6 73 24 43 35 7 72 17 83 11 85
REMARK Flexibility Score: inf
ROOT
ATOM      1  C   UNL A   1      41.139  20.186  26.231  1.00  0.00     0.042 C 
ENDROOT
BRANCH   1   2
ATOM      2  C   UNL A   1      40.814  21.671  26.160  1.00  0.00     0.118 C 
BRANCH   2   3
ATOM      3  N   UNL A   1      39.433  21.939  25.784  1.00  0.00    -0.352 N 
ATOM      4  O   UNL A   1      37.428  22.957  25.804  1.00  0.00    -0.269 OA
ATOM      5  C   UNL A   1      38.619  23.009  26.084  1.00  0.00     0.251 C 
ATOM      6  H   UNL A   1      39.013  21.244  25.226  1.00  0.00     0.163 HD
BRANCH   5   7
ATOM      7  C   UNL A   1      39.173  24.206  26.759  1.00  0.00     0.039 A 
ATOM      8  C   UNL A   1      38.960  24.425  28.120  1.00  0.00     0.014 A 
ATOM      9  C   UNL A   1      39.943  25.113  26.022  1.00  0.00     0.014 A 
ATOM     10  C   UNL A   1      39.366  25.620  28.703  1.00  0.00     0.010 A 
ATOM     11  C   UNL A   1      40.443  26.266  26.637  1.00  0.00     0.010 A 
ATOM     12  C   UNL A   1      40.132  26.546  27.976  1.00  0.00    -0.014 A 
BRANCH  12  13
ATOM     13  C   UNL A   1      40.653  27.753  28.669  1.00  0.00     0.031 A 
ATOM     14  C   UNL A   1      42.086  27.843  29.116  1.00  0.00     0.074 A 
ATOM     15  C   UNL A   1      39.817  28.795  28.857  1.00  0.00     0.049 A 
ATOM     16  N   UNL A   1      42.700  28.840  29.701  1.00  0.00    -0.248 NA
ATOM     17  C   UNL A   1      42.940  26.667  28.886  1.00  0.00     0.031 C 
ATOM     18  C   UNL A   1      38.403  28.821  28.471  1.00  0.00     0.029 A 
ATOM     19  N   UNL A   1      40.035  30.038  29.393  1.00  0.00    -0.354 N 
ATOM     20  C   UNL A   1      44.002  28.409  29.928  1.00  0.00     0.074 A 
ATOM     21  C   UNL A   1      44.085  27.050  29.437  1.00  0.00     0.031 C 
ATOM     22  C   UNL A   1      37.898  30.036  28.727  1.00  0.00     0.029 A 
ATOM     23  C   UNL A   1      38.927  30.851  29.361  1.00  0.00     0.049 A 
ATOM     24  H   UNL A   1      40.902  30.322  29.765  1.00  0.00     0.167 HD
ATOM     25  C   UNL A   1      45.034  29.085  30.491  1.00  0.00     0.031 A 
ATOM     26  C   UNL A   1      38.745  32.107  29.807  1.00  0.00     0.031 A 
ATOM     27  C   UNL A   1      44.943  30.438  30.978  1.00  0.00     0.049 A 
ATOM     28  C   UNL A   1      39.895  32.822  30.452  1.00  0.00     0.074 A 
ATOM     29  C   UNL A   1      45.939  31.219  31.542  1.00  0.00     0.029 A 
ATOM     30  N   UNL A   1      43.792  31.212  30.965  1.00  0.00    -0.354 N 
ATOM     31  N   UNL A   1      41.125  32.402  30.633  1.00  0.00    -0.248 NA
ATOM     32  C   UNL A   1      39.635  34.177  30.953  1.00  0.00     0.031 C 
ATOM     33  C   UNL A   1      45.377  32.443  31.917  1.00  0.00     0.029 A 
ATOM     34  C   UNL A   1      44.045  32.450  31.534  1.00  0.00     0.049 A 
ATOM     35  H   UNL A   1      42.922  30.923  30.605  1.00  0.00     0.167 HD
ATOM     36  C   UNL A   1      41.791  33.448  31.259  1.00  0.00     0.074 A 
ATOM     37  C   UNL A   1      40.832  34.527  31.404  1.00  0.00     0.031 C 
ATOM     38  C   UNL A   1      43.078  33.508  31.679  1.00  0.00     0.031 A 
BRANCH  25  39
ATOM     39  C   UNL A   1      46.349  28.362  30.638  1.00  0.00    -0.014 A 
ATOM     40  C   UNL A   1      46.641  27.603  31.785  1.00  0.00     0.010 A 
ATOM     41  C   UNL A   1      47.286  28.401  29.589  1.00  0.00     0.010 A 
ATOM     42  C   UNL A   1      47.862  26.930  31.898  1.00  0.00     0.020 A 
ATOM     43  C   UNL A   1      48.498  27.709  29.686  1.00  0.00     0.020 A 
ATOM     44  C   UNL A   1      48.785  26.991  30.849  1.00  0.00     0.054 A 
BRANCH  44  45
ATOM     45  S   UNL A   1      50.354  26.095  31.015  1.00  0.00     0.124 S 
ATOM     46  O   UNL A   1      50.330  25.229  29.839  1.00  0.00    -0.237 OA
ATOM     47  O   UNL A   1      51.342  27.170  30.981  1.00  0.00    -0.237 OA
ATOM     48  O   UNL A   1      50.228  25.408  32.297  1.00  0.00    -0.744 OA
ENDBRANCH  44  45
ENDBRANCH  25  39
BRANCH  26  49
ATOM     49  C   UNL A   1      37.410  32.751  29.673  1.00  0.00    -0.014 A 
ATOM     50  C   UNL A   1      36.505  32.758  30.747  1.00  0.00     0.010 A 
ATOM     51  C   UNL A   1      37.055  33.396  28.473  1.00  0.00     0.010 A 
ATOM     52  C   UNL A   1      35.264  33.388  30.621  1.00  0.00     0.020 A 
ATOM     53  C   UNL A   1      35.829  34.053  28.353  1.00  0.00     0.020 A 
ATOM     54  C   UNL A   1      34.936  34.035  29.425  1.00  0.00     0.054 A 
BRANCH  54  55
ATOM     55  S   UNL A   1      33.345  34.899  29.302  1.00  0.00     0.124 S 
ATOM     56  O   UNL A   1      33.756  36.229  28.864  1.00  0.00    -0.237 OA
ATOM     57  O   UNL A   1      32.626  34.100  28.313  1.00  0.00    -0.237 OA
ATOM     58  O   UNL A   1      32.810  34.822  30.659  1.00  0.00    -0.744 OA
ENDBRANCH  54  55
ENDBRANCH  26  49
BRANCH  38  59
ATOM     59  C   UNL A   1      43.530  34.795  32.314  1.00  0.00    -0.014 A 
ATOM     60  C   UNL A   1      43.462  34.982  33.706  1.00  0.00     0.010 A 
ATOM     61  C   UNL A   1      44.065  35.816  31.508  1.00  0.00     0.010 A 
ATOM     62  C   UNL A   1      43.891  36.183  34.278  1.00  0.00     0.020 A 
ATOM     63  C   UNL A   1      44.519  37.007  32.079  1.00  0.00     0.020 A 
ATOM     64  C   UNL A   1      44.415  37.188  33.460  1.00  0.00     0.054 A 
BRANCH  64  65
ATOM     65  S   UNL A   1      45.000  38.724  34.229  1.00  0.00     0.124 S 
ATOM     66  O   UNL A   1      45.527  39.456  33.082  1.00  0.00    -0.237 OA
ATOM     67  O   UNL A   1      43.781  39.271  34.819  1.00  0.00    -0.237 OA
ATOM     68  O   UNL A   1      46.000  38.268  35.192  1.00  0.00    -0.744 OA
ENDBRANCH  64  65
ENDBRANCH  38  59
ENDBRANCH  12  13
ENDBRANCH   5   7
ENDBRANCH   2   3
ENDBRANCH   1   2
BRANCH   1  69
ATOM     69  C   UNL A   1      42.348  19.843  27.091  1.00  0.00     0.117 C 
BRANCH  69  70
ATOM     70  N   UNL A   1      43.269  18.932  26.422  1.00  0.00    -0.354 N 
ATOM     71  C   UNL A   1      44.153  19.142  25.406  1.00  0.00     0.249 C 
ATOM     72  H   UNL A   1      43.248  18.009  26.763  1.00  0.00     0.163 HD
ATOM     73  O   UNL A   1      44.821  18.179  25.018  1.00  0.00    -0.272 OA
BRANCH  71  74
ATOM     74  C   UNL A   1      44.305  20.523  24.742  1.00  0.00     0.207 C 
BRANCH  74  75
ATOM     75  C   UNL A   1      45.283  21.370  25.573  1.00  0.00     0.077 C 
BRANCH  75  76
ATOM     76  C   UNL A   1      45.084  22.862  25.427  1.00  0.00    -0.045 A 
ATOM     77  C   UNL A   1      46.181  23.728  25.558  1.00  0.00     0.007 A 
ATOM     78  C   UNL A   1      43.817  23.411  25.175  1.00  0.00     0.007 A 
ATOM     79  C   UNL A   1      46.029  25.106  25.420  1.00  0.00     0.046 A 
ATOM     80  C   UNL A   1      43.662  24.795  25.044  1.00  0.00     0.046 A 
ATOM     81  C   UNL A   1      44.767  25.629  25.160  1.00  0.00     0.115 A 
BRANCH  81  82
ATOM     82  O   UNL A   1      44.577  26.971  25.011  1.00  0.00    -0.508 OA
ATOM     83  H   UNL A   1      43.712  27.330  25.053  1.00  0.00     0.293 HD
ENDBRANCH  81  82
ENDBRANCH  75  76
ENDBRANCH  74  75
BRANCH  74  84
ATOM     84  O   UNL A   1      44.681  20.437  23.370  1.00  0.00    -0.383 OA
ATOM     85  H   UNL A   1      43.924  20.131  22.846  1.00  0.00     0.211 HD
ENDBRANCH  74  84
ENDBRANCH  71  74
ENDBRANCH  69  70
ENDBRANCH   1  69
TORSDOF 17
ENDMDL
MODEL 3
REMARK VINA RESULT:      -9.7      2.938     10.370
REMARK SMILES O=C(NCCCNC(=O)[C@H](O)Cc1ccc(O)cc1)c1ccc(-c2c3nc(c(-c4ccc(S(=O)(=O)[O-])cc4)c4ccc([nH]4)c(-c4ccc(S(=O)(=O)[O-])cc4)c4nc(c(-c5ccc(S(=O)(=O)[O-])cc5)c5ccc2[nH]5)C=C4)C=C3)cc1
REMARK SMILES IDX 5 1 4 2 3 3 1 4 2 5 20 7 21 8 79 9 22 10 78 11 23 12 24 13
REMARK SMILES IDX 25 14 72 15 26 16 77 17 71 18 73 19 27 20 76 21 70 22 69 23
REMARK SMILES IDX 28 25 58 26 39 27 57 28 40 29 43 30 56 31 74 32 41 33 42 34
REMARK SMILES IDX 55 36 75 37 44 38 29 39 30 40 38 41 31 42 37 43 32 44 33 45
REMARK SMILES IDX 34 46 35 47 36 48 59 49 60 50 68 51 61 52 67 53 62 54 63 55
REMARK SMILES IDX 64 56 65 57 66 58 45 59 46 60 54 61 47 62 53 63 48 64 49 65
REMARK SMILES IDX 50 66 51 67 52 68 6 69 7 70 8 71 9 73 10 74 12 75 13 76
REMARK SMILES IDX 14 77 19 78 15 79 18 80 16 81 17 82 11 84
REMARK H PARENT 3 6 73 24 43 35 7 72 17 83 11 85
REMARK Flexibility Score: inf
ROOT
ATOM      1  C   UNL A   1      41.872  21.967  25.823  1.00  0.00     0.042 C 
ENDROOT
BRANCH   1   2
ATOM      2  C   UNL A   1      40.621  21.603  26.609  1.00  0.00     0.118 C 
BRANCH   2   3
ATOM      3  N   UNL A   1      39.388  21.994  25.938  1.00  0.00    -0.352 N 
ATOM      4  O   UNL A   1      37.559  23.223  25.492  1.00  0.00    -0.269 OA
ATOM      5  C   UNL A   1      38.664  23.163  26.015  1.00  0.00     0.251 C 
ATOM      6  H   UNL A   1      39.013  21.314  25.332  1.00  0.00     0.163 HD
BRANCH   5   7
ATOM      7  C   UNL A   1      39.206  24.334  26.744  1.00  0.00     0.039 A 
ATOM      8  C   UNL A   1      38.947  24.517  28.102  1.00  0.00     0.014 A 
ATOM      9  C   UNL A   1      40.011  25.252  26.061  1.00  0.00     0.014 A 
ATOM     10  C   UNL A   1      39.344  25.691  28.732  1.00  0.00     0.010 A 
ATOM     11  C   UNL A   1      40.501  26.382  26.726  1.00  0.00     0.010 A 
ATOM     12  C   UNL A   1      40.145  26.628  28.060  1.00  0.00    -0.014 A 
BRANCH  12  13
ATOM     13  C   UNL A   1      40.654  27.809  28.805  1.00  0.00     0.031 A 
ATOM     14  C   UNL A   1      39.783  29.006  29.068  1.00  0.00     0.074 A 
ATOM     15  C   UNL A   1      41.916  27.772  29.280  1.00  0.00     0.049 A 
ATOM     16  N   UNL A   1      40.069  30.098  29.731  1.00  0.00    -0.248 NA
ATOM     17  C   UNL A   1      38.419  28.982  28.515  1.00  0.00     0.031 C 
ATOM     18  C   UNL A   1      42.859  26.666  29.081  1.00  0.00     0.029 A 
ATOM     19  N   UNL A   1      42.617  28.668  30.045  1.00  0.00    -0.354 N 
ATOM     20  C   UNL A   1      38.936  30.899  29.659  1.00  0.00     0.074 A 
ATOM     21  C   UNL A   1      37.961  30.177  28.869  1.00  0.00     0.031 C 
ATOM     22  C   UNL A   1      43.988  26.922  29.757  1.00  0.00     0.029 A 
ATOM     23  C   UNL A   1      43.881  28.238  30.373  1.00  0.00     0.049 A 
ATOM     24  H   UNL A   1      42.250  29.536  30.331  1.00  0.00     0.167 HD
ATOM     25  C   UNL A   1      38.725  32.122  30.205  1.00  0.00     0.031 A 
ATOM     26  C   UNL A   1      44.858  28.838  31.077  1.00  0.00     0.031 A 
ATOM     27  C   UNL A   1      39.700  32.835  30.991  1.00  0.00     0.049 A 
ATOM     28  C   UNL A   1      44.609  30.203  31.645  1.00  0.00     0.074 A 
ATOM     29  C   UNL A   1      39.574  34.068  31.608  1.00  0.00     0.029 A 
ATOM     30  N   UNL A   1      40.983  32.383  31.266  1.00  0.00    -0.354 N 
ATOM     31  N   UNL A   1      43.520  30.932  31.586  1.00  0.00    -0.248 NA
ATOM     32  C   UNL A   1      45.719  30.830  32.374  1.00  0.00     0.031 C 
ATOM     33  C   UNL A   1      40.796  34.385  32.211  1.00  0.00     0.029 A 
ATOM     34  C   UNL A   1      41.666  33.323  32.020  1.00  0.00     0.049 A 
ATOM     35  H   UNL A   1      41.354  31.521  30.968  1.00  0.00     0.167 HD
ATOM     36  C   UNL A   1      43.808  32.099  32.281  1.00  0.00     0.074 A 
ATOM     37  C   UNL A   1      45.167  31.968  32.771  1.00  0.00     0.031 C 
ATOM     38  C   UNL A   1      43.021  33.182  32.492  1.00  0.00     0.031 A 
BRANCH  25  39
ATOM     39  C   UNL A   1      37.396  32.785  29.948  1.00  0.00    -0.014 A 
ATOM     40  C   UNL A   1      36.357  32.730  30.894  1.00  0.00     0.010 A 
ATOM     41  C   UNL A   1      37.202  33.520  28.763  1.00  0.00     0.010 A 
ATOM     42  C   UNL A   1      35.135  33.363  30.641  1.00  0.00     0.020 A 
ATOM     43  C   UNL A   1      35.991  34.176  28.518  1.00  0.00     0.020 A 
ATOM     44  C   UNL A   1      34.958  34.078  29.452  1.00  0.00     0.054 A 
BRANCH  44  45
ATOM     45  S   UNL A   1      33.369  34.902  29.159  1.00  0.00     0.124 S 
ATOM     46  O   UNL A   1      32.773  34.889  30.492  1.00  0.00    -0.237 OA
ATOM     47  O   UNL A   1      33.775  36.216  28.666  1.00  0.00    -0.237 OA
ATOM     48  O   UNL A   1      32.710  34.047  28.174  1.00  0.00    -0.744 OA
ENDBRANCH  44  45
ENDBRANCH  25  39
BRANCH  26  49
ATOM     49  C   UNL A   1      46.165  28.150  31.257  1.00  0.00    -0.014 A 
ATOM     50  C   UNL A   1      47.197  28.311  30.318  1.00  0.00     0.010 A 
ATOM     51  C   UNL A   1      46.393  27.358  32.398  1.00  0.00     0.010 A 
ATOM     52  C   UNL A   1      48.431  27.682  30.510  1.00  0.00     0.020 A 
ATOM     53  C   UNL A   1      47.634  26.753  32.610  1.00  0.00     0.020 A 
ATOM     54  C   UNL A   1      48.642  26.910  31.657  1.00  0.00     0.054 A 
BRANCH  54  55
ATOM     55  S   UNL A   1      50.270  26.152  31.918  1.00  0.00     0.124 S 
ATOM     56  O   UNL A   1      50.316  26.026  33.371  1.00  0.00    -0.237 OA
ATOM     57  O   UNL A   1      50.157  24.899  31.175  1.00  0.00    -0.237 OA
ATOM     58  O   UNL A   1      51.194  27.126  31.342  1.00  0.00    -0.744 OA
ENDBRANCH  54  55
ENDBRANCH  26  49
BRANCH  38  59
ATOM     59  C   UNL A   1      43.605  34.302  33.309  1.00  0.00    -0.014 A 
ATOM     60  C   UNL A   1      44.306  35.358  32.700  1.00  0.00     0.010 A 
ATOM     61  C   UNL A   1      43.414  34.317  34.702  1.00  0.00     0.010 A 
ATOM     62  C   UNL A   1      44.837  36.391  33.476  1.00  0.00     0.020 A 
ATOM     63  C   UNL A   1      43.920  35.361  35.478  1.00  0.00     0.020 A 
ATOM     64  C   UNL A   1      44.641  36.386  34.860  1.00  0.00     0.054 A 
BRANCH  64  65
ATOM     65  S   UNL A   1      45.308  37.758  35.842  1.00  0.00     0.124 S 
ATOM     66  O   UNL A   1      44.343  38.820  35.573  1.00  0.00    -0.237 OA
ATOM     67  O   UNL A   1      45.291  37.220  37.199  1.00  0.00    -0.237 OA
ATOM     68  O   UNL A   1      46.640  37.969  35.279  1.00  0.00    -0.744 OA
ENDBRANCH  64  65
ENDBRANCH  38  59
ENDBRANCH  12  13
ENDBRANCH   5   7
ENDBRANCH   2   3
ENDBRANCH   1   2
BRANCH   1  69
ATOM     69  C   UNL A   1      43.079  22.317  26.683  1.00  0.00     0.117 C 
BRANCH  69  70
ATOM     70  N   UNL A   1      44.258  21.533  26.335  1.00  0.00    -0.354 N 
ATOM     71  C   UNL A   1      45.344  21.843  25.572  1.00  0.00     0.249 C 
ATOM     72  H   UNL A   1      44.271  20.626  26.718  1.00  0.00     0.163 HD
ATOM     73  O   UNL A   1      46.215  20.979  25.433  1.00  0.00    -0.272 OA
BRANCH  71  74
ATOM     74  C   UNL A   1      45.481  23.214  24.885  1.00  0.00     0.207 C 
BRANCH  74  75
ATOM     75  C   UNL A   1      46.192  24.183  25.843  1.00  0.00     0.077 C 
BRANCH  75  76
ATOM     76  C   UNL A   1      45.537  25.544  25.941  1.00  0.00    -0.045 A 
ATOM     77  C   UNL A   1      46.173  26.574  26.652  1.00  0.00     0.007 A 
ATOM     78  C   UNL A   1      44.293  25.803  25.346  1.00  0.00     0.007 A 
ATOM     79  C   UNL A   1      45.598  27.840  26.750  1.00  0.00     0.046 A 
ATOM     80  C   UNL A   1      43.711  27.070  25.451  1.00  0.00     0.046 A 
ATOM     81  C   UNL A   1      44.370  28.078  26.145  1.00  0.00     0.115 A 
BRANCH  81  82
ATOM     82  O   UNL A   1      43.778  29.305  26.213  1.00  0.00    -0.508 OA
ATOM     83  H   UNL A   1      42.902  29.421  25.898  1.00  0.00     0.293 HD
ENDBRANCH  81  82
ENDBRANCH  75  76
ENDBRANCH  74  75
BRANCH  74  84
ATOM     84  O   UNL A   1      46.119  23.131  23.614  1.00  0.00    -0.383 OA
ATOM     85  H   UNL A   1      45.732  23.787  23.014  1.00  0.00     0.211 HD
ENDBRANCH  74  84
ENDBRANCH  71  74
ENDBRANCH  69  70
ENDBRANCH   1  69
TORSDOF 17
ENDMDL
