MODEL 1
REMARK VINA RESULT:     -11.8      0.000      0.000
REMARK SMILES CC(C)[N@@H+](C)Cc1cc2c(cc1Cl)C=C(C(=O)NCCCNC(=O)c1ccc(-c3c4nc(c(-c5ccc(S(=O)(=O)[O-])cc5)c5ccc([nH]5)c(-c5ccc(S(=O)(=O)[O-])cc5)c5nc(c(-c6ccc(S(=O)(=O)[O-])cc6)c6ccc3[nH]6)C=C5)C=C4)cc1)[C@@H](C(F)(F)F)O2
REMARK SMILES IDX 20 1 19 2 18 3 16 4 17 5 15 7 7 8 8 9 12 10 9 11 11 12 13 13
REMARK SMILES IDX 10 14 90 15 14 16 85 17 6 18 4 19 5 20 2 22 1 23 3 24 86 25
REMARK SMILES IDX 87 26 88 27 89 28 21 29 22 30 23 31 24 33 25 34 26 35 84 36
REMARK SMILES IDX 27 37 83 38 28 39 29 40 30 41 77 42 31 43 82 44 76 45 78 46
REMARK SMILES IDX 32 47 81 48 75 49 74 50 33 52 63 53 44 54 62 55 45 56 48 57
REMARK SMILES IDX 61 58 79 59 46 60 47 61 60 63 80 64 49 65 34 66 35 67 43 68
REMARK SMILES IDX 36 69 42 70 37 71 38 72 39 73 40 74 41 75 64 76 65 77 73 78
REMARK SMILES IDX 66 79 72 80 67 81 68 82 69 83 70 84 71 85 50 86 51 87 59 88
REMARK SMILES IDX 52 89 58 90 53 91 54 92 55 93 56 94 57 95
REMARK H PARENT 18 6 4 21 22 32 78 51 48 62
REMARK Flexibility Score: inf
ROOT
ATOM      1  C   UNL A   1      38.009  20.687  24.913  1.00  0.00     0.042 C 
ENDROOT
BRANCH   1   2
ATOM      2  C   UNL A   1      36.598  21.030  25.365  1.00  0.00     0.118 C 
BRANCH   2   3
ATOM      3  N   UNL A   1      35.642  19.990  25.015  1.00  0.00    -0.352 N 
ATOM      4  C   UNL A   1      34.309  19.898  24.805  1.00  0.00     0.251 C 
ATOM      5  O   UNL A   1      33.897  18.767  24.529  1.00  0.00    -0.270 OA
ATOM      6  H   UNL A   1      36.085  19.119  24.899  1.00  0.00     0.163 HD
BRANCH   4   7
ATOM      7  C   UNL A   1      33.349  21.037  24.868  1.00  0.00     0.067 C 
ATOM      8  C   UNL A   1      30.819  25.296  24.005  1.00  0.00     0.029 A 
ATOM      9  C   UNL A   1      30.695  24.248  24.930  1.00  0.00     0.058 A 
ATOM     10  C   UNL A   1      31.643  25.082  22.886  1.00  0.00     0.050 A 
ATOM     11  C   UNL A   1      31.490  23.112  24.833  1.00  0.00     0.128 A 
ATOM     12  C   UNL A   1      32.413  23.915  22.769  1.00  0.00     0.033 A 
ATOM     13  Cl  UNL A   1      31.740  26.209  21.576  1.00  0.00    -0.084 Cl
ATOM     14  C   UNL A   1      32.369  22.943  23.768  1.00  0.00     0.019 A 
ATOM     15  O   UNL A   1      31.376  22.193  25.837  1.00  0.00    -0.475 OA
ATOM     16  C   UNL A   1      33.220  21.760  23.738  1.00  0.00     0.025 C 
ATOM     17  C   UNL A   1      32.590  21.435  26.104  1.00  0.00     0.314 C 
BRANCH   8  18
ATOM     18  C   UNL A   1      30.079  26.587  24.287  1.00  0.00     0.300 C 
BRANCH  18  19
ATOM     19  N   UNL A   1      30.826  27.665  24.954  1.00  0.00    -0.332 N 
ATOM     20  C   UNL A   1      31.226  28.750  24.066  1.00  0.00     0.333 C 
ATOM     21  H   UNL A   1      30.076  27.997  25.561  1.00  0.00     0.348 HD
BRANCH  19  22
ATOM     22  C   UNL A   1      31.835  27.355  25.980  1.00  0.00     0.177 C 
ATOM     23  C   UNL A   1      33.273  27.545  25.486  1.00  0.00     0.075 C 
ATOM     24  C   UNL A   1      31.649  28.010  27.355  1.00  0.00     0.075 C 
ENDBRANCH  19  22
ENDBRANCH  18  19
ENDBRANCH   8  18
BRANCH  17  25
ATOM     25  C   UNL A   1      33.464  22.200  27.119  1.00  0.00     0.429 C 
ATOM     26  F   UNL A   1      32.687  22.832  28.035  1.00  0.00    -0.167 F 
ATOM     27  F   UNL A   1      34.291  21.384  27.815  1.00  0.00    -0.167 F 
ATOM     28  F   UNL A   1      34.247  23.138  26.540  1.00  0.00    -0.167 F 
ENDBRANCH  17  25
ENDBRANCH   4   7
ENDBRANCH   2   3
ENDBRANCH   1   2
BRANCH   1  29
ATOM     29  C   UNL A   1      39.024  20.794  26.044  1.00  0.00     0.118 C 
BRANCH  29  30
ATOM     30  N   UNL A   1      39.967  19.677  26.046  1.00  0.00    -0.352 N 
ATOM     31  C   UNL A   1      41.342  19.671  26.084  1.00  0.00     0.251 C 
ATOM     32  H   UNL A   1      39.552  18.786  26.018  1.00  0.00     0.163 HD
ATOM     33  O   UNL A   1      41.950  18.630  25.847  1.00  0.00    -0.269 OA
BRANCH  31  34
ATOM     34  C   UNL A   1      42.083  20.913  26.387  1.00  0.00     0.039 A 
ATOM     35  C   UNL A   1      42.445  21.210  27.700  1.00  0.00     0.014 A 
ATOM     36  C   UNL A   1      42.419  21.790  25.353  1.00  0.00     0.014 A 
ATOM     37  C   UNL A   1      42.954  22.463  28.004  1.00  0.00     0.010 A 
ATOM     38  C   UNL A   1      43.039  23.009  25.651  1.00  0.00     0.010 A 
ATOM     39  C   UNL A   1      43.262  23.379  26.985  1.00  0.00    -0.014 A 
BRANCH  39  40
ATOM     40  C   UNL A   1      43.818  24.706  27.359  1.00  0.00     0.031 A 
ATOM     41  C   UNL A   1      45.241  25.070  27.025  1.00  0.00     0.074 A 
ATOM     42  C   UNL A   1      42.997  25.621  27.915  1.00  0.00     0.049 A 
ATOM     43  N   UNL A   1      45.857  26.211  27.209  1.00  0.00    -0.248 NA
ATOM     44  C   UNL A   1      46.083  24.031  26.411  1.00  0.00     0.031 C 
ATOM     45  C   UNL A   1      41.594  25.384  28.263  1.00  0.00     0.029 A 
ATOM     46  N   UNL A   1      43.199  26.939  28.234  1.00  0.00    -0.354 N 
ATOM     47  C   UNL A   1      47.156  26.022  26.753  1.00  0.00     0.074 A 
ATOM     48  C   UNL A   1      47.253  24.650  26.308  1.00  0.00     0.031 C 
ATOM     49  C   UNL A   1      41.037  26.539  28.655  1.00  0.00     0.029 A 
ATOM     50  C   UNL A   1      42.060  27.579  28.666  1.00  0.00     0.049 A 
ATOM     51  H   UNL A   1      44.074  27.385  28.161  1.00  0.00     0.167 HD
ATOM     52  C   UNL A   1      48.171  26.917  26.698  1.00  0.00     0.031 A 
ATOM     53  C   UNL A   1      41.852  28.859  29.034  1.00  0.00     0.031 A 
ATOM     54  C   UNL A   1      48.059  28.287  27.123  1.00  0.00     0.049 A 
ATOM     55  C   UNL A   1      43.001  29.822  28.994  1.00  0.00     0.074 A 
ATOM     56  C   UNL A   1      49.032  29.272  27.099  1.00  0.00     0.029 A 
ATOM     57  N   UNL A   1      46.910  28.872  27.634  1.00  0.00    -0.354 N 
ATOM     58  N   UNL A   1      44.226  29.617  28.574  1.00  0.00    -0.248 NA
ATOM     59  C   UNL A   1      42.748  31.183  29.484  1.00  0.00     0.031 C 
ATOM     60  C   UNL A   1      48.489  30.435  27.646  1.00  0.00     0.029 A 
ATOM     61  C   UNL A   1      47.157  30.198  27.951  1.00  0.00     0.049 A 
ATOM     62  H   UNL A   1      46.047  28.414  27.753  1.00  0.00     0.167 HD
ATOM     63  C   UNL A   1      44.893  30.821  28.751  1.00  0.00     0.074 A 
ATOM     64  C   UNL A   1      43.929  31.759  29.289  1.00  0.00     0.031 C 
ATOM     65  C   UNL A   1      46.191  31.117  28.498  1.00  0.00     0.031 A 
BRANCH  52  66
ATOM     66  C   UNL A   1      49.504  26.457  26.167  1.00  0.00    -0.014 A 
ATOM     67  C   UNL A   1      50.385  25.755  27.012  1.00  0.00     0.010 A 
ATOM     68  C   UNL A   1      49.935  26.817  24.878  1.00  0.00     0.010 A 
ATOM     69  C   UNL A   1      51.681  25.447  26.589  1.00  0.00     0.020 A 
ATOM     70  C   UNL A   1      51.222  26.488  24.442  1.00  0.00     0.020 A 
ATOM     71  C   UNL A   1      52.095  25.826  25.309  1.00  0.00     0.054 A 
BRANCH  71  72
ATOM     72  S   UNL A   1      53.787  25.438  24.783  1.00  0.00     0.124 S 
ATOM     73  O   UNL A   1      53.833  26.011  23.442  1.00  0.00    -0.237 OA
ATOM     74  O   UNL A   1      54.600  26.118  25.790  1.00  0.00    -0.237 OA
ATOM     75  O   UNL A   1      53.835  23.977  24.843  1.00  0.00    -0.744 OA
ENDBRANCH  71  72
ENDBRANCH  52  66
BRANCH  53  76
ATOM     76  C   UNL A   1      40.485  29.279  29.449  1.00  0.00    -0.014 A 
ATOM     77  C   UNL A   1      39.544  29.686  28.484  1.00  0.00     0.010 A 
ATOM     78  C   UNL A   1      40.153  29.376  30.810  1.00  0.00     0.010 A 
ATOM     79  C   UNL A   1      38.325  30.246  28.872  1.00  0.00     0.020 A 
ATOM     80  C   UNL A   1      38.920  29.907  31.204  1.00  0.00     0.020 A 
ATOM     81  C   UNL A   1      38.029  30.370  30.232  1.00  0.00     0.054 A 
BRANCH  81  82
ATOM     82  S   UNL A   1      36.470  31.161  30.716  1.00  0.00     0.124 S 
ATOM     83  O   UNL A   1      35.992  30.260  31.761  1.00  0.00    -0.237 OA
ATOM     84  O   UNL A   1      36.905  32.478  31.172  1.00  0.00    -0.237 OA
ATOM     85  O   UNL A   1      35.690  31.158  29.481  1.00  0.00    -0.744 OA
ENDBRANCH  81  82
ENDBRANCH  53  76
BRANCH  65  86
ATOM     86  C   UNL A   1      46.670  32.509  28.809  1.00  0.00    -0.014 A 
ATOM     87  C   UNL A   1      46.631  33.500  27.812  1.00  0.00     0.010 A 
ATOM     88  C   UNL A   1      47.272  32.800  30.046  1.00  0.00     0.010 A 
ATOM     89  C   UNL A   1      47.217  34.749  28.033  1.00  0.00     0.020 A 
ATOM     90  C   UNL A   1      47.836  34.056  30.280  1.00  0.00     0.020 A 
ATOM     91  C   UNL A   1      47.826  35.015  29.262  1.00  0.00     0.054 A 
BRANCH  91  92
ATOM     92  S   UNL A   1      48.606  36.630  29.522  1.00  0.00     0.124 S 
ATOM     93  O   UNL A   1      48.780  36.658  30.971  1.00  0.00    -0.237 OA
ATOM     94  O   UNL A   1      49.838  36.524  28.742  1.00  0.00    -0.237 OA
ATOM     95  O   UNL A   1      47.623  37.574  28.993  1.00  0.00    -0.744 OA
ENDBRANCH  91  92
ENDBRANCH  65  86
ENDBRANCH  39  40
ENDBRANCH  31  34
ENDBRANCH  29  30
ENDBRANCH   1  29
TORSDOF 17
ENDMDL
MODEL 2
REMARK VINA RESULT:     -11.7      3.997      9.626
REMARK SMILES CC(C)[N@@H+](C)Cc1cc2c(cc1Cl)C=C(C(=O)NCCCNC(=O)c1ccc(-c3c4nc(c(-c5ccc(S(=O)(=O)[O-])cc5)c5ccc([nH]5)c(-c5ccc(S(=O)(=O)[O-])cc5)c5nc(c(-c6ccc(S(=O)(=O)[O-])cc6)c6ccc3[nH]6)C=C5)C=C4)cc1)[C@@H](C(F)(F)F)O2
REMARK SMILES IDX 20 1 19 2 18 3 16 4 17 5 15 7 7 8 8 9 12 10 9 11 11 12 13 13
REMARK SMILES IDX 10 14 90 15 14 16 85 17 6 18 4 19 5 20 2 22 1 23 3 24 86 25
REMARK SMILES IDX 87 26 88 27 89 28 21 29 22 30 23 31 24 33 25 34 26 35 84 36
REMARK SMILES IDX 27 37 83 38 28 39 29 40 30 41 77 42 31 43 82 44 76 45 78 46
REMARK SMILES IDX 32 47 81 48 75 49 74 50 33 52 63 53 44 54 62 55 45 56 48 57
REMARK SMILES IDX 61 58 79 59 46 60 47 61 60 63 80 64 49 65 34 66 35 67 43 68
REMARK SMILES IDX 36 69 42 70 37 71 38 72 39 73 40 74 41 75 64 76 65 77 73 78
REMARK SMILES IDX 66 79 72 80 67 81 68 82 69 83 70 84 71 85 50 86 51 87 59 88
REMARK SMILES IDX 52 89 58 90 53 91 54 92 55 93 56 94 57 95
REMARK H PARENT 18 6 4 21 22 32 78 51 48 62
REMARK Flexibility Score: inf
ROOT
ATOM      1  C   UNL A   1      32.054  28.247  26.972  1.00  0.00     0.042 C 
ENDROOT
BRANCH   1   2
ATOM      2  C   UNL A   1      31.508  28.801  25.665  1.00  0.00     0.118 C 
BRANCH   2   3
ATOM      3  N   UNL A   1      32.395  28.530  24.543  1.00  0.00    -0.352 N 
ATOM      4  C   UNL A   1      32.988  27.451  23.986  1.00  0.00     0.251 C 
ATOM      5  O   UNL A   1      33.702  27.690  23.006  1.00  0.00    -0.270 OA
ATOM      6  H   UNL A   1      32.623  29.357  24.059  1.00  0.00     0.163 HD
BRANCH   4   7
ATOM      7  C   UNL A   1      32.824  26.045  24.452  1.00  0.00     0.067 C 
ATOM      8  C   UNL A   1      33.512  21.175  25.501  1.00  0.00     0.029 A 
ATOM      9  C   UNL A   1      32.485  22.099  25.748  1.00  0.00     0.058 A 
ATOM     10  C   UNL A   1      34.761  21.681  25.098  1.00  0.00     0.050 A 
ATOM     11  C   UNL A   1      32.646  23.444  25.438  1.00  0.00     0.128 A 
ATOM     12  C   UNL A   1      34.931  23.047  24.826  1.00  0.00     0.033 A 
ATOM     13  Cl  UNL A   1      36.162  20.678  24.942  1.00  0.00    -0.084 Cl
ATOM     14  C   UNL A   1      33.858  23.928  24.957  1.00  0.00     0.019 A 
ATOM     15  O   UNL A   1      31.557  24.251  25.613  1.00  0.00    -0.475 OA
ATOM     16  C   UNL A   1      33.962  25.336  24.596  1.00  0.00     0.025 C 
ATOM     17  C   UNL A   1      31.495  25.387  24.705  1.00  0.00     0.314 C 
BRANCH   8  18
ATOM     18  C   UNL A   1      33.200  19.702  25.663  1.00  0.00     0.300 C 
BRANCH  18  19
ATOM     19  N   UNL A   1      33.371  18.839  24.484  1.00  0.00    -0.332 N 
ATOM     20  C   UNL A   1      32.334  19.001  23.472  1.00  0.00     0.333 C 
ATOM     21  H   UNL A   1      34.237  19.250  24.136  1.00  0.00     0.348 HD
BRANCH  19  22
ATOM     22  C   UNL A   1      33.820  17.445  24.634  1.00  0.00     0.177 C 
ATOM     23  C   UNL A   1      32.974  16.644  25.629  1.00  0.00     0.075 C 
ATOM     24  C   UNL A   1      34.032  16.643  23.344  1.00  0.00     0.075 C 
ENDBRANCH  19  22
ENDBRANCH  18  19
ENDBRANCH   8  18
BRANCH  17  25
ATOM     25  C   UNL A   1      30.779  24.970  23.403  1.00  0.00     0.429 C 
ATOM     26  F   UNL A   1      29.551  25.545  23.331  1.00  0.00    -0.167 F 
ATOM     27  F   UNL A   1      31.450  25.357  22.293  1.00  0.00    -0.167 F 
ATOM     28  F   UNL A   1      30.605  23.634  23.302  1.00  0.00    -0.167 F 
ENDBRANCH  17  25
ENDBRANCH   4   7
ENDBRANCH   2   3
ENDBRANCH   1   2
BRANCH   1  29
ATOM     29  C   UNL A   1      33.468  28.733  27.264  1.00  0.00     0.118 C 
BRANCH  29  30
ATOM     30  N   UNL A   1      33.504  30.153  27.606  1.00  0.00    -0.352 N 
ATOM     31  C   UNL A   1      34.480  30.897  28.227  1.00  0.00     0.251 C 
ATOM     32  H   UNL A   1      32.700  30.660  27.351  1.00  0.00     0.163 HD
ATOM     33  O   UNL A   1      34.218  32.029  28.626  1.00  0.00    -0.269 OA
BRANCH  31  34
ATOM     34  C   UNL A   1      35.829  30.330  28.430  1.00  0.00     0.039 A 
ATOM     35  C   UNL A   1      36.153  29.702  29.631  1.00  0.00     0.014 A 
ATOM     36  C   UNL A   1      36.783  30.426  27.412  1.00  0.00     0.014 A 
ATOM     37  C   UNL A   1      37.470  29.357  29.892  1.00  0.00     0.010 A 
ATOM     38  C   UNL A   1      38.087  29.972  27.637  1.00  0.00     0.010 A 
ATOM     39  C   UNL A   1      38.455  29.483  28.899  1.00  0.00    -0.014 A 
BRANCH  39  40
ATOM     40  C   UNL A   1      39.852  29.088  29.222  1.00  0.00     0.031 A 
ATOM     41  C   UNL A   1      40.710  29.944  30.116  1.00  0.00     0.074 A 
ATOM     42  C   UNL A   1      40.308  27.898  28.781  1.00  0.00     0.049 A 
ATOM     43  N   UNL A   1      41.918  29.705  30.560  1.00  0.00    -0.248 NA
ATOM     44  C   UNL A   1      40.151  31.227  30.571  1.00  0.00     0.031 C 
ATOM     45  C   UNL A   1      39.555  26.977  27.926  1.00  0.00     0.029 A 
ATOM     46  N   UNL A   1      41.481  27.233  29.031  1.00  0.00    -0.354 N 
ATOM     47  C   UNL A   1      42.269  30.810  31.327  1.00  0.00     0.074 A 
ATOM     48  C   UNL A   1      41.160  31.735  31.268  1.00  0.00     0.031 C 
ATOM     49  C   UNL A   1      40.241  25.832  27.801  1.00  0.00     0.029 A 
ATOM     50  C   UNL A   1      41.516  25.965  28.497  1.00  0.00     0.049 A 
ATOM     51  H   UNL A   1      42.226  27.623  29.542  1.00  0.00     0.167 HD
ATOM     52  C   UNL A   1      43.408  31.026  32.026  1.00  0.00     0.031 A 
ATOM     53  C   UNL A   1      42.465  25.009  28.553  1.00  0.00     0.031 A 
ATOM     54  C   UNL A   1      44.499  30.089  32.097  1.00  0.00     0.049 A 
ATOM     55  C   UNL A   1      43.730  25.286  29.309  1.00  0.00     0.074 A 
ATOM     56  C   UNL A   1      45.692  30.218  32.787  1.00  0.00     0.029 A 
ATOM     57  N   UNL A   1      44.529  28.852  31.471  1.00  0.00    -0.354 N 
ATOM     58  N   UNL A   1      44.047  26.346  30.013  1.00  0.00    -0.248 NA
ATOM     59  C   UNL A   1      44.770  24.249  29.272  1.00  0.00     0.031 C 
ATOM     60  C   UNL A   1      46.466  29.084  32.534  1.00  0.00     0.029 A 
ATOM     61  C   UNL A   1      45.730  28.218  31.740  1.00  0.00     0.049 A 
ATOM     62  H   UNL A   1      43.804  28.480  30.918  1.00  0.00     0.167 HD
ATOM     63  C   UNL A   1      45.325  26.106  30.502  1.00  0.00     0.074 A 
ATOM     64  C   UNL A   1      45.711  24.789  30.038  1.00  0.00     0.031 C 
ATOM     65  C   UNL A   1      46.108  26.911  31.260  1.00  0.00     0.031 A 
BRANCH  52  66
ATOM     66  C   UNL A   1      43.554  32.326  32.775  1.00  0.00    -0.014 A 
ATOM     67  C   UNL A   1      43.057  32.432  34.087  1.00  0.00     0.010 A 
ATOM     68  C   UNL A   1      44.073  33.471  32.145  1.00  0.00     0.010 A 
ATOM     69  C   UNL A   1      43.048  33.665  34.746  1.00  0.00     0.020 A 
ATOM     70  C   UNL A   1      44.090  34.700  32.811  1.00  0.00     0.020 A 
ATOM     71  C   UNL A   1      43.555  34.794  34.099  1.00  0.00     0.054 A 
BRANCH  71  72
ATOM     72  S   UNL A   1      43.518  36.391  34.960  1.00  0.00     0.124 S 
ATOM     73  O   UNL A   1      43.732  37.335  33.869  1.00  0.00    -0.237 OA
ATOM     74  O   UNL A   1      42.183  36.403  35.555  1.00  0.00    -0.237 OA
ATOM     75  O   UNL A   1      44.615  36.284  35.921  1.00  0.00    -0.744 OA
ENDBRANCH  71  72
ENDBRANCH  52  66
BRANCH  53  76
ATOM     76  C   UNL A   1      42.218  23.704  27.881  1.00  0.00    -0.014 A 
ATOM     77  C   UNL A   1      41.618  22.644  28.588  1.00  0.00     0.010 A 
ATOM     78  C   UNL A   1      42.673  23.480  26.571  1.00  0.00     0.010 A 
ATOM     79  C   UNL A   1      41.542  21.368  28.025  1.00  0.00     0.020 A 
ATOM     80  C   UNL A   1      42.570  22.212  25.991  1.00  0.00     0.020 A 
ATOM     81  C   UNL A   1      42.036  21.156  26.736  1.00  0.00     0.054 A 
BRANCH  81  82
ATOM     82  S   UNL A   1      41.989  19.478  26.048  1.00  0.00     0.124 S 
ATOM     83  O   UNL A   1      40.572  19.329  25.727  1.00  0.00    -0.237 OA
ATOM     84  O   UNL A   1      42.887  19.574  24.901  1.00  0.00    -0.237 OA
ATOM     85  O   UNL A   1      42.473  18.647  27.148  1.00  0.00    -0.744 OA
ENDBRANCH  81  82
ENDBRANCH  53  76
BRANCH  65  86
ATOM     86  C   UNL A   1      47.477  26.414  31.635  1.00  0.00    -0.014 A 
ATOM     87  C   UNL A   1      48.547  26.570  30.735  1.00  0.00     0.010 A 
ATOM     88  C   UNL A   1      47.674  25.683  32.819  1.00  0.00     0.010 A 
ATOM     89  C   UNL A   1      49.784  25.975  30.997  1.00  0.00     0.020 A 
ATOM     90  C   UNL A   1      48.916  25.109  33.097  1.00  0.00     0.020 A 
ATOM     91  C   UNL A   1      49.956  25.238  32.172  1.00  0.00     0.054 A 
BRANCH  91  92
ATOM     92  S   UNL A   1      51.558  24.448  32.483  1.00  0.00     0.124 S 
ATOM     93  O   UNL A   1      52.421  25.107  31.507  1.00  0.00    -0.237 OA
ATOM     94  O   UNL A   1      51.819  24.784  33.881  1.00  0.00    -0.237 OA
ATOM     95  O   UNL A   1      51.296  23.032  32.230  1.00  0.00    -0.744 OA
ENDBRANCH  91  92
ENDBRANCH  65  86
ENDBRANCH  39  40
ENDBRANCH  31  34
ENDBRANCH  29  30
ENDBRANCH   1  29
TORSDOF 17
ENDMDL
MODEL 3
REMARK VINA RESULT:     -11.6      3.433      4.726
REMARK SMILES CC(C)[N@@H+](C)Cc1cc2c(cc1Cl)C=C(C(=O)NCCCNC(=O)c1ccc(-c3c4nc(c(-c5ccc(S(=O)(=O)[O-])cc5)c5ccc([nH]5)c(-c5ccc(S(=O)(=O)[O-])cc5)c5nc(c(-c6ccc(S(=O)(=O)[O-])cc6)c6ccc3[nH]6)C=C5)C=C4)cc1)[C@@H](C(F)(F)F)O2
REMARK SMILES IDX 20 1 19 2 18 3 16 4 17 5 15 7 7 8 8 9 12 10 9 11 11 12 13 13
REMARK SMILES IDX 10 14 90 15 14 16 85 17 6 18 4 19 5 20 2 22 1 23 3 24 86 25
REMARK SMILES IDX 87 26 88 27 89 28 21 29 22 30 23 31 24 33 25 34 26 35 84 36
REMARK SMILES IDX 27 37 83 38 28 39 29 40 30 41 77 42 31 43 82 44 76 45 78 46
REMARK SMILES IDX 32 47 81 48 75 49 74 50 33 52 63 53 44 54 62 55 45 56 48 57
REMARK SMILES IDX 61 58 79 59 46 60 47 61 60 63 80 64 49 65 34 66 35 67 43 68
REMARK SMILES IDX 36 69 42 70 37 71 38 72 39 73 40 74 41 75 64 76 65 77 73 78
REMARK SMILES IDX 66 79 72 80 67 81 68 82 69 83 70 84 71 85 50 86 51 87 59 88
REMARK SMILES IDX 52 89 58 90 53 91 54 92 55 93 56 94 57 95
REMARK H PARENT 18 6 4 21 22 32 78 51 48 62
REMARK Flexibility Score: inf
ROOT
ATOM      1  C   UNL A   1      35.780  22.242  26.048  1.00  0.00     0.042 C 
ENDROOT
BRANCH   1   2
ATOM      2  C   UNL A   1      35.773  20.982  25.197  1.00  0.00     0.118 C 
BRANCH   2   3
ATOM      3  N   UNL A   1      34.583  20.175  25.424  1.00  0.00    -0.352 N 
ATOM      4  C   UNL A   1      33.243  20.339  25.339  1.00  0.00     0.251 C 
ATOM      5  O   UNL A   1      32.572  19.349  25.651  1.00  0.00    -0.270 OA
ATOM      6  H   UNL A   1      34.817  19.265  25.716  1.00  0.00     0.163 HD
BRANCH   4   7
ATOM      7  C   UNL A   1      32.556  21.584  24.895  1.00  0.00     0.067 C 
ATOM      8  C   UNL A   1      31.273  25.830  22.526  1.00  0.00     0.029 A 
ATOM      9  C   UNL A   1      30.698  25.063  23.552  1.00  0.00     0.058 A 
ATOM     10  C   UNL A   1      32.298  25.238  21.767  1.00  0.00     0.050 A 
ATOM     11  C   UNL A   1      31.240  23.836  23.914  1.00  0.00     0.128 A 
ATOM     12  C   UNL A   1      32.814  23.979  22.109  1.00  0.00     0.033 A 
ATOM     13  Cl  UNL A   1      32.963  25.992  20.359  1.00  0.00    -0.084 Cl
ATOM     14  C   UNL A   1      32.311  23.292  23.214  1.00  0.00     0.019 A 
ATOM     15  O   UNL A   1      30.680  23.210  24.992  1.00  0.00    -0.475 OA
ATOM     16  C   UNL A   1      32.878  22.027  23.664  1.00  0.00     0.025 C 
ATOM     17  C   UNL A   1      31.599  22.372  25.749  1.00  0.00     0.314 C 
BRANCH   8  18
ATOM     18  C   UNL A   1      30.767  27.243  22.324  1.00  0.00     0.300 C 
BRANCH  18  19
ATOM     19  N   UNL A   1      30.409  28.014  23.525  1.00  0.00    -0.332 N 
ATOM     20  C   UNL A   1      29.235  28.860  23.361  1.00  0.00     0.333 C 
ATOM     21  H   UNL A   1      30.166  27.227  24.126  1.00  0.00     0.348 HD
BRANCH  19  22
ATOM     22  C   UNL A   1      31.454  28.629  24.360  1.00  0.00     0.177 C 
ATOM     23  C   UNL A   1      31.641  27.923  25.707  1.00  0.00     0.075 C 
ATOM     24  C   UNL A   1      32.813  28.882  23.694  1.00  0.00     0.075 C 
ENDBRANCH  19  22
ENDBRANCH  18  19
ENDBRANCH   8  18
BRANCH  17  25
ATOM     25  C   UNL A   1      32.317  23.225  26.816  1.00  0.00     0.429 C 
ATOM     26  F   UNL A   1      32.741  22.444  27.842  1.00  0.00    -0.167 F 
ATOM     27  F   UNL A   1      33.415  23.851  26.331  1.00  0.00    -0.167 F 
ATOM     28  F   UNL A   1      31.526  24.187  27.341  1.00  0.00    -0.167 F 
ENDBRANCH  17  25
ENDBRANCH   4   7
ENDBRANCH   2   3
ENDBRANCH   1   2
BRANCH   1  29
ATOM     29  C   UNL A   1      36.988  23.127  25.767  1.00  0.00     0.118 C 
BRANCH  29  30
ATOM     30  N   UNL A   1      38.243  22.379  25.808  1.00  0.00    -0.352 N 
ATOM     31  C   UNL A   1      39.510  22.780  26.159  1.00  0.00     0.251 C 
ATOM     32  H   UNL A   1      38.169  21.434  25.542  1.00  0.00     0.163 HD
ATOM     33  O   UNL A   1      40.468  22.055  25.906  1.00  0.00    -0.269 OA
BRANCH  31  34
ATOM     34  C   UNL A   1      39.719  24.085  26.820  1.00  0.00     0.039 A 
ATOM     35  C   UNL A   1      40.361  25.120  26.141  1.00  0.00     0.014 A 
ATOM     36  C   UNL A   1      39.270  24.281  28.129  1.00  0.00     0.014 A 
ATOM     37  C   UNL A   1      40.735  26.264  26.829  1.00  0.00     0.010 A 
ATOM     38  C   UNL A   1      39.549  25.484  28.786  1.00  0.00     0.010 A 
ATOM     39  C   UNL A   1      40.332  26.465  28.159  1.00  0.00    -0.014 A 
BRANCH  39  40
ATOM     40  C   UNL A   1      40.746  27.714  28.852  1.00  0.00     0.031 A 
ATOM     41  C   UNL A   1      42.181  27.937  29.251  1.00  0.00     0.074 A 
ATOM     42  C   UNL A   1      39.833  28.691  29.029  1.00  0.00     0.049 A 
ATOM     43  N   UNL A   1      42.722  29.000  29.790  1.00  0.00    -0.248 NA
ATOM     44  C   UNL A   1      43.130  26.836  29.023  1.00  0.00     0.031 C 
ATOM     45  C   UNL A   1      38.418  28.592  28.661  1.00  0.00     0.029 A 
ATOM     46  N   UNL A   1      39.961  29.970  29.508  1.00  0.00    -0.354 N 
ATOM     47  C   UNL A   1      44.064  28.691  29.981  1.00  0.00     0.074 A 
ATOM     48  C   UNL A   1      44.253  27.331  29.527  1.00  0.00     0.031 C 
ATOM     49  C   UNL A   1      37.834  29.785  28.836  1.00  0.00     0.029 A 
ATOM     50  C   UNL A   1      38.807  30.712  29.405  1.00  0.00     0.049 A 
ATOM     51  H   UNL A   1      40.798  30.324  29.887  1.00  0.00     0.167 HD
ATOM     52  C   UNL A   1      45.050  29.475  30.477  1.00  0.00     0.031 A 
ATOM     53  C   UNL A   1      38.549  31.994  29.731  1.00  0.00     0.031 A 
ATOM     54  C   UNL A   1      44.857  30.836  30.905  1.00  0.00     0.049 A 
ATOM     55  C   UNL A   1      39.651  32.831  30.308  1.00  0.00     0.074 A 
ATOM     56  C   UNL A   1      45.799  31.713  31.416  1.00  0.00     0.029 A 
ATOM     57  N   UNL A   1      43.652  31.521  30.864  1.00  0.00    -0.354 N 
ATOM     58  N   UNL A   1      40.909  32.512  30.495  1.00  0.00    -0.248 NA
ATOM     59  C   UNL A   1      39.303  34.195  30.728  1.00  0.00     0.031 C 
ATOM     60  C   UNL A   1      45.153  32.909  31.735  1.00  0.00     0.029 A 
ATOM     61  C   UNL A   1      43.821  32.803  31.362  1.00  0.00     0.049 A 
ATOM     62  H   UNL A   1      42.803  31.153  30.530  1.00  0.00     0.167 HD
ATOM     63  C   UNL A   1      41.504  33.634  31.057  1.00  0.00     0.074 A 
ATOM     64  C   UNL A   1      40.476  34.650  31.153  1.00  0.00     0.031 C 
ATOM     65  C   UNL A   1      42.786  33.800  31.464  1.00  0.00     0.031 A 
BRANCH  52  66
ATOM     66  C   UNL A   1      46.436  28.895  30.596  1.00  0.00    -0.014 A 
ATOM     67  C   UNL A   1      47.362  29.086  29.554  1.00  0.00     0.010 A 
ATOM     68  C   UNL A   1      46.784  28.067  31.678  1.00  0.00     0.010 A 
ATOM     69  C   UNL A   1      48.599  28.436  29.575  1.00  0.00     0.020 A 
ATOM     70  C   UNL A   1      48.031  27.437  31.715  1.00  0.00     0.020 A 
ATOM     71  C   UNL A   1      48.922  27.606  30.652  1.00  0.00     0.054 A 
BRANCH  71  72
ATOM     72  S   UNL A   1      50.524  26.755  30.655  1.00  0.00     0.124 S 
ATOM     73  O   UNL A   1      50.169  25.431  31.156  1.00  0.00    -0.237 OA
ATOM     74  O   UNL A   1      50.920  26.813  29.249  1.00  0.00    -0.237 OA
ATOM     75  O   UNL A   1      51.340  27.569  31.555  1.00  0.00    -0.744 OA
ENDBRANCH  71  72
ENDBRANCH  52  66
BRANCH  53  76
ATOM     76  C   UNL A   1      37.186  32.541  29.491  1.00  0.00    -0.014 A 
ATOM     77  C   UNL A   1      36.860  33.114  28.247  1.00  0.00     0.010 A 
ATOM     78  C   UNL A   1      36.244  32.589  30.532  1.00  0.00     0.010 A 
ATOM     79  C   UNL A   1      35.649  33.785  28.068  1.00  0.00     0.020 A 
ATOM     80  C   UNL A   1      35.016  33.233  30.348  1.00  0.00     0.020 A 
ATOM     81  C   UNL A   1      34.741  33.856  29.128  1.00  0.00     0.054 A 
BRANCH  81  82
ATOM     82  S   UNL A   1      33.203  34.789  28.897  1.00  0.00     0.124 S 
ATOM     83  O   UNL A   1      32.654  34.797  30.251  1.00  0.00    -0.237 OA
ATOM     84  O   UNL A   1      33.679  36.079  28.405  1.00  0.00    -0.237 OA
ATOM     85  O   UNL A   1      32.463  33.988  27.925  1.00  0.00    -0.744 OA
ENDBRANCH  81  82
ENDBRANCH  53  76
BRANCH  65  86
ATOM     86  C   UNL A   1      43.167  35.123  32.070  1.00  0.00    -0.014 A 
ATOM     87  C   UNL A   1      42.827  35.403  33.406  1.00  0.00     0.010 A 
ATOM     88  C   UNL A   1      43.748  36.131  31.282  1.00  0.00     0.010 A 
ATOM     89  C   UNL A   1      43.031  36.680  33.935  1.00  0.00     0.020 A 
ATOM     90  C   UNL A   1      43.977  37.402  31.815  1.00  0.00     0.020 A 
ATOM     91  C   UNL A   1      43.593  37.675  33.132  1.00  0.00     0.054 A 
BRANCH  91  92
ATOM     92  S   UNL A   1      43.824  39.335  33.824  1.00  0.00     0.124 S 
ATOM     93  O   UNL A   1      44.049  39.049  35.238  1.00  0.00    -0.237 OA
ATOM     94  O   UNL A   1      44.985  39.834  33.090  1.00  0.00    -0.237 OA
ATOM     95  O   UNL A   1      42.565  40.011  33.516  1.00  0.00    -0.744 OA
ENDBRANCH  91  92
ENDBRANCH  65  86
ENDBRANCH  39  40
ENDBRANCH  31  34
ENDBRANCH  29  30
ENDBRANCH   1  29
TORSDOF 17
ENDMDL
