MODEL 1
REMARK VINA RESULT:     -12.8      0.000      0.000
REMARK SMILES CC1=C(CC(=O)NCCCNC(=O)c2ccc(-c3c4nc(c(-c5ccc(S(=O)(=O)[O-])cc5)c5ccc([nH]5)c(-c5ccc(S(=O)(=O)[O-])cc5)c5nc(c(-c6ccc(S(=O)(=O)[O-])cc6)c6ccc3[nH]6)C=C5)C=C4)cc2)c2cc(F)ccc2/C1=C\c1cccc(OCc2ccccc2)c1
REMARK SMILES IDX 8 1 7 2 5 3 6 4 4 6 3 7 1 8 2 9 81 10 74 11 80 12 82 13
REMARK SMILES IDX 75 14 79 15 76 16 78 17 77 18 83 19 84 20 96 21 85 22 87 23
REMARK SMILES IDX 86 24 88 25 89 26 90 27 91 28 95 29 92 30 94 31 93 32 9 33
REMARK SMILES IDX 10 34 11 35 12 36 13 38 14 39 15 40 73 41 16 42 72 43 17 44
REMARK SMILES IDX 18 45 19 46 66 47 20 48 71 49 65 50 67 51 21 52 70 53 64 54
REMARK SMILES IDX 63 55 22 57 52 58 33 59 51 60 34 61 37 62 50 63 68 64 35 65
REMARK SMILES IDX 36 66 49 68 69 69 38 70 23 71 24 72 32 73 25 74 31 75 26 76
REMARK SMILES IDX 27 77 28 78 29 79 30 80 53 81 54 82 62 83 55 84 61 85 56 86
REMARK SMILES IDX 57 87 58 88 59 89 60 90 39 91 40 92 48 93 41 94 47 95 42 96
REMARK SMILES IDX 43 97 44 98 45 99 46 100
REMARK H PARENT 7 5 11 37 67 56 37 67
REMARK Flexibility Score: inf
ROOT
ATOM      1  C   UNL A   1      31.373  28.066  25.537  1.00  0.00     0.117 C 
ENDROOT
BRANCH   1   2
ATOM      2  N   UNL A   1      31.066  28.420  24.164  1.00  0.00    -0.356 N 
ATOM      3  C   UNL A   1      30.703  27.614  23.126  1.00  0.00     0.224 C 
ATOM      4  O   UNL A   1      30.489  28.138  22.030  1.00  0.00    -0.275 OA
ATOM      5  H   UNL A   1      31.129  29.379  23.952  1.00  0.00     0.163 HD
BRANCH   3   6
ATOM      6  C   UNL A   1      30.524  26.112  23.333  1.00  0.00     0.136 C 
BRANCH   6   7
ATOM      7  C   UNL A   1      31.772  25.423  23.783  1.00  0.00    -0.027 C 
ATOM      8  C   UNL A   1      33.522  26.409  22.192  1.00  0.00     0.045 C 
ATOM      9  C   UNL A   1      33.030  25.528  23.292  1.00  0.00    -0.039 C 
ATOM     10  C   UNL A   1      33.920  24.614  24.025  1.00  0.00    -0.014 C 
ATOM     11  C   UNL A   1      31.810  24.487  24.921  1.00  0.00    -0.011 A 
ATOM     12  C   UNL A   1      33.120  24.004  25.101  1.00  0.00    -0.010 A 
ATOM     13  C   UNL A   1      35.205  24.388  23.699  1.00  0.00     0.017 C 
ATOM     14  C   UNL A   1      30.789  24.083  25.771  1.00  0.00     0.048 A 
ATOM     15  C   UNL A   1      33.422  23.137  26.143  1.00  0.00     0.012 A 
ATOM     16  C   UNL A   1      31.096  23.194  26.797  1.00  0.00     0.123 A 
ATOM     17  C   UNL A   1      32.395  22.724  26.992  1.00  0.00     0.040 A 
ATOM     18  F   UNL A   1      30.124  22.787  27.625  1.00  0.00    -0.207 F 
BRANCH  13  19
ATOM     19  C   UNL A   1      36.120  23.493  24.409  1.00  0.00    -0.021 A 
ATOM     20  C   UNL A   1      36.917  23.955  25.461  1.00  0.00     0.008 A 
ATOM     21  C   UNL A   1      36.217  22.162  23.985  1.00  0.00     0.054 A 
ATOM     22  C   UNL A   1      37.839  23.097  26.058  1.00  0.00     0.004 A 
ATOM     23  C   UNL A   1      37.116  21.295  24.601  1.00  0.00     0.120 A 
ATOM     24  C   UNL A   1      37.942  21.774  25.621  1.00  0.00     0.046 A 
BRANCH  23  25
ATOM     25  O   UNL A   1      37.273  19.968  24.304  1.00  0.00    -0.489 OA
BRANCH  25  26
ATOM     26  C   UNL A   1      36.541  19.011  25.079  1.00  0.00     0.265 C 
BRANCH  26  27
ATOM     27  C   UNL A   1      35.123  18.751  24.613  1.00  0.00    -0.011 A 
ATOM     28  C   UNL A   1      34.109  19.701  24.799  1.00  0.00     0.007 A 
ATOM     29  C   UNL A   1      34.796  17.525  24.012  1.00  0.00     0.007 A 
ATOM     30  C   UNL A   1      32.812  19.457  24.348  1.00  0.00     0.000 A 
ATOM     31  C   UNL A   1      33.494  17.277  23.571  1.00  0.00     0.000 A 
ATOM     32  C   UNL A   1      32.505  18.247  23.732  1.00  0.00     0.000 A 
ENDBRANCH  26  27
ENDBRANCH  25  26
ENDBRANCH  23  25
ENDBRANCH  13  19
ENDBRANCH   6   7
ENDBRANCH   3   6
ENDBRANCH   1   2
BRANCH   1  33
ATOM     33  C   UNL A   1      32.857  28.212  25.862  1.00  0.00     0.042 C 
BRANCH  33  34
ATOM     34  C   UNL A   1      33.144  28.615  27.304  1.00  0.00     0.118 C 
BRANCH  34  35
ATOM     35  N   UNL A   1      33.234  30.058  27.486  1.00  0.00    -0.352 N 
ATOM     36  C   UNL A   1      34.268  30.827  27.966  1.00  0.00     0.251 C 
ATOM     37  H   UNL A   1      32.429  30.561  27.227  1.00  0.00     0.163 HD
ATOM     38  O   UNL A   1      34.080  32.023  28.182  1.00  0.00    -0.269 OA
BRANCH  36  39
ATOM     39  C   UNL A   1      35.588  30.221  28.254  1.00  0.00     0.039 A 
ATOM     40  C   UNL A   1      35.869  29.664  29.502  1.00  0.00     0.014 A 
ATOM     41  C   UNL A   1      36.563  30.211  27.251  1.00  0.00     0.014 A 
ATOM     42  C   UNL A   1      37.167  29.258  29.802  1.00  0.00     0.010 A 
ATOM     43  C   UNL A   1      37.845  29.725  27.529  1.00  0.00     0.010 A 
ATOM     44  C   UNL A   1      38.173  29.295  28.823  1.00  0.00    -0.014 A 
BRANCH  44  45
ATOM     45  C   UNL A   1      39.561  28.897  29.180  1.00  0.00     0.031 A 
ATOM     46  C   UNL A   1      40.414  29.790  30.045  1.00  0.00     0.074 A 
ATOM     47  C   UNL A   1      40.031  27.699  28.781  1.00  0.00     0.049 A 
ATOM     48  N   UNL A   1      41.630  29.587  30.483  1.00  0.00    -0.248 NA
ATOM     49  C   UNL A   1      39.829  31.070  30.475  1.00  0.00     0.031 C 
ATOM     50  C   UNL A   1      39.288  26.736  27.966  1.00  0.00     0.029 A 
ATOM     51  N   UNL A   1      41.226  27.071  29.031  1.00  0.00    -0.354 N 
ATOM     52  C   UNL A   1      41.959  30.713  31.230  1.00  0.00     0.074 A 
ATOM     53  C   UNL A   1      40.829  31.612  31.159  1.00  0.00     0.031 C 
ATOM     54  C   UNL A   1      40.017  25.618  27.834  1.00  0.00     0.029 A 
ATOM     55  C   UNL A   1      41.305  25.805  28.499  1.00  0.00     0.049 A 
ATOM     56  H   UNL A   1      41.957  27.487  29.542  1.00  0.00     0.167 HD
ATOM     57  C   UNL A   1      43.093  30.966  31.925  1.00  0.00     0.031 A 
ATOM     58  C   UNL A   1      42.298  24.894  28.531  1.00  0.00     0.031 A 
ATOM     59  C   UNL A   1      44.213  30.064  31.998  1.00  0.00     0.049 A 
ATOM     60  C   UNL A   1      43.568  25.219  29.263  1.00  0.00     0.074 A 
ATOM     61  C   UNL A   1      45.407  30.236  32.677  1.00  0.00     0.029 A 
ATOM     62  N   UNL A   1      44.278  28.822  31.383  1.00  0.00    -0.354 N 
ATOM     63  N   UNL A   1      43.863  26.295  29.952  1.00  0.00    -0.248 NA
ATOM     64  C   UNL A   1      44.640  24.216  29.221  1.00  0.00     0.031 C 
ATOM     65  C   UNL A   1      46.215  29.125  32.427  1.00  0.00     0.029 A 
ATOM     66  C   UNL A   1      45.500  28.229  31.649  1.00  0.00     0.049 A 
ATOM     67  H   UNL A   1      43.563  28.424  30.839  1.00  0.00     0.167 HD
ATOM     68  C   UNL A   1      45.152  26.096  30.431  1.00  0.00     0.074 A 
ATOM     69  C   UNL A   1      45.574  24.790  29.971  1.00  0.00     0.031 C 
ATOM     70  C   UNL A   1      45.915  26.929  31.181  1.00  0.00     0.031 A 
BRANCH  57  71
ATOM     71  C   UNL A   1      43.195  32.272  32.671  1.00  0.00    -0.014 A 
ATOM     72  C   UNL A   1      43.771  33.392  32.043  1.00  0.00     0.010 A 
ATOM     73  C   UNL A   1      42.822  32.363  34.023  1.00  0.00     0.010 A 
ATOM     74  C   UNL A   1      43.993  34.572  32.759  1.00  0.00     0.020 A 
ATOM     75  C   UNL A   1      43.018  33.551  34.736  1.00  0.00     0.020 A 
ATOM     76  C   UNL A   1      43.622  34.641  34.104  1.00  0.00     0.054 A 
BRANCH  76  77
ATOM     77  S   UNL A   1      43.921  36.177  35.023  1.00  0.00     0.124 S 
ATOM     78  O   UNL A   1      44.005  35.700  36.399  1.00  0.00    -0.237 OA
ATOM     79  O   UNL A   1      45.172  36.661  34.443  1.00  0.00    -0.237 OA
ATOM     80  O   UNL A   1      42.749  36.994  34.712  1.00  0.00    -0.744 OA
ENDBRANCH  76  77
ENDBRANCH  57  71
BRANCH  58  81
ATOM     81  C   UNL A   1      42.096  23.584  27.854  1.00  0.00    -0.014 A 
ATOM     82  C   UNL A   1      41.598  22.482  28.574  1.00  0.00     0.010 A 
ATOM     83  C   UNL A   1      42.497  23.403  26.519  1.00  0.00     0.010 A 
ATOM     84  C   UNL A   1      41.564  21.211  27.995  1.00  0.00     0.020 A 
ATOM     85  C   UNL A   1      42.437  22.137  25.926  1.00  0.00     0.020 A 
ATOM     86  C   UNL A   1      42.003  21.044  26.679  1.00  0.00     0.054 A 
BRANCH  86  87
ATOM     87  S   UNL A   1      42.015  19.374  25.970  1.00  0.00     0.124 S 
ATOM     88  O   UNL A   1      40.601  19.177  25.654  1.00  0.00    -0.237 OA
ATOM     89  O   UNL A   1      42.902  19.520  24.819  1.00  0.00    -0.237 OA
ATOM     90  O   UNL A   1      42.536  18.547  27.054  1.00  0.00    -0.744 OA
ENDBRANCH  86  87
ENDBRANCH  58  81
BRANCH  70  91
ATOM     91  C   UNL A   1      47.300  26.477  31.561  1.00  0.00    -0.014 A 
ATOM     92  C   UNL A   1      48.361  26.638  30.649  1.00  0.00     0.010 A 
ATOM     93  C   UNL A   1      47.521  25.764  32.752  1.00  0.00     0.010 A 
ATOM     94  C   UNL A   1      49.606  26.059  30.902  1.00  0.00     0.020 A 
ATOM     95  C   UNL A   1      48.774  25.206  33.020  1.00  0.00     0.020 A 
ATOM     96  C   UNL A   1      49.800  25.333  32.080  1.00  0.00     0.054 A 
BRANCH  96  97
ATOM     97  S   UNL A   1      51.409  24.546  32.368  1.00  0.00     0.124 S 
ATOM     98  O   UNL A   1      52.268  25.244  31.416  1.00  0.00    -0.237 OA
ATOM     99  O   UNL A   1      51.663  24.837  33.777  1.00  0.00    -0.237 OA
ATOM    100  O   UNL A   1      51.158  23.138  32.067  1.00  0.00    -0.744 OA
ENDBRANCH  96  97
ENDBRANCH  70  91
ENDBRANCH  44  45
ENDBRANCH  36  39
ENDBRANCH  34  35
ENDBRANCH  33  34
ENDBRANCH   1  33
TORSDOF 18
ENDMDL
MODEL 2
REMARK VINA RESULT:     -12.3      1.005      7.797
REMARK SMILES CC1=C(CC(=O)NCCCNC(=O)c2ccc(-c3c4nc(c(-c5ccc(S(=O)(=O)[O-])cc5)c5ccc([nH]5)c(-c5ccc(S(=O)(=O)[O-])cc5)c5nc(c(-c6ccc(S(=O)(=O)[O-])cc6)c6ccc3[nH]6)C=C5)C=C4)cc2)c2cc(F)ccc2/C1=C\c1cccc(OCc2ccccc2)c1
REMARK SMILES IDX 8 1 7 2 5 3 6 4 4 6 3 7 1 8 2 9 81 10 74 11 80 12 82 13
REMARK SMILES IDX 75 14 79 15 76 16 78 17 77 18 83 19 84 20 96 21 85 22 87 23
REMARK SMILES IDX 86 24 88 25 89 26 90 27 91 28 95 29 92 30 94 31 93 32 9 33
REMARK SMILES IDX 10 34 11 35 12 36 13 38 14 39 15 40 73 41 16 42 72 43 17 44
REMARK SMILES IDX 18 45 19 46 66 47 20 48 71 49 65 50 67 51 21 52 70 53 64 54
REMARK SMILES IDX 63 55 22 57 52 58 33 59 51 60 34 61 37 62 50 63 68 64 35 65
REMARK SMILES IDX 36 66 49 68 69 69 38 70 23 71 24 72 32 73 25 74 31 75 26 76
REMARK SMILES IDX 27 77 28 78 29 79 30 80 53 81 54 82 62 83 55 84 61 85 56 86
REMARK SMILES IDX 57 87 58 88 59 89 60 90 39 91 40 92 48 93 41 94 47 95 42 96
REMARK SMILES IDX 43 97 44 98 45 99 46 100
REMARK H PARENT 7 5 11 37 67 56 37 67
REMARK Flexibility Score: inf
ROOT
ATOM      1  C   UNL A   1      31.570  28.284  25.511  1.00  0.00     0.117 C 
ENDROOT
BRANCH   1   2
ATOM      2  N   UNL A   1      31.265  28.549  24.118  1.00  0.00    -0.356 N 
ATOM      3  C   UNL A   1      30.859  27.686  23.143  1.00  0.00     0.224 C 
ATOM      4  O   UNL A   1      30.655  28.138  22.014  1.00  0.00    -0.275 OA
ATOM      5  H   UNL A   1      31.365  29.487  23.836  1.00  0.00     0.163 HD
BRANCH   3   6
ATOM      6  C   UNL A   1      30.619  26.212  23.461  1.00  0.00     0.136 C 
BRANCH   6   7
ATOM      7  C   UNL A   1      31.856  25.490  23.887  1.00  0.00    -0.027 C 
ATOM      8  C   UNL A   1      33.626  26.516  22.343  1.00  0.00     0.045 C 
ATOM      9  C   UNL A   1      33.117  25.598  23.406  1.00  0.00    -0.039 C 
ATOM     10  C   UNL A   1      33.993  24.644  24.104  1.00  0.00    -0.014 C 
ATOM     11  C   UNL A   1      31.878  24.508  24.987  1.00  0.00    -0.011 A 
ATOM     12  C   UNL A   1      33.181  24.001  25.152  1.00  0.00    -0.010 A 
ATOM     13  C   UNL A   1      35.276  24.415  23.774  1.00  0.00     0.017 C 
ATOM     14  C   UNL A   1      30.847  24.084  25.816  1.00  0.00     0.048 A 
ATOM     15  C   UNL A   1      33.467  23.090  26.160  1.00  0.00     0.012 A 
ATOM     16  C   UNL A   1      31.139  23.150  26.807  1.00  0.00     0.123 A 
ATOM     17  C   UNL A   1      32.430  22.656  26.988  1.00  0.00     0.040 A 
ATOM     18  F   UNL A   1      30.158  22.723  27.614  1.00  0.00    -0.207 F 
BRANCH  13  19
ATOM     19  C   UNL A   1      36.176  23.480  24.451  1.00  0.00    -0.021 A 
ATOM     20  C   UNL A   1      37.032  23.906  25.472  1.00  0.00     0.008 A 
ATOM     21  C   UNL A   1      36.198  22.146  24.027  1.00  0.00     0.054 A 
ATOM     22  C   UNL A   1      37.937  23.008  26.036  1.00  0.00     0.004 A 
ATOM     23  C   UNL A   1      37.081  21.240  24.610  1.00  0.00     0.120 A 
ATOM     24  C   UNL A   1      37.964  21.682  25.597  1.00  0.00     0.046 A 
BRANCH  23  25
ATOM     25  O   UNL A   1      37.167  19.907  24.310  1.00  0.00    -0.489 OA
BRANCH  25  26
ATOM     26  C   UNL A   1      36.400  18.986  25.096  1.00  0.00     0.265 C 
BRANCH  26  27
ATOM     27  C   UNL A   1      34.997  18.717  24.591  1.00  0.00    -0.011 A 
ATOM     28  C   UNL A   1      33.932  19.572  24.908  1.00  0.00     0.007 A 
ATOM     29  C   UNL A   1      34.739  17.577  23.815  1.00  0.00     0.007 A 
ATOM     30  C   UNL A   1      32.649  19.324  24.421  1.00  0.00     0.000 A 
ATOM     31  C   UNL A   1      33.451  17.323  23.336  1.00  0.00     0.000 A 
ATOM     32  C   UNL A   1      32.409  18.201  23.632  1.00  0.00     0.000 A 
ENDBRANCH  26  27
ENDBRANCH  25  26
ENDBRANCH  23  25
ENDBRANCH  13  19
ENDBRANCH   6   7
ENDBRANCH   3   6
ENDBRANCH   1   2
BRANCH   1  33
ATOM     33  C   UNL A   1      33.070  28.241  25.785  1.00  0.00     0.042 C 
BRANCH  33  34
ATOM     34  C   UNL A   1      33.447  28.489  27.241  1.00  0.00     0.118 C 
BRANCH  34  35
ATOM     35  N   UNL A   1      33.432  29.901  27.602  1.00  0.00    -0.352 N 
ATOM     36  C   UNL A   1      34.406  30.676  28.186  1.00  0.00     0.251 C 
ATOM     37  H   UNL A   1      32.594  30.373  27.396  1.00  0.00     0.163 HD
ATOM     38  O   UNL A   1      34.131  31.818  28.547  1.00  0.00    -0.269 OA
BRANCH  36  39
ATOM     39  C   UNL A   1      35.765  30.134  28.414  1.00  0.00     0.039 A 
ATOM     40  C   UNL A   1      36.149  29.650  29.665  1.00  0.00     0.014 A 
ATOM     41  C   UNL A   1      36.672  30.109  27.349  1.00  0.00     0.014 A 
ATOM     42  C   UNL A   1      37.479  29.308  29.897  1.00  0.00     0.010 A 
ATOM     43  C   UNL A   1      37.988  29.685  27.563  1.00  0.00     0.010 A 
ATOM     44  C   UNL A   1      38.416  29.332  28.852  1.00  0.00    -0.014 A 
BRANCH  44  45
ATOM     45  C   UNL A   1      39.840  29.004  29.133  1.00  0.00     0.031 A 
ATOM     46  C   UNL A   1      40.402  27.657  28.761  1.00  0.00     0.074 A 
ATOM     47  C   UNL A   1      40.644  29.946  29.665  1.00  0.00     0.049 A 
ATOM     48  N   UNL A   1      41.625  27.212  28.899  1.00  0.00    -0.248 NA
ATOM     49  C   UNL A   1      39.479  26.685  28.153  1.00  0.00     0.031 C 
ATOM     50  C   UNL A   1      40.222  31.296  30.040  1.00  0.00     0.029 A 
ATOM     51  N   UNL A   1      41.987  29.926  29.950  1.00  0.00    -0.354 N 
ATOM     52  C   UNL A   1      41.616  25.911  28.407  1.00  0.00     0.074 A 
ATOM     53  C   UNL A   1      40.260  25.624  27.997  1.00  0.00     0.031 C 
ATOM     54  C   UNL A   1      41.292  31.994  30.448  1.00  0.00     0.029 A 
ATOM     55  C   UNL A   1      42.466  31.124  30.426  1.00  0.00     0.049 A 
ATOM     56  H   UNL A   1      42.554  29.130  29.827  1.00  0.00     0.167 HD
ATOM     57  C   UNL A   1      42.648  25.043  28.291  1.00  0.00     0.031 A 
ATOM     58  C   UNL A   1      43.706  31.490  30.810  1.00  0.00     0.031 A 
ATOM     59  C   UNL A   1      43.999  25.337  28.695  1.00  0.00     0.049 A 
ATOM     60  C   UNL A   1      44.825  30.492  30.724  1.00  0.00     0.074 A 
ATOM     61  C   UNL A   1      45.112  24.517  28.619  1.00  0.00     0.029 A 
ATOM     62  N   UNL A   1      44.425  26.540  29.240  1.00  0.00    -0.354 N 
ATOM     63  N   UNL A   1      44.792  29.264  30.267  1.00  0.00    -0.248 NA
ATOM     64  C   UNL A   1      46.144  30.922  31.206  1.00  0.00     0.031 C 
ATOM     65  C   UNL A   1      46.198  25.203  29.168  1.00  0.00     0.029 A 
ATOM     66  C   UNL A   1      45.778  26.475  29.524  1.00  0.00     0.049 A 
ATOM     67  H   UNL A   1      43.850  27.322  29.400  1.00  0.00     0.167 HD
ATOM     68  C   UNL A   1      46.085  28.775  30.402  1.00  0.00     0.074 A 
ATOM     69  C   UNL A   1      46.883  29.845  30.963  1.00  0.00     0.031 C 
ATOM     70  C   UNL A   1      46.563  27.545  30.090  1.00  0.00     0.031 A 
BRANCH  57  71
ATOM     71  C   UNL A   1      42.373  23.682  27.706  1.00  0.00    -0.014 A 
ATOM     72  C   UNL A   1      41.980  22.625  28.548  1.00  0.00     0.010 A 
ATOM     73  C   UNL A   1      42.604  23.421  26.344  1.00  0.00     0.010 A 
ATOM     74  C   UNL A   1      41.846  21.328  28.045  1.00  0.00     0.020 A 
ATOM     75  C   UNL A   1      42.445  22.129  25.831  1.00  0.00     0.020 A 
ATOM     76  C   UNL A   1      42.088  21.087  26.690  1.00  0.00     0.054 A 
BRANCH  76  77
ATOM     77  S   UNL A   1      41.916  19.397  26.051  1.00  0.00     0.124 S 
ATOM     78  O   UNL A   1      42.313  18.591  27.200  1.00  0.00    -0.237 OA
ATOM     79  O   UNL A   1      40.502  19.332  25.689  1.00  0.00    -0.237 OA
ATOM     80  O   UNL A   1      42.837  19.367  24.915  1.00  0.00    -0.744 OA
ENDBRANCH  76  77
ENDBRANCH  57  71
BRANCH  58  81
ATOM     81  C   UNL A   1      43.931  32.881  31.290  1.00  0.00    -0.014 A 
ATOM     82  C   UNL A   1      43.799  33.190  32.657  1.00  0.00     0.010 A 
ATOM     83  C   UNL A   1      44.176  33.919  30.376  1.00  0.00     0.010 A 
ATOM     84  C   UNL A   1      43.841  34.516  33.093  1.00  0.00     0.020 A 
ATOM     85  C   UNL A   1      44.248  35.247  30.812  1.00  0.00     0.020 A 
ATOM     86  C   UNL A   1      44.046  35.539  32.163  1.00  0.00     0.054 A 
BRANCH  86  87
ATOM     87  S   UNL A   1      44.030  37.258  32.740  1.00  0.00     0.124 S 
ATOM     88  O   UNL A   1      42.933  37.237  33.705  1.00  0.00    -0.237 OA
ATOM     89  O   UNL A   1      45.365  37.420  33.309  1.00  0.00    -0.237 OA
ATOM     90  O   UNL A   1      43.778  38.024  31.522  1.00  0.00    -0.744 OA
ENDBRANCH  86  87
ENDBRANCH  58  81
BRANCH  70  91
ATOM     91  C   UNL A   1      48.019  27.260  30.348  1.00  0.00    -0.014 A 
ATOM     92  C   UNL A   1      48.429  26.820  31.621  1.00  0.00     0.010 A 
ATOM     93  C   UNL A   1      48.993  27.567  29.382  1.00  0.00     0.010 A 
ATOM     94  C   UNL A   1      49.786  26.732  31.937  1.00  0.00     0.020 A 
ATOM     95  C   UNL A   1      50.352  27.455  29.687  1.00  0.00     0.020 A 
ATOM     96  C   UNL A   1      50.739  27.065  30.972  1.00  0.00     0.054 A 
BRANCH  96  97
ATOM     97  S   UNL A   1      52.497  26.993  31.416  1.00  0.00     0.124 S 
ATOM     98  O   UNL A   1      53.106  27.847  30.401  1.00  0.00    -0.237 OA
ATOM     99  O   UNL A   1      52.508  27.525  32.777  1.00  0.00    -0.237 OA
ATOM    100  O   UNL A   1      52.818  25.571  31.310  1.00  0.00    -0.744 OA
ENDBRANCH  96  97
ENDBRANCH  70  91
ENDBRANCH  44  45
ENDBRANCH  36  39
ENDBRANCH  34  35
ENDBRANCH  33  34
ENDBRANCH   1  33
TORSDOF 18
ENDMDL
MODEL 3
REMARK VINA RESULT:     -11.7      3.370      4.573
REMARK SMILES CC1=C(CC(=O)NCCCNC(=O)c2ccc(-c3c4nc(c(-c5ccc(S(=O)(=O)[O-])cc5)c5ccc([nH]5)c(-c5ccc(S(=O)(=O)[O-])cc5)c5nc(c(-c6ccc(S(=O)(=O)[O-])cc6)c6ccc3[nH]6)C=C5)C=C4)cc2)c2cc(F)ccc2/C1=C\c1cccc(OCc2ccccc2)c1
REMARK SMILES IDX 8 1 7 2 5 3 6 4 4 6 3 7 1 8 2 9 81 10 74 11 80 12 82 13
REMARK SMILES IDX 75 14 79 15 76 16 78 17 77 18 83 19 84 20 96 21 85 22 87 23
REMARK SMILES IDX 86 24 88 25 89 26 90 27 91 28 95 29 92 30 94 31 93 32 9 33
REMARK SMILES IDX 10 34 11 35 12 36 13 38 14 39 15 40 73 41 16 42 72 43 17 44
REMARK SMILES IDX 18 45 19 46 66 47 20 48 71 49 65 50 67 51 21 52 70 53 64 54
REMARK SMILES IDX 63 55 22 57 52 58 33 59 51 60 34 61 37 62 50 63 68 64 35 65
REMARK SMILES IDX 36 66 49 68 69 69 38 70 23 71 24 72 32 73 25 74 31 75 26 76
REMARK SMILES IDX 27 77 28 78 29 79 30 80 53 81 54 82 62 83 55 84 61 85 56 86
REMARK SMILES IDX 57 87 58 88 59 89 60 90 39 91 40 92 48 93 41 94 47 95 42 96
REMARK SMILES IDX 43 97 44 98 45 99 46 100
REMARK H PARENT 7 5 11 37 67 56 37 67
REMARK Flexibility Score: inf
ROOT
ATOM      1  C   UNL A   1      31.423  30.414  26.021  1.00  0.00     0.117 C 
ENDROOT
BRANCH   1   2
ATOM      2  N   UNL A   1      31.282  30.379  24.578  1.00  0.00    -0.356 N 
ATOM      3  C   UNL A   1      30.815  29.377  23.779  1.00  0.00     0.224 C 
ATOM      4  O   UNL A   1      30.786  29.569  22.561  1.00  0.00    -0.275 OA
ATOM      5  H   UNL A   1      31.564  31.197  24.107  1.00  0.00     0.163 HD
BRANCH   3   6
ATOM      6  C   UNL A   1      30.302  28.074  24.387  1.00  0.00     0.136 C 
BRANCH   6   7
ATOM      7  C   UNL A   1      31.345  27.006  24.465  1.00  0.00    -0.027 C 
ATOM      8  C   UNL A   1      31.707  26.803  26.993  1.00  0.00     0.045 C 
ATOM      9  C   UNL A   1      31.954  26.484  25.555  1.00  0.00    -0.039 C 
ATOM     10  C   UNL A   1      32.953  25.491  25.132  1.00  0.00    -0.014 C 
ATOM     11  C   UNL A   1      31.871  26.306  23.279  1.00  0.00    -0.011 A 
ATOM     12  C   UNL A   1      32.836  25.358  23.670  1.00  0.00    -0.010 A 
ATOM     13  C   UNL A   1      33.815  24.883  25.966  1.00  0.00     0.017 C 
ATOM     14  C   UNL A   1      31.533  26.455  21.940  1.00  0.00     0.048 A 
ATOM     15  C   UNL A   1      33.447  24.537  22.731  1.00  0.00     0.012 A 
ATOM     16  C   UNL A   1      32.171  25.645  21.004  1.00  0.00     0.123 A 
ATOM     17  C   UNL A   1      33.115  24.692  21.385  1.00  0.00     0.040 A 
ATOM     18  F   UNL A   1      31.865  25.777  19.706  1.00  0.00    -0.207 F 
BRANCH  13  19
ATOM     19  C   UNL A   1      34.815  23.886  25.580  1.00  0.00    -0.021 A 
ATOM     20  C   UNL A   1      36.154  24.239  25.384  1.00  0.00     0.008 A 
ATOM     21  C   UNL A   1      34.398  22.567  25.367  1.00  0.00     0.054 A 
ATOM     22  C   UNL A   1      37.062  23.283  24.933  1.00  0.00     0.004 A 
ATOM     23  C   UNL A   1      35.311  21.603  24.946  1.00  0.00     0.120 A 
ATOM     24  C   UNL A   1      36.636  21.972  24.707  1.00  0.00     0.046 A 
BRANCH  23  25
ATOM     25  O   UNL A   1      35.032  20.278  24.744  1.00  0.00    -0.489 OA
BRANCH  25  26
ATOM     26  C   UNL A   1      33.695  19.824  24.986  1.00  0.00     0.265 C 
BRANCH  26  27
ATOM     27  C   UNL A   1      33.495  18.324  24.896  1.00  0.00    -0.011 A 
ATOM     28  C   UNL A   1      32.659  17.645  25.793  1.00  0.00     0.007 A 
ATOM     29  C   UNL A   1      34.180  17.584  23.919  1.00  0.00     0.007 A 
ATOM     30  C   UNL A   1      32.469  16.267  25.687  1.00  0.00     0.000 A 
ATOM     31  C   UNL A   1      33.997  16.203  23.820  1.00  0.00     0.000 A 
ATOM     32  C   UNL A   1      33.135  15.547  24.699  1.00  0.00     0.000 A 
ENDBRANCH  26  27
ENDBRANCH  25  26
ENDBRANCH  23  25
ENDBRANCH  13  19
ENDBRANCH   6   7
ENDBRANCH   3   6
ENDBRANCH   1   2
BRANCH   1  33
ATOM     33  C   UNL A   1      31.331  31.828  26.586  1.00  0.00     0.042 C 
BRANCH  33  34
ATOM     34  C   UNL A   1      32.661  32.396  27.068  1.00  0.00     0.118 C 
BRANCH  34  35
ATOM     35  N   UNL A   1      32.534  33.723  27.658  1.00  0.00    -0.352 N 
ATOM     36  C   UNL A   1      33.270  34.324  28.652  1.00  0.00     0.251 C 
ATOM     37  H   UNL A   1      31.808  34.274  27.288  1.00  0.00     0.163 HD
ATOM     38  O   UNL A   1      32.897  35.402  29.110  1.00  0.00    -0.269 OA
BRANCH  36  39
ATOM     39  C   UNL A   1      34.481  33.668  29.194  1.00  0.00     0.039 A 
ATOM     40  C   UNL A   1      34.386  32.589  30.073  1.00  0.00     0.014 A 
ATOM     41  C   UNL A   1      35.740  34.146  28.811  1.00  0.00     0.014 A 
ATOM     42  C   UNL A   1      35.531  32.104  30.701  1.00  0.00     0.010 A 
ATOM     43  C   UNL A   1      36.896  33.600  29.380  1.00  0.00     0.010 A 
ATOM     44  C   UNL A   1      36.797  32.611  30.370  1.00  0.00    -0.014 A 
BRANCH  44  45
ATOM     45  C   UNL A   1      38.000  32.107  31.085  1.00  0.00     0.031 A 
ATOM     46  C   UNL A   1      38.371  32.655  32.439  1.00  0.00     0.074 A 
ATOM     47  C   UNL A   1      38.722  31.106  30.544  1.00  0.00     0.049 A 
ATOM     48  N   UNL A   1      39.362  32.309  33.220  1.00  0.00    -0.248 NA
ATOM     49  C   UNL A   1      37.522  33.724  32.990  1.00  0.00     0.031 C 
ATOM     50  C   UNL A   1      38.445  30.474  29.253  1.00  0.00     0.029 A 
ATOM     51  N   UNL A   1      39.813  30.422  31.021  1.00  0.00    -0.354 N 
ATOM     52  C   UNL A   1      39.262  33.120  34.346  1.00  0.00     0.074 A 
ATOM     53  C   UNL A   1      38.135  34.000  34.134  1.00  0.00     0.031 C 
ATOM     54  C   UNL A   1      39.300  29.459  29.068  1.00  0.00     0.029 A 
ATOM     55  C   UNL A   1      40.229  29.405  30.194  1.00  0.00     0.049 A 
ATOM     56  H   UNL A   1      40.256  30.639  31.873  1.00  0.00     0.167 HD
ATOM     57  C   UNL A   1      40.030  33.119  35.461  1.00  0.00     0.031 A 
ATOM     58  C   UNL A   1      41.246  28.527  30.317  1.00  0.00     0.031 A 
ATOM     59  C   UNL A   1      41.148  32.236  35.669  1.00  0.00     0.049 A 
ATOM     60  C   UNL A   1      42.118  28.581  31.538  1.00  0.00     0.074 A 
ATOM     61  C   UNL A   1      41.988  32.164  36.768  1.00  0.00     0.029 A 
ATOM     62  N   UNL A   1      41.580  31.269  34.773  1.00  0.00    -0.354 N 
ATOM     63  N   UNL A   1      42.014  29.364  32.584  1.00  0.00    -0.248 NA
ATOM     64  C   UNL A   1      43.245  27.641  31.597  1.00  0.00     0.031 C 
ATOM     65  C   UNL A   1      42.958  31.193  36.513  1.00  0.00     0.029 A 
ATOM     66  C   UNL A   1      42.685  30.612  35.285  1.00  0.00     0.049 A 
ATOM     67  H   UNL A   1      41.161  31.079  33.903  1.00  0.00     0.167 HD
ATOM     68  C   UNL A   1      43.057  29.008  33.429  1.00  0.00     0.074 A 
ATOM     69  C   UNL A   1      43.770  27.926  32.784  1.00  0.00     0.031 C 
ATOM     70  C   UNL A   1      43.393  29.538  34.631  1.00  0.00     0.031 A 
BRANCH  57  71
ATOM     71  C   UNL A   1      39.700  34.102  36.554  1.00  0.00    -0.014 A 
ATOM     72  C   UNL A   1      40.257  35.394  36.525  1.00  0.00     0.010 A 
ATOM     73  C   UNL A   1      38.927  33.716  37.664  1.00  0.00     0.010 A 
ATOM     74  C   UNL A   1      40.068  36.274  37.594  1.00  0.00     0.020 A 
ATOM     75  C   UNL A   1      38.713  34.604  38.724  1.00  0.00     0.020 A 
ATOM     76  C   UNL A   1      39.304  35.869  38.691  1.00  0.00     0.054 A 
BRANCH  76  77
ATOM     77  S   UNL A   1      39.070  37.020  40.076  1.00  0.00     0.124 S 
ATOM     78  O   UNL A   1      38.484  38.181  39.416  1.00  0.00    -0.237 OA
ATOM     79  O   UNL A   1      38.177  36.278  40.964  1.00  0.00    -0.237 OA
ATOM     80  O   UNL A   1      40.425  37.209  40.594  1.00  0.00    -0.744 OA
ENDBRANCH  76  77
ENDBRANCH  57  71
BRANCH  58  81
ATOM     81  C   UNL A   1      41.460  27.518  29.243  1.00  0.00    -0.014 A 
ATOM     82  C   UNL A   1      40.611  26.400  29.140  1.00  0.00     0.010 A 
ATOM     83  C   UNL A   1      42.571  27.614  28.387  1.00  0.00     0.010 A 
ATOM     84  C   UNL A   1      40.903  25.366  28.249  1.00  0.00     0.020 A 
ATOM     85  C   UNL A   1      42.851  26.594  27.472  1.00  0.00     0.020 A 
ATOM     86  C   UNL A   1      42.034  25.461  27.433  1.00  0.00     0.054 A 
BRANCH  86  87
ATOM     87  S   UNL A   1      42.432  24.077  26.330  1.00  0.00     0.124 S 
ATOM     88  O   UNL A   1      42.576  24.755  25.043  1.00  0.00    -0.237 OA
ATOM     89  O   UNL A   1      43.667  23.552  26.905  1.00  0.00    -0.237 OA
ATOM     90  O   UNL A   1      41.270  23.201  26.450  1.00  0.00    -0.744 OA
ENDBRANCH  86  87
ENDBRANCH  58  81
BRANCH  70  91
ATOM     91  C   UNL A   1      44.591  28.975  35.348  1.00  0.00    -0.014 A 
ATOM     92  C   UNL A   1      45.883  29.417  35.001  1.00  0.00     0.010 A 
ATOM     93  C   UNL A   1      44.451  27.911  36.254  1.00  0.00     0.010 A 
ATOM     94  C   UNL A   1      47.012  28.777  35.515  1.00  0.00     0.020 A 
ATOM     95  C   UNL A   1      45.580  27.285  36.791  1.00  0.00     0.020 A 
ATOM     96  C   UNL A   1      46.852  27.704  36.396  1.00  0.00     0.054 A 
BRANCH  96  97
ATOM     97  S   UNL A   1      48.330  26.852  37.015  1.00  0.00     0.124 S 
ATOM     98  O   UNL A   1      48.877  27.828  37.952  1.00  0.00    -0.237 OA
ATOM     99  O   UNL A   1      47.776  25.642  37.617  1.00  0.00    -0.237 OA
ATOM    100  O   UNL A   1      49.126  26.630  35.809  1.00  0.00    -0.744 OA
ENDBRANCH  96  97
ENDBRANCH  70  91
ENDBRANCH  44  45
ENDBRANCH  36  39
ENDBRANCH  34  35
ENDBRANCH  33  34
ENDBRANCH   1  33
TORSDOF 18
ENDMDL
