MODEL 1
REMARK VINA RESULT:     -13.3      0.000      0.000
REMARK SMILES O=C(NCCCNC(=O)[C@H]1[C@H]2CC[C@H](CC2)[C@@H]1C(=O)Nc1ccc(Cc2ccncc2)cc1)c1ccc(-c2c3nc(c(-c4ccc(S(=O)(=O)[O-])cc4)c4ccc([nH]4)c(-c4ccc(S(=O)(=O)[O-])cc4)c4nc(c(-c5ccc(S(=O)(=O)[O-])cc5)c5ccc2[nH]5)C=C4)C=C3)cc1
REMARK SMILES IDX 5 1 4 2 3 3 1 4 2 5 34 7 35 8 93 9 36 10 92 11 37 12 38 13
REMARK SMILES IDX 39 14 86 15 40 16 91 17 85 18 87 19 41 20 90 21 84 22 83 23
REMARK SMILES IDX 42 25 72 26 53 27 71 28 54 29 57 30 70 31 88 32 55 33 56 34
REMARK SMILES IDX 69 36 89 37 58 38 43 39 44 40 52 41 45 42 51 43 46 44 47 45
REMARK SMILES IDX 48 46 49 47 50 48 73 49 74 50 82 51 75 52 81 53 76 54 77 55
REMARK SMILES IDX 78 56 79 57 80 58 59 59 60 60 68 61 61 62 67 63 62 64 63 65
REMARK SMILES IDX 64 66 65 67 66 68 6 69 7 70 8 71 9 73 10 74 11 75 17 76
REMARK SMILES IDX 12 77 16 78 14 79 13 80 15 81 18 82 19 83 20 84 21 86 22 87
REMARK SMILES IDX 33 88 23 89 32 90 24 91 25 92 26 93 27 94 31 95 28 96 30 97
REMARK SMILES IDX 29 98
REMARK H PARENT 3 6 87 24 57 35 7 72 20 85
REMARK Flexibility Score: inf
ROOT
ATOM      1  C   UNL A   1      38.752  22.506  26.447  1.00  0.00     0.042 C 
ENDROOT
BRANCH   1   2
ATOM      2  C   UNL A   1      39.032  23.991  26.591  1.00  0.00     0.118 C 
BRANCH   2   3
ATOM      3  N   UNL A   1      40.243  24.405  25.887  1.00  0.00    -0.352 N 
ATOM      4  O   UNL A   1      41.841  25.798  25.134  1.00  0.00    -0.269 OA
ATOM      5  C   UNL A   1      41.016  25.536  26.008  1.00  0.00     0.251 C 
ATOM      6  H   UNL A   1      40.561  23.766  25.211  1.00  0.00     0.163 HD
BRANCH   5   7
ATOM      7  C   UNL A   1      40.841  26.448  27.158  1.00  0.00     0.039 A 
ATOM      8  C   UNL A   1      41.463  27.692  27.167  1.00  0.00     0.014 A 
ATOM      9  C   UNL A   1      40.024  26.074  28.230  1.00  0.00     0.014 A 
ATOM     10  C   UNL A   1      41.459  28.464  28.316  1.00  0.00     0.010 A 
ATOM     11  C   UNL A   1      39.893  26.926  29.331  1.00  0.00     0.010 A 
ATOM     12  C   UNL A   1      40.641  28.112  29.397  1.00  0.00    -0.014 A 
BRANCH  12  13
ATOM     13  C   UNL A   1      40.522  29.045  30.545  1.00  0.00     0.031 A 
ATOM     14  C   UNL A   1      41.437  28.928  31.731  1.00  0.00     0.074 A 
ATOM     15  C   UNL A   1      39.578  30.006  30.500  1.00  0.00     0.049 A 
ATOM     16  N   UNL A   1      41.421  29.606  32.848  1.00  0.00    -0.248 NA
ATOM     17  C   UNL A   1      42.499  27.912  31.659  1.00  0.00     0.031 C 
ATOM     18  C   UNL A   1      38.646  30.224  29.388  1.00  0.00     0.029 A 
ATOM     19  N   UNL A   1      39.246  30.983  31.402  1.00  0.00    -0.354 N 
ATOM     20  C   UNL A   1      42.440  29.075  33.630  1.00  0.00     0.074 A 
ATOM     21  C   UNL A   1      43.045  28.007  32.863  1.00  0.00     0.031 C 
ATOM     22  C   UNL A   1      37.881  31.289  29.653  1.00  0.00     0.029 A 
ATOM     23  C   UNL A   1      38.193  31.767  30.993  1.00  0.00     0.049 A 
ATOM     24  H   UNL A   1      39.715  31.113  32.257  1.00  0.00     0.167 HD
ATOM     25  C   UNL A   1      42.827  29.443  34.876  1.00  0.00     0.031 A 
ATOM     26  C   UNL A   1      37.512  32.731  31.637  1.00  0.00     0.031 A 
ATOM     27  C   UNL A   1      42.202  30.504  35.624  1.00  0.00     0.049 A 
ATOM     28  C   UNL A   1      37.921  33.088  33.033  1.00  0.00     0.074 A 
ATOM     29  C   UNL A   1      42.524  30.973  36.885  1.00  0.00     0.029 A 
ATOM     30  N   UNL A   1      41.120  31.255  35.182  1.00  0.00    -0.354 N 
ATOM     31  N   UNL A   1      38.890  32.578  33.755  1.00  0.00    -0.248 NA
ATOM     32  C   UNL A   1      37.155  34.144  33.700  1.00  0.00     0.031 C 
ATOM     33  C   UNL A   1      41.598  31.963  37.231  1.00  0.00     0.029 A 
ATOM     34  C   UNL A   1      40.747  32.165  36.155  1.00  0.00     0.049 A 
ATOM     35  H   UNL A   1      40.683  31.153  34.305  1.00  0.00     0.167 HD
ATOM     36  C   UNL A   1      38.868  33.272  34.957  1.00  0.00     0.074 A 
ATOM     37  C   UNL A   1      37.793  34.239  34.860  1.00  0.00     0.031 C 
ATOM     38  C   UNL A   1      39.674  33.124  36.038  1.00  0.00     0.031 A 
BRANCH  25  39
ATOM     39  C   UNL A   1      43.934  28.651  35.525  1.00  0.00    -0.014 A 
ATOM     40  C   UNL A   1      45.286  29.014  35.384  1.00  0.00     0.010 A 
ATOM     41  C   UNL A   1      43.612  27.517  36.294  1.00  0.00     0.010 A 
ATOM     42  C   UNL A   1      46.295  28.224  35.944  1.00  0.00     0.020 A 
ATOM     43  C   UNL A   1      44.616  26.742  36.885  1.00  0.00     0.020 A 
ATOM     44  C   UNL A   1      45.952  27.086  36.681  1.00  0.00     0.054 A 
BRANCH  44  45
ATOM     45  S   UNL A   1      47.282  26.063  37.372  1.00  0.00     0.124 S 
ATOM     46  O   UNL A   1      47.063  24.788  36.692  1.00  0.00    -0.237 OA
ATOM     47  O   UNL A   1      48.484  26.787  36.972  1.00  0.00    -0.237 OA
ATOM     48  O   UNL A   1      47.008  26.058  38.807  1.00  0.00    -0.744 OA
ENDBRANCH  44  45
ENDBRANCH  25  39
BRANCH  26  49
ATOM     49  C   UNL A   1      36.360  33.382  30.956  1.00  0.00    -0.014 A 
ATOM     50  C   UNL A   1      35.151  33.594  31.636  1.00  0.00     0.010 A 
ATOM     51  C   UNL A   1      36.507  33.881  29.646  1.00  0.00     0.010 A 
ATOM     52  C   UNL A   1      34.111  34.300  31.023  1.00  0.00     0.020 A 
ATOM     53  C   UNL A   1      35.483  34.613  29.043  1.00  0.00     0.020 A 
ATOM     54  C   UNL A   1      34.289  34.815  29.735  1.00  0.00     0.054 A 
BRANCH  54  55
ATOM     55  S   UNL A   1      32.960  35.809  29.000  1.00  0.00     0.124 S 
ATOM     56  O   UNL A   1      32.346  34.859  28.078  1.00  0.00    -0.237 OA
ATOM     57  O   UNL A   1      32.158  36.170  30.167  1.00  0.00    -0.237 OA
ATOM     58  O   UNL A   1      33.671  36.922  28.375  1.00  0.00    -0.744 OA
ENDBRANCH  54  55
ENDBRANCH  26  49
BRANCH  38  59
ATOM     59  C   UNL A   1      39.466  34.070  37.188  1.00  0.00    -0.014 A 
ATOM     60  C   UNL A   1      38.764  33.682  38.342  1.00  0.00     0.010 A 
ATOM     61  C   UNL A   1      40.068  35.341  37.142  1.00  0.00     0.010 A 
ATOM     62  C   UNL A   1      38.657  34.557  39.426  1.00  0.00     0.020 A 
ATOM     63  C   UNL A   1      39.989  36.206  38.235  1.00  0.00     0.020 A 
ATOM     64  C   UNL A   1      39.279  35.809  39.369  1.00  0.00     0.054 A 
BRANCH  64  65
ATOM     65  S   UNL A   1      39.199  36.891  40.822  1.00  0.00     0.124 S 
ATOM     66  O   UNL A   1      38.446  38.032  40.310  1.00  0.00    -0.237 OA
ATOM     67  O   UNL A   1      38.497  36.061  41.799  1.00  0.00    -0.237 OA
ATOM     68  O   UNL A   1      40.601  37.157  41.133  1.00  0.00    -0.744 OA
ENDBRANCH  64  65
ENDBRANCH  38  59
ENDBRANCH  12  13
ENDBRANCH   5   7
ENDBRANCH   2   3
ENDBRANCH   1   2
BRANCH   1  69
ATOM     69  C   UNL A   1      37.828  22.200  25.286  1.00  0.00     0.117 C 
BRANCH  69  70
ATOM     70  N   UNL A   1      37.048  23.344  24.843  1.00  0.00    -0.356 N 
ATOM     71  C   UNL A   1      35.717  23.582  25.010  1.00  0.00     0.224 C 
ATOM     72  H   UNL A   1      37.549  24.040  24.358  1.00  0.00     0.163 HD
ATOM     73  O   UNL A   1      35.441  24.737  25.354  1.00  0.00    -0.275 OA
BRANCH  71  74
ATOM     74  C   UNL A   1      34.615  22.574  24.609  1.00  0.00     0.094 C 
ATOM     75  C   UNL A   1      34.347  21.400  25.576  1.00  0.00     0.002 C 
ATOM     76  C   UNL A   1      33.277  23.327  24.324  1.00  0.00     0.094 C 
ATOM     77  C   UNL A   1      33.881  21.934  26.943  1.00  0.00     0.005 C 
ATOM     78  C   UNL A   1      33.225  20.523  24.991  1.00  0.00     0.005 C 
ATOM     79  C   UNL A   1      32.180  22.777  25.306  1.00  0.00     0.002 C 
ATOM     80  C   UNL A   1      32.704  22.892  26.750  1.00  0.00     0.005 C 
ATOM     81  C   UNL A   1      31.904  21.281  25.045  1.00  0.00     0.005 C 
BRANCH  76  82
ATOM     82  C   UNL A   1      32.733  23.321  22.876  1.00  0.00     0.228 C 
ATOM     83  O   UNL A   1      32.828  22.308  22.170  1.00  0.00    -0.274 OA
ATOM     84  N   UNL A   1      31.950  24.302  22.348  1.00  0.00    -0.326 N 
ATOM     85  H   UNL A   1      31.567  24.080  21.468  1.00  0.00     0.169 HD
BRANCH  84  86
ATOM     86  C   UNL A   1      31.589  25.563  22.817  1.00  0.00     0.041 A 
ATOM     87  C   UNL A   1      32.481  26.617  22.630  1.00  0.00     0.026 A 
ATOM     88  C   UNL A   1      30.463  25.751  23.614  1.00  0.00     0.026 A 
ATOM     89  C   UNL A   1      32.163  27.892  23.101  1.00  0.00     0.006 A 
ATOM     90  C   UNL A   1      30.147  27.024  24.097  1.00  0.00     0.006 A 
ATOM     91  C   UNL A   1      30.975  28.116  23.810  1.00  0.00    -0.043 A 
BRANCH  91  92
ATOM     92  C   UNL A   1      30.601  29.507  24.267  1.00  0.00     0.071 C 
BRANCH  92  93
ATOM     93  C   UNL A   1      29.608  30.206  23.373  1.00  0.00    -0.041 A 
ATOM     94  C   UNL A   1      29.424  29.802  22.047  1.00  0.00     0.024 A 
ATOM     95  C   UNL A   1      28.832  31.264  23.854  1.00  0.00     0.024 A 
ATOM     96  C   UNL A   1      28.494  30.471  21.266  1.00  0.00     0.111 A 
ATOM     97  C   UNL A   1      27.921  31.865  22.997  1.00  0.00     0.111 A 
ATOM     98  N   UNL A   1      27.735  31.493  21.713  1.00  0.00    -0.265 NA
ENDBRANCH  92  93
ENDBRANCH  91  92
ENDBRANCH  84  86
ENDBRANCH  76  82
ENDBRANCH  71  74
ENDBRANCH  69  70
ENDBRANCH   1  69
TORSDOF 17
ENDMDL
MODEL 2
REMARK VINA RESULT:     -13.3      4.488      9.842
REMARK SMILES O=C(NCCCNC(=O)[C@H]1[C@H]2CC[C@H](CC2)[C@@H]1C(=O)Nc1ccc(Cc2ccncc2)cc1)c1ccc(-c2c3nc(c(-c4ccc(S(=O)(=O)[O-])cc4)c4ccc([nH]4)c(-c4ccc(S(=O)(=O)[O-])cc4)c4nc(c(-c5ccc(S(=O)(=O)[O-])cc5)c5ccc2[nH]5)C=C4)C=C3)cc1
REMARK SMILES IDX 5 1 4 2 3 3 1 4 2 5 34 7 35 8 93 9 36 10 92 11 37 12 38 13
REMARK SMILES IDX 39 14 86 15 40 16 91 17 85 18 87 19 41 20 90 21 84 22 83 23
REMARK SMILES IDX 42 25 72 26 53 27 71 28 54 29 57 30 70 31 88 32 55 33 56 34
REMARK SMILES IDX 69 36 89 37 58 38 43 39 44 40 52 41 45 42 51 43 46 44 47 45
REMARK SMILES IDX 48 46 49 47 50 48 73 49 74 50 82 51 75 52 81 53 76 54 77 55
REMARK SMILES IDX 78 56 79 57 80 58 59 59 60 60 68 61 61 62 67 63 62 64 63 65
REMARK SMILES IDX 64 66 65 67 66 68 6 69 7 70 8 71 9 73 10 74 11 75 17 76
REMARK SMILES IDX 12 77 16 78 14 79 13 80 15 81 18 82 19 83 20 84 21 86 22 87
REMARK SMILES IDX 33 88 23 89 32 90 24 91 25 92 26 93 27 94 31 95 28 96 30 97
REMARK SMILES IDX 29 98
REMARK H PARENT 3 6 87 24 57 35 7 72 20 85
REMARK Flexibility Score: inf
ROOT
ATOM      1  C   UNL A   1      32.634  27.208  26.855  1.00  0.00     0.042 C 
ENDROOT
BRANCH   1   2
ATOM      2  C   UNL A   1      33.940  27.983  26.835  1.00  0.00     0.118 C 
BRANCH   2   3
ATOM      3  N   UNL A   1      33.752  29.407  27.102  1.00  0.00    -0.352 N 
ATOM      4  O   UNL A   1      34.047  31.393  28.117  1.00  0.00    -0.269 OA
ATOM      5  C   UNL A   1      34.527  30.306  27.796  1.00  0.00     0.251 C 
ATOM      6  H   UNL A   1      32.930  29.788  26.719  1.00  0.00     0.163 HD
BRANCH   5   7
ATOM      7  C   UNL A   1      35.911  29.964  28.184  1.00  0.00     0.039 A 
ATOM      8  C   UNL A   1      36.956  30.144  27.284  1.00  0.00     0.014 A 
ATOM      9  C   UNL A   1      36.180  29.485  29.470  1.00  0.00     0.014 A 
ATOM     10  C   UNL A   1      38.216  29.649  27.571  1.00  0.00     0.010 A 
ATOM     11  C   UNL A   1      37.487  29.128  29.817  1.00  0.00     0.010 A 
ATOM     12  C   UNL A   1      38.509  29.172  28.855  1.00  0.00    -0.014 A 
BRANCH  12  13
ATOM     13  C   UNL A   1      39.909  28.809  29.188  1.00  0.00     0.031 A 
ATOM     14  C   UNL A   1      40.812  29.784  29.887  1.00  0.00     0.074 A 
ATOM     15  C   UNL A   1      40.352  27.581  28.856  1.00  0.00     0.049 A 
ATOM     16  N   UNL A   1      42.080  29.661  30.182  1.00  0.00    -0.248 NA
ATOM     17  C   UNL A   1      40.221  31.068  30.297  1.00  0.00     0.031 C 
ATOM     18  C   UNL A   1      39.554  26.544  28.191  1.00  0.00     0.029 A 
ATOM     19  N   UNL A   1      41.575  26.987  29.034  1.00  0.00    -0.354 N 
ATOM     20  C   UNL A   1      42.451  30.862  30.774  1.00  0.00     0.074 A 
ATOM     21  C   UNL A   1      41.276  31.707  30.782  1.00  0.00     0.031 C 
ATOM     22  C   UNL A   1      40.290  25.435  28.057  1.00  0.00     0.029 A 
ATOM     23  C   UNL A   1      41.640  25.711  28.529  1.00  0.00     0.049 A 
ATOM     24  H   UNL A   1      42.332  27.431  29.481  1.00  0.00     0.167 HD
ATOM     25  C   UNL A   1      43.664  31.225  31.258  1.00  0.00     0.031 A 
ATOM     26  C   UNL A   1      42.679  24.865  28.406  1.00  0.00     0.031 A 
ATOM     27  C   UNL A   1      44.822  30.369  31.229  1.00  0.00     0.049 A 
ATOM     28  C   UNL A   1      44.023  25.305  28.900  1.00  0.00     0.074 A 
ATOM     29  C   UNL A   1      46.095  30.626  31.707  1.00  0.00     0.029 A 
ATOM     30  N   UNL A   1      44.851  29.092  30.684  1.00  0.00    -0.354 N 
ATOM     31  N   UNL A   1      44.355  26.443  29.461  1.00  0.00    -0.248 NA
ATOM     32  C   UNL A   1      45.129  24.354  28.749  1.00  0.00     0.031 C 
ATOM     33  C   UNL A   1      46.908  29.531  31.394  1.00  0.00     0.029 A 
ATOM     34  C   UNL A   1      46.124  28.560  30.791  1.00  0.00     0.049 A 
ATOM     35  H   UNL A   1      44.079  28.633  30.280  1.00  0.00     0.167 HD
ATOM     36  C   UNL A   1      45.708  26.336  29.756  1.00  0.00     0.074 A 
ATOM     37  C   UNL A   1      46.127  25.020  29.315  1.00  0.00     0.031 C 
ATOM     38  C   UNL A   1      46.521  27.244  30.348  1.00  0.00     0.031 A 
BRANCH  25  39
ATOM     39  C   UNL A   1      43.809  32.626  31.799  1.00  0.00    -0.014 A 
ATOM     40  C   UNL A   1      43.554  32.929  33.149  1.00  0.00     0.010 A 
ATOM     41  C   UNL A   1      44.211  33.661  30.934  1.00  0.00     0.010 A 
ATOM     42  C   UNL A   1      43.635  34.247  33.607  1.00  0.00     0.020 A 
ATOM     43  C   UNL A   1      44.325  34.977  31.396  1.00  0.00     0.020 A 
ATOM     44  C   UNL A   1      44.009  35.265  32.723  1.00  0.00     0.054 A 
BRANCH  44  45
ATOM     45  S   UNL A   1      44.077  36.970  33.338  1.00  0.00     0.124 S 
ATOM     46  O   UNL A   1      43.879  37.739  32.111  1.00  0.00    -0.237 OA
ATOM     47  O   UNL A   1      42.971  37.012  34.290  1.00  0.00    -0.237 OA
ATOM     48  O   UNL A   1      45.409  37.074  33.928  1.00  0.00    -0.744 OA
ENDBRANCH  44  45
ENDBRANCH  25  39
BRANCH  26  49
ATOM     49  C   UNL A   1      42.464  23.544  27.757  1.00  0.00    -0.014 A 
ATOM     50  C   UNL A   1      43.138  23.208  26.573  1.00  0.00     0.010 A 
ATOM     51  C   UNL A   1      41.651  22.577  28.381  1.00  0.00     0.010 A 
ATOM     52  C   UNL A   1      43.011  21.927  26.028  1.00  0.00     0.020 A 
ATOM     53  C   UNL A   1      41.547  21.287  27.857  1.00  0.00     0.020 A 
ATOM     54  C   UNL A   1      42.225  20.971  26.680  1.00  0.00     0.054 A 
BRANCH  54  55
ATOM     55  S   UNL A   1      42.154  19.289  26.004  1.00  0.00     0.124 S 
ATOM     56  O   UNL A   1      42.712  18.499  27.097  1.00  0.00    -0.237 OA
ATOM     57  O   UNL A   1      40.725  19.112  25.758  1.00  0.00    -0.237 OA
ATOM     58  O   UNL A   1      42.980  19.368  24.800  1.00  0.00    -0.744 OA
ENDBRANCH  54  55
ENDBRANCH  26  49
BRANCH  38  59
ATOM     59  C   UNL A   1      47.943  26.830  30.611  1.00  0.00    -0.014 A 
ATOM     60  C   UNL A   1      48.958  27.041  29.663  1.00  0.00     0.010 A 
ATOM     61  C   UNL A   1      48.276  26.300  31.871  1.00  0.00     0.010 A 
ATOM     62  C   UNL A   1      50.283  26.719  29.968  1.00  0.00     0.020 A 
ATOM     63  C   UNL A   1      49.602  26.005  32.191  1.00  0.00     0.020 A 
ATOM     64  C   UNL A   1      50.598  26.211  31.234  1.00  0.00     0.054 A 
BRANCH  64  65
ATOM     65  S   UNL A   1      52.334  25.882  31.636  1.00  0.00     0.124 S 
ATOM     66  O   UNL A   1      52.582  26.835  32.715  1.00  0.00    -0.237 OA
ATOM     67  O   UNL A   1      52.308  24.476  32.033  1.00  0.00    -0.237 OA
ATOM     68  O   UNL A   1      53.038  26.158  30.387  1.00  0.00    -0.744 OA
ENDBRANCH  64  65
ENDBRANCH  38  59
ENDBRANCH  12  13
ENDBRANCH   5   7
ENDBRANCH   2   3
ENDBRANCH   1   2
BRANCH   1  69
ATOM     69  C   UNL A   1      32.627  26.057  25.870  1.00  0.00     0.117 C 
BRANCH  69  70
ATOM     70  N   UNL A   1      32.648  24.748  26.501  1.00  0.00    -0.356 N 
ATOM     71  C   UNL A   1      33.653  23.829  26.521  1.00  0.00     0.224 C 
ATOM     72  H   UNL A   1      31.825  24.491  26.978  1.00  0.00     0.163 HD
ATOM     73  O   UNL A   1      33.849  23.308  27.625  1.00  0.00    -0.275 OA
BRANCH  71  74
ATOM     74  C   UNL A   1      34.363  23.314  25.248  1.00  0.00     0.094 C 
ATOM     75  C   UNL A   1      35.651  24.047  24.812  1.00  0.00     0.002 C 
ATOM     76  C   UNL A   1      34.654  21.786  25.377  1.00  0.00     0.094 C 
ATOM     77  C   UNL A   1      36.726  23.928  25.909  1.00  0.00     0.005 C 
ATOM     78  C   UNL A   1      36.190  23.384  23.532  1.00  0.00     0.005 C 
ATOM     79  C   UNL A   1      36.206  21.565  25.254  1.00  0.00     0.002 C 
ATOM     80  C   UNL A   1      36.916  22.459  26.288  1.00  0.00     0.005 C 
ATOM     81  C   UNL A   1      36.718  21.992  23.862  1.00  0.00     0.005 C 
BRANCH  76  82
ATOM     82  C   UNL A   1      33.912  20.821  24.421  1.00  0.00     0.228 C 
ATOM     83  O   UNL A   1      33.976  19.595  24.585  1.00  0.00    -0.274 OA
ATOM     84  N   UNL A   1      32.996  21.216  23.494  1.00  0.00    -0.326 N 
ATOM     85  H   UNL A   1      32.508  20.473  23.070  1.00  0.00     0.169 HD
BRANCH  84  86
ATOM     86  C   UNL A   1      32.618  22.475  23.032  1.00  0.00     0.041 A 
ATOM     87  C   UNL A   1      31.456  23.045  23.548  1.00  0.00     0.026 A 
ATOM     88  C   UNL A   1      33.260  23.082  21.956  1.00  0.00     0.026 A 
ATOM     89  C   UNL A   1      31.035  24.298  23.098  1.00  0.00     0.006 A 
ATOM     90  C   UNL A   1      32.835  24.332  21.496  1.00  0.00     0.006 A 
ATOM     91  C   UNL A   1      31.740  24.969  22.091  1.00  0.00    -0.043 A 
BRANCH  91  92
ATOM     92  C   UNL A   1      31.321  26.351  21.647  1.00  0.00     0.071 C 
BRANCH  92  93
ATOM     93  C   UNL A   1      31.757  27.459  22.574  1.00  0.00    -0.041 A 
ATOM     94  C   UNL A   1      33.089  27.883  22.611  1.00  0.00     0.024 A 
ATOM     95  C   UNL A   1      30.836  28.102  23.406  1.00  0.00     0.024 A 
ATOM     96  C   UNL A   1      33.440  28.910  23.473  1.00  0.00     0.111 A 
ATOM     97  C   UNL A   1      31.284  29.125  24.229  1.00  0.00     0.111 A 
ATOM     98  N   UNL A   1      32.566  29.543  24.282  1.00  0.00    -0.265 NA
ENDBRANCH  92  93
ENDBRANCH  91  92
ENDBRANCH  84  86
ENDBRANCH  76  82
ENDBRANCH  71  74
ENDBRANCH  69  70
ENDBRANCH   1  69
TORSDOF 17
ENDMDL
MODEL 3
REMARK VINA RESULT:     -13.2      0.404      7.940
REMARK SMILES O=C(NCCCNC(=O)[C@H]1[C@H]2CC[C@H](CC2)[C@@H]1C(=O)Nc1ccc(Cc2ccncc2)cc1)c1ccc(-c2c3nc(c(-c4ccc(S(=O)(=O)[O-])cc4)c4ccc([nH]4)c(-c4ccc(S(=O)(=O)[O-])cc4)c4nc(c(-c5ccc(S(=O)(=O)[O-])cc5)c5ccc2[nH]5)C=C4)C=C3)cc1
REMARK SMILES IDX 5 1 4 2 3 3 1 4 2 5 34 7 35 8 93 9 36 10 92 11 37 12 38 13
REMARK SMILES IDX 39 14 86 15 40 16 91 17 85 18 87 19 41 20 90 21 84 22 83 23
REMARK SMILES IDX 42 25 72 26 53 27 71 28 54 29 57 30 70 31 88 32 55 33 56 34
REMARK SMILES IDX 69 36 89 37 58 38 43 39 44 40 52 41 45 42 51 43 46 44 47 45
REMARK SMILES IDX 48 46 49 47 50 48 73 49 74 50 82 51 75 52 81 53 76 54 77 55
REMARK SMILES IDX 78 56 79 57 80 58 59 59 60 60 68 61 61 62 67 63 62 64 63 65
REMARK SMILES IDX 64 66 65 67 66 68 6 69 7 70 8 71 9 73 10 74 11 75 17 76
REMARK SMILES IDX 12 77 16 78 14 79 13 80 15 81 18 82 19 83 20 84 21 86 22 87
REMARK SMILES IDX 33 88 23 89 32 90 24 91 25 92 26 93 27 94 31 95 28 96 30 97
REMARK SMILES IDX 29 98
REMARK H PARENT 3 6 87 24 57 35 7 72 20 85
REMARK Flexibility Score: inf
ROOT
ATOM      1  C   UNL A   1      38.608  22.641  26.377  1.00  0.00     0.042 C 
ENDROOT
BRANCH   1   2
ATOM      2  C   UNL A   1      38.831  24.138  26.490  1.00  0.00     0.118 C 
BRANCH   2   3
ATOM      3  N   UNL A   1      40.072  24.571  25.852  1.00  0.00    -0.352 N 
ATOM      4  O   UNL A   1      41.720  25.974  25.238  1.00  0.00    -0.269 OA
ATOM      5  C   UNL A   1      40.863  25.675  26.069  1.00  0.00     0.251 C 
ATOM      6  H   UNL A   1      40.398  23.969  25.145  1.00  0.00     0.163 HD
BRANCH   5   7
ATOM      7  C   UNL A   1      40.669  26.514  27.269  1.00  0.00     0.039 A 
ATOM      8  C   UNL A   1      41.250  27.776  27.343  1.00  0.00     0.014 A 
ATOM      9  C   UNL A   1      39.875  26.054  28.325  1.00  0.00     0.014 A 
ATOM     10  C   UNL A   1      41.232  28.482  28.534  1.00  0.00     0.010 A 
ATOM     11  C   UNL A   1      39.728  26.839  29.473  1.00  0.00     0.010 A 
ATOM     12  C   UNL A   1      40.437  28.043  29.600  1.00  0.00    -0.014 A 
BRANCH  12  13
ATOM     13  C   UNL A   1      40.299  28.906  30.800  1.00  0.00     0.031 A 
ATOM     14  C   UNL A   1      39.254  29.983  30.858  1.00  0.00     0.074 A 
ATOM     15  C   UNL A   1      41.129  28.699  31.841  1.00  0.00     0.049 A 
ATOM     16  N   UNL A   1      39.047  30.875  31.791  1.00  0.00    -0.248 NA
ATOM     17  C   UNL A   1      38.330  30.081  29.717  1.00  0.00     0.031 C 
ATOM     18  C   UNL A   1      42.170  27.667  31.901  1.00  0.00     0.029 A 
ATOM     19  N   UNL A   1      41.229  29.334  33.052  1.00  0.00    -0.354 N 
ATOM     20  C   UNL A   1      37.998  31.665  31.336  1.00  0.00     0.074 A 
ATOM     21  C   UNL A   1      37.622  31.156  30.035  1.00  0.00     0.031 C 
ATOM     22  C   UNL A   1      42.771  27.711  33.096  1.00  0.00     0.029 A 
ATOM     23  C   UNL A   1      42.233  28.837  33.847  1.00  0.00     0.049 A 
ATOM     24  H   UNL A   1      40.639  30.073  33.326  1.00  0.00     0.167 HD
ATOM     25  C   UNL A   1      37.412  32.723  31.949  1.00  0.00     0.031 A 
ATOM     26  C   UNL A   1      42.712  29.264  35.030  1.00  0.00     0.031 A 
ATOM     27  C   UNL A   1      37.812  33.218  33.241  1.00  0.00     0.049 A 
ATOM     28  C   UNL A   1      42.085  30.466  35.665  1.00  0.00     0.074 A 
ATOM     29  C   UNL A   1      37.276  34.270  33.963  1.00  0.00     0.029 A 
ATOM     30  N   UNL A   1      38.853  32.700  34.002  1.00  0.00    -0.354 N 
ATOM     31  N   UNL A   1      41.091  31.199  35.223  1.00  0.00    -0.248 NA
ATOM     32  C   UNL A   1      42.635  30.898  36.953  1.00  0.00     0.031 C 
ATOM     33  C   UNL A   1      38.033  34.428  35.129  1.00  0.00     0.029 A 
ATOM     34  C   UNL A   1      38.991  33.427  35.172  1.00  0.00     0.049 A 
ATOM     35  H   UNL A   1      39.410  31.930  33.745  1.00  0.00     0.167 HD
ATOM     36  C   UNL A   1      40.878  32.168  36.194  1.00  0.00     0.074 A 
ATOM     37  C   UNL A   1      41.843  31.922  37.247  1.00  0.00     0.031 C 
ATOM     38  C   UNL A   1      39.957  33.163  36.211  1.00  0.00     0.031 A 
BRANCH  25  39
ATOM     39  C   UNL A   1      36.324  33.448  31.198  1.00  0.00    -0.014 A 
ATOM     40  C   UNL A   1      36.532  33.962  29.904  1.00  0.00     0.010 A 
ATOM     41  C   UNL A   1      35.063  33.617  31.801  1.00  0.00     0.010 A 
ATOM     42  C   UNL A   1      35.525  34.685  29.257  1.00  0.00     0.020 A 
ATOM     43  C   UNL A   1      34.041  34.311  31.144  1.00  0.00     0.020 A 
ATOM     44  C   UNL A   1      34.289  34.864  29.888  1.00  0.00     0.054 A 
BRANCH  44  45
ATOM     45  S   UNL A   1      33.011  35.832  29.038  1.00  0.00     0.124 S 
ATOM     46  O   UNL A   1      32.367  34.815  28.210  1.00  0.00    -0.237 OA
ATOM     47  O   UNL A   1      32.207  36.342  30.144  1.00  0.00    -0.237 OA
ATOM     48  O   UNL A   1      33.771  36.842  28.305  1.00  0.00    -0.744 OA
ENDBRANCH  44  45
ENDBRANCH  25  39
BRANCH  26  49
ATOM     49  C   UNL A   1      43.865  28.550  35.644  1.00  0.00    -0.014 A 
ATOM     50  C   UNL A   1      45.182  28.964  35.391  1.00  0.00     0.010 A 
ATOM     51  C   UNL A   1      43.638  27.508  36.565  1.00  0.00     0.010 A 
ATOM     52  C   UNL A   1      46.252  28.355  36.054  1.00  0.00     0.020 A 
ATOM     53  C   UNL A   1      44.701  26.920  37.253  1.00  0.00     0.020 A 
ATOM     54  C   UNL A   1      46.003  27.346  36.989  1.00  0.00     0.054 A 
BRANCH  54  55
ATOM     55  S   UNL A   1      47.401  26.639  37.905  1.00  0.00     0.124 S 
ATOM     56  O   UNL A   1      47.446  27.490  39.091  1.00  0.00    -0.237 OA
ATOM     57  O   UNL A   1      46.965  25.263  38.128  1.00  0.00    -0.237 OA
ATOM     58  O   UNL A   1      48.525  26.787  36.983  1.00  0.00    -0.744 OA
ENDBRANCH  54  55
ENDBRANCH  26  49
BRANCH  38  59
ATOM     59  C   UNL A   1      39.905  34.033  37.437  1.00  0.00    -0.014 A 
ATOM     60  C   UNL A   1      40.530  35.291  37.473  1.00  0.00     0.010 A 
ATOM     61  C   UNL A   1      39.136  33.613  38.538  1.00  0.00     0.010 A 
ATOM     62  C   UNL A   1      40.395  36.111  38.596  1.00  0.00     0.020 A 
ATOM     63  C   UNL A   1      38.975  34.442  39.650  1.00  0.00     0.020 A 
ATOM     64  C   UNL A   1      39.611  35.684  39.674  1.00  0.00     0.054 A 
BRANCH  64  65
ATOM     65  S   UNL A   1      39.381  36.801  41.083  1.00  0.00     0.124 S 
ATOM     66  O   UNL A   1      40.754  36.998  41.542  1.00  0.00    -0.237 OA
ATOM     67  O   UNL A   1      38.751  37.966  40.467  1.00  0.00    -0.237 OA
ATOM     68  O   UNL A   1      38.524  36.043  41.991  1.00  0.00    -0.744 OA
ENDBRANCH  64  65
ENDBRANCH  38  59
ENDBRANCH  12  13
ENDBRANCH   5   7
ENDBRANCH   2   3
ENDBRANCH   1   2
BRANCH   1  69
ATOM     69  C   UNL A   1      37.894  22.257  25.097  1.00  0.00     0.117 C 
BRANCH  69  70
ATOM     70  N   UNL A   1      37.049  23.311  24.561  1.00  0.00    -0.356 N 
ATOM     71  C   UNL A   1      35.706  23.483  24.709  1.00  0.00     0.224 C 
ATOM     72  H   UNL A   1      37.509  23.992  24.017  1.00  0.00     0.163 HD
ATOM     73  O   UNL A   1      35.361  24.645  24.955  1.00  0.00    -0.275 OA
BRANCH  71  74
ATOM     74  C   UNL A   1      34.666  22.382  24.397  1.00  0.00     0.094 C 
ATOM     75  C   UNL A   1      34.603  21.177  25.362  1.00  0.00     0.002 C 
ATOM     76  C   UNL A   1      33.243  23.011  24.259  1.00  0.00     0.094 C 
ATOM     77  C   UNL A   1      34.227  21.651  26.779  1.00  0.00     0.005 C 
ATOM     78  C   UNL A   1      33.514  20.207  24.872  1.00  0.00     0.005 C 
ATOM     79  C   UNL A   1      32.303  22.350  25.331  1.00  0.00     0.002 C 
ATOM     80  C   UNL A   1      32.955  22.498  26.720  1.00  0.00     0.005 C 
ATOM     81  C   UNL A   1      32.140  20.838  25.069  1.00  0.00     0.005 C 
BRANCH  76  82
ATOM     82  C   UNL A   1      32.562  22.970  22.871  1.00  0.00     0.228 C 
ATOM     83  O   UNL A   1      32.544  21.925  22.206  1.00  0.00    -0.274 OA
ATOM     84  N   UNL A   1      31.775  23.964  22.374  1.00  0.00    -0.326 N 
ATOM     85  H   UNL A   1      31.299  23.723  21.546  1.00  0.00     0.169 HD
BRANCH  84  86
ATOM     86  C   UNL A   1      31.516  25.259  22.817  1.00  0.00     0.041 A 
ATOM     87  C   UNL A   1      30.477  25.450  23.726  1.00  0.00     0.026 A 
ATOM     88  C   UNL A   1      32.137  26.366  22.245  1.00  0.00     0.026 A 
ATOM     89  C   UNL A   1      30.175  26.734  24.181  1.00  0.00     0.006 A 
ATOM     90  C   UNL A   1      31.830  27.655  22.690  1.00  0.00     0.006 A 
ATOM     91  C   UNL A   1      30.872  27.847  23.692  1.00  0.00    -0.043 A 
BRANCH  91  92
ATOM     92  C   UNL A   1      30.588  29.230  24.230  1.00  0.00     0.071 C 
BRANCH  92  93
ATOM     93  C   UNL A   1      29.584  30.015  23.422  1.00  0.00    -0.041 A 
ATOM     94  C   UNL A   1      29.250  31.328  23.769  1.00  0.00     0.024 A 
ATOM     95  C   UNL A   1      28.976  29.456  22.295  1.00  0.00     0.024 A 
ATOM     96  C   UNL A   1      28.328  32.011  22.992  1.00  0.00     0.111 A 
ATOM     97  C   UNL A   1      28.071  30.223  21.577  1.00  0.00     0.111 A 
ATOM     98  N   UNL A   1      27.732  31.489  21.901  1.00  0.00    -0.265 NA
ENDBRANCH  92  93
ENDBRANCH  91  92
ENDBRANCH  84  86
ENDBRANCH  76  82
ENDBRANCH  71  74
ENDBRANCH  69  70
ENDBRANCH   1  69
TORSDOF 17
ENDMDL
