MODEL 1
REMARK VINA RESULT:     -11.9      0.000      0.000
REMARK SMILES O=C(Cc1cn2ccsc2n1)N[C@@H]1C=C[C@H](C(=O)NCCCNC(=O)c2ccc(-c3c4nc(c(-c5ccc(S(=O)(=O)[O-])cc5)c5ccc([nH]5)c(-c5ccc(S(=O)(=O)[O-])cc5)c5nc(c(-c6ccc(S(=O)(=O)[O-])cc6)c6ccc3[nH]6)C=C5)C=C4)cc2)C1
REMARK SMILES IDX 21 1 20 2 19 3 17 4 18 5 16 7 13 8 14 9 86 10 15 11 12 12
REMARK SMILES IDX 1 13 2 14 3 16 4 17 5 18 11 19 6 20 10 21 7 22 9 23 8 24
REMARK SMILES IDX 22 25 23 26 24 27 25 29 26 30 27 31 85 32 28 33 84 34 29 35
REMARK SMILES IDX 30 36 31 37 78 38 32 39 83 40 77 41 79 42 33 43 82 44 76 45
REMARK SMILES IDX 75 46 34 48 64 49 45 50 63 51 46 52 49 53 62 54 80 55 47 56
REMARK SMILES IDX 48 57 61 59 81 60 50 61 35 62 36 63 44 64 37 65 43 66 38 67
REMARK SMILES IDX 39 68 40 69 41 70 42 71 65 72 66 73 74 74 67 75 73 76 68 77
REMARK SMILES IDX 69 78 70 79 71 80 72 81 51 82 52 83 60 84 53 85 59 86 54 87
REMARK SMILES IDX 55 88 56 89 57 90 58 91
REMARK H PARENT 19 6 12 15 23 28 79 47 49 58
REMARK Flexibility Score: inf
ROOT
ATOM      1  C   UNL A   1      40.672  22.276  27.536  1.00  0.00     0.042 C 
ENDROOT
BRANCH   1   2
ATOM      2  C   UNL A   1      39.530  22.806  26.673  1.00  0.00     0.117 C 
BRANCH   2   3
ATOM      3  N   UNL A   1      38.670  21.744  26.175  1.00  0.00    -0.356 N 
ATOM      4  C   UNL A   1      37.622  21.818  25.298  1.00  0.00     0.227 C 
ATOM      5  O   UNL A   1      37.043  20.778  24.977  1.00  0.00    -0.274 OA
ATOM      6  H   UNL A   1      38.870  20.843  26.517  1.00  0.00     0.163 HD
BRANCH   4   7
ATOM      7  C   UNL A   1      37.251  23.175  24.702  1.00  0.00     0.103 C 
ATOM      8  C   UNL A   1      34.838  23.662  24.534  1.00  0.00     0.106 C 
ATOM      9  C   UNL A   1      35.409  23.201  23.235  1.00  0.00    -0.006 C 
ATOM     10  C   UNL A   1      36.069  23.837  25.430  1.00  0.00     0.047 C 
ATOM     11  C   UNL A   1      36.721  22.955  23.315  1.00  0.00    -0.016 C 
BRANCH   8  12
ATOM     12  N   UNL A   1      33.937  22.651  25.024  1.00  0.00    -0.350 N 
ATOM     13  O   UNL A   1      32.076  23.524  24.001  1.00  0.00    -0.275 OA
ATOM     14  C   UNL A   1      32.592  22.668  24.718  1.00  0.00     0.226 C 
ATOM     15  H   UNL A   1      34.289  21.930  25.593  1.00  0.00     0.164 HD
BRANCH  14  16
ATOM     16  C   UNL A   1      31.777  21.554  25.342  1.00  0.00     0.157 C 
BRANCH  16  17
ATOM     17  C   UNL A   1      32.224  20.203  24.905  1.00  0.00     0.070 A 
ATOM     18  C   UNL A   1      32.485  19.724  23.624  1.00  0.00     0.118 A 
ATOM     19  N   UNL A   1      32.424  19.208  25.856  1.00  0.00    -0.223 NA
ATOM     20  N   UNL A   1      32.885  18.438  23.814  1.00  0.00    -0.297 N 
ATOM     21  C   UNL A   1      32.820  18.187  25.149  1.00  0.00     0.193 A 
ATOM     22  C   UNL A   1      33.319  17.395  23.031  1.00  0.00     0.104 A 
ATOM     23  S   UNL A   1      33.308  16.559  25.504  1.00  0.00    -0.105 S 
ATOM     24  C   UNL A   1      33.595  16.307  23.772  1.00  0.00     0.087 A 
ENDBRANCH  16  17
ENDBRANCH  14  16
ENDBRANCH   8  12
ENDBRANCH   4   7
ENDBRANCH   2   3
ENDBRANCH   1   2
BRANCH   1  25
ATOM     25  C   UNL A   1      41.943  23.125  27.499  1.00  0.00     0.118 C 
BRANCH  25  26
ATOM     26  N   UNL A   1      42.038  23.947  26.302  1.00  0.00    -0.352 N 
ATOM     27  C   UNL A   1      41.845  25.291  26.116  1.00  0.00     0.251 C 
ATOM     28  H   UNL A   1      42.281  23.453  25.485  1.00  0.00     0.163 HD
ATOM     29  O   UNL A   1      41.822  25.725  24.962  1.00  0.00    -0.269 OA
BRANCH  27  30
ATOM     30  C   UNL A   1      41.651  26.222  27.252  1.00  0.00     0.039 A 
ATOM     31  C   UNL A   1      40.628  25.949  28.167  1.00  0.00     0.014 A 
ATOM     32  C   UNL A   1      42.407  27.390  27.394  1.00  0.00     0.014 A 
ATOM     33  C   UNL A   1      40.394  26.814  29.239  1.00  0.00     0.010 A 
ATOM     34  C   UNL A   1      42.215  28.220  28.501  1.00  0.00     0.010 A 
ATOM     35  C   UNL A   1      41.201  27.946  29.431  1.00  0.00    -0.014 A 
BRANCH  35  36
ATOM     36  C   UNL A   1      40.986  28.845  30.596  1.00  0.00     0.031 A 
ATOM     37  C   UNL A   1      41.843  28.726  31.828  1.00  0.00     0.074 A 
ATOM     38  C   UNL A   1      39.991  29.754  30.560  1.00  0.00     0.049 A 
ATOM     39  N   UNL A   1      41.792  29.418  32.939  1.00  0.00    -0.248 NA
ATOM     40  C   UNL A   1      42.878  27.680  31.822  1.00  0.00     0.031 C 
ATOM     41  C   UNL A   1      39.059  29.946  29.444  1.00  0.00     0.029 A 
ATOM     42  N   UNL A   1      39.594  30.686  31.486  1.00  0.00    -0.354 N 
ATOM     43  C   UNL A   1      42.773  28.886  33.766  1.00  0.00     0.074 A 
ATOM     44  C   UNL A   1      43.375  27.783  33.047  1.00  0.00     0.031 C 
ATOM     45  C   UNL A   1      38.221  30.953  29.740  1.00  0.00     0.029 A 
ATOM     46  C   UNL A   1      38.532  31.457  31.074  1.00  0.00     0.049 A 
ATOM     47  H   UNL A   1      40.030  30.794  32.362  1.00  0.00     0.167 HD
ATOM     48  C   UNL A   1      43.155  29.286  35.003  1.00  0.00     0.031 A 
ATOM     49  C   UNL A   1      37.880  32.457  31.697  1.00  0.00     0.031 A 
ATOM     50  C   UNL A   1      42.568  30.389  35.717  1.00  0.00     0.049 A 
ATOM     51  C   UNL A   1      38.327  32.890  33.066  1.00  0.00     0.074 A 
ATOM     52  C   UNL A   1      42.924  30.906  36.951  1.00  0.00     0.029 A 
ATOM     53  N   UNL A   1      41.500  31.148  35.262  1.00  0.00    -0.354 N 
ATOM     54  N   UNL A   1      39.301  32.412  33.804  1.00  0.00    -0.248 NA
ATOM     55  C   UNL A   1      37.595  34.007  33.678  1.00  0.00     0.031 C 
ATOM     56  C   UNL A   1      42.045  31.950  37.261  1.00  0.00     0.029 A 
ATOM     57  C   UNL A   1      41.172  32.115  36.198  1.00  0.00     0.049 A 
ATOM     58  H   UNL A   1      41.043  31.019  34.399  1.00  0.00     0.167 HD
ATOM     59  C   UNL A   1      39.310  33.184  34.960  1.00  0.00     0.074 A 
ATOM     60  C   UNL A   1      38.261  34.172  34.814  1.00  0.00     0.031 C 
ATOM     61  C   UNL A   1      40.117  33.084  36.046  1.00  0.00     0.031 A 
BRANCH  48  62
ATOM     62  C   UNL A   1      44.267  28.516  35.669  1.00  0.00    -0.014 A 
ATOM     63  C   UNL A   1      45.611  28.888  35.494  1.00  0.00     0.010 A 
ATOM     64  C   UNL A   1      43.960  27.427  36.506  1.00  0.00     0.010 A 
ATOM     65  C   UNL A   1      46.633  28.157  36.107  1.00  0.00     0.020 A 
ATOM     66  C   UNL A   1      44.979  26.710  37.142  1.00  0.00     0.020 A 
ATOM     67  C   UNL A   1      46.311  27.068  36.923  1.00  0.00     0.054 A 
BRANCH  67  68
ATOM     68  S   UNL A   1      47.656  26.145  37.715  1.00  0.00     0.124 S 
ATOM     69  O   UNL A   1      48.725  27.140  37.744  1.00  0.00    -0.237 OA
ATOM     70  O   UNL A   1      47.086  25.797  39.014  1.00  0.00    -0.237 OA
ATOM     71  O   UNL A   1      47.879  25.018  36.814  1.00  0.00    -0.744 OA
ENDBRANCH  67  68
ENDBRANCH  48  62
BRANCH  49  72
ATOM     72  C   UNL A   1      36.744  33.136  31.018  1.00  0.00    -0.014 A 
ATOM     73  C   UNL A   1      35.456  33.106  31.581  1.00  0.00     0.010 A 
ATOM     74  C   UNL A   1      36.948  33.828  29.811  1.00  0.00     0.010 A 
ATOM     75  C   UNL A   1      34.389  33.742  30.941  1.00  0.00     0.020 A 
ATOM     76  C   UNL A   1      35.889  34.487  29.181  1.00  0.00     0.020 A 
ATOM     77  C   UNL A   1      34.613  34.430  29.745  1.00  0.00     0.054 A 
BRANCH  77  78
ATOM     78  S   UNL A   1      33.226  35.299  28.960  1.00  0.00     0.124 S 
ATOM     79  O   UNL A   1      33.899  36.422  28.315  1.00  0.00    -0.237 OA
ATOM     80  O   UNL A   1      32.684  34.284  28.061  1.00  0.00    -0.237 OA
ATOM     81  O   UNL A   1      32.363  35.647  30.086  1.00  0.00    -0.744 OA
ENDBRANCH  77  78
ENDBRANCH  49  72
BRANCH  61  82
ATOM     82  C   UNL A   1      39.905  34.083  37.152  1.00  0.00    -0.014 A 
ATOM     83  C   UNL A   1      40.505  35.353  37.109  1.00  0.00     0.010 A 
ATOM     84  C   UNL A   1      39.075  33.752  38.239  1.00  0.00     0.010 A 
ATOM     85  C   UNL A   1      40.315  36.260  38.156  1.00  0.00     0.020 A 
ATOM     86  C   UNL A   1      38.862  34.666  39.275  1.00  0.00     0.020 A 
ATOM     87  C   UNL A   1      39.500  35.907  39.236  1.00  0.00     0.054 A 
BRANCH  87  88
ATOM     88  S   UNL A   1      39.255  37.105  40.576  1.00  0.00     0.124 S 
ATOM     89  O   UNL A   1      40.628  37.422  40.954  1.00  0.00    -0.237 OA
ATOM     90  O   UNL A   1      38.519  38.181  39.917  1.00  0.00    -0.237 OA
ATOM     91  O   UNL A   1      38.490  36.356  41.573  1.00  0.00    -0.744 OA
ENDBRANCH  87  88
ENDBRANCH  61  82
ENDBRANCH  35  36
ENDBRANCH  27  30
ENDBRANCH  25  26
ENDBRANCH   1  25
TORSDOF 16
ENDMDL
MODEL 2
REMARK VINA RESULT:     -11.7      4.466     10.267
REMARK SMILES O=C(Cc1cn2ccsc2n1)N[C@@H]1C=C[C@H](C(=O)NCCCNC(=O)c2ccc(-c3c4nc(c(-c5ccc(S(=O)(=O)[O-])cc5)c5ccc([nH]5)c(-c5ccc(S(=O)(=O)[O-])cc5)c5nc(c(-c6ccc(S(=O)(=O)[O-])cc6)c6ccc3[nH]6)C=C5)C=C4)cc2)C1
REMARK SMILES IDX 21 1 20 2 19 3 17 4 18 5 16 7 13 8 14 9 86 10 15 11 12 12
REMARK SMILES IDX 1 13 2 14 3 16 4 17 5 18 11 19 6 20 10 21 7 22 9 23 8 24
REMARK SMILES IDX 22 25 23 26 24 27 25 29 26 30 27 31 85 32 28 33 84 34 29 35
REMARK SMILES IDX 30 36 31 37 78 38 32 39 83 40 77 41 79 42 33 43 82 44 76 45
REMARK SMILES IDX 75 46 34 48 64 49 45 50 63 51 46 52 49 53 62 54 80 55 47 56
REMARK SMILES IDX 48 57 61 59 81 60 50 61 35 62 36 63 44 64 37 65 43 66 38 67
REMARK SMILES IDX 39 68 40 69 41 70 42 71 65 72 66 73 74 74 67 75 73 76 68 77
REMARK SMILES IDX 69 78 70 79 71 80 72 81 51 82 52 83 60 84 53 85 59 86 54 87
REMARK SMILES IDX 55 88 56 89 57 90 58 91
REMARK H PARENT 19 6 12 15 23 28 79 47 49 58
REMARK Flexibility Score: inf
ROOT
ATOM      1  C   UNL A   1      34.125  28.012  25.723  1.00  0.00     0.042 C 
ENDROOT
BRANCH   1   2
ATOM      2  C   UNL A   1      33.456  28.817  24.611  1.00  0.00     0.117 C 
BRANCH   2   3
ATOM      3  N   UNL A   1      33.041  27.984  23.494  1.00  0.00    -0.356 N 
ATOM      4  C   UNL A   1      31.811  27.448  23.223  1.00  0.00     0.227 C 
ATOM      5  O   UNL A   1      31.664  26.793  22.189  1.00  0.00    -0.274 OA
ATOM      6  H   UNL A   1      33.744  27.776  22.837  1.00  0.00     0.163 HD
BRANCH   4   7
ATOM      7  C   UNL A   1      30.654  27.734  24.179  1.00  0.00     0.103 C 
ATOM      8  C   UNL A   1      29.693  25.776  25.334  1.00  0.00     0.106 C 
ATOM      9  C   UNL A   1      28.877  26.189  24.155  1.00  0.00    -0.006 C 
ATOM     10  C   UNL A   1      30.731  26.897  25.467  1.00  0.00     0.047 C 
ATOM     11  C   UNL A   1      29.381  27.263  23.538  1.00  0.00    -0.016 C 
BRANCH   8  12
ATOM     12  N   UNL A   1      30.293  24.498  25.052  1.00  0.00    -0.350 N 
ATOM     13  O   UNL A   1      30.326  23.802  27.240  1.00  0.00    -0.275 OA
ATOM     14  C   UNL A   1      30.577  23.593  26.054  1.00  0.00     0.226 C 
ATOM     15  H   UNL A   1      30.507  24.263  24.121  1.00  0.00     0.164 HD
BRANCH  14  16
ATOM     16  C   UNL A   1      31.240  22.312  25.592  1.00  0.00     0.157 C 
BRANCH  16  17
ATOM     17  C   UNL A   1      32.726  22.408  25.578  1.00  0.00     0.070 A 
ATOM     18  C   UNL A   1      33.551  23.473  25.933  1.00  0.00     0.118 A 
ATOM     19  N   UNL A   1      33.478  21.320  25.151  1.00  0.00    -0.223 NA
ATOM     20  N   UNL A   1      34.815  23.001  25.754  1.00  0.00    -0.297 N 
ATOM     21  C   UNL A   1      34.708  21.729  25.282  1.00  0.00     0.193 A 
ATOM     22  C   UNL A   1      36.095  23.468  25.928  1.00  0.00     0.104 A 
ATOM     23  S   UNL A   1      36.274  21.030  25.011  1.00  0.00    -0.105 S 
ATOM     24  C   UNL A   1      37.006  22.541  25.583  1.00  0.00     0.087 A 
ENDBRANCH  16  17
ENDBRANCH  14  16
ENDBRANCH   8  12
ENDBRANCH   4   7
ENDBRANCH   2   3
ENDBRANCH   1   2
BRANCH   1  25
ATOM     25  C   UNL A   1      33.606  28.317  27.129  1.00  0.00     0.118 C 
BRANCH  25  26
ATOM     26  N   UNL A   1      33.519  29.744  27.400  1.00  0.00    -0.352 N 
ATOM     27  C   UNL A   1      34.407  30.601  27.996  1.00  0.00     0.251 C 
ATOM     28  H   UNL A   1      32.679  30.166  27.106  1.00  0.00     0.163 HD
ATOM     29  O   UNL A   1      34.028  31.745  28.261  1.00  0.00    -0.269 OA
BRANCH  27  30
ATOM     30  C   UNL A   1      35.788  30.190  28.339  1.00  0.00     0.039 A 
ATOM     31  C   UNL A   1      36.766  30.253  27.341  1.00  0.00     0.014 A 
ATOM     32  C   UNL A   1      36.120  29.678  29.597  1.00  0.00     0.014 A 
ATOM     33  C   UNL A   1      38.077  29.850  27.614  1.00  0.00     0.010 A 
ATOM     34  C   UNL A   1      37.444  29.337  29.888  1.00  0.00     0.010 A 
ATOM     35  C   UNL A   1      38.434  29.411  28.898  1.00  0.00    -0.014 A 
BRANCH  35  36
ATOM     36  C   UNL A   1      39.837  29.025  29.207  1.00  0.00     0.031 A 
ATOM     37  C   UNL A   1      40.772  29.996  29.878  1.00  0.00     0.074 A 
ATOM     38  C   UNL A   1      40.284  27.804  28.851  1.00  0.00     0.049 A 
ATOM     39  N   UNL A   1      42.028  29.834  30.215  1.00  0.00    -0.248 NA
ATOM     40  C   UNL A   1      40.234  31.329  30.195  1.00  0.00     0.031 C 
ATOM     41  C   UNL A   1      39.496  26.782  28.157  1.00  0.00     0.029 A 
ATOM     42  N   UNL A   1      41.512  27.214  29.023  1.00  0.00    -0.354 N 
ATOM     43  C   UNL A   1      42.434  31.043  30.767  1.00  0.00     0.074 A 
ATOM     44  C   UNL A   1      41.304  31.944  30.681  1.00  0.00     0.031 C 
ATOM     45  C   UNL A   1      40.250  25.684  27.989  1.00  0.00     0.029 A 
ATOM     46  C   UNL A   1      41.582  25.931  28.533  1.00  0.00     0.049 A 
ATOM     47  H   UNL A   1      42.271  27.667  29.456  1.00  0.00     0.167 HD
ATOM     48  C   UNL A   1      43.629  31.371  31.315  1.00  0.00     0.031 A 
ATOM     49  C   UNL A   1      42.601  25.050  28.522  1.00  0.00     0.031 A 
ATOM     50  C   UNL A   1      44.750  30.474  31.414  1.00  0.00     0.049 A 
ATOM     51  C   UNL A   1      43.915  25.434  29.143  1.00  0.00     0.074 A 
ATOM     52  C   UNL A   1      45.984  30.697  32.003  1.00  0.00     0.029 A 
ATOM     53  N   UNL A   1      44.777  29.181  30.914  1.00  0.00    -0.354 N 
ATOM     54  N   UNL A   1      44.257  26.563  29.717  1.00  0.00    -0.248 NA
ATOM     55  C   UNL A   1      44.976  24.418  29.126  1.00  0.00     0.031 C 
ATOM     56  C   UNL A   1      46.771  29.555  31.820  1.00  0.00     0.029 A 
ATOM     57  C   UNL A   1      46.011  28.602  31.161  1.00  0.00     0.049 A 
ATOM     58  H   UNL A   1      44.028  28.740  30.451  1.00  0.00     0.167 HD
ATOM     59  C   UNL A   1      45.567  26.384  30.147  1.00  0.00     0.074 A 
ATOM     60  C   UNL A   1      45.947  25.034  29.787  1.00  0.00     0.031 C 
ATOM     61  C   UNL A   1      46.381  27.262  30.786  1.00  0.00     0.031 A 
BRANCH  48  62
ATOM     62  C   UNL A   1      43.785  32.772  31.849  1.00  0.00    -0.014 A 
ATOM     63  C   UNL A   1      43.490  33.073  33.190  1.00  0.00     0.010 A 
ATOM     64  C   UNL A   1      44.266  33.792  31.007  1.00  0.00     0.010 A 
ATOM     65  C   UNL A   1      43.627  34.379  33.669  1.00  0.00     0.020 A 
ATOM     66  C   UNL A   1      44.430  35.094  31.491  1.00  0.00     0.020 A 
ATOM     67  C   UNL A   1      44.091  35.383  32.814  1.00  0.00     0.054 A 
BRANCH  67  68
ATOM     68  S   UNL A   1      44.271  37.067  33.465  1.00  0.00     0.124 S 
ATOM     69  O   UNL A   1      45.292  36.883  34.493  1.00  0.00    -0.237 OA
ATOM     70  O   UNL A   1      44.693  37.823  32.288  1.00  0.00    -0.237 OA
ATOM     71  O   UNL A   1      42.936  37.389  33.963  1.00  0.00    -0.744 OA
ENDBRANCH  67  68
ENDBRANCH  48  62
BRANCH  49  72
ATOM     72  C   UNL A   1      42.408  23.704  27.919  1.00  0.00    -0.014 A 
ATOM     73  C   UNL A   1      42.903  23.422  26.633  1.00  0.00     0.010 A 
ATOM     74  C   UNL A   1      41.741  22.693  28.632  1.00  0.00     0.010 A 
ATOM     75  C   UNL A   1      42.720  22.158  26.066  1.00  0.00     0.020 A 
ATOM     76  C   UNL A   1      41.578  21.421  28.079  1.00  0.00     0.020 A 
ATOM     77  C   UNL A   1      42.059  21.164  26.794  1.00  0.00     0.054 A 
BRANCH  77  78
ATOM     78  S   UNL A   1      41.883  19.513  26.063  1.00  0.00     0.124 S 
ATOM     79  O   UNL A   1      42.725  19.616  24.875  1.00  0.00    -0.237 OA
ATOM     80  O   UNL A   1      42.387  18.642  27.122  1.00  0.00    -0.237 OA
ATOM     81  O   UNL A   1      40.449  19.405  25.809  1.00  0.00    -0.744 OA
ENDBRANCH  77  78
ENDBRANCH  49  72
BRANCH  61  82
ATOM     82  C   UNL A   1      47.759  26.777  31.150  1.00  0.00    -0.014 A 
ATOM     83  C   UNL A   1      48.823  26.854  30.233  1.00  0.00     0.010 A 
ATOM     84  C   UNL A   1      47.997  26.255  32.435  1.00  0.00     0.010 A 
ATOM     85  C   UNL A   1      50.090  26.378  30.580  1.00  0.00     0.020 A 
ATOM     86  C   UNL A   1      49.269  25.802  32.794  1.00  0.00     0.020 A 
ATOM     87  C   UNL A   1      50.303  25.848  31.856  1.00  0.00     0.054 A 
BRANCH  87  88
ATOM     88  S   UNL A   1      51.960  25.251  32.292  1.00  0.00     0.124 S 
ATOM     89  O   UNL A   1      52.783  25.852  31.246  1.00  0.00    -0.237 OA
ATOM     90  O   UNL A   1      52.156  25.792  33.634  1.00  0.00    -0.237 OA
ATOM     91  O   UNL A   1      51.831  23.797  32.227  1.00  0.00    -0.744 OA
ENDBRANCH  87  88
ENDBRANCH  61  82
ENDBRANCH  35  36
ENDBRANCH  27  30
ENDBRANCH  25  26
ENDBRANCH   1  25
TORSDOF 16
ENDMDL
MODEL 3
REMARK VINA RESULT:     -11.7      2.267      3.481
REMARK SMILES O=C(Cc1cn2ccsc2n1)N[C@@H]1C=C[C@H](C(=O)NCCCNC(=O)c2ccc(-c3c4nc(c(-c5ccc(S(=O)(=O)[O-])cc5)c5ccc([nH]5)c(-c5ccc(S(=O)(=O)[O-])cc5)c5nc(c(-c6ccc(S(=O)(=O)[O-])cc6)c6ccc3[nH]6)C=C5)C=C4)cc2)C1
REMARK SMILES IDX 21 1 20 2 19 3 17 4 18 5 16 7 13 8 14 9 86 10 15 11 12 12
REMARK SMILES IDX 1 13 2 14 3 16 4 17 5 18 11 19 6 20 10 21 7 22 9 23 8 24
REMARK SMILES IDX 22 25 23 26 24 27 25 29 26 30 27 31 85 32 28 33 84 34 29 35
REMARK SMILES IDX 30 36 31 37 78 38 32 39 83 40 77 41 79 42 33 43 82 44 76 45
REMARK SMILES IDX 75 46 34 48 64 49 45 50 63 51 46 52 49 53 62 54 80 55 47 56
REMARK SMILES IDX 48 57 61 59 81 60 50 61 35 62 36 63 44 64 37 65 43 66 38 67
REMARK SMILES IDX 39 68 40 69 41 70 42 71 65 72 66 73 74 74 67 75 73 76 68 77
REMARK SMILES IDX 69 78 70 79 71 80 72 81 51 82 52 83 60 84 53 85 59 86 54 87
REMARK SMILES IDX 55 88 56 89 57 90 58 91
REMARK H PARENT 19 6 12 15 23 28 79 47 49 58
REMARK Flexibility Score: inf
ROOT
ATOM      1  C   UNL A   1      39.665  21.854  26.551  1.00  0.00     0.042 C 
ENDROOT
BRANCH   1   2
ATOM      2  C   UNL A   1      38.439  21.917  25.644  1.00  0.00     0.117 C 
BRANCH   2   3
ATOM      3  N   UNL A   1      37.314  22.588  26.275  1.00  0.00    -0.356 N 
ATOM      4  C   UNL A   1      36.026  22.722  25.833  1.00  0.00     0.227 C 
ATOM      5  O   UNL A   1      35.211  23.305  26.550  1.00  0.00    -0.274 OA
ATOM      6  H   UNL A   1      37.506  23.006  27.146  1.00  0.00     0.163 HD
BRANCH   4   7
ATOM      7  C   UNL A   1      35.633  22.089  24.499  1.00  0.00     0.103 C 
ATOM      8  C   UNL A   1      33.388  22.660  23.648  1.00  0.00     0.106 C 
ATOM      9  C   UNL A   1      33.412  21.328  24.321  1.00  0.00    -0.006 C 
ATOM     10  C   UNL A   1      34.866  23.061  23.587  1.00  0.00     0.047 C 
ATOM     11  C   UNL A   1      34.631  21.004  24.765  1.00  0.00    -0.016 C 
BRANCH   8  12
ATOM     12  N   UNL A   1      32.602  23.564  24.447  1.00  0.00    -0.350 N 
ATOM     13  O   UNL A   1      30.758  23.490  23.083  1.00  0.00    -0.275 OA
ATOM     14  C   UNL A   1      31.320  23.922  24.087  1.00  0.00     0.226 C 
ATOM     15  H   UNL A   1      32.990  23.936  25.272  1.00  0.00     0.164 HD
BRANCH  14  16
ATOM     16  C   UNL A   1      30.645  24.910  25.017  1.00  0.00     0.157 C 
BRANCH  16  17
ATOM     17  C   UNL A   1      30.082  26.084  24.295  1.00  0.00     0.070 A 
ATOM     18  C   UNL A   1      28.754  26.440  24.074  1.00  0.00     0.118 A 
ATOM     19  N   UNL A   1      30.945  27.008  23.716  1.00  0.00    -0.223 NA
ATOM     20  N   UNL A   1      28.823  27.613  23.388  1.00  0.00    -0.297 N 
ATOM     21  C   UNL A   1      30.140  27.893  23.198  1.00  0.00     0.193 A 
ATOM     22  C   UNL A   1      27.937  28.531  22.877  1.00  0.00     0.104 A 
ATOM     23  S   UNL A   1      30.343  29.378  22.321  1.00  0.00    -0.105 S 
ATOM     24  C   UNL A   1      28.578  29.547  22.273  1.00  0.00     0.087 A 
ENDBRANCH  16  17
ENDBRANCH  14  16
ENDBRANCH   8  12
ENDBRANCH   4   7
ENDBRANCH   2   3
ENDBRANCH   1   2
BRANCH   1  25
ATOM     25  C   UNL A   1      40.135  23.210  27.080  1.00  0.00     0.118 C 
BRANCH  25  26
ATOM     26  N   UNL A   1      40.873  23.977  26.088  1.00  0.00    -0.352 N 
ATOM     27  C   UNL A   1      41.235  25.298  26.061  1.00  0.00     0.251 C 
ATOM     28  H   UNL A   1      41.160  23.459  25.302  1.00  0.00     0.163 HD
ATOM     29  O   UNL A   1      41.719  25.751  25.020  1.00  0.00    -0.269 OA
BRANCH  27  30
ATOM     30  C   UNL A   1      41.049  26.189  27.229  1.00  0.00     0.039 A 
ATOM     31  C   UNL A   1      41.939  27.255  27.399  1.00  0.00     0.014 A 
ATOM     32  C   UNL A   1      40.066  25.954  28.194  1.00  0.00     0.014 A 
ATOM     33  C   UNL A   1      41.816  28.106  28.503  1.00  0.00     0.010 A 
ATOM     34  C   UNL A   1      39.902  26.841  29.261  1.00  0.00     0.010 A 
ATOM     35  C   UNL A   1      40.780  27.921  29.432  1.00  0.00    -0.014 A 
BRANCH  35  36
ATOM     36  C   UNL A   1      40.617  28.850  30.582  1.00  0.00     0.031 A 
ATOM     37  C   UNL A   1      41.486  28.721  31.804  1.00  0.00     0.074 A 
ATOM     38  C   UNL A   1      39.656  29.795  30.542  1.00  0.00     0.049 A 
ATOM     39  N   UNL A   1      41.478  29.435  32.902  1.00  0.00    -0.248 NA
ATOM     40  C   UNL A   1      42.482  27.637  31.803  1.00  0.00     0.031 C 
ATOM     41  C   UNL A   1      38.716  30.001  29.437  1.00  0.00     0.029 A 
ATOM     42  N   UNL A   1      39.309  30.759  31.456  1.00  0.00    -0.354 N 
ATOM     43  C   UNL A   1      42.451  28.881  33.726  1.00  0.00     0.074 A 
ATOM     44  C   UNL A   1      43.000  27.743  33.019  1.00  0.00     0.031 C 
ATOM     45  C   UNL A   1      37.921  31.045  29.725  1.00  0.00     0.029 A 
ATOM     46  C   UNL A   1      38.270  31.561  31.044  1.00  0.00     0.049 A 
ATOM     47  H   UNL A   1      39.761  30.866  32.324  1.00  0.00     0.167 HD
ATOM     48  C   UNL A   1      42.866  29.290  34.949  1.00  0.00     0.031 A 
ATOM     49  C   UNL A   1      37.665  32.597  31.657  1.00  0.00     0.031 A 
ATOM     50  C   UNL A   1      42.331  30.428  35.649  1.00  0.00     0.049 A 
ATOM     51  C   UNL A   1      38.149  33.038  33.011  1.00  0.00     0.074 A 
ATOM     52  C   UNL A   1      42.725  30.954  36.869  1.00  0.00     0.029 A 
ATOM     53  N   UNL A   1      41.286  31.218  35.195  1.00  0.00    -0.354 N 
ATOM     54  N   UNL A   1      39.115  32.537  33.744  1.00  0.00    -0.248 NA
ATOM     55  C   UNL A   1      37.469  34.193  33.612  1.00  0.00     0.031 C 
ATOM     56  C   UNL A   1      41.890  32.036  37.171  1.00  0.00     0.029 A 
ATOM     57  C   UNL A   1      41.008  32.214  36.117  1.00  0.00     0.049 A 
ATOM     58  H   UNL A   1      40.812  31.090  34.341  1.00  0.00     0.167 HD
ATOM     59  C   UNL A   1      39.170  33.330  34.885  1.00  0.00     0.074 A 
ATOM     60  C   UNL A   1      38.157  34.354  34.735  1.00  0.00     0.031 C 
ATOM     61  C   UNL A   1      39.989  33.220  35.962  1.00  0.00     0.031 A 
BRANCH  48  62
ATOM     62  C   UNL A   1      43.957  28.491  35.614  1.00  0.00    -0.014 A 
ATOM     63  C   UNL A   1      45.312  28.797  35.399  1.00  0.00     0.010 A 
ATOM     64  C   UNL A   1      43.622  27.441  36.489  1.00  0.00     0.010 A 
ATOM     65  C   UNL A   1      46.315  28.040  36.012  1.00  0.00     0.020 A 
ATOM     66  C   UNL A   1      44.623  26.699  37.125  1.00  0.00     0.020 A 
ATOM     67  C   UNL A   1      45.964  26.991  36.867  1.00  0.00     0.054 A 
BRANCH  67  68
ATOM     68  S   UNL A   1      47.285  26.032  37.657  1.00  0.00     0.124 S 
ATOM     69  O   UNL A   1      48.456  26.865  37.397  1.00  0.00    -0.237 OA
ATOM     70  O   UNL A   1      46.851  25.975  39.051  1.00  0.00    -0.237 OA
ATOM     71  O   UNL A   1      47.258  24.756  36.948  1.00  0.00    -0.744 OA
ENDBRANCH  67  68
ENDBRANCH  48  62
BRANCH  49  72
ATOM     72  C   UNL A   1      36.546  33.306  30.981  1.00  0.00    -0.014 A 
ATOM     73  C   UNL A   1      35.283  33.390  31.592  1.00  0.00     0.010 A 
ATOM     74  C   UNL A   1      36.742  33.912  29.728  1.00  0.00     0.010 A 
ATOM     75  C   UNL A   1      34.231  34.054  30.956  1.00  0.00     0.020 A 
ATOM     76  C   UNL A   1      35.700  34.599  29.099  1.00  0.00     0.020 A 
ATOM     77  C   UNL A   1      34.447  34.655  29.713  1.00  0.00     0.054 A 
BRANCH  77  78
ATOM     78  S   UNL A   1      33.085  35.563  28.929  1.00  0.00     0.124 S 
ATOM     79  O   UNL A   1      33.800  36.567  28.148  1.00  0.00    -0.237 OA
ATOM     80  O   UNL A   1      32.412  34.521  28.158  1.00  0.00    -0.237 OA
ATOM     81  O   UNL A   1      32.322  36.077  30.064  1.00  0.00    -0.744 OA
ENDBRANCH  77  78
ENDBRANCH  49  72
BRANCH  61  82
ATOM     82  C   UNL A   1      39.830  34.246  37.051  1.00  0.00    -0.014 A 
ATOM     83  C   UNL A   1      40.366  35.539  36.915  1.00  0.00     0.010 A 
ATOM     84  C   UNL A   1      39.116  33.918  38.218  1.00  0.00     0.010 A 
ATOM     85  C   UNL A   1      40.230  36.472  37.946  1.00  0.00     0.020 A 
ATOM     86  C   UNL A   1      38.955  34.857  39.241  1.00  0.00     0.020 A 
ATOM     87  C   UNL A   1      39.531  36.123  39.106  1.00  0.00     0.054 A 
BRANCH  87  88
ATOM     88  S   UNL A   1      39.351  37.354  40.425  1.00  0.00     0.124 S 
ATOM     89  O   UNL A   1      38.671  38.444  39.732  1.00  0.00    -0.237 OA
ATOM     90  O   UNL A   1      38.551  36.646  41.422  1.00  0.00    -0.237 OA
ATOM     91  O   UNL A   1      40.728  37.634  40.828  1.00  0.00    -0.744 OA
ENDBRANCH  87  88
ENDBRANCH  61  82
ENDBRANCH  35  36
ENDBRANCH  27  30
ENDBRANCH  25  26
ENDBRANCH   1  25
TORSDOF 16
ENDMDL
