MODEL 1
REMARK VINA RESULT:     -10.1      0.000      0.000
REMARK SMILES C[C@@H]1SC[C@H](C(=O)NCCCNC(=O)c2ccc(-c3c4nc(c(-c5ccc(S(=O)(=O)[O-])cc5)c5ccc([nH]5)c(-c5ccc(S(=O)(=O)[O-])cc5)c5nc(c(-c6ccc(S(=O)(=O)[O-])cc6)c6ccc3[nH]6)C=C5)C=C4)cc2)N1C(=O)N(C)[C@@H](C)Cc1cccs1
REMARK SMILES IDX 9 1 8 2 6 3 7 4 5 6 1 7 2 8 3 9 75 10 4 11 76 12 77 13 78 14
REMARK SMILES IDX 79 15 80 16 81 17 82 18 83 19 84 20 87 21 85 22 86 23 10 24
REMARK SMILES IDX 11 25 12 26 13 27 14 29 15 30 16 31 74 32 17 33 73 34 18 35
REMARK SMILES IDX 19 36 20 37 67 38 21 39 72 40 66 41 68 42 22 43 71 44 65 45
REMARK SMILES IDX 64 46 23 48 53 49 34 50 52 51 35 52 38 53 51 54 69 55 36 56
REMARK SMILES IDX 37 57 50 59 70 60 39 61 24 62 25 63 33 64 26 65 32 66 27 67
REMARK SMILES IDX 28 68 29 69 30 70 31 71 54 72 55 73 63 74 56 75 62 76 57 77
REMARK SMILES IDX 58 78 59 79 60 80 61 81 40 82 41 83 49 84 42 85 48 86 43 87
REMARK SMILES IDX 44 88 45 89 46 90 47 91
REMARK H PARENT 8 5 12 28 68 47 38 58
REMARK Flexibility Score: inf
ROOT
ATOM      1  C   UNL A   1      31.920  26.448  26.066  1.00  0.00     0.117 C 
ENDROOT
BRANCH   1   2
ATOM      2  N   UNL A   1      31.007  25.493  26.657  1.00  0.00    -0.354 N 
ATOM      3  C   UNL A   1      31.164  24.163  26.895  1.00  0.00     0.243 C 
ATOM      4  O   UNL A   1      30.160  23.539  27.261  1.00  0.00    -0.273 OA
ATOM      5  H   UNL A   1      30.136  25.863  26.928  1.00  0.00     0.163 HD
BRANCH   3   6
ATOM      6  C   UNL A   1      32.454  23.400  26.520  1.00  0.00     0.187 C 
ATOM      7  C   UNL A   1      32.914  20.092  25.044  1.00  0.00     0.043 C 
ATOM      8  C   UNL A   1      33.474  21.469  25.400  1.00  0.00     0.142 C 
ATOM      9  S   UNL A   1      34.046  21.421  27.137  1.00  0.00    -0.135 SA
ATOM     10  N   UNL A   1      32.541  22.593  25.270  1.00  0.00    -0.300 N 
ATOM     11  C   UNL A   1      32.743  22.503  27.718  1.00  0.00     0.107 C 
BRANCH  10  12
ATOM     12  C   UNL A   1      32.052  23.221  24.144  1.00  0.00     0.321 C 
ATOM     13  O   UNL A   1      30.825  23.314  24.018  1.00  0.00    -0.248 OA
BRANCH  12  14
ATOM     14  N   UNL A   1      32.844  23.704  23.126  1.00  0.00    -0.325 N 
ATOM     15  C   UNL A   1      33.077  23.135  21.810  1.00  0.00     0.149 C 
BRANCH  14  16
ATOM     16  C   UNL A   1      33.716  24.882  23.424  1.00  0.00     0.088 C 
ATOM     17  C   UNL A   1      35.145  24.470  23.813  1.00  0.00     0.031 C 
BRANCH  16  18
ATOM     18  C   UNL A   1      33.721  25.970  22.316  1.00  0.00     0.071 C 
BRANCH  18  19
ATOM     19  C   UNL A   1      32.592  26.957  22.471  1.00  0.00     0.007 A 
ATOM     20  C   UNL A   1      31.243  26.746  22.259  1.00  0.00     0.015 A 
ATOM     21  S   UNL A   1      32.901  28.567  22.966  1.00  0.00    -0.149 S 
ATOM     22  C   UNL A   1      30.457  27.890  22.565  1.00  0.00     0.012 A 
ATOM     23  C   UNL A   1      31.237  28.959  22.941  1.00  0.00     0.065 A 
ENDBRANCH  18  19
ENDBRANCH  16  18
ENDBRANCH  14  16
ENDBRANCH  12  14
ENDBRANCH  10  12
ENDBRANCH   3   6
ENDBRANCH   1   2
BRANCH   1  24
ATOM     24  C   UNL A   1      32.731  27.165  27.133  1.00  0.00     0.042 C 
BRANCH  24  25
ATOM     25  C   UNL A   1      33.796  28.096  26.570  1.00  0.00     0.118 C 
BRANCH  25  26
ATOM     26  N   UNL A   1      33.496  29.499  26.820  1.00  0.00    -0.352 N 
ATOM     27  C   UNL A   1      34.211  30.432  27.526  1.00  0.00     0.251 C 
ATOM     28  H   UNL A   1      32.656  29.826  26.423  1.00  0.00     0.163 HD
ATOM     29  O   UNL A   1      33.688  31.509  27.815  1.00  0.00    -0.269 OA
BRANCH  27  30
ATOM     30  C   UNL A   1      35.595  30.140  27.955  1.00  0.00     0.039 A 
ATOM     31  C   UNL A   1      35.828  29.733  29.271  1.00  0.00     0.014 A 
ATOM     32  C   UNL A   1      36.664  30.278  27.066  1.00  0.00     0.014 A 
ATOM     33  C   UNL A   1      37.125  29.414  29.677  1.00  0.00     0.010 A 
ATOM     34  C   UNL A   1      37.938  29.864  27.443  1.00  0.00     0.010 A 
ATOM     35  C   UNL A   1      38.187  29.447  28.757  1.00  0.00    -0.014 A 
BRANCH  35  36
ATOM     36  C   UNL A   1      39.569  29.081  29.160  1.00  0.00     0.031 A 
ATOM     37  C   UNL A   1      40.429  30.077  29.892  1.00  0.00     0.074 A 
ATOM     38  C   UNL A   1      40.068  27.874  28.824  1.00  0.00     0.049 A 
ATOM     39  N   UNL A   1      41.671  29.961  30.288  1.00  0.00    -0.248 NA
ATOM     40  C   UNL A   1      39.825  31.387  30.194  1.00  0.00     0.031 C 
ATOM     41  C   UNL A   1      39.350  26.837  28.077  1.00  0.00     0.029 A 
ATOM     42  N   UNL A   1      41.298  27.316  29.065  1.00  0.00    -0.354 N 
ATOM     43  C   UNL A   1      41.999  31.183  30.867  1.00  0.00     0.074 A 
ATOM     44  C   UNL A   1      40.849  32.045  30.717  1.00  0.00     0.031 C 
ATOM     45  C   UNL A   1      40.141  25.759  27.953  1.00  0.00     0.029 A 
ATOM     46  C   UNL A   1      41.433  26.040  28.570  1.00  0.00     0.049 A 
ATOM     47  H   UNL A   1      42.017  27.785  29.547  1.00  0.00     0.167 HD
ATOM     48  C   UNL A   1      43.144  31.547  31.490  1.00  0.00     0.031 A 
ATOM     49  C   UNL A   1      42.479  25.193  28.605  1.00  0.00     0.031 A 
ATOM     50  C   UNL A   1      44.283  30.682  31.649  1.00  0.00     0.049 A 
ATOM     51  C   UNL A   1      43.744  25.623  29.295  1.00  0.00     0.074 A 
ATOM     52  C   UNL A   1      45.470  30.936  32.313  1.00  0.00     0.029 A 
ATOM     53  N   UNL A   1      44.376  29.396  31.140  1.00  0.00    -0.354 N 
ATOM     54  N   UNL A   1      44.011  26.759  29.895  1.00  0.00    -0.248 NA
ATOM     55  C   UNL A   1      44.846  24.652  29.325  1.00  0.00     0.031 C 
ATOM     56  C   UNL A   1      46.304  29.825  32.155  1.00  0.00     0.029 A 
ATOM     57  C   UNL A   1      45.611  28.852  31.452  1.00  0.00     0.049 A 
ATOM     58  H   UNL A   1      43.669  28.936  30.631  1.00  0.00     0.167 HD
ATOM     59  C   UNL A   1      45.301  26.627  30.400  1.00  0.00     0.074 A 
ATOM     60  C   UNL A   1      45.751  25.295  30.050  1.00  0.00     0.031 C 
ATOM     61  C   UNL A   1      46.045  27.525  31.091  1.00  0.00     0.031 A 
BRANCH  48  62
ATOM     62  C   UNL A   1      43.222  32.948  32.042  1.00  0.00    -0.014 A 
ATOM     63  C   UNL A   1      42.886  33.224  33.380  1.00  0.00     0.010 A 
ATOM     64  C   UNL A   1      43.672  33.999  31.221  1.00  0.00     0.010 A 
ATOM     65  C   UNL A   1      42.954  34.529  33.875  1.00  0.00     0.020 A 
ATOM     66  C   UNL A   1      43.772  35.302  31.721  1.00  0.00     0.020 A 
ATOM     67  C   UNL A   1      43.396  35.560  33.040  1.00  0.00     0.054 A 
BRANCH  67  68
ATOM     68  S   UNL A   1      43.498  37.240  33.717  1.00  0.00     0.124 S 
ATOM     69  O   UNL A   1      43.689  38.040  32.509  1.00  0.00    -0.237 OA
ATOM     70  O   UNL A   1      42.204  37.398  34.376  1.00  0.00    -0.237 OA
ATOM     71  O   UNL A   1      44.648  37.183  34.615  1.00  0.00    -0.744 OA
ENDBRANCH  67  68
ENDBRANCH  48  62
BRANCH  49  72
ATOM     72  C   UNL A   1      42.368  23.845  27.981  1.00  0.00    -0.014 A 
ATOM     73  C   UNL A   1      41.983  22.731  28.749  1.00  0.00     0.010 A 
ATOM     74  C   UNL A   1      42.641  23.668  26.613  1.00  0.00     0.010 A 
ATOM     75  C   UNL A   1      41.894  21.464  28.166  1.00  0.00     0.020 A 
ATOM     76  C   UNL A   1      42.523  22.408  26.019  1.00  0.00     0.020 A 
ATOM     77  C   UNL A   1      42.162  21.311  26.803  1.00  0.00     0.054 A 
BRANCH  77  78
ATOM     78  S   UNL A   1      41.993  19.664  26.057  1.00  0.00     0.124 S 
ATOM     79  O   UNL A   1      42.907  19.751  24.922  1.00  0.00    -0.237 OA
ATOM     80  O   UNL A   1      42.413  18.783  27.143  1.00  0.00    -0.237 OA
ATOM     81  O   UNL A   1      40.575  19.589  25.715  1.00  0.00    -0.744 OA
ENDBRANCH  77  78
ENDBRANCH  49  72
BRANCH  61  82
ATOM     82  C   UNL A   1      47.412  27.087  31.547  1.00  0.00    -0.014 A 
ATOM     83  C   UNL A   1      47.600  26.431  32.777  1.00  0.00     0.010 A 
ATOM     84  C   UNL A   1      48.521  27.298  30.707  1.00  0.00     0.010 A 
ATOM     85  C   UNL A   1      48.878  26.035  33.178  1.00  0.00     0.020 A 
ATOM     86  C   UNL A   1      49.797  26.873  31.090  1.00  0.00     0.020 A 
ATOM     87  C   UNL A   1      49.969  26.260  32.332  1.00  0.00     0.054 A 
BRANCH  87  88
ATOM     88  S   UNL A   1      51.613  25.709  32.864  1.00  0.00     0.124 S 
ATOM     89  O   UNL A   1      52.423  26.900  32.624  1.00  0.00    -0.237 OA
ATOM     90  O   UNL A   1      51.397  25.366  34.267  1.00  0.00    -0.237 OA
ATOM     91  O   UNL A   1      51.899  24.574  31.988  1.00  0.00    -0.744 OA
ENDBRANCH  87  88
ENDBRANCH  61  82
ENDBRANCH  35  36
ENDBRANCH  27  30
ENDBRANCH  25  26
ENDBRANCH  24  25
ENDBRANCH   1  24
TORSDOF 18
ENDMDL
MODEL 2
REMARK VINA RESULT:      -9.8      3.856      5.621
REMARK SMILES C[C@@H]1SC[C@H](C(=O)NCCCNC(=O)c2ccc(-c3c4nc(c(-c5ccc(S(=O)(=O)[O-])cc5)c5ccc([nH]5)c(-c5ccc(S(=O)(=O)[O-])cc5)c5nc(c(-c6ccc(S(=O)(=O)[O-])cc6)c6ccc3[nH]6)C=C5)C=C4)cc2)N1C(=O)N(C)[C@@H](C)Cc1cccs1
REMARK SMILES IDX 9 1 8 2 6 3 7 4 5 6 1 7 2 8 3 9 75 10 4 11 76 12 77 13 78 14
REMARK SMILES IDX 79 15 80 16 81 17 82 18 83 19 84 20 87 21 85 22 86 23 10 24
REMARK SMILES IDX 11 25 12 26 13 27 14 29 15 30 16 31 74 32 17 33 73 34 18 35
REMARK SMILES IDX 19 36 20 37 67 38 21 39 72 40 66 41 68 42 22 43 71 44 65 45
REMARK SMILES IDX 64 46 23 48 53 49 34 50 52 51 35 52 38 53 51 54 69 55 36 56
REMARK SMILES IDX 37 57 50 59 70 60 39 61 24 62 25 63 33 64 26 65 32 66 27 67
REMARK SMILES IDX 28 68 29 69 30 70 31 71 54 72 55 73 63 74 56 75 62 76 57 77
REMARK SMILES IDX 58 78 59 79 60 80 61 81 40 82 41 83 49 84 42 85 48 86 43 87
REMARK SMILES IDX 44 88 45 89 46 90 47 91
REMARK H PARENT 8 5 12 28 68 47 38 58
REMARK Flexibility Score: inf
ROOT
ATOM      1  C   UNL A   1      31.908  30.332  27.128  1.00  0.00     0.117 C 
ENDROOT
BRANCH   1   2
ATOM      2  N   UNL A   1      33.007  29.679  26.450  1.00  0.00    -0.354 N 
ATOM      3  C   UNL A   1      32.996  28.778  25.431  1.00  0.00     0.243 C 
ATOM      4  O   UNL A   1      34.075  28.246  25.144  1.00  0.00    -0.273 OA
ATOM      5  H   UNL A   1      33.902  29.923  26.777  1.00  0.00     0.163 HD
BRANCH   3   6
ATOM      6  C   UNL A   1      31.685  28.258  24.798  1.00  0.00     0.187 C 
ATOM      7  C   UNL A   1      31.014  25.227  22.875  1.00  0.00     0.043 C 
ATOM      8  C   UNL A   1      30.503  26.416  23.689  1.00  0.00     0.142 C 
ATOM      9  S   UNL A   1      30.374  27.858  22.572  1.00  0.00    -0.135 SA
ATOM     10  N   UNL A   1      31.329  26.811  24.835  1.00  0.00    -0.300 N 
ATOM     11  C   UNL A   1      31.735  28.727  23.348  1.00  0.00     0.107 C 
BRANCH  10  12
ATOM     12  C   UNL A   1      31.502  26.206  26.061  1.00  0.00     0.321 C 
ATOM     13  O   UNL A   1      31.410  26.910  27.074  1.00  0.00    -0.248 OA
BRANCH  12  14
ATOM     14  N   UNL A   1      31.824  24.877  26.225  1.00  0.00    -0.325 N 
ATOM     15  C   UNL A   1      30.938  23.754  26.483  1.00  0.00     0.149 C 
BRANCH  14  16
ATOM     16  C   UNL A   1      33.274  24.519  26.312  1.00  0.00     0.088 C 
ATOM     17  C   UNL A   1      33.499  23.131  26.933  1.00  0.00     0.031 C 
BRANCH  16  18
ATOM     18  C   UNL A   1      34.051  24.676  24.977  1.00  0.00     0.071 C 
BRANCH  18  19
ATOM     19  C   UNL A   1      35.343  23.898  24.966  1.00  0.00     0.007 A 
ATOM     20  C   UNL A   1      36.439  24.057  25.792  1.00  0.00     0.015 A 
ATOM     21  S   UNL A   1      35.593  22.637  23.835  1.00  0.00    -0.149 S 
ATOM     22  C   UNL A   1      37.459  23.101  25.536  1.00  0.00     0.012 A 
ATOM     23  C   UNL A   1      37.137  22.281  24.479  1.00  0.00     0.065 A 
ENDBRANCH  18  19
ENDBRANCH  16  18
ENDBRANCH  14  16
ENDBRANCH  12  14
ENDBRANCH  10  12
ENDBRANCH   3   6
ENDBRANCH   1   2
BRANCH   1  24
ATOM     24  C   UNL A   1      31.908  31.828  26.857  1.00  0.00     0.042 C 
BRANCH  24  25
ATOM     25  C   UNL A   1      33.152  32.542  27.365  1.00  0.00     0.118 C 
BRANCH  25  26
ATOM     26  N   UNL A   1      32.867  33.893  27.830  1.00  0.00    -0.352 N 
ATOM     27  C   UNL A   1      33.375  34.570  28.909  1.00  0.00     0.251 C 
ATOM     28  H   UNL A   1      32.215  34.394  27.289  1.00  0.00     0.163 HD
ATOM     29  O   UNL A   1      32.848  35.623  29.269  1.00  0.00    -0.269 OA
BRANCH  27  30
ATOM     30  C   UNL A   1      34.535  34.029  29.648  1.00  0.00     0.039 A 
ATOM     31  C   UNL A   1      34.314  33.189  30.742  1.00  0.00     0.014 A 
ATOM     32  C   UNL A   1      35.840  34.358  29.271  1.00  0.00     0.014 A 
ATOM     33  C   UNL A   1      35.401  32.639  31.422  1.00  0.00     0.010 A 
ATOM     34  C   UNL A   1      36.919  33.731  29.886  1.00  0.00     0.010 A 
ATOM     35  C   UNL A   1      36.714  32.880  30.980  1.00  0.00    -0.014 A 
BRANCH  35  36
ATOM     36  C   UNL A   1      37.884  32.278  31.670  1.00  0.00     0.031 A 
ATOM     37  C   UNL A   1      38.337  32.823  32.999  1.00  0.00     0.074 A 
ATOM     38  C   UNL A   1      38.569  31.279  31.079  1.00  0.00     0.049 A 
ATOM     39  N   UNL A   1      39.358  32.463  33.733  1.00  0.00    -0.248 NA
ATOM     40  C   UNL A   1      37.557  33.939  33.565  1.00  0.00     0.031 C 
ATOM     41  C   UNL A   1      38.257  30.692  29.773  1.00  0.00     0.029 A 
ATOM     42  N   UNL A   1      39.672  30.579  31.500  1.00  0.00    -0.354 N 
ATOM     43  C   UNL A   1      39.353  33.316  34.833  1.00  0.00     0.074 A 
ATOM     44  C   UNL A   1      38.266  34.249  34.640  1.00  0.00     0.031 C 
ATOM     45  C   UNL A   1      39.126  29.700  29.518  1.00  0.00     0.029 A 
ATOM     46  C   UNL A   1      40.082  29.609  30.617  1.00  0.00     0.049 A 
ATOM     47  H   UNL A   1      40.128  30.756  32.355  1.00  0.00     0.167 HD
ATOM     48  C   UNL A   1      40.162  33.308  35.917  1.00  0.00     0.031 A 
ATOM     49  C   UNL A   1      41.112  28.743  30.682  1.00  0.00     0.031 A 
ATOM     50  C   UNL A   1      41.235  32.369  36.112  1.00  0.00     0.049 A 
ATOM     51  C   UNL A   1      42.004  28.760  31.893  1.00  0.00     0.074 A 
ATOM     52  C   UNL A   1      42.079  32.241  37.202  1.00  0.00     0.029 A 
ATOM     53  N   UNL A   1      41.612  31.397  35.198  1.00  0.00    -0.354 N 
ATOM     54  N   UNL A   1      41.941  29.530  32.954  1.00  0.00    -0.248 NA
ATOM     55  C   UNL A   1      43.098  27.780  31.923  1.00  0.00     0.031 C 
ATOM     56  C   UNL A   1      43.003  31.230  36.921  1.00  0.00     0.029 A 
ATOM     57  C   UNL A   1      42.693  30.683  35.686  1.00  0.00     0.049 A 
ATOM     58  H   UNL A   1      41.177  31.239  34.329  1.00  0.00     0.167 HD
ATOM     59  C   UNL A   1      42.969  29.107  33.790  1.00  0.00     0.074 A 
ATOM     60  C   UNL A   1      43.624  28.002  33.120  1.00  0.00     0.031 C 
ATOM     61  C   UNL A   1      43.337  29.588  35.004  1.00  0.00     0.031 A 
BRANCH  48  62
ATOM     62  C   UNL A   1      39.919  34.353  36.976  1.00  0.00    -0.014 A 
ATOM     63  C   UNL A   1      40.453  35.650  36.857  1.00  0.00     0.010 A 
ATOM     64  C   UNL A   1      39.115  34.047  38.090  1.00  0.00     0.010 A 
ATOM     65  C   UNL A   1      40.227  36.605  37.851  1.00  0.00     0.020 A 
ATOM     66  C   UNL A   1      38.860  35.010  39.071  1.00  0.00     0.020 A 
ATOM     67  C   UNL A   1      39.432  36.278  38.953  1.00  0.00     0.054 A 
BRANCH  67  68
ATOM     68  S   UNL A   1      39.135  37.547  40.215  1.00  0.00     0.124 S 
ATOM     69  O   UNL A   1      38.612  36.751  41.324  1.00  0.00    -0.237 OA
ATOM     70  O   UNL A   1      40.466  38.111  40.420  1.00  0.00    -0.237 OA
ATOM     71  O   UNL A   1      38.170  38.444  39.585  1.00  0.00    -0.744 OA
ENDBRANCH  67  68
ENDBRANCH  48  62
BRANCH  49  72
ATOM     72  C   UNL A   1      41.346  27.778  29.573  1.00  0.00    -0.014 A 
ATOM     73  C   UNL A   1      40.460  26.706  29.359  1.00  0.00     0.010 A 
ATOM     74  C   UNL A   1      42.453  27.928  28.719  1.00  0.00     0.010 A 
ATOM     75  C   UNL A   1      40.689  25.792  28.326  1.00  0.00     0.020 A 
ATOM     76  C   UNL A   1      42.669  27.033  27.666  1.00  0.00     0.020 A 
ATOM     77  C   UNL A   1      41.791  25.963  27.484  1.00  0.00     0.054 A 
BRANCH  77  78
ATOM     78  S   UNL A   1      42.042  24.791  26.121  1.00  0.00     0.124 S 
ATOM     79  O   UNL A   1      43.392  24.304  26.385  1.00  0.00    -0.237 OA
ATOM     80  O   UNL A   1      40.967  23.826  26.335  1.00  0.00    -0.237 OA
ATOM     81  O   UNL A   1      41.896  25.620  24.927  1.00  0.00    -0.744 OA
ENDBRANCH  77  78
ENDBRANCH  49  72
BRANCH  61  82
ATOM     82  C   UNL A   1      44.480  28.900  35.703  1.00  0.00    -0.014 A 
ATOM     83  C   UNL A   1      45.818  29.233  35.422  1.00  0.00     0.010 A 
ATOM     84  C   UNL A   1      44.207  27.933  36.688  1.00  0.00     0.010 A 
ATOM     85  C   UNL A   1      46.861  28.580  36.083  1.00  0.00     0.020 A 
ATOM     86  C   UNL A   1      45.247  27.302  37.375  1.00  0.00     0.020 A 
ATOM     87  C   UNL A   1      46.569  27.617  37.054  1.00  0.00     0.054 A 
BRANCH  87  88
ATOM     88  S   UNL A   1      47.942  26.805  37.919  1.00  0.00     0.124 S 
ATOM     89  O   UNL A   1      47.408  25.465  38.143  1.00  0.00    -0.237 OA
ATOM     90  O   UNL A   1      49.029  26.896  36.948  1.00  0.00    -0.237 OA
ATOM     91  O   UNL A   1      48.120  27.615  39.123  1.00  0.00    -0.744 OA
ENDBRANCH  87  88
ENDBRANCH  61  82
ENDBRANCH  35  36
ENDBRANCH  27  30
ENDBRANCH  25  26
ENDBRANCH  24  25
ENDBRANCH   1  24
TORSDOF 18
ENDMDL
MODEL 3
REMARK VINA RESULT:      -9.8      2.422      3.105
REMARK SMILES C[C@@H]1SC[C@H](C(=O)NCCCNC(=O)c2ccc(-c3c4nc(c(-c5ccc(S(=O)(=O)[O-])cc5)c5ccc([nH]5)c(-c5ccc(S(=O)(=O)[O-])cc5)c5nc(c(-c6ccc(S(=O)(=O)[O-])cc6)c6ccc3[nH]6)C=C5)C=C4)cc2)N1C(=O)N(C)[C@@H](C)Cc1cccs1
REMARK SMILES IDX 9 1 8 2 6 3 7 4 5 6 1 7 2 8 3 9 75 10 4 11 76 12 77 13 78 14
REMARK SMILES IDX 79 15 80 16 81 17 82 18 83 19 84 20 87 21 85 22 86 23 10 24
REMARK SMILES IDX 11 25 12 26 13 27 14 29 15 30 16 31 74 32 17 33 73 34 18 35
REMARK SMILES IDX 19 36 20 37 67 38 21 39 72 40 66 41 68 42 22 43 71 44 65 45
REMARK SMILES IDX 64 46 23 48 53 49 34 50 52 51 35 52 38 53 51 54 69 55 36 56
REMARK SMILES IDX 37 57 50 59 70 60 39 61 24 62 25 63 33 64 26 65 32 66 27 67
REMARK SMILES IDX 28 68 29 69 30 70 31 71 54 72 55 73 63 74 56 75 62 76 57 77
REMARK SMILES IDX 58 78 59 79 60 80 61 81 40 82 41 83 49 84 42 85 48 86 43 87
REMARK SMILES IDX 44 88 45 89 46 90 47 91
REMARK H PARENT 8 5 12 28 68 47 38 58
REMARK Flexibility Score: inf
ROOT
ATOM      1  C   UNL A   1      31.545  27.897  26.365  1.00  0.00     0.117 C 
ENDROOT
BRANCH   1   2
ATOM      2  N   UNL A   1      30.852  26.688  26.754  1.00  0.00    -0.354 N 
ATOM      3  C   UNL A   1      31.145  25.387  26.490  1.00  0.00     0.243 C 
ATOM      4  O   UNL A   1      30.291  24.547  26.802  1.00  0.00    -0.273 OA
ATOM      5  H   UNL A   1      30.041  26.829  27.294  1.00  0.00     0.163 HD
BRANCH   3   6
ATOM      6  C   UNL A   1      32.366  24.968  25.640  1.00  0.00     0.187 C 
ATOM      7  C   UNL A   1      32.862  22.089  23.448  1.00  0.00     0.043 C 
ATOM      8  C   UNL A   1      33.287  23.480  23.920  1.00  0.00     0.142 C 
ATOM      9  S   UNL A   1      34.348  23.281  25.396  1.00  0.00    -0.135 SA
ATOM     10  N   UNL A   1      32.199  24.398  24.273  1.00  0.00    -0.300 N 
ATOM     11  C   UNL A   1      33.128  23.974  26.509  1.00  0.00     0.107 C 
BRANCH  10  12
ATOM     12  C   UNL A   1      31.310  25.079  23.469  1.00  0.00     0.321 C 
ATOM     13  O   UNL A   1      30.119  24.751  23.513  1.00  0.00    -0.248 OA
BRANCH  12  14
ATOM     14  N   UNL A   1      31.676  26.067  22.582  1.00  0.00    -0.325 N 
ATOM     15  C   UNL A   1      31.768  25.998  21.134  1.00  0.00     0.149 C 
BRANCH  14  16
ATOM     16  C   UNL A   1      32.202  27.349  23.147  1.00  0.00     0.088 C 
ATOM     17  C   UNL A   1      33.730  27.333  23.312  1.00  0.00     0.031 C 
BRANCH  16  18
ATOM     18  C   UNL A   1      31.726  28.621  22.396  1.00  0.00     0.071 C 
BRANCH  18  19
ATOM     19  C   UNL A   1      30.237  28.833  22.505  1.00  0.00     0.007 A 
ATOM     20  C   UNL A   1      29.328  28.113  23.257  1.00  0.00     0.015 A 
ATOM     21  S   UNL A   1      29.468  30.091  21.635  1.00  0.00    -0.149 S 
ATOM     22  C   UNL A   1      28.009  28.636  23.167  1.00  0.00     0.012 A 
ATOM     23  C   UNL A   1      27.941  29.701  22.298  1.00  0.00     0.065 A 
ENDBRANCH  18  19
ENDBRANCH  16  18
ENDBRANCH  14  16
ENDBRANCH  12  14
ENDBRANCH  10  12
ENDBRANCH   3   6
ENDBRANCH   1   2
BRANCH   1  24
ATOM     24  C   UNL A   1      32.887  28.011  27.069  1.00  0.00     0.042 C 
BRANCH  24  25
ATOM     25  C   UNL A   1      33.868  28.940  26.368  1.00  0.00     0.118 C 
BRANCH  25  26
ATOM     26  N   UNL A   1      33.653  30.339  26.714  1.00  0.00    -0.352 N 
ATOM     27  C   UNL A   1      34.303  31.120  27.635  1.00  0.00     0.251 C 
ATOM     28  H   UNL A   1      32.936  30.790  26.213  1.00  0.00     0.163 HD
ATOM     29  O   UNL A   1      33.834  32.217  27.942  1.00  0.00    -0.269 OA
BRANCH  27  30
ATOM     30  C   UNL A   1      35.550  30.642  28.268  1.00  0.00     0.039 A 
ATOM     31  C   UNL A   1      36.773  31.169  27.848  1.00  0.00     0.014 A 
ATOM     32  C   UNL A   1      35.515  29.665  29.268  1.00  0.00     0.014 A 
ATOM     33  C   UNL A   1      37.954  30.756  28.467  1.00  0.00     0.010 A 
ATOM     34  C   UNL A   1      36.680  29.330  29.951  1.00  0.00     0.010 A 
ATOM     35  C   UNL A   1      37.915  29.856  29.546  1.00  0.00    -0.014 A 
BRANCH  35  36
ATOM     36  C   UNL A   1      39.156  29.428  30.240  1.00  0.00     0.031 A 
ATOM     37  C   UNL A   1      39.598  30.132  31.496  1.00  0.00     0.074 A 
ATOM     38  C   UNL A   1      39.912  28.442  29.715  1.00  0.00     0.049 A 
ATOM     39  N   UNL A   1      40.670  29.934  32.219  1.00  0.00    -0.248 NA
ATOM     40  C   UNL A   1      38.737  31.221  31.990  1.00  0.00     0.031 C 
ATOM     41  C   UNL A   1      39.615  27.711  28.480  1.00  0.00     0.029 A 
ATOM     42  N   UNL A   1      41.087  27.886  30.153  1.00  0.00    -0.354 N 
ATOM     43  C   UNL A   1      40.621  30.881  33.237  1.00  0.00     0.074 A 
ATOM     44  C   UNL A   1      39.447  31.692  33.004  1.00  0.00     0.031 C 
ATOM     45  C   UNL A   1      40.564  26.782  28.281  1.00  0.00     0.029 A 
ATOM     46  C   UNL A   1      41.557  26.878  29.345  1.00  0.00     0.049 A 
ATOM     47  H   UNL A   1      41.551  28.181  30.970  1.00  0.00     0.167 HD
ATOM     48  C   UNL A   1      41.461  31.046  34.285  1.00  0.00     0.031 A 
ATOM     49  C   UNL A   1      42.664  26.118  29.447  1.00  0.00     0.031 A 
ATOM     50  C   UNL A   1      42.622  30.229  34.521  1.00  0.00     0.049 A 
ATOM     51  C   UNL A   1      43.588  26.326  30.616  1.00  0.00     0.074 A 
ATOM     52  C   UNL A   1      43.507  30.278  35.584  1.00  0.00     0.029 A 
ATOM     53  N   UNL A   1      43.058  29.214  33.683  1.00  0.00    -0.354 N 
ATOM     54  N   UNL A   1      43.487  27.183  31.605  1.00  0.00    -0.248 NA
ATOM     55  C   UNL A   1      44.769  25.454  30.691  1.00  0.00     0.031 C 
ATOM     56  C   UNL A   1      44.511  29.332  35.359  1.00  0.00     0.029 A 
ATOM     57  C   UNL A   1      44.214  28.646  34.191  1.00  0.00     0.049 A 
ATOM     58  H   UNL A   1      42.612  28.937  32.850  1.00  0.00     0.167 HD
ATOM     59  C   UNL A   1      44.576  26.932  32.434  1.00  0.00     0.074 A 
ATOM     60  C   UNL A   1      45.309  25.833  31.841  1.00  0.00     0.031 C 
ATOM     61  C   UNL A   1      44.936  27.555  33.585  1.00  0.00     0.031 A 
BRANCH  48  62
ATOM     62  C   UNL A   1      41.155  32.159  35.255  1.00  0.00    -0.014 A 
ATOM     63  C   UNL A   1      41.492  33.494  34.961  1.00  0.00     0.010 A 
ATOM     64  C   UNL A   1      40.490  31.874  36.461  1.00  0.00     0.010 A 
ATOM     65  C   UNL A   1      41.210  34.514  35.874  1.00  0.00     0.020 A 
ATOM     66  C   UNL A   1      40.178  32.896  37.363  1.00  0.00     0.020 A 
ATOM     67  C   UNL A   1      40.556  34.207  37.070  1.00  0.00     0.054 A 
BRANCH  67  68
ATOM     68  S   UNL A   1      40.181  35.556  38.225  1.00  0.00     0.124 S 
ATOM     69  O   UNL A   1      38.983  35.054  38.894  1.00  0.00    -0.237 OA
ATOM     70  O   UNL A   1      41.384  35.613  39.051  1.00  0.00    -0.237 OA
ATOM     71  O   UNL A   1      39.971  36.709  37.355  1.00  0.00    -0.744 OA
ENDBRANCH  67  68
ENDBRANCH  48  62
BRANCH  49  72
ATOM     72  C   UNL A   1      42.952  25.078  28.420  1.00  0.00    -0.014 A 
ATOM     73  C   UNL A   1      42.445  23.773  28.563  1.00  0.00     0.010 A 
ATOM     74  C   UNL A   1      43.729  25.388  27.290  1.00  0.00     0.010 A 
ATOM     75  C   UNL A   1      42.728  22.794  27.606  1.00  0.00     0.020 A 
ATOM     76  C   UNL A   1      43.989  24.420  26.315  1.00  0.00     0.020 A 
ATOM     77  C   UNL A   1      43.496  23.125  26.486  1.00  0.00     0.054 A 
BRANCH  77  78
ATOM     78  S   UNL A   1      43.811  21.850  25.233  1.00  0.00     0.124 S 
ATOM     79  O   UNL A   1      45.145  21.386  25.600  1.00  0.00    -0.237 OA
ATOM     80  O   UNL A   1      42.724  20.903  25.468  1.00  0.00    -0.237 OA
ATOM     81  O   UNL A   1      43.727  22.583  23.971  1.00  0.00    -0.744 OA
ENDBRANCH  77  78
ENDBRANCH  49  72
BRANCH  61  82
ATOM     82  C   UNL A   1      46.158  27.039  34.297  1.00  0.00    -0.014 A 
ATOM     83  C   UNL A   1      47.433  27.580  34.049  1.00  0.00     0.010 A 
ATOM     84  C   UNL A   1      46.020  26.024  35.261  1.00  0.00     0.010 A 
ATOM     85  C   UNL A   1      48.553  27.084  34.722  1.00  0.00     0.020 A 
ATOM     86  C   UNL A   1      47.133  25.549  35.961  1.00  0.00     0.020 A 
ATOM     87  C   UNL A   1      48.395  26.070  35.673  1.00  0.00     0.054 A 
BRANCH  87  88
ATOM     88  S   UNL A   1      49.861  25.465  36.553  1.00  0.00     0.124 S 
ATOM     89  O   UNL A   1      50.166  26.584  37.439  1.00  0.00    -0.237 OA
ATOM     90  O   UNL A   1      49.363  24.258  37.210  1.00  0.00    -0.237 OA
ATOM     91  O   UNL A   1      50.834  25.230  35.487  1.00  0.00    -0.744 OA
ENDBRANCH  87  88
ENDBRANCH  61  82
ENDBRANCH  35  36
ENDBRANCH  27  30
ENDBRANCH  25  26
ENDBRANCH  24  25
ENDBRANCH   1  24
TORSDOF 18
ENDMDL
