MODEL 1
REMARK VINA RESULT:     -11.9      0.000      0.000
REMARK SMILES O=C(Cn1c(SCCc2ccccc2)nc2ccccc21)NCCCNC(=O)c1ccc(-c2c3nc(c(-c4ccc(S(=O)(=O)[O-])cc4)c4ccc([nH]4)c(-c4ccc(S(=O)(=O)[O-])cc4)c4nc(c(-c5ccc(S(=O)(=O)[O-])cc5)c5ccc2[nH]5)C=C4)C=C3)cc1
REMARK SMILES IDX 23 1 22 2 1 3 2 4 3 6 4 7 5 8 21 9 15 10 16 11 20 12 17 13
REMARK SMILES IDX 19 14 18 15 6 16 7 17 8 18 9 19 10 20 14 21 11 22 13 23
REMARK SMILES IDX 12 24 24 25 25 26 26 27 27 28 28 30 29 31 30 32 88 33 31 34
REMARK SMILES IDX 87 35 32 36 33 37 34 38 81 39 35 40 86 41 80 42 82 43 36 44
REMARK SMILES IDX 85 45 79 46 78 47 37 49 67 50 48 51 66 52 49 53 52 54 65 55
REMARK SMILES IDX 83 56 50 57 51 58 64 60 84 61 53 62 38 63 39 64 47 65 40 66
REMARK SMILES IDX 46 67 41 68 42 69 43 70 44 71 45 72 68 73 69 74 77 75 70 76
REMARK SMILES IDX 76 77 71 78 72 79 73 80 74 81 75 82 54 83 55 84 63 85 56 86
REMARK SMILES IDX 62 87 57 88 58 89 59 90 60 91 61 92
REMARK H PARENT 22 5 26 29 82 48 52 59
REMARK Flexibility Score: inf
ROOT
ATOM      1  C   UNL A   1      39.206  22.435  26.183  1.00  0.00     0.117 C 
ENDROOT
BRANCH   1   2
ATOM      2  N   UNL A   1      38.158  22.444  25.162  1.00  0.00    -0.354 N 
ATOM      3  O   UNL A   1      36.777  23.863  26.322  1.00  0.00    -0.273 OA
ATOM      4  C   UNL A   1      37.039  23.256  25.284  1.00  0.00     0.240 C 
ATOM      5  H   UNL A   1      38.250  21.863  24.373  1.00  0.00     0.163 HD
BRANCH   4   6
ATOM      6  C   UNL A   1      36.066  23.297  24.123  1.00  0.00     0.224 C 
BRANCH   6   7
ATOM      7  N   UNL A   1      34.708  22.797  24.293  1.00  0.00    -0.309 N 
ATOM      8  C   UNL A   1      33.558  23.572  24.232  1.00  0.00     0.169 A 
ATOM      9  C   UNL A   1      34.302  21.488  24.506  1.00  0.00     0.069 A 
ATOM     10  N   UNL A   1      32.482  22.855  24.479  1.00  0.00    -0.222 NA
ATOM     11  C   UNL A   1      32.918  21.571  24.648  1.00  0.00     0.090 A 
ATOM     12  C   UNL A   1      34.959  20.249  24.579  1.00  0.00     0.028 A 
ATOM     13  C   UNL A   1      32.164  20.412  24.903  1.00  0.00     0.030 A 
ATOM     14  C   UNL A   1      34.203  19.111  24.887  1.00  0.00     0.002 A 
ATOM     15  C   UNL A   1      32.823  19.188  25.044  1.00  0.00     0.002 A 
BRANCH   8  16
ATOM     16  S   UNL A   1      33.376  25.208  23.664  1.00  0.00    -0.088 SA
BRANCH  16  17
ATOM     17  C   UNL A   1      34.091  26.395  24.830  1.00  0.00     0.083 C 
BRANCH  17  18
ATOM     18  C   UNL A   1      33.319  26.753  26.107  1.00  0.00     0.047 C 
BRANCH  18  19
ATOM     19  C   UNL A   1      33.181  28.228  26.354  1.00  0.00    -0.047 A 
ATOM     20  C   UNL A   1      32.121  28.932  25.771  1.00  0.00     0.004 A 
ATOM     21  C   UNL A   1      34.051  28.895  27.225  1.00  0.00     0.004 A 
ATOM     22  C   UNL A   1      31.876  30.256  26.117  1.00  0.00     0.000 A 
ATOM     23  C   UNL A   1      33.820  30.231  27.549  1.00  0.00     0.000 A 
ATOM     24  C   UNL A   1      32.723  30.902  27.008  1.00  0.00     0.000 A 
ENDBRANCH  18  19
ENDBRANCH  17  18
ENDBRANCH  16  17
ENDBRANCH   8  16
ENDBRANCH   6   7
ENDBRANCH   4   6
ENDBRANCH   1   2
BRANCH   1  25
ATOM     25  C   UNL A   1      40.091  21.184  26.233  1.00  0.00     0.042 C 
BRANCH  25  26
ATOM     26  C   UNL A   1      41.501  21.340  26.799  1.00  0.00     0.118 C 
BRANCH  26  27
ATOM     27  N   UNL A   1      42.468  21.999  25.947  1.00  0.00    -0.352 N 
ATOM     28  C   UNL A   1      43.070  23.230  25.952  1.00  0.00     0.251 C 
ATOM     29  H   UNL A   1      42.758  21.436  25.193  1.00  0.00     0.163 HD
ATOM     30  O   UNL A   1      44.149  23.297  25.355  1.00  0.00    -0.269 OA
BRANCH  28  31
ATOM     31  C   UNL A   1      42.484  24.482  26.511  1.00  0.00     0.039 A 
ATOM     32  C   UNL A   1      41.590  25.324  25.859  1.00  0.00     0.014 A 
ATOM     33  C   UNL A   1      42.967  24.874  27.780  1.00  0.00     0.014 A 
ATOM     34  C   UNL A   1      41.276  26.566  26.411  1.00  0.00     0.010 A 
ATOM     35  C   UNL A   1      42.647  26.114  28.338  1.00  0.00     0.010 A 
ATOM     36  C   UNL A   1      41.837  26.988  27.629  1.00  0.00    -0.014 A 
BRANCH  36  37
ATOM     37  C   UNL A   1      41.444  28.305  28.140  1.00  0.00     0.031 A 
ATOM     38  C   UNL A   1      42.470  29.357  27.922  1.00  0.00     0.074 A 
ATOM     39  C   UNL A   1      40.291  28.623  28.767  1.00  0.00     0.049 A 
ATOM     40  N   UNL A   1      43.266  29.849  28.812  1.00  0.00    -0.248 NA
ATOM     41  C   UNL A   1      42.761  29.789  26.548  1.00  0.00     0.031 C 
ATOM     42  C   UNL A   1      39.072  27.822  28.897  1.00  0.00     0.029 A 
ATOM     43  N   UNL A   1      39.955  29.792  29.399  1.00  0.00    -0.354 N 
ATOM     44  C   UNL A   1      44.034  30.802  28.155  1.00  0.00     0.074 A 
ATOM     45  C   UNL A   1      43.786  30.623  26.748  1.00  0.00     0.031 C 
ATOM     46  C   UNL A   1      38.067  28.596  29.376  1.00  0.00     0.029 A 
ATOM     47  C   UNL A   1      38.612  29.892  29.747  1.00  0.00     0.049 A 
ATOM     48  H   UNL A   1      40.608  30.502  29.591  1.00  0.00     0.167 HD
ATOM     49  C   UNL A   1      44.647  31.805  28.843  1.00  0.00     0.031 A 
ATOM     50  C   UNL A   1      37.990  30.934  30.354  1.00  0.00     0.031 A 
ATOM     51  C   UNL A   1      44.656  31.546  30.258  1.00  0.00     0.049 A 
ATOM     52  C   UNL A   1      39.013  31.656  31.139  1.00  0.00     0.074 A 
ATOM     53  C   UNL A   1      45.363  30.735  31.117  1.00  0.00     0.029 A 
ATOM     54  N   UNL A   1      43.510  31.931  30.903  1.00  0.00    -0.354 N 
ATOM     55  N   UNL A   1      39.610  31.143  32.178  1.00  0.00    -0.248 NA
ATOM     56  C   UNL A   1      39.620  32.865  30.598  1.00  0.00     0.031 C 
ATOM     57  C   UNL A   1      44.485  30.462  32.207  1.00  0.00     0.029 A 
ATOM     58  C   UNL A   1      43.291  31.158  32.013  1.00  0.00     0.049 A 
ATOM     59  H   UNL A   1      42.922  32.664  30.607  1.00  0.00     0.167 HD
ATOM     60  C   UNL A   1      40.875  31.696  32.151  1.00  0.00     0.074 A 
ATOM     61  C   UNL A   1      40.766  32.861  31.282  1.00  0.00     0.031 C 
ATOM     62  C   UNL A   1      41.963  30.996  32.579  1.00  0.00     0.031 A 
BRANCH  49  63
ATOM     63  C   UNL A   1      44.852  33.194  28.295  1.00  0.00    -0.014 A 
ATOM     64  C   UNL A   1      43.814  33.938  27.699  1.00  0.00     0.010 A 
ATOM     65  C   UNL A   1      46.041  33.892  28.599  1.00  0.00     0.010 A 
ATOM     66  C   UNL A   1      43.960  35.287  27.371  1.00  0.00     0.020 A 
ATOM     67  C   UNL A   1      46.185  35.259  28.308  1.00  0.00     0.020 A 
ATOM     68  C   UNL A   1      45.147  35.940  27.677  1.00  0.00     0.054 A 
BRANCH  68  69
ATOM     69  S   UNL A   1      45.283  37.697  27.264  1.00  0.00     0.124 S 
ATOM     70  O   UNL A   1      43.919  38.011  26.844  1.00  0.00    -0.237 OA
ATOM     71  O   UNL A   1      45.697  38.286  28.539  1.00  0.00    -0.237 OA
ATOM     72  O   UNL A   1      46.286  37.729  26.209  1.00  0.00    -0.744 OA
ENDBRANCH  68  69
ENDBRANCH  49  63
BRANCH  50  73
ATOM     73  C   UNL A   1      36.729  31.604  29.932  1.00  0.00    -0.014 A 
ATOM     74  C   UNL A   1      36.656  32.221  28.669  1.00  0.00     0.010 A 
ATOM     75  C   UNL A   1      35.742  31.938  30.886  1.00  0.00     0.010 A 
ATOM     76  C   UNL A   1      35.704  33.214  28.402  1.00  0.00     0.020 A 
ATOM     77  C   UNL A   1      34.784  32.932  30.622  1.00  0.00     0.020 A 
ATOM     78  C   UNL A   1      34.802  33.595  29.394  1.00  0.00     0.054 A 
BRANCH  78  79
ATOM     79  S   UNL A   1      33.729  35.028  29.081  1.00  0.00     0.124 S 
ATOM     80  O   UNL A   1      32.581  34.409  28.426  1.00  0.00    -0.237 OA
ATOM     81  O   UNL A   1      33.483  35.537  30.428  1.00  0.00    -0.237 OA
ATOM     82  O   UNL A   1      34.543  35.893  28.231  1.00  0.00    -0.744 OA
ENDBRANCH  78  79
ENDBRANCH  50  73
BRANCH  62  83
ATOM     83  C   UNL A   1      41.760  29.873  33.567  1.00  0.00    -0.014 A 
ATOM     84  C   UNL A   1      41.999  30.176  34.919  1.00  0.00     0.010 A 
ATOM     85  C   UNL A   1      41.474  28.540  33.218  1.00  0.00     0.010 A 
ATOM     86  C   UNL A   1      42.006  29.179  35.893  1.00  0.00     0.020 A 
ATOM     87  C   UNL A   1      41.449  27.534  34.199  1.00  0.00     0.020 A 
ATOM     88  C   UNL A   1      41.743  27.859  35.526  1.00  0.00     0.054 A 
BRANCH  88  89
ATOM     89  S   UNL A   1      41.823  26.591  36.820  1.00  0.00     0.124 S 
ATOM     90  O   UNL A   1      40.522  26.736  37.472  1.00  0.00    -0.237 OA
ATOM     91  O   UNL A   1      42.001  25.360  36.054  1.00  0.00    -0.237 OA
ATOM     92  O   UNL A   1      42.971  26.986  37.633  1.00  0.00    -0.744 OA
ENDBRANCH  88  89
ENDBRANCH  62  83
ENDBRANCH  36  37
ENDBRANCH  28  31
ENDBRANCH  26  27
ENDBRANCH  25  26
ENDBRANCH   1  25
TORSDOF 18
ENDMDL
MODEL 2
REMARK VINA RESULT:     -11.8      1.194      4.047
REMARK SMILES O=C(Cn1c(SCCc2ccccc2)nc2ccccc21)NCCCNC(=O)c1ccc(-c2c3nc(c(-c4ccc(S(=O)(=O)[O-])cc4)c4ccc([nH]4)c(-c4ccc(S(=O)(=O)[O-])cc4)c4nc(c(-c5ccc(S(=O)(=O)[O-])cc5)c5ccc2[nH]5)C=C4)C=C3)cc1
REMARK SMILES IDX 23 1 22 2 1 3 2 4 3 6 4 7 5 8 21 9 15 10 16 11 20 12 17 13
REMARK SMILES IDX 19 14 18 15 6 16 7 17 8 18 9 19 10 20 14 21 11 22 13 23
REMARK SMILES IDX 12 24 24 25 25 26 26 27 27 28 28 30 29 31 30 32 88 33 31 34
REMARK SMILES IDX 87 35 32 36 33 37 34 38 81 39 35 40 86 41 80 42 82 43 36 44
REMARK SMILES IDX 85 45 79 46 78 47 37 49 67 50 48 51 66 52 49 53 52 54 65 55
REMARK SMILES IDX 83 56 50 57 51 58 64 60 84 61 53 62 38 63 39 64 47 65 40 66
REMARK SMILES IDX 46 67 41 68 42 69 43 70 44 71 45 72 68 73 69 74 77 75 70 76
REMARK SMILES IDX 76 77 71 78 72 79 73 80 74 81 75 82 54 83 55 84 63 85 56 86
REMARK SMILES IDX 62 87 57 88 58 89 59 90 60 91 61 92
REMARK H PARENT 22 5 26 29 82 48 52 59
REMARK Flexibility Score: inf
ROOT
ATOM      1  C   UNL A   1      37.894  22.551  25.765  1.00  0.00     0.117 C 
ENDROOT
BRANCH   1   2
ATOM      2  N   UNL A   1      36.677  23.153  26.310  1.00  0.00    -0.354 N 
ATOM      3  O   UNL A   1      35.757  23.611  24.259  1.00  0.00    -0.273 OA
ATOM      4  C   UNL A   1      35.640  23.561  25.482  1.00  0.00     0.240 C 
ATOM      5  H   UNL A   1      36.592  23.270  27.284  1.00  0.00     0.163 HD
BRANCH   4   6
ATOM      6  C   UNL A   1      34.367  24.058  26.138  1.00  0.00     0.224 C 
BRANCH   6   7
ATOM      7  N   UNL A   1      33.268  24.546  25.315  1.00  0.00    -0.309 N 
ATOM      8  C   UNL A   1      32.130  23.820  24.990  1.00  0.00     0.169 A 
ATOM      9  C   UNL A   1      33.123  25.801  24.743  1.00  0.00     0.069 A 
ATOM     10  N   UNL A   1      31.339  24.502  24.188  1.00  0.00    -0.222 NA
ATOM     11  C   UNL A   1      31.931  25.723  24.026  1.00  0.00     0.090 A 
ATOM     12  C   UNL A   1      33.869  26.991  24.770  1.00  0.00     0.028 A 
ATOM     13  C   UNL A   1      31.477  26.831  23.289  1.00  0.00     0.030 A 
ATOM     14  C   UNL A   1      33.434  28.068  23.988  1.00  0.00     0.002 A 
ATOM     15  C   UNL A   1      32.252  27.993  23.258  1.00  0.00     0.002 A 
BRANCH   8  16
ATOM     16  S   UNL A   1      31.561  22.323  25.671  1.00  0.00    -0.088 SA
BRANCH  16  17
ATOM     17  C   UNL A   1      32.714  20.966  25.339  1.00  0.00     0.083 C 
BRANCH  17  18
ATOM     18  C   UNL A   1      32.525  20.110  24.079  1.00  0.00     0.047 C 
BRANCH  18  19
ATOM     19  C   UNL A   1      32.765  18.642  24.286  1.00  0.00    -0.047 A 
ATOM     20  C   UNL A   1      33.300  17.874  23.244  1.00  0.00     0.004 A 
ATOM     21  C   UNL A   1      32.540  18.045  25.532  1.00  0.00     0.004 A 
ATOM     22  C   UNL A   1      33.686  16.557  23.464  1.00  0.00     0.000 A 
ATOM     23  C   UNL A   1      32.901  16.717  25.742  1.00  0.00     0.000 A 
ATOM     24  C   UNL A   1      33.491  15.981  24.713  1.00  0.00     0.000 A 
ENDBRANCH  18  19
ENDBRANCH  17  18
ENDBRANCH  16  17
ENDBRANCH   8  16
ENDBRANCH   6   7
ENDBRANCH   4   6
ENDBRANCH   1   2
BRANCH   1  25
ATOM     25  C   UNL A   1      39.183  22.797  26.556  1.00  0.00     0.042 C 
BRANCH  25  26
ATOM     26  C   UNL A   1      40.250  21.704  26.525  1.00  0.00     0.118 C 
BRANCH  26  27
ATOM     27  N   UNL A   1      41.475  22.021  25.823  1.00  0.00    -0.352 N 
ATOM     28  C   UNL A   1      42.458  22.963  25.985  1.00  0.00     0.251 C 
ATOM     29  H   UNL A   1      41.641  21.426  25.057  1.00  0.00     0.163 HD
ATOM     30  O   UNL A   1      43.556  22.676  25.499  1.00  0.00    -0.269 OA
BRANCH  28  31
ATOM     31  C   UNL A   1      42.275  24.316  26.586  1.00  0.00     0.039 A 
ATOM     32  C   UNL A   1      42.389  24.628  27.936  1.00  0.00     0.014 A 
ATOM     33  C   UNL A   1      41.861  25.334  25.697  1.00  0.00     0.014 A 
ATOM     34  C   UNL A   1      41.995  25.885  28.394  1.00  0.00     0.010 A 
ATOM     35  C   UNL A   1      41.475  26.596  26.153  1.00  0.00     0.010 A 
ATOM     36  C   UNL A   1      41.494  26.860  27.514  1.00  0.00    -0.014 A 
BRANCH  36  37
ATOM     37  C   UNL A   1      41.112  28.158  28.081  1.00  0.00     0.031 A 
ATOM     38  C   UNL A   1      42.122  29.224  27.859  1.00  0.00     0.074 A 
ATOM     39  C   UNL A   1      39.980  28.448  28.759  1.00  0.00     0.049 A 
ATOM     40  N   UNL A   1      42.947  29.693  28.734  1.00  0.00    -0.248 NA
ATOM     41  C   UNL A   1      42.360  29.701  26.490  1.00  0.00     0.031 C 
ATOM     42  C   UNL A   1      38.771  27.633  28.908  1.00  0.00     0.029 A 
ATOM     43  N   UNL A   1      39.660  29.593  29.440  1.00  0.00    -0.354 N 
ATOM     44  C   UNL A   1      43.685  30.672  28.081  1.00  0.00     0.074 A 
ATOM     45  C   UNL A   1      43.386  30.535  26.678  1.00  0.00     0.031 C 
ATOM     46  C   UNL A   1      37.780  28.385  29.447  1.00  0.00     0.029 A 
ATOM     47  C   UNL A   1      38.330  29.673  29.839  1.00  0.00     0.049 A 
ATOM     48  H   UNL A   1      40.315  30.302  29.630  1.00  0.00     0.167 HD
ATOM     49  C   UNL A   1      44.315  31.658  28.777  1.00  0.00     0.031 A 
ATOM     50  C   UNL A   1      37.724  30.691  30.501  1.00  0.00     0.031 A 
ATOM     51  C   UNL A   1      44.378  31.354  30.181  1.00  0.00     0.049 A 
ATOM     52  C   UNL A   1      38.771  31.396  31.271  1.00  0.00     0.074 A 
ATOM     53  C   UNL A   1      45.121  30.522  30.988  1.00  0.00     0.029 A 
ATOM     54  N   UNL A   1      43.254  31.711  30.879  1.00  0.00    -0.354 N 
ATOM     55  N   UNL A   1      39.408  30.855  32.270  1.00  0.00    -0.248 NA
ATOM     56  C   UNL A   1      39.350  32.625  30.746  1.00  0.00     0.031 C 
ATOM     57  C   UNL A   1      44.286  30.209  32.100  1.00  0.00     0.029 A 
ATOM     58  C   UNL A   1      43.081  30.902  31.972  1.00  0.00     0.049 A 
ATOM     59  H   UNL A   1      42.652  32.448  30.628  1.00  0.00     0.167 HD
ATOM     60  C   UNL A   1      40.668  31.418  32.215  1.00  0.00     0.074 A 
ATOM     61  C   UNL A   1      40.520  32.608  31.387  1.00  0.00     0.031 C 
ATOM     62  C   UNL A   1      41.776  30.712  32.581  1.00  0.00     0.031 A 
BRANCH  49  63
ATOM     63  C   UNL A   1      44.492  33.064  28.265  1.00  0.00    -0.014 A 
ATOM     64  C   UNL A   1      43.420  33.972  28.149  1.00  0.00     0.010 A 
ATOM     65  C   UNL A   1      45.793  33.597  28.131  1.00  0.00     0.010 A 
ATOM     66  C   UNL A   1      43.618  35.323  27.861  1.00  0.00     0.020 A 
ATOM     67  C   UNL A   1      46.006  34.962  27.878  1.00  0.00     0.020 A 
ATOM     68  C   UNL A   1      44.912  35.811  27.727  1.00  0.00     0.054 A 
BRANCH  68  69
ATOM     69  S   UNL A   1      45.126  37.576  27.386  1.00  0.00     0.124 S 
ATOM     70  O   UNL A   1      45.481  38.093  28.706  1.00  0.00    -0.237 OA
ATOM     71  O   UNL A   1      46.209  37.575  26.401  1.00  0.00    -0.237 OA
ATOM     72  O   UNL A   1      43.825  37.991  26.880  1.00  0.00    -0.744 OA
ENDBRANCH  68  69
ENDBRANCH  49  63
BRANCH  50  73
ATOM     73  C   UNL A   1      36.444  31.364  30.146  1.00  0.00    -0.014 A 
ATOM     74  C   UNL A   1      36.168  31.672  28.801  1.00  0.00     0.010 A 
ATOM     75  C   UNL A   1      35.675  32.007  31.141  1.00  0.00     0.010 A 
ATOM     76  C   UNL A   1      35.238  32.663  28.462  1.00  0.00     0.020 A 
ATOM     77  C   UNL A   1      34.740  33.002  30.805  1.00  0.00     0.020 A 
ATOM     78  C   UNL A   1      34.561  33.353  29.467  1.00  0.00     0.054 A 
BRANCH  78  79
ATOM     79  S   UNL A   1      33.528  34.772  28.994  1.00  0.00     0.124 S 
ATOM     80  O   UNL A   1      32.571  34.158  28.079  1.00  0.00    -0.237 OA
ATOM     81  O   UNL A   1      32.979  35.203  30.278  1.00  0.00    -0.237 OA
ATOM     82  O   UNL A   1      34.473  35.702  28.381  1.00  0.00    -0.744 OA
ENDBRANCH  78  79
ENDBRANCH  50  73
BRANCH  62  83
ATOM     83  C   UNL A   1      41.617  29.558  33.539  1.00  0.00    -0.014 A 
ATOM     84  C   UNL A   1      41.638  29.872  34.910  1.00  0.00     0.010 A 
ATOM     85  C   UNL A   1      41.573  28.203  33.162  1.00  0.00     0.010 A 
ATOM     86  C   UNL A   1      41.667  28.873  35.880  1.00  0.00     0.020 A 
ATOM     87  C   UNL A   1      41.571  27.189  34.136  1.00  0.00     0.020 A 
ATOM     88  C   UNL A   1      41.647  27.534  35.488  1.00  0.00     0.054 A 
BRANCH  88  89
ATOM     89  S   UNL A   1      41.747  26.273  36.787  1.00  0.00     0.124 S 
ATOM     90  O   UNL A   1      40.441  26.391  37.432  1.00  0.00    -0.237 OA
ATOM     91  O   UNL A   1      41.956  25.043  36.025  1.00  0.00    -0.237 OA
ATOM     92  O   UNL A   1      42.883  26.694  37.604  1.00  0.00    -0.744 OA
ENDBRANCH  88  89
ENDBRANCH  62  83
ENDBRANCH  36  37
ENDBRANCH  28  31
ENDBRANCH  26  27
ENDBRANCH  25  26
ENDBRANCH   1  25
TORSDOF 18
ENDMDL
MODEL 3
REMARK VINA RESULT:     -11.7      3.388      6.925
REMARK SMILES O=C(Cn1c(SCCc2ccccc2)nc2ccccc21)NCCCNC(=O)c1ccc(-c2c3nc(c(-c4ccc(S(=O)(=O)[O-])cc4)c4ccc([nH]4)c(-c4ccc(S(=O)(=O)[O-])cc4)c4nc(c(-c5ccc(S(=O)(=O)[O-])cc5)c5ccc2[nH]5)C=C4)C=C3)cc1
REMARK SMILES IDX 23 1 22 2 1 3 2 4 3 6 4 7 5 8 21 9 15 10 16 11 20 12 17 13
REMARK SMILES IDX 19 14 18 15 6 16 7 17 8 18 9 19 10 20 14 21 11 22 13 23
REMARK SMILES IDX 12 24 24 25 25 26 26 27 27 28 28 30 29 31 30 32 88 33 31 34
REMARK SMILES IDX 87 35 32 36 33 37 34 38 81 39 35 40 86 41 80 42 82 43 36 44
REMARK SMILES IDX 85 45 79 46 78 47 37 49 67 50 48 51 66 52 49 53 52 54 65 55
REMARK SMILES IDX 83 56 50 57 51 58 64 60 84 61 53 62 38 63 39 64 47 65 40 66
REMARK SMILES IDX 46 67 41 68 42 69 43 70 44 71 45 72 68 73 69 74 77 75 70 76
REMARK SMILES IDX 76 77 71 78 72 79 73 80 74 81 75 82 54 83 55 84 63 85 56 86
REMARK SMILES IDX 62 87 57 88 58 89 59 90 60 91 61 92
REMARK H PARENT 22 5 26 29 82 48 52 59
REMARK Flexibility Score: inf
ROOT
ATOM      1  C   UNL A   1      43.289  19.657  25.602  1.00  0.00     0.117 C 
ENDROOT
BRANCH   1   2
ATOM      2  N   UNL A   1      44.556  20.383  25.689  1.00  0.00    -0.354 N 
ATOM      3  O   UNL A   1      43.780  22.251  24.605  1.00  0.00    -0.273 OA
ATOM      4  C   UNL A   1      44.668  21.695  25.250  1.00  0.00     0.240 C 
ATOM      5  H   UNL A   1      45.345  19.931  26.068  1.00  0.00     0.163 HD
BRANCH   4   6
ATOM      6  C   UNL A   1      45.982  22.411  25.493  1.00  0.00     0.224 C 
BRANCH   6   7
ATOM      7  N   UNL A   1      45.985  23.751  26.067  1.00  0.00    -0.309 N 
ATOM      8  C   UNL A   1      45.330  24.121  27.233  1.00  0.00     0.169 A 
ATOM      9  C   UNL A   1      46.650  24.876  25.602  1.00  0.00     0.069 A 
ATOM     10  N   UNL A   1      45.467  25.408  27.473  1.00  0.00    -0.222 NA
ATOM     11  C   UNL A   1      46.277  25.889  26.483  1.00  0.00     0.090 A 
ATOM     12  C   UNL A   1      47.533  25.134  24.541  1.00  0.00     0.028 A 
ATOM     13  C   UNL A   1      46.757  27.198  26.295  1.00  0.00     0.030 A 
ATOM     14  C   UNL A   1      47.960  26.451  24.335  1.00  0.00     0.002 A 
ATOM     15  C   UNL A   1      47.581  27.471  25.201  1.00  0.00     0.002 A 
BRANCH   8  16
ATOM     16  S   UNL A   1      44.611  23.103  28.449  1.00  0.00    -0.088 SA
BRANCH  16  17
ATOM     17  C   UNL A   1      44.438  23.978  30.025  1.00  0.00     0.083 C 
BRANCH  17  18
ATOM     18  C   UNL A   1      43.801  23.256  31.220  1.00  0.00     0.047 C 
BRANCH  18  19
ATOM     19  C   UNL A   1      44.213  23.796  32.560  1.00  0.00    -0.047 A 
ATOM     20  C   UNL A   1      44.285  22.934  33.661  1.00  0.00     0.004 A 
ATOM     21  C   UNL A   1      44.605  25.132  32.708  1.00  0.00     0.004 A 
ATOM     22  C   UNL A   1      44.821  23.372  34.867  1.00  0.00     0.000 A 
ATOM     23  C   UNL A   1      45.115  25.576  33.925  1.00  0.00     0.000 A 
ATOM     24  C   UNL A   1      45.239  24.690  34.997  1.00  0.00     0.000 A 
ENDBRANCH  18  19
ENDBRANCH  17  18
ENDBRANCH  16  17
ENDBRANCH   8  16
ENDBRANCH   6   7
ENDBRANCH   4   6
ENDBRANCH   1   2
BRANCH   1  25
ATOM     25  C   UNL A   1      42.476  19.558  26.898  1.00  0.00     0.042 C 
BRANCH  25  26
ATOM     26  C   UNL A   1      41.716  20.803  27.351  1.00  0.00     0.118 C 
BRANCH  26  27
ATOM     27  N   UNL A   1      40.368  20.953  26.846  1.00  0.00    -0.352 N 
ATOM     28  C   UNL A   1      39.582  22.026  26.510  1.00  0.00     0.251 C 
ATOM     29  H   UNL A   1      39.912  20.091  26.713  1.00  0.00     0.163 HD
ATOM     30  O   UNL A   1      38.673  21.789  25.710  1.00  0.00    -0.269 OA
BRANCH  28  31
ATOM     31  C   UNL A   1      39.672  23.390  27.106  1.00  0.00     0.039 A 
ATOM     32  C   UNL A   1      38.735  24.405  26.960  1.00  0.00     0.014 A 
ATOM     33  C   UNL A   1      40.868  23.680  27.801  1.00  0.00     0.014 A 
ATOM     34  C   UNL A   1      39.033  25.696  27.398  1.00  0.00     0.010 A 
ATOM     35  C   UNL A   1      41.166  24.969  28.247  1.00  0.00     0.010 A 
ATOM     36  C   UNL A   1      40.266  25.996  28.001  1.00  0.00    -0.014 A 
BRANCH  36  37
ATOM     37  C   UNL A   1      40.492  27.377  28.440  1.00  0.00     0.031 A 
ATOM     38  C   UNL A   1      41.770  27.955  27.949  1.00  0.00     0.074 A 
ATOM     39  C   UNL A   1      39.681  28.127  29.217  1.00  0.00     0.049 A 
ATOM     40  N   UNL A   1      42.847  28.131  28.640  1.00  0.00    -0.248 NA
ATOM     41  C   UNL A   1      41.929  28.206  26.511  1.00  0.00     0.031 C 
ATOM     42  C   UNL A   1      38.302  27.852  29.629  1.00  0.00     0.029 A 
ATOM     43  N   UNL A   1      39.926  29.352  29.780  1.00  0.00    -0.354 N 
ATOM     44  C   UNL A   1      43.770  28.703  27.774  1.00  0.00     0.074 A 
ATOM     45  C   UNL A   1      43.206  28.593  26.452  1.00  0.00     0.031 C 
ATOM     46  C   UNL A   1      37.765  28.962  30.191  1.00  0.00     0.029 A 
ATOM     47  C   UNL A   1      38.809  29.964  30.336  1.00  0.00     0.049 A 
ATOM     48  H   UNL A   1      40.819  29.766  29.788  1.00  0.00     0.167 HD
ATOM     49  C   UNL A   1      44.828  29.417  28.247  1.00  0.00     0.031 A 
ATOM     50  C   UNL A   1      38.744  31.181  30.934  1.00  0.00     0.031 A 
ATOM     51  C   UNL A   1      45.014  29.212  29.659  1.00  0.00     0.049 A 
ATOM     52  C   UNL A   1      40.091  31.481  31.461  1.00  0.00     0.074 A 
ATOM     53  C   UNL A   1      45.524  28.218  30.461  1.00  0.00     0.029 A 
ATOM     54  N   UNL A   1      44.237  30.022  30.446  1.00  0.00    -0.354 N 
ATOM     55  N   UNL A   1      40.645  30.809  32.430  1.00  0.00    -0.248 NA
ATOM     56  C   UNL A   1      40.984  32.354  30.710  1.00  0.00     0.031 C 
ATOM     57  C   UNL A   1      44.836  28.329  31.706  1.00  0.00     0.029 A 
ATOM     58  C   UNL A   1      43.968  29.421  31.648  1.00  0.00     0.049 A 
ATOM     59  H   UNL A   1      43.915  30.914  30.183  1.00  0.00     0.167 HD
ATOM     60  C   UNL A   1      41.995  30.839  32.137  1.00  0.00     0.074 A 
ATOM     61  C   UNL A   1      42.156  31.934  31.188  1.00  0.00     0.031 C 
ATOM     62  C   UNL A   1      42.809  29.790  32.443  1.00  0.00     0.031 A 
BRANCH  49  63
ATOM     63  C   UNL A   1      45.420  30.608  27.538  1.00  0.00    -0.014 A 
ATOM     64  C   UNL A   1      44.655  31.736  27.178  1.00  0.00     0.010 A 
ATOM     65  C   UNL A   1      46.823  30.735  27.446  1.00  0.00     0.010 A 
ATOM     66  C   UNL A   1      45.242  32.909  26.700  1.00  0.00     0.020 A 
ATOM     67  C   UNL A   1      47.426  31.924  27.002  1.00  0.00     0.020 A 
ATOM     68  C   UNL A   1      46.626  32.996  26.614  1.00  0.00     0.054 A 
BRANCH  68  69
ATOM     69  S   UNL A   1      47.347  34.546  26.020  1.00  0.00     0.124 S 
ATOM     70  O   UNL A   1      47.198  35.411  27.188  1.00  0.00    -0.237 OA
ATOM     71  O   UNL A   1      48.721  34.151  25.703  1.00  0.00    -0.237 OA
ATOM     72  O   UNL A   1      46.520  34.896  24.873  1.00  0.00    -0.744 OA
ENDBRANCH  68  69
ENDBRANCH  49  63
BRANCH  50  73
ATOM     73  C   UNL A   1      37.761  32.268  30.667  1.00  0.00    -0.014 A 
ATOM     74  C   UNL A   1      36.532  32.281  31.353  1.00  0.00     0.010 A 
ATOM     75  C   UNL A   1      37.879  33.068  29.510  1.00  0.00     0.010 A 
ATOM     76  C   UNL A   1      35.428  32.978  30.846  1.00  0.00     0.020 A 
ATOM     77  C   UNL A   1      36.774  33.771  28.997  1.00  0.00     0.020 A 
ATOM     78  C   UNL A   1      35.543  33.684  29.648  1.00  0.00     0.054 A 
BRANCH  78  79
ATOM     79  S   UNL A   1      34.038  34.393  28.917  1.00  0.00     0.124 S 
ATOM     80  O   UNL A   1      33.545  33.285  28.104  1.00  0.00    -0.237 OA
ATOM     81  O   UNL A   1      33.234  34.710  30.096  1.00  0.00    -0.237 OA
ATOM     82  O   UNL A   1      34.524  35.550  28.170  1.00  0.00    -0.744 OA
ENDBRANCH  78  79
ENDBRANCH  50  73
BRANCH  62  83
ATOM     83  C   UNL A   1      42.403  28.856  33.555  1.00  0.00    -0.014 A 
ATOM     84  C   UNL A   1      42.816  29.208  34.853  1.00  0.00     0.010 A 
ATOM     85  C   UNL A   1      41.757  27.619  33.369  1.00  0.00     0.010 A 
ATOM     86  C   UNL A   1      42.642  28.338  35.927  1.00  0.00     0.020 A 
ATOM     87  C   UNL A   1      41.550  26.750  34.453  1.00  0.00     0.020 A 
ATOM     88  C   UNL A   1      42.021  27.106  35.720  1.00  0.00     0.054 A 
BRANCH  88  89
ATOM     89  S   UNL A   1      41.872  25.986  37.139  1.00  0.00     0.124 S 
ATOM     90  O   UNL A   1      42.113  24.681  36.526  1.00  0.00    -0.237 OA
ATOM     91  O   UNL A   1      42.927  26.458  38.033  1.00  0.00    -0.237 OA
ATOM     92  O   UNL A   1      40.510  26.203  37.621  1.00  0.00    -0.744 OA
ENDBRANCH  88  89
ENDBRANCH  62  83
ENDBRANCH  36  37
ENDBRANCH  28  31
ENDBRANCH  26  27
ENDBRANCH  25  26
ENDBRANCH   1  25
TORSDOF 18
ENDMDL
