MODEL 1
REMARK VINA RESULT:      -9.3      0.000      0.000
REMARK SMILES NC(=O)C[C@@H](CC(=O)NCCCNC(=O)c1ccc(-c2c3nc(c(-c4ccc(S(=O)(=O)[O-])cc4)c4ccc([nH]4)c(-c4ccc(S(=O)(=O)[O-])cc4)c4nc(c(-c5ccc(S(=O)(=O)[O-])cc5)c5ccc2[nH]5)C=C4)C=C3)cc1)c1cccc(Br)c1
REMARK SMILES IDX 11 1 10 2 9 3 7 4 8 5 6 7 5 8 4 9 2 10 1 11 3 14 76 15 77 16
REMARK SMILES IDX 82 17 78 18 80 19 79 20 81 21 12 22 13 23 14 24 15 26 16 27
REMARK SMILES IDX 17 28 75 29 18 30 74 31 19 32 20 33 21 34 68 35 22 36 73 37
REMARK SMILES IDX 67 38 69 39 23 40 72 41 66 42 65 43 24 45 54 46 35 47 53 48
REMARK SMILES IDX 36 49 39 50 52 51 70 52 37 53 38 54 51 56 71 57 40 58 25 59
REMARK SMILES IDX 26 60 34 61 27 62 33 63 28 64 29 65 30 66 31 67 32 68 55 69
REMARK SMILES IDX 56 70 64 71 57 72 63 73 58 74 59 75 60 76 61 77 62 78 41 79
REMARK SMILES IDX 42 80 50 81 43 82 49 83 44 84 45 85 46 86 47 87 48 88
REMARK H PARENT 9 6 1 12 1 13 13 25 69 44 39 55
REMARK Flexibility Score: inf
ROOT
ATOM      1  C   UNL A   1      34.386  33.696  29.491  1.00  0.00     0.042 C 
ENDROOT
BRANCH   1   2
ATOM      2  C   UNL A   1      35.500  33.655  30.523  1.00  0.00     0.117 C 
BRANCH   2   3
ATOM      3  N   UNL A   1      35.007  33.397  31.853  1.00  0.00    -0.356 N 
ATOM      4  C   UNL A   1      35.626  32.876  32.937  1.00  0.00     0.220 C 
ATOM      5  O   UNL A   1      35.034  32.982  34.016  1.00  0.00    -0.275 OA
ATOM      6  H   UNL A   1      34.064  33.641  31.995  1.00  0.00     0.163 HD
BRANCH   4   7
ATOM      7  C   UNL A   1      37.024  32.266  32.890  1.00  0.00     0.108 C 
BRANCH   7   8
ATOM      8  C   UNL A   1      37.569  31.395  34.055  1.00  0.00     0.038 C 
BRANCH   8   9
ATOM      9  C   UNL A   1      38.268  32.162  35.211  1.00  0.00     0.108 C 
BRANCH   9  10
ATOM     10  C   UNL A   1      38.319  31.682  36.658  1.00  0.00     0.218 C 
ATOM     11  N   UNL A   1      39.161  32.229  37.563  1.00  0.00    -0.370 N 
ATOM     12  H   UNL A   1      39.169  31.898  38.489  1.00  0.00     0.159 HD
ATOM     13  H   UNL A   1      39.763  32.959  37.296  1.00  0.00     0.159 HD
ATOM     14  O   UNL A   1      37.675  30.694  37.015  1.00  0.00    -0.275 OA
ENDBRANCH   9  10
ENDBRANCH   8   9
BRANCH   8  15
ATOM     15  C   UNL A   1      38.375  30.152  33.585  1.00  0.00    -0.043 A 
ATOM     16  C   UNL A   1      37.763  29.077  32.907  1.00  0.00     0.004 A 
ATOM     17  C   UNL A   1      39.770  30.058  33.758  1.00  0.00     0.019 A 
ATOM     18  C   UNL A   1      38.483  27.944  32.507  1.00  0.00     0.001 A 
ATOM     19  C   UNL A   1      40.483  28.910  33.389  1.00  0.00     0.018 A 
ATOM     20  C   UNL A   1      39.843  27.847  32.768  1.00  0.00     0.016 A 
ATOM     21  Br  UNL A   1      42.337  28.801  33.751  1.00  0.00    -0.051 Br
ENDBRANCH   8  15
ENDBRANCH   7   8
ENDBRANCH   4   7
ENDBRANCH   2   3
ENDBRANCH   1   2
BRANCH   1  22
ATOM     22  C   UNL A   1      34.748  33.031  28.177  1.00  0.00     0.118 C 
BRANCH  22  23
ATOM     23  N   UNL A   1      33.963  31.830  27.931  1.00  0.00    -0.352 N 
ATOM     24  C   UNL A   1      34.362  30.527  27.786  1.00  0.00     0.251 C 
ATOM     25  H   UNL A   1      32.992  31.977  27.856  1.00  0.00     0.163 HD
ATOM     26  O   UNL A   1      33.546  29.699  27.370  1.00  0.00    -0.269 OA
BRANCH  24  27
ATOM     27  C   UNL A   1      35.743  30.108  28.110  1.00  0.00     0.039 A 
ATOM     28  C   UNL A   1      36.037  29.681  29.408  1.00  0.00     0.014 A 
ATOM     29  C   UNL A   1      36.764  30.178  27.159  1.00  0.00     0.014 A 
ATOM     30  C   UNL A   1      37.339  29.297  29.737  1.00  0.00     0.010 A 
ATOM     31  C   UNL A   1      38.029  29.682  27.452  1.00  0.00     0.010 A 
ATOM     32  C   UNL A   1      38.343  29.277  28.755  1.00  0.00    -0.014 A 
BRANCH  32  33
ATOM     33  C   UNL A   1      39.744  28.914  29.085  1.00  0.00     0.031 A 
ATOM     34  C   UNL A   1      40.631  29.917  29.782  1.00  0.00     0.074 A 
ATOM     35  C   UNL A   1      40.230  27.710  28.725  1.00  0.00     0.049 A 
ATOM     36  N   UNL A   1      41.890  29.810  30.121  1.00  0.00    -0.248 NA
ATOM     37  C   UNL A   1      40.036  31.224  30.109  1.00  0.00     0.031 C 
ATOM     38  C   UNL A   1      39.485  26.675  28.004  1.00  0.00     0.029 A 
ATOM     39  N   UNL A   1      41.468  27.153  28.921  1.00  0.00    -0.354 N 
ATOM     40  C   UNL A   1      42.239  31.038  30.674  1.00  0.00     0.074 A 
ATOM     41  C   UNL A   1      41.082  31.897  30.563  1.00  0.00     0.031 C 
ATOM     42  C   UNL A   1      40.269  25.594  27.855  1.00  0.00     0.029 A 
ATOM     43  C   UNL A   1      41.580  25.872  28.433  1.00  0.00     0.049 A 
ATOM     44  H   UNL A   1      42.207  27.625  29.368  1.00  0.00     0.167 HD
ATOM     45  C   UNL A   1      43.405  31.413  31.251  1.00  0.00     0.031 A 
ATOM     46  C   UNL A   1      42.620  25.018  28.454  1.00  0.00     0.031 A 
ATOM     47  C   UNL A   1      44.544  30.545  31.384  1.00  0.00     0.049 A 
ATOM     48  C   UNL A   1      43.900  25.446  29.120  1.00  0.00     0.074 A 
ATOM     49  C   UNL A   1      45.755  30.801  32.002  1.00  0.00     0.029 A 
ATOM     50  N   UNL A   1      44.607  29.247  30.898  1.00  0.00    -0.354 N 
ATOM     51  N   UNL A   1      44.190  26.593  29.689  1.00  0.00    -0.248 NA
ATOM     52  C   UNL A   1      44.983  24.457  29.167  1.00  0.00     0.031 C 
ATOM     53  C   UNL A   1      46.569  29.675  31.845  1.00  0.00     0.029 A 
ATOM     54  C   UNL A   1      45.842  28.694  31.188  1.00  0.00     0.049 A 
ATOM     55  H   UNL A   1      43.881  28.788  30.418  1.00  0.00     0.167 HD
ATOM     56  C   UNL A   1      45.479  26.450  30.191  1.00  0.00     0.074 A 
ATOM     57  C   UNL A   1      45.901  25.100  29.873  1.00  0.00     0.031 C 
ATOM     58  C   UNL A   1      46.244  27.349  30.859  1.00  0.00     0.031 A 
BRANCH  45  59
ATOM     59  C   UNL A   1      43.500  32.820  31.782  1.00  0.00    -0.014 A 
ATOM     60  C   UNL A   1      43.288  33.102  33.145  1.00  0.00     0.010 A 
ATOM     61  C   UNL A   1      43.826  33.876  30.912  1.00  0.00     0.010 A 
ATOM     62  C   UNL A   1      43.353  34.415  33.617  1.00  0.00     0.020 A 
ATOM     63  C   UNL A   1      43.924  35.188  31.386  1.00  0.00     0.020 A 
ATOM     64  C   UNL A   1      43.669  35.452  32.733  1.00  0.00     0.054 A 
BRANCH  64  65
ATOM     65  S   UNL A   1      43.766  37.143  33.379  1.00  0.00     0.124 S 
ATOM     66  O   UNL A   1      42.523  37.246  34.141  1.00  0.00    -0.237 OA
ATOM     67  O   UNL A   1      44.989  37.113  34.175  1.00  0.00    -0.237 OA
ATOM     68  O   UNL A   1      43.828  37.970  32.177  1.00  0.00    -0.744 OA
ENDBRANCH  64  65
ENDBRANCH  45  59
BRANCH  46  69
ATOM     69  C   UNL A   1      42.482  23.659  27.858  1.00  0.00    -0.014 A 
ATOM     70  C   UNL A   1      41.967  22.595  28.619  1.00  0.00     0.010 A 
ATOM     71  C   UNL A   1      42.855  23.426  26.522  1.00  0.00     0.010 A 
ATOM     72  C   UNL A   1      41.852  21.317  28.063  1.00  0.00     0.020 A 
ATOM     73  C   UNL A   1      42.713  22.157  25.954  1.00  0.00     0.020 A 
ATOM     74  C   UNL A   1      42.226  21.107  26.733  1.00  0.00     0.054 A 
BRANCH  74  75
ATOM     75  S   UNL A   1      42.027  19.450  26.020  1.00  0.00     0.124 S 
ATOM     76  O   UNL A   1      42.883  19.522  24.841  1.00  0.00    -0.237 OA
ATOM     77  O   UNL A   1      42.502  18.584  27.097  1.00  0.00    -0.237 OA
ATOM     78  O   UNL A   1      40.593  19.364  25.750  1.00  0.00    -0.744 OA
ENDBRANCH  74  75
ENDBRANCH  46  69
BRANCH  58  79
ATOM     79  C   UNL A   1      47.597  26.886  31.330  1.00  0.00    -0.014 A 
ATOM     80  C   UNL A   1      48.741  27.014  30.522  1.00  0.00     0.010 A 
ATOM     81  C   UNL A   1      47.726  26.332  32.617  1.00  0.00     0.010 A 
ATOM     82  C   UNL A   1      49.978  26.546  30.971  1.00  0.00     0.020 A 
ATOM     83  C   UNL A   1      48.966  25.894  33.082  1.00  0.00     0.020 A 
ATOM     84  C   UNL A   1      50.081  25.982  32.247  1.00  0.00     0.054 A 
BRANCH  84  85
ATOM     85  S   UNL A   1      51.698  25.386  32.810  1.00  0.00     0.124 S 
ATOM     86  O   UNL A   1      51.709  24.017  32.304  1.00  0.00    -0.237 OA
ATOM     87  O   UNL A   1      52.625  26.306  32.155  1.00  0.00    -0.237 OA
ATOM     88  O   UNL A   1      51.626  25.512  34.263  1.00  0.00    -0.744 OA
ENDBRANCH  84  85
ENDBRANCH  58  79
ENDBRANCH  32  33
ENDBRANCH  24  27
ENDBRANCH  22  23
ENDBRANCH   1  22
TORSDOF 17
ENDMDL
MODEL 2
REMARK VINA RESULT:      -9.1      3.736      6.218
REMARK SMILES NC(=O)C[C@@H](CC(=O)NCCCNC(=O)c1ccc(-c2c3nc(c(-c4ccc(S(=O)(=O)[O-])cc4)c4ccc([nH]4)c(-c4ccc(S(=O)(=O)[O-])cc4)c4nc(c(-c5ccc(S(=O)(=O)[O-])cc5)c5ccc2[nH]5)C=C4)C=C3)cc1)c1cccc(Br)c1
REMARK SMILES IDX 11 1 10 2 9 3 7 4 8 5 6 7 5 8 4 9 2 10 1 11 3 14 76 15 77 16
REMARK SMILES IDX 82 17 78 18 80 19 79 20 81 21 12 22 13 23 14 24 15 26 16 27
REMARK SMILES IDX 17 28 75 29 18 30 74 31 19 32 20 33 21 34 68 35 22 36 73 37
REMARK SMILES IDX 67 38 69 39 23 40 72 41 66 42 65 43 24 45 54 46 35 47 53 48
REMARK SMILES IDX 36 49 39 50 52 51 70 52 37 53 38 54 51 56 71 57 40 58 25 59
REMARK SMILES IDX 26 60 34 61 27 62 33 63 28 64 29 65 30 66 31 67 32 68 55 69
REMARK SMILES IDX 56 70 64 71 57 72 63 73 58 74 59 75 60 76 61 77 62 78 41 79
REMARK SMILES IDX 42 80 50 81 43 82 49 83 44 84 45 85 46 86 47 87 48 88
REMARK H PARENT 9 6 1 12 1 13 13 25 69 44 39 55
REMARK Flexibility Score: inf
ROOT
ATOM      1  C   UNL A   1      33.154  27.969  25.726  1.00  0.00     0.042 C 
ENDROOT
BRANCH   1   2
ATOM      2  C   UNL A   1      31.670  27.665  25.844  1.00  0.00     0.117 C 
BRANCH   2   3
ATOM      3  N   UNL A   1      31.414  26.472  26.611  1.00  0.00    -0.356 N 
ATOM      4  C   UNL A   1      31.628  25.170  26.313  1.00  0.00     0.220 C 
ATOM      5  O   UNL A   1      31.533  24.365  27.245  1.00  0.00    -0.275 OA
ATOM      6  H   UNL A   1      31.020  26.630  27.499  1.00  0.00     0.163 HD
BRANCH   4   7
ATOM      7  C   UNL A   1      32.058  24.688  24.930  1.00  0.00     0.108 C 
BRANCH   7   8
ATOM      8  C   UNL A   1      33.558  24.542  24.552  1.00  0.00     0.038 C 
BRANCH   8   9
ATOM      9  C   UNL A   1      33.990  25.193  23.210  1.00  0.00     0.108 C 
BRANCH   9  10
ATOM     10  C   UNL A   1      33.240  25.033  21.892  1.00  0.00     0.218 C 
ATOM     11  N   UNL A   1      32.788  23.831  21.469  1.00  0.00    -0.370 N 
ATOM     12  H   UNL A   1      32.307  23.761  20.613  1.00  0.00     0.159 HD
ATOM     13  H   UNL A   1      32.939  23.028  22.016  1.00  0.00     0.159 HD
ATOM     14  O   UNL A   1      33.129  25.981  21.113  1.00  0.00    -0.275 OA
ENDBRANCH   9  10
ENDBRANCH   8   9
BRANCH   8  15
ATOM     15  C   UNL A   1      34.110  23.099  24.724  1.00  0.00    -0.043 A 
ATOM     16  C   UNL A   1      35.451  22.850  25.085  1.00  0.00     0.004 A 
ATOM     17  C   UNL A   1      33.288  21.963  24.589  1.00  0.00     0.019 A 
ATOM     18  C   UNL A   1      35.958  21.550  25.214  1.00  0.00     0.001 A 
ATOM     19  C   UNL A   1      33.802  20.664  24.684  1.00  0.00     0.018 A 
ATOM     20  C   UNL A   1      35.139  20.452  24.991  1.00  0.00     0.016 A 
ATOM     21  Br  UNL A   1      32.667  19.181  24.380  1.00  0.00    -0.051 Br
ENDBRANCH   8  15
ENDBRANCH   7   8
ENDBRANCH   4   7
ENDBRANCH   2   3
ENDBRANCH   1   2
BRANCH   1  22
ATOM     22  C   UNL A   1      33.820  28.275  27.054  1.00  0.00     0.118 C 
BRANCH  22  23
ATOM     23  N   UNL A   1      33.720  29.683  27.412  1.00  0.00    -0.352 N 
ATOM     24  C   UNL A   1      34.604  30.492  28.076  1.00  0.00     0.251 C 
ATOM     25  H   UNL A   1      32.884  30.122  27.132  1.00  0.00     0.163 HD
ATOM     26  O   UNL A   1      34.221  31.602  28.457  1.00  0.00    -0.269 OA
BRANCH  24  27
ATOM     27  C   UNL A   1      35.990  30.054  28.343  1.00  0.00     0.039 A 
ATOM     28  C   UNL A   1      36.308  29.529  29.599  1.00  0.00     0.014 A 
ATOM     29  C   UNL A   1      36.994  30.200  27.382  1.00  0.00     0.014 A 
ATOM     30  C   UNL A   1      37.617  29.126  29.874  1.00  0.00     0.010 A 
ATOM     31  C   UNL A   1      38.265  29.686  27.614  1.00  0.00     0.010 A 
ATOM     32  C   UNL A   1      38.603  29.184  28.877  1.00  0.00    -0.014 A 
BRANCH  32  33
ATOM     33  C   UNL A   1      40.010  28.801  29.153  1.00  0.00     0.031 A 
ATOM     34  C   UNL A   1      40.935  29.788  29.823  1.00  0.00     0.074 A 
ATOM     35  C   UNL A   1      40.467  27.593  28.768  1.00  0.00     0.049 A 
ATOM     36  N   UNL A   1      42.204  29.662  30.116  1.00  0.00    -0.248 NA
ATOM     37  C   UNL A   1      40.369  31.100  30.180  1.00  0.00     0.031 C 
ATOM     38  C   UNL A   1      39.684  26.572  28.068  1.00  0.00     0.029 A 
ATOM     39  N   UNL A   1      41.704  27.019  28.915  1.00  0.00    -0.354 N 
ATOM     40  C   UNL A   1      42.588  30.883  30.663  1.00  0.00     0.074 A 
ATOM     41  C   UNL A   1      41.439  31.756  30.600  1.00  0.00     0.031 C 
ATOM     42  C   UNL A   1      40.447  25.483  27.884  1.00  0.00     0.029 A 
ATOM     43  C   UNL A   1      41.781  25.740  28.415  1.00  0.00     0.049 A 
ATOM     44  H   UNL A   1      42.465  27.479  29.338  1.00  0.00     0.167 HD
ATOM     45  C   UNL A   1      43.780  31.238  31.199  1.00  0.00     0.031 A 
ATOM     46  C   UNL A   1      42.811  24.872  28.393  1.00  0.00     0.031 A 
ATOM     47  C   UNL A   1      44.911  30.355  31.286  1.00  0.00     0.049 A 
ATOM     48  C   UNL A   1      44.119  25.280  29.015  1.00  0.00     0.074 A 
ATOM     49  C   UNL A   1      46.147  30.591  31.860  1.00  0.00     0.029 A 
ATOM     50  N   UNL A   1      44.940  29.060  30.790  1.00  0.00    -0.354 N 
ATOM     51  N   UNL A   1      44.445  26.420  29.580  1.00  0.00    -0.248 NA
ATOM     52  C   UNL A   1      45.190  24.277  29.016  1.00  0.00     0.031 C 
ATOM     53  C   UNL A   1      46.940  29.456  31.668  1.00  0.00     0.029 A 
ATOM     54  C   UNL A   1      46.177  28.489  31.031  1.00  0.00     0.049 A 
ATOM     55  H   UNL A   1      44.191  28.613  30.333  1.00  0.00     0.167 HD
ATOM     56  C   UNL A   1      45.749  26.256  30.034  1.00  0.00     0.074 A 
ATOM     57  C   UNL A   1      46.142  24.904  29.692  1.00  0.00     0.031 C 
ATOM     58  C   UNL A   1      46.549  27.142  30.679  1.00  0.00     0.031 A 
BRANCH  45  59
ATOM     59  C   UNL A   1      43.912  32.641  31.735  1.00  0.00    -0.014 A 
ATOM     60  C   UNL A   1      43.701  32.924  33.099  1.00  0.00     0.010 A 
ATOM     61  C   UNL A   1      44.273  33.689  30.870  1.00  0.00     0.010 A 
ATOM     62  C   UNL A   1      43.801  34.234  33.575  1.00  0.00     0.020 A 
ATOM     63  C   UNL A   1      44.406  34.996  31.350  1.00  0.00     0.020 A 
ATOM     64  C   UNL A   1      44.151  35.263  32.697  1.00  0.00     0.054 A 
BRANCH  64  65
ATOM     65  S   UNL A   1      44.293  36.950  33.348  1.00  0.00     0.124 S 
ATOM     66  O   UNL A   1      45.010  36.728  34.601  1.00  0.00    -0.237 OA
ATOM     67  O   UNL A   1      45.051  37.633  32.304  1.00  0.00    -0.237 OA
ATOM     68  O   UNL A   1      42.906  37.383  33.493  1.00  0.00    -0.744 OA
ENDBRANCH  64  65
ENDBRANCH  45  59
BRANCH  46  69
ATOM     69  C   UNL A   1      42.634  23.520  27.794  1.00  0.00    -0.014 A 
ATOM     70  C   UNL A   1      43.082  23.253  26.489  1.00  0.00     0.010 A 
ATOM     71  C   UNL A   1      42.024  22.488  28.531  1.00  0.00     0.010 A 
ATOM     72  C   UNL A   1      42.901  21.987  25.922  1.00  0.00     0.020 A 
ATOM     73  C   UNL A   1      41.869  21.214  27.980  1.00  0.00     0.020 A 
ATOM     74  C   UNL A   1      42.296  20.976  26.672  1.00  0.00     0.054 A 
BRANCH  74  75
ATOM     75  S   UNL A   1      42.111  19.329  25.932  1.00  0.00     0.124 S 
ATOM     76  O   UNL A   1      42.941  19.439  24.737  1.00  0.00    -0.237 OA
ATOM     77  O   UNL A   1      42.625  18.452  26.981  1.00  0.00    -0.237 OA
ATOM     78  O   UNL A   1      40.674  19.223  25.690  1.00  0.00    -0.744 OA
ENDBRANCH  74  75
ENDBRANCH  46  69
BRANCH  58  79
ATOM     79  C   UNL A   1      47.912  26.658  31.098  1.00  0.00    -0.014 A 
ATOM     80  C   UNL A   1      49.039  26.827  30.272  1.00  0.00     0.010 A 
ATOM     81  C   UNL A   1      48.069  26.042  32.353  1.00  0.00     0.010 A 
ATOM     82  C   UNL A   1      50.285  26.340  30.671  1.00  0.00     0.020 A 
ATOM     83  C   UNL A   1      49.320  25.584  32.770  1.00  0.00     0.020 A 
ATOM     84  C   UNL A   1      50.416  25.715  31.916  1.00  0.00     0.054 A 
BRANCH  84  85
ATOM     85  S   UNL A   1      52.045  25.094  32.414  1.00  0.00     0.124 S 
ATOM     86  O   UNL A   1      52.223  25.725  33.719  1.00  0.00    -0.237 OA
ATOM     87  O   UNL A   1      51.845  23.647  32.437  1.00  0.00    -0.237 OA
ATOM     88  O   UNL A   1      52.936  25.578  31.362  1.00  0.00    -0.744 OA
ENDBRANCH  84  85
ENDBRANCH  58  79
ENDBRANCH  32  33
ENDBRANCH  24  27
ENDBRANCH  22  23
ENDBRANCH   1  22
TORSDOF 17
ENDMDL
MODEL 3
REMARK VINA RESULT:      -8.8      3.774     10.621
REMARK SMILES NC(=O)C[C@@H](CC(=O)NCCCNC(=O)c1ccc(-c2c3nc(c(-c4ccc(S(=O)(=O)[O-])cc4)c4ccc([nH]4)c(-c4ccc(S(=O)(=O)[O-])cc4)c4nc(c(-c5ccc(S(=O)(=O)[O-])cc5)c5ccc2[nH]5)C=C4)C=C3)cc1)c1cccc(Br)c1
REMARK SMILES IDX 11 1 10 2 9 3 7 4 8 5 6 7 5 8 4 9 2 10 1 11 3 14 76 15 77 16
REMARK SMILES IDX 82 17 78 18 80 19 79 20 81 21 12 22 13 23 14 24 15 26 16 27
REMARK SMILES IDX 17 28 75 29 18 30 74 31 19 32 20 33 21 34 68 35 22 36 73 37
REMARK SMILES IDX 67 38 69 39 23 40 72 41 66 42 65 43 24 45 54 46 35 47 53 48
REMARK SMILES IDX 36 49 39 50 52 51 70 52 37 53 38 54 51 56 71 57 40 58 25 59
REMARK SMILES IDX 26 60 34 61 27 62 33 63 28 64 29 65 30 66 31 67 32 68 55 69
REMARK SMILES IDX 56 70 64 71 57 72 63 73 58 74 59 75 60 76 61 77 62 78 41 79
REMARK SMILES IDX 42 80 50 81 43 82 49 83 44 84 45 85 46 86 47 87 48 88
REMARK H PARENT 9 6 1 12 1 13 13 25 69 44 39 55
REMARK Flexibility Score: inf
ROOT
ATOM      1  C   UNL A   1      35.592  23.266  24.748  1.00  0.00     0.042 C 
ENDROOT
BRANCH   1   2
ATOM      2  C   UNL A   1      34.745  22.827  25.931  1.00  0.00     0.117 C 
BRANCH   2   3
ATOM      3  N   UNL A   1      33.333  22.967  25.675  1.00  0.00    -0.356 N 
ATOM      4  C   UNL A   1      32.548  24.068  25.641  1.00  0.00     0.220 C 
ATOM      5  O   UNL A   1      31.416  23.926  25.167  1.00  0.00    -0.275 OA
ATOM      6  H   UNL A   1      32.863  22.121  25.495  1.00  0.00     0.163 HD
BRANCH   4   7
ATOM      7  C   UNL A   1      33.029  25.452  26.067  1.00  0.00     0.108 C 
BRANCH   7   8
ATOM      8  C   UNL A   1      32.915  26.678  25.120  1.00  0.00     0.038 C 
BRANCH   8   9
ATOM      9  C   UNL A   1      33.706  26.587  23.787  1.00  0.00     0.108 C 
BRANCH   9  10
ATOM     10  C   UNL A   1      33.309  27.299  22.498  1.00  0.00     0.218 C 
ATOM     11  N   UNL A   1      32.052  27.237  22.005  1.00  0.00    -0.370 N 
ATOM     12  H   UNL A   1      31.827  27.709  21.171  1.00  0.00     0.159 HD
ATOM     13  H   UNL A   1      31.361  26.723  22.481  1.00  0.00     0.159 HD
ATOM     14  O   UNL A   1      34.159  27.856  21.801  1.00  0.00    -0.275 OA
ENDBRANCH   9  10
ENDBRANCH   8   9
BRANCH   8  15
ATOM     15  C   UNL A   1      33.103  28.044  25.837  1.00  0.00    -0.043 A 
ATOM     16  C   UNL A   1      34.222  28.312  26.654  1.00  0.00     0.004 A 
ATOM     17  C   UNL A   1      32.198  29.110  25.662  1.00  0.00     0.019 A 
ATOM     18  C   UNL A   1      34.379  29.534  27.322  1.00  0.00     0.001 A 
ATOM     19  C   UNL A   1      32.338  30.318  26.358  1.00  0.00     0.018 A 
ATOM     20  C   UNL A   1      33.424  30.533  27.195  1.00  0.00     0.016 A 
ATOM     21  Br  UNL A   1      31.026  31.668  26.166  1.00  0.00    -0.051 Br
ENDBRANCH   8  15
ENDBRANCH   7   8
ENDBRANCH   4   7
ENDBRANCH   2   3
ENDBRANCH   1   2
BRANCH   1  22
ATOM     22  C   UNL A   1      36.923  23.876  25.145  1.00  0.00     0.118 C 
BRANCH  22  23
ATOM     23  N   UNL A   1      37.914  22.866  25.488  1.00  0.00    -0.352 N 
ATOM     24  C   UNL A   1      39.119  22.990  26.128  1.00  0.00     0.251 C 
ATOM     25  H   UNL A   1      37.680  21.948  25.217  1.00  0.00     0.163 HD
ATOM     26  O   UNL A   1      39.895  22.031  26.124  1.00  0.00    -0.269 OA
BRANCH  24  27
ATOM     27  C   UNL A   1      39.498  24.247  26.808  1.00  0.00     0.039 A 
ATOM     28  C   UNL A   1      40.228  25.209  26.104  1.00  0.00     0.014 A 
ATOM     29  C   UNL A   1      39.182  24.468  28.152  1.00  0.00     0.014 A 
ATOM     30  C   UNL A   1      40.609  26.395  26.736  1.00  0.00     0.010 A 
ATOM     31  C   UNL A   1      39.454  25.697  28.741  1.00  0.00     0.010 A 
ATOM     32  C   UNL A   1      40.209  26.657  28.056  1.00  0.00    -0.014 A 
BRANCH  32  33
ATOM     33  C   UNL A   1      40.633  27.890  28.765  1.00  0.00     0.031 A 
ATOM     34  C   UNL A   1      42.024  27.977  29.344  1.00  0.00     0.074 A 
ATOM     35  C   UNL A   1      39.764  28.907  28.927  1.00  0.00     0.049 A 
ATOM     36  N   UNL A   1      42.574  28.946  30.030  1.00  0.00    -0.248 NA
ATOM     37  C   UNL A   1      42.902  26.809  29.156  1.00  0.00     0.031 C 
ATOM     38  C   UNL A   1      38.376  28.921  28.458  1.00  0.00     0.029 A 
ATOM     39  N   UNL A   1      39.922  30.128  29.531  1.00  0.00    -0.354 N 
ATOM     40  C   UNL A   1      43.844  28.492  30.375  1.00  0.00     0.074 A 
ATOM     41  C   UNL A   1      43.959  27.139  29.881  1.00  0.00     0.031 C 
ATOM     42  C   UNL A   1      37.824  30.109  28.755  1.00  0.00     0.029 A 
ATOM     43  C   UNL A   1      38.802  30.923  29.469  1.00  0.00     0.049 A 
ATOM     44  H   UNL A   1      40.758  30.408  29.969  1.00  0.00     0.167 HD
ATOM     45  C   UNL A   1      44.838  29.150  31.016  1.00  0.00     0.031 A 
ATOM     46  C   UNL A   1      38.590  32.171  29.930  1.00  0.00     0.031 A 
ATOM     47  C   UNL A   1      44.729  30.507  31.478  1.00  0.00     0.049 A 
ATOM     48  C   UNL A   1      39.717  32.892  30.620  1.00  0.00     0.074 A 
ATOM     49  C   UNL A   1      45.692  31.291  32.089  1.00  0.00     0.029 A 
ATOM     50  N   UNL A   1      43.585  31.286  31.373  1.00  0.00    -0.354 N 
ATOM     51  N   UNL A   1      40.930  32.466  30.884  1.00  0.00    -0.248 NA
ATOM     52  C   UNL A   1      39.452  34.269  31.052  1.00  0.00     0.031 C 
ATOM     53  C   UNL A   1      45.115  32.527  32.397  1.00  0.00     0.029 A 
ATOM     54  C   UNL A   1      43.813  32.536  31.920  1.00  0.00     0.049 A 
ATOM     55  H   UNL A   1      42.737  30.992  30.969  1.00  0.00     0.167 HD
ATOM     56  C   UNL A   1      41.583  33.537  31.484  1.00  0.00     0.074 A 
ATOM     57  C   UNL A   1      40.635  34.632  31.526  1.00  0.00     0.031 C 
ATOM     58  C   UNL A   1      42.854  33.611  31.955  1.00  0.00     0.031 A 
BRANCH  45  59
ATOM     59  C   UNL A   1      46.129  28.408  31.247  1.00  0.00    -0.014 A 
ATOM     60  C   UNL A   1      46.317  27.611  32.393  1.00  0.00     0.010 A 
ATOM     61  C   UNL A   1      47.164  28.489  30.297  1.00  0.00     0.010 A 
ATOM     62  C   UNL A   1      47.530  26.951  32.607  1.00  0.00     0.020 A 
ATOM     63  C   UNL A   1      48.366  27.803  30.491  1.00  0.00     0.020 A 
ATOM     64  C   UNL A   1      48.549  27.052  31.655  1.00  0.00     0.054 A 
BRANCH  64  65
ATOM     65  S   UNL A   1      50.104  26.167  31.950  1.00  0.00     0.124 S 
ATOM     66  O   UNL A   1      51.059  26.980  31.199  1.00  0.00    -0.237 OA
ATOM     67  O   UNL A   1      50.236  26.227  33.403  1.00  0.00    -0.237 OA
ATOM     68  O   UNL A   1      49.855  24.836  31.403  1.00  0.00    -0.744 OA
ENDBRANCH  64  65
ENDBRANCH  45  59
BRANCH  46  69
ATOM     69  C   UNL A   1      37.271  32.829  29.722  1.00  0.00    -0.014 A 
ATOM     70  C   UNL A   1      37.022  33.578  28.558  1.00  0.00     0.010 A 
ATOM     71  C   UNL A   1      36.250  32.700  30.682  1.00  0.00     0.010 A 
ATOM     72  C   UNL A   1      35.788  34.208  28.371  1.00  0.00     0.020 A 
ATOM     73  C   UNL A   1      35.006  33.303  30.484  1.00  0.00     0.020 A 
ATOM     74  C   UNL A   1      34.787  34.066  29.335  1.00  0.00     0.054 A 
BRANCH  74  75
ATOM     75  S   UNL A   1      33.179  34.856  29.050  1.00  0.00     0.124 S 
ATOM     76  O   UNL A   1      32.584  33.980  28.046  1.00  0.00    -0.237 OA
ATOM     77  O   UNL A   1      32.564  34.810  30.375  1.00  0.00    -0.237 OA
ATOM     78  O   UNL A   1      33.534  36.195  28.584  1.00  0.00    -0.744 OA
ENDBRANCH  74  75
ENDBRANCH  46  69
BRANCH  58  79
ATOM     79  C   UNL A   1      43.304  34.936  32.512  1.00  0.00    -0.014 A 
ATOM     80  C   UNL A   1      43.137  35.257  33.872  1.00  0.00     0.010 A 
ATOM     81  C   UNL A   1      43.926  35.866  31.660  1.00  0.00     0.010 A 
ATOM     82  C   UNL A   1      43.534  36.506  34.356  1.00  0.00     0.020 A 
ATOM     83  C   UNL A   1      44.354  37.102  32.146  1.00  0.00     0.020 A 
ATOM     84  C   UNL A   1      44.134  37.424  33.487  1.00  0.00     0.054 A 
BRANCH  84  85
ATOM     85  S   UNL A   1      44.646  39.036  34.138  1.00  0.00     0.124 S 
ATOM     86  O   UNL A   1      45.640  39.458  33.156  1.00  0.00    -0.237 OA
ATOM     87  O   UNL A   1      43.397  39.795  34.135  1.00  0.00    -0.237 OA
ATOM     88  O   UNL A   1      45.174  38.722  35.464  1.00  0.00    -0.744 OA
ENDBRANCH  84  85
ENDBRANCH  58  79
ENDBRANCH  32  33
ENDBRANCH  24  27
ENDBRANCH  22  23
ENDBRANCH   1  22
TORSDOF 17
ENDMDL
