MODEL 1
REMARK VINA RESULT:     -11.9      0.000      0.000
REMARK SMILES Cc1ccc(NC(=O)C[NH+]2CCC(C(=O)NCCCNC(=O)c3ccc(-c4c5nc(c(-c6ccc(S(=O)(=O)[O-])cc6)c6ccc([nH]6)c(-c6ccc(S(=O)(=O)[O-])cc6)c6nc(c(-c7ccc(S(=O)(=O)[O-])cc7)c7ccc4[nH]7)C=C6)C=C5)cc3)CC2)cc1Cl
REMARK SMILES IDX 18 1 17 2 16 3 14 4 15 5 13 7 10 8 11 9 84 10 12 12 83 13
REMARK SMILES IDX 9 14 7 15 6 16 8 18 5 19 1 20 2 21 3 22 86 23 4 24 85 25
REMARK SMILES IDX 87 26 19 27 20 28 21 29 22 31 23 32 24 33 82 34 25 35 81 36
REMARK SMILES IDX 26 37 27 38 28 39 75 40 29 41 80 42 74 43 76 44 30 45 79 46
REMARK SMILES IDX 73 47 72 48 31 50 61 51 42 52 60 53 43 54 46 55 59 56 77 57
REMARK SMILES IDX 44 58 45 59 58 61 78 62 47 63 32 64 33 65 41 66 34 67 40 68
REMARK SMILES IDX 35 69 36 70 37 71 38 72 39 73 62 74 63 75 71 76 64 77 70 78
REMARK SMILES IDX 65 79 66 80 67 81 68 82 69 83 48 84 49 85 57 86 50 87 56 88
REMARK SMILES IDX 51 89 52 90 53 91 54 92 55 93
REMARK H PARENT 16 6 10 11 6 17 20 30 76 49 46 60
REMARK Flexibility Score: inf
ROOT
ATOM      1  C   UNL A   1      33.258  29.331  24.939  1.00  0.00     0.042 C 
ENDROOT
BRANCH   1   2
ATOM      2  C   UNL A   1      31.759  29.101  24.901  1.00  0.00     0.117 C 
BRANCH   2   3
ATOM      3  N   UNL A   1      31.169  29.591  23.661  1.00  0.00    -0.356 N 
ATOM      4  C   UNL A   1      30.636  28.924  22.602  1.00  0.00     0.223 C 
ATOM      5  O   UNL A   1      30.231  29.584  21.642  1.00  0.00    -0.275 OA
ATOM      6  H   UNL A   1      31.154  30.573  23.575  1.00  0.00     0.163 HD
BRANCH   4   7
ATOM      7  C   UNL A   1      30.466  27.417  22.630  1.00  0.00     0.089 C 
ATOM      8  N   UNL A   1      31.020  25.038  24.230  1.00  0.00    -0.327 N 
ATOM      9  C   UNL A   1      31.628  25.163  22.907  1.00  0.00     0.263 C 
ATOM     10  C   UNL A   1      29.692  25.631  24.249  1.00  0.00     0.263 C 
ATOM     11  H   UNL A   1      31.611  25.565  24.873  1.00  0.00     0.348 HD
ATOM     12  C   UNL A   1      31.791  26.649  22.563  1.00  0.00     0.075 C 
ATOM     13  C   UNL A   1      29.566  27.067  23.806  1.00  0.00     0.075 C 
BRANCH   8  14
ATOM     14  C   UNL A   1      31.021  23.642  24.757  1.00  0.00     0.363 C 
BRANCH  14  15
ATOM     15  C   UNL A   1      31.366  23.484  26.252  1.00  0.00     0.279 C 
ATOM     16  N   UNL A   1      32.590  23.045  26.710  1.00  0.00    -0.321 N 
ATOM     17  H   UNL A   1      32.643  22.926  27.686  1.00  0.00     0.170 HD
ATOM     18  O   UNL A   1      30.552  23.835  27.117  1.00  0.00    -0.268 OA
BRANCH  16  19
ATOM     19  C   UNL A   1      33.777  22.736  26.018  1.00  0.00     0.042 A 
ATOM     20  C   UNL A   1      37.549  20.944  24.946  1.00  0.00     0.046 C 
ATOM     21  C   UNL A   1      36.237  21.648  25.170  1.00  0.00    -0.032 A 
ATOM     22  C   UNL A   1      35.043  20.939  24.986  1.00  0.00     0.007 A 
ATOM     23  C   UNL A   1      36.163  22.957  25.673  1.00  0.00     0.046 A 
ATOM     24  C   UNL A   1      33.817  21.491  25.377  1.00  0.00     0.026 A 
ATOM     25  C   UNL A   1      34.935  23.507  26.073  1.00  0.00     0.047 A 
ATOM     26  Cl  UNL A   1      37.586  23.899  25.948  1.00  0.00    -0.084 Cl
ENDBRANCH  16  19
ENDBRANCH  14  15
ENDBRANCH   8  14
ENDBRANCH   4   7
ENDBRANCH   2   3
ENDBRANCH   1   2
BRANCH   1  27
ATOM     27  C   UNL A   1      33.849  29.182  26.331  1.00  0.00     0.118 C 
BRANCH  27  28
ATOM     28  N   UNL A   1      33.765  30.410  27.111  1.00  0.00    -0.352 N 
ATOM     29  C   UNL A   1      34.610  30.883  28.085  1.00  0.00     0.251 C 
ATOM     30  H   UNL A   1      32.991  30.984  26.911  1.00  0.00     0.163 HD
ATOM     31  O   UNL A   1      34.279  31.850  28.768  1.00  0.00    -0.269 OA
BRANCH  29  32
ATOM     32  C   UNL A   1      35.898  30.203  28.328  1.00  0.00     0.039 A 
ATOM     33  C   UNL A   1      36.873  30.222  27.330  1.00  0.00     0.014 A 
ATOM     34  C   UNL A   1      36.159  29.589  29.556  1.00  0.00     0.014 A 
ATOM     35  C   UNL A   1      38.143  29.710  27.600  1.00  0.00     0.010 A 
ATOM     36  C   UNL A   1      37.450  29.169  29.857  1.00  0.00     0.010 A 
ATOM     37  C   UNL A   1      38.459  29.233  28.885  1.00  0.00    -0.014 A 
BRANCH  37  38
ATOM     38  C   UNL A   1      39.845  28.839  29.241  1.00  0.00     0.031 A 
ATOM     39  C   UNL A   1      40.772  29.826  29.899  1.00  0.00     0.074 A 
ATOM     40  C   UNL A   1      40.290  27.611  28.901  1.00  0.00     0.049 A 
ATOM     41  N   UNL A   1      42.029  29.677  30.226  1.00  0.00    -0.248 NA
ATOM     42  C   UNL A   1      40.225  31.158  30.209  1.00  0.00     0.031 C 
ATOM     43  C   UNL A   1      39.502  26.585  28.210  1.00  0.00     0.029 A 
ATOM     44  N   UNL A   1      41.515  27.019  29.079  1.00  0.00    -0.354 N 
ATOM     45  C   UNL A   1      42.428  30.896  30.763  1.00  0.00     0.074 A 
ATOM     46  C   UNL A   1      41.293  31.788  30.680  1.00  0.00     0.031 C 
ATOM     47  C   UNL A   1      40.254  25.484  28.048  1.00  0.00     0.029 A 
ATOM     48  C   UNL A   1      41.590  25.740  28.575  1.00  0.00     0.049 A 
ATOM     49  H   UNL A   1      42.269  27.466  29.526  1.00  0.00     0.167 HD
ATOM     50  C   UNL A   1      43.627  31.235  31.290  1.00  0.00     0.031 A 
ATOM     51  C   UNL A   1      42.622  24.876  28.523  1.00  0.00     0.031 A 
ATOM     52  C   UNL A   1      44.748  30.337  31.386  1.00  0.00     0.049 A 
ATOM     53  C   UNL A   1      43.947  25.288  29.106  1.00  0.00     0.074 A 
ATOM     54  C   UNL A   1      45.978  30.564  31.977  1.00  0.00     0.029 A 
ATOM     55  N   UNL A   1      44.782  29.050  30.875  1.00  0.00    -0.354 N 
ATOM     56  N   UNL A   1      44.273  26.413  29.698  1.00  0.00    -0.248 NA
ATOM     57  C   UNL A   1      45.044  24.313  29.019  1.00  0.00     0.031 C 
ATOM     58  C   UNL A   1      46.780  29.439  31.762  1.00  0.00     0.029 A 
ATOM     59  C   UNL A   1      46.026  28.486  31.098  1.00  0.00     0.049 A 
ATOM     60  H   UNL A   1      44.031  28.603  30.419  1.00  0.00     0.167 HD
ATOM     61  C   UNL A   1      45.605  26.270  30.071  1.00  0.00     0.074 A 
ATOM     62  C   UNL A   1      46.015  24.943  29.664  1.00  0.00     0.031 C 
ATOM     63  C   UNL A   1      46.419  27.163  30.686  1.00  0.00     0.031 A 
BRANCH  50  64
ATOM     64  C   UNL A   1      43.804  32.637  31.810  1.00  0.00    -0.014 A 
ATOM     65  C   UNL A   1      44.202  33.683  30.959  1.00  0.00     0.010 A 
ATOM     66  C   UNL A   1      43.470  32.930  33.146  1.00  0.00     0.010 A 
ATOM     67  C   UNL A   1      44.274  34.994  31.437  1.00  0.00     0.020 A 
ATOM     68  C   UNL A   1      43.514  34.243  33.620  1.00  0.00     0.020 A 
ATOM     69  C   UNL A   1      43.921  35.268  32.763  1.00  0.00     0.054 A 
BRANCH  69  70
ATOM     70  S   UNL A   1      43.951  36.990  33.330  1.00  0.00     0.124 S 
ATOM     71  O   UNL A   1      45.100  36.991  34.232  1.00  0.00    -0.237 OA
ATOM     72  O   UNL A   1      44.129  37.732  32.085  1.00  0.00    -0.237 OA
ATOM     73  O   UNL A   1      42.653  37.165  33.978  1.00  0.00    -0.744 OA
ENDBRANCH  69  70
ENDBRANCH  50  64
BRANCH  51  74
ATOM     74  C   UNL A   1      42.459  23.543  27.878  1.00  0.00    -0.014 A 
ATOM     75  C   UNL A   1      41.959  22.447  28.605  1.00  0.00     0.010 A 
ATOM     76  C   UNL A   1      42.832  23.354  26.535  1.00  0.00     0.010 A 
ATOM     77  C   UNL A   1      41.875  21.182  28.013  1.00  0.00     0.020 A 
ATOM     78  C   UNL A   1      42.717  22.101  25.929  1.00  0.00     0.020 A 
ATOM     79  C   UNL A   1      42.258  21.017  26.679  1.00  0.00     0.054 A 
BRANCH  79  80
ATOM     80  S   UNL A   1      42.131  19.371  25.927  1.00  0.00     0.124 S 
ATOM     81  O   UNL A   1      42.962  19.518  24.736  1.00  0.00    -0.237 OA
ATOM     82  O   UNL A   1      42.669  18.504  26.973  1.00  0.00    -0.237 OA
ATOM     83  O   UNL A   1      40.699  19.220  25.678  1.00  0.00    -0.744 OA
ENDBRANCH  79  80
ENDBRANCH  51  74
BRANCH  63  84
ATOM     84  C   UNL A   1      47.830  26.726  30.979  1.00  0.00    -0.014 A 
ATOM     85  C   UNL A   1      48.883  27.038  30.101  1.00  0.00     0.010 A 
ATOM     86  C   UNL A   1      48.113  26.043  32.175  1.00  0.00     0.010 A 
ATOM     87  C   UNL A   1      50.190  26.644  30.398  1.00  0.00     0.020 A 
ATOM     88  C   UNL A   1      49.424  25.676  32.492  1.00  0.00     0.020 A 
ATOM     89  C   UNL A   1      50.453  25.968  31.594  1.00  0.00     0.054 A 
BRANCH  89  90
ATOM     90  S   UNL A   1      52.165  25.511  31.977  1.00  0.00     0.124 S 
ATOM     91  O   UNL A   1      52.054  24.070  32.188  1.00  0.00    -0.237 OA
ATOM     92  O   UNL A   1      52.881  25.916  30.771  1.00  0.00    -0.237 OA
ATOM     93  O   UNL A   1      52.474  26.292  33.173  1.00  0.00    -0.744 OA
ENDBRANCH  89  90
ENDBRANCH  63  84
ENDBRANCH  37  38
ENDBRANCH  29  32
ENDBRANCH  27  28
ENDBRANCH   1  27
TORSDOF 16
ENDMDL
MODEL 2
REMARK VINA RESULT:     -11.8      1.057      8.213
REMARK SMILES Cc1ccc(NC(=O)C[NH+]2CCC(C(=O)NCCCNC(=O)c3ccc(-c4c5nc(c(-c6ccc(S(=O)(=O)[O-])cc6)c6ccc([nH]6)c(-c6ccc(S(=O)(=O)[O-])cc6)c6nc(c(-c7ccc(S(=O)(=O)[O-])cc7)c7ccc4[nH]7)C=C6)C=C5)cc3)CC2)cc1Cl
REMARK SMILES IDX 18 1 17 2 16 3 14 4 15 5 13 7 10 8 11 9 84 10 12 12 83 13
REMARK SMILES IDX 9 14 7 15 6 16 8 18 5 19 1 20 2 21 3 22 86 23 4 24 85 25
REMARK SMILES IDX 87 26 19 27 20 28 21 29 22 31 23 32 24 33 82 34 25 35 81 36
REMARK SMILES IDX 26 37 27 38 28 39 75 40 29 41 80 42 74 43 76 44 30 45 79 46
REMARK SMILES IDX 73 47 72 48 31 50 61 51 42 52 60 53 43 54 46 55 59 56 77 57
REMARK SMILES IDX 44 58 45 59 58 61 78 62 47 63 32 64 33 65 41 66 34 67 40 68
REMARK SMILES IDX 35 69 36 70 37 71 38 72 39 73 62 74 63 75 71 76 64 77 70 78
REMARK SMILES IDX 65 79 66 80 67 81 68 82 69 83 48 84 49 85 57 86 50 87 56 88
REMARK SMILES IDX 51 89 52 90 53 91 54 92 55 93
REMARK H PARENT 16 6 10 11 6 17 20 30 76 49 46 60
REMARK Flexibility Score: inf
ROOT
ATOM      1  C   UNL A   1      33.852  28.109  26.029  1.00  0.00     0.042 C 
ENDROOT
BRANCH   1   2
ATOM      2  C   UNL A   1      32.910  28.679  24.986  1.00  0.00     0.117 C 
BRANCH   2   3
ATOM      3  N   UNL A   1      33.561  28.814  23.688  1.00  0.00    -0.356 N 
ATOM      4  C   UNL A   1      33.669  27.941  22.649  1.00  0.00     0.223 C 
ATOM      5  O   UNL A   1      34.316  28.291  21.660  1.00  0.00    -0.275 OA
ATOM      6  H   UNL A   1      33.996  29.684  23.537  1.00  0.00     0.163 HD
BRANCH   4   7
ATOM      7  C   UNL A   1      32.947  26.607  22.668  1.00  0.00     0.089 C 
ATOM      8  N   UNL A   1      31.736  24.637  24.451  1.00  0.00    -0.327 N 
ATOM      9  C   UNL A   1      32.888  24.248  23.640  1.00  0.00     0.263 C 
ATOM     10  C   UNL A   1      30.893  25.583  23.737  1.00  0.00     0.263 C 
ATOM     11  H   UNL A   1      32.106  25.105  25.278  1.00  0.00     0.348 HD
ATOM     12  C   UNL A   1      33.743  25.488  23.350  1.00  0.00     0.075 C 
ATOM     13  C   UNL A   1      31.545  26.838  23.214  1.00  0.00     0.075 C 
BRANCH   8  14
ATOM     14  C   UNL A   1      30.959  23.477  24.977  1.00  0.00     0.363 C 
BRANCH  14  15
ATOM     15  C   UNL A   1      30.954  23.305  26.510  1.00  0.00     0.279 C 
ATOM     16  N   UNL A   1      31.995  22.744  27.219  1.00  0.00    -0.321 N 
ATOM     17  H   UNL A   1      31.822  22.635  28.182  1.00  0.00     0.170 HD
ATOM     18  O   UNL A   1      30.015  23.756  27.181  1.00  0.00    -0.268 OA
BRANCH  16  19
ATOM     19  C   UNL A   1      33.262  22.297  26.797  1.00  0.00     0.042 A 
ATOM     20  C   UNL A   1      36.825  21.706  24.444  1.00  0.00     0.046 C 
ATOM     21  C   UNL A   1      35.658  21.824  25.387  1.00  0.00    -0.032 A 
ATOM     22  C   UNL A   1      35.469  23.021  26.092  1.00  0.00     0.007 A 
ATOM     23  C   UNL A   1      34.680  20.823  25.502  1.00  0.00     0.046 A 
ATOM     24  C   UNL A   1      34.294  23.244  26.817  1.00  0.00     0.026 A 
ATOM     25  C   UNL A   1      33.498  21.050  26.224  1.00  0.00     0.047 A 
ATOM     26  Cl  UNL A   1      34.823  19.323  24.655  1.00  0.00    -0.084 Cl
ENDBRANCH  16  19
ENDBRANCH  14  15
ENDBRANCH   8  14
ENDBRANCH   4   7
ENDBRANCH   2   3
ENDBRANCH   1   2
BRANCH   1  27
ATOM     27  C   UNL A   1      33.455  28.469  27.451  1.00  0.00     0.118 C 
BRANCH  27  28
ATOM     28  N   UNL A   1      33.502  29.903  27.702  1.00  0.00    -0.352 N 
ATOM     29  C   UNL A   1      34.531  30.670  28.191  1.00  0.00     0.251 C 
ATOM     30  H   UNL A   1      32.675  30.394  27.491  1.00  0.00     0.163 HD
ATOM     31  O   UNL A   1      34.327  31.838  28.513  1.00  0.00    -0.269 OA
BRANCH  29  32
ATOM     32  C   UNL A   1      35.871  30.072  28.359  1.00  0.00     0.039 A 
ATOM     33  C   UNL A   1      36.763  30.096  27.286  1.00  0.00     0.014 A 
ATOM     34  C   UNL A   1      36.261  29.532  29.588  1.00  0.00     0.014 A 
ATOM     35  C   UNL A   1      38.077  29.666  27.475  1.00  0.00     0.010 A 
ATOM     36  C   UNL A   1      37.594  29.197  29.801  1.00  0.00     0.010 A 
ATOM     37  C   UNL A   1      38.518  29.269  28.750  1.00  0.00    -0.014 A 
BRANCH  37  38
ATOM     38  C   UNL A   1      39.948  28.967  29.011  1.00  0.00     0.031 A 
ATOM     39  C   UNL A   1      40.524  27.628  28.638  1.00  0.00     0.074 A 
ATOM     40  C   UNL A   1      40.708  29.879  29.654  1.00  0.00     0.049 A 
ATOM     41  N   UNL A   1      41.731  27.168  28.844  1.00  0.00    -0.248 NA
ATOM     42  C   UNL A   1      39.625  26.672  27.968  1.00  0.00     0.031 C 
ATOM     43  C   UNL A   1      40.248  31.193  30.116  1.00  0.00     0.029 A 
ATOM     44  N   UNL A   1      42.023  29.838  30.043  1.00  0.00    -0.354 N 
ATOM     45  C   UNL A   1      41.732  25.870  28.347  1.00  0.00     0.074 A 
ATOM     46  C   UNL A   1      40.396  25.598  27.867  1.00  0.00     0.031 C 
ATOM     47  C   UNL A   1      41.270  31.839  30.699  1.00  0.00     0.029 A 
ATOM     48  C   UNL A   1      42.442  30.972  30.700  1.00  0.00     0.049 A 
ATOM     49  H   UNL A   1      42.613  29.069  29.867  1.00  0.00     0.167 HD
ATOM     50  C   UNL A   1      42.759  24.991  28.284  1.00  0.00     0.031 A 
ATOM     51  C   UNL A   1      43.631  31.275  31.259  1.00  0.00     0.031 A 
ATOM     52  C   UNL A   1      44.091  25.273  28.747  1.00  0.00     0.049 A 
ATOM     53  C   UNL A   1      44.748  30.270  31.184  1.00  0.00     0.074 A 
ATOM     54  C   UNL A   1      45.218  24.475  28.652  1.00  0.00     0.029 A 
ATOM     55  N   UNL A   1      44.478  26.435  29.396  1.00  0.00    -0.354 N 
ATOM     56  N   UNL A   1      44.754  29.084  30.621  1.00  0.00    -0.248 NA
ATOM     57  C   UNL A   1      46.022  30.644  31.815  1.00  0.00     0.031 C 
ATOM     58  C   UNL A   1      46.269  25.125  29.306  1.00  0.00     0.029 A 
ATOM     59  C   UNL A   1      45.815  26.357  29.747  1.00  0.00     0.049 A 
ATOM     60  H   UNL A   1      43.888  27.202  29.581  1.00  0.00     0.167 HD
ATOM     61  C   UNL A   1      46.036  28.582  30.813  1.00  0.00     0.074 A 
ATOM     62  C   UNL A   1      46.785  29.601  31.518  1.00  0.00     0.031 C 
ATOM     63  C   UNL A   1      46.546  27.380  30.448  1.00  0.00     0.031 A 
BRANCH  50  64
ATOM     64  C   UNL A   1      42.495  23.631  27.693  1.00  0.00    -0.014 A 
ATOM     65  C   UNL A   1      42.798  23.351  26.349  1.00  0.00     0.010 A 
ATOM     66  C   UNL A   1      42.032  22.592  28.521  1.00  0.00     0.010 A 
ATOM     67  C   UNL A   1      42.632  22.059  25.841  1.00  0.00     0.020 A 
ATOM     68  C   UNL A   1      41.889  21.293  28.026  1.00  0.00     0.020 A 
ATOM     69  C   UNL A   1      42.186  21.036  26.685  1.00  0.00     0.054 A 
BRANCH  69  70
ATOM     70  S   UNL A   1      42.055  19.356  26.016  1.00  0.00     0.124 S 
ATOM     71  O   UNL A   1      42.885  19.442  24.818  1.00  0.00    -0.237 OA
ATOM     72  O   UNL A   1      42.596  18.539  27.099  1.00  0.00    -0.237 OA
ATOM     73  O   UNL A   1      40.623  19.191  25.769  1.00  0.00    -0.744 OA
ENDBRANCH  69  70
ENDBRANCH  50  64
BRANCH  51  74
ATOM     74  C   UNL A   1      43.825  32.575  31.960  1.00  0.00    -0.014 A 
ATOM     75  C   UNL A   1      43.576  32.694  33.340  1.00  0.00     0.010 A 
ATOM     76  C   UNL A   1      44.233  33.714  31.243  1.00  0.00     0.010 A 
ATOM     77  C   UNL A   1      43.692  33.933  33.977  1.00  0.00     0.020 A 
ATOM     78  C   UNL A   1      44.384  34.947  31.882  1.00  0.00     0.020 A 
ATOM     79  C   UNL A   1      44.092  35.053  33.243  1.00  0.00     0.054 A 
BRANCH  79  80
ATOM     80  S   UNL A   1      44.247  36.649  34.091  1.00  0.00     0.124 S 
ATOM     81  O   UNL A   1      44.205  36.250  35.495  1.00  0.00    -0.237 OA
ATOM     82  O   UNL A   1      45.536  37.138  33.610  1.00  0.00    -0.237 OA
ATOM     83  O   UNL A   1      43.086  37.401  33.619  1.00  0.00    -0.744 OA
ENDBRANCH  79  80
ENDBRANCH  51  74
BRANCH  63  84
ATOM     84  C   UNL A   1      47.989  27.109  30.783  1.00  0.00    -0.014 A 
ATOM     85  C   UNL A   1      49.024  27.538  29.933  1.00  0.00     0.010 A 
ATOM     86  C   UNL A   1      48.315  26.468  31.992  1.00  0.00     0.010 A 
ATOM     87  C   UNL A   1      50.358  27.298  30.269  1.00  0.00     0.020 A 
ATOM     88  C   UNL A   1      49.649  26.256  32.348  1.00  0.00     0.020 A 
ATOM     89  C   UNL A   1      50.663  26.661  31.477  1.00  0.00     0.054 A 
BRANCH  89  90
ATOM     90  S   UNL A   1      52.404  26.405  31.911  1.00  0.00     0.124 S 
ATOM     91  O   UNL A   1      52.527  27.180  33.143  1.00  0.00    -0.237 OA
ATOM     92  O   UNL A   1      52.485  24.956  32.068  1.00  0.00    -0.237 OA
ATOM     93  O   UNL A   1      53.131  26.944  30.762  1.00  0.00    -0.744 OA
ENDBRANCH  89  90
ENDBRANCH  63  84
ENDBRANCH  37  38
ENDBRANCH  29  32
ENDBRANCH  27  28
ENDBRANCH   1  27
TORSDOF 16
ENDMDL
MODEL 3
REMARK VINA RESULT:     -11.5      4.580     10.330
REMARK SMILES Cc1ccc(NC(=O)C[NH+]2CCC(C(=O)NCCCNC(=O)c3ccc(-c4c5nc(c(-c6ccc(S(=O)(=O)[O-])cc6)c6ccc([nH]6)c(-c6ccc(S(=O)(=O)[O-])cc6)c6nc(c(-c7ccc(S(=O)(=O)[O-])cc7)c7ccc4[nH]7)C=C6)C=C5)cc3)CC2)cc1Cl
REMARK SMILES IDX 18 1 17 2 16 3 14 4 15 5 13 7 10 8 11 9 84 10 12 12 83 13
REMARK SMILES IDX 9 14 7 15 6 16 8 18 5 19 1 20 2 21 3 22 86 23 4 24 85 25
REMARK SMILES IDX 87 26 19 27 20 28 21 29 22 31 23 32 24 33 82 34 25 35 81 36
REMARK SMILES IDX 26 37 27 38 28 39 75 40 29 41 80 42 74 43 76 44 30 45 79 46
REMARK SMILES IDX 73 47 72 48 31 50 61 51 42 52 60 53 43 54 46 55 59 56 77 57
REMARK SMILES IDX 44 58 45 59 58 61 78 62 47 63 32 64 33 65 41 66 34 67 40 68
REMARK SMILES IDX 35 69 36 70 37 71 38 72 39 73 62 74 63 75 71 76 64 77 70 78
REMARK SMILES IDX 65 79 66 80 67 81 68 82 69 83 48 84 49 85 57 86 50 87 56 88
REMARK SMILES IDX 51 89 52 90 53 91 54 92 55 93
REMARK H PARENT 16 6 10 11 6 17 20 30 76 49 46 60
REMARK Flexibility Score: inf
ROOT
ATOM      1  C   UNL A   1      39.630  22.145  26.373  1.00  0.00     0.042 C 
ENDROOT
BRANCH   1   2
ATOM      2  C   UNL A   1      38.211  22.617  26.124  1.00  0.00     0.117 C 
BRANCH   2   3
ATOM      3  N   UNL A   1      37.906  22.680  24.699  1.00  0.00    -0.356 N 
ATOM      4  C   UNL A   1      36.732  22.901  24.047  1.00  0.00     0.223 C 
ATOM      5  O   UNL A   1      36.736  22.865  22.814  1.00  0.00    -0.275 OA
ATOM      6  H   UNL A   1      38.681  22.539  24.109  1.00  0.00     0.163 HD
BRANCH   4   7
ATOM      7  C   UNL A   1      35.470  23.263  24.806  1.00  0.00     0.089 C 
ATOM      8  N   UNL A   1      32.555  23.186  24.653  1.00  0.00    -0.327 N 
ATOM      9  C   UNL A   1      33.229  24.481  24.724  1.00  0.00     0.263 C 
ATOM     10  C   UNL A   1      33.266  22.186  25.433  1.00  0.00     0.263 C 
ATOM     11  H   UNL A   1      32.578  22.899  23.674  1.00  0.00     0.348 HD
ATOM     12  C   UNL A   1      34.634  24.353  24.124  1.00  0.00     0.075 C 
ATOM     13  C   UNL A   1      34.726  21.974  25.125  1.00  0.00     0.075 C 
BRANCH   8  14
ATOM     14  C   UNL A   1      31.106  23.249  25.004  1.00  0.00     0.363 C 
BRANCH  14  15
ATOM     15  C   UNL A   1      30.774  23.765  26.419  1.00  0.00     0.279 C 
ATOM     16  N   UNL A   1      30.510  25.087  26.707  1.00  0.00    -0.321 N 
ATOM     17  H   UNL A   1      30.384  25.280  27.664  1.00  0.00     0.170 HD
ATOM     18  O   UNL A   1      30.653  22.966  27.358  1.00  0.00    -0.268 OA
BRANCH  16  19
ATOM     19  C   UNL A   1      30.392  26.208  25.863  1.00  0.00     0.042 A 
ATOM     20  C   UNL A   1      30.612  28.782  22.412  1.00  0.00     0.046 C 
ATOM     21  C   UNL A   1      30.448  28.007  23.692  1.00  0.00    -0.032 A 
ATOM     22  C   UNL A   1      29.475  27.001  23.760  1.00  0.00     0.007 A 
ATOM     23  C   UNL A   1      31.312  28.171  24.786  1.00  0.00     0.046 A 
ATOM     24  C   UNL A   1      29.427  26.127  24.852  1.00  0.00     0.026 A 
ATOM     25  C   UNL A   1      31.269  27.290  25.878  1.00  0.00     0.047 A 
ATOM     26  Cl  UNL A   1      32.553  29.375  24.781  1.00  0.00    -0.084 Cl
ENDBRANCH  16  19
ENDBRANCH  14  15
ENDBRANCH   8  14
ENDBRANCH   4   7
ENDBRANCH   2   3
ENDBRANCH   1   2
BRANCH   1  27
ATOM     27  C   UNL A   1      40.525  23.228  26.952  1.00  0.00     0.118 C 
BRANCH  27  28
ATOM     28  N   UNL A   1      41.145  24.054  25.924  1.00  0.00    -0.352 N 
ATOM     29  C   UNL A   1      41.518  25.375  25.974  1.00  0.00     0.251 C 
ATOM     30  H   UNL A   1      41.323  23.599  25.069  1.00  0.00     0.163 HD
ATOM     31  O   UNL A   1      41.856  25.956  24.945  1.00  0.00    -0.269 OA
BRANCH  29  32
ATOM     32  C   UNL A   1      41.475  26.097  27.261  1.00  0.00     0.039 A 
ATOM     33  C   UNL A   1      42.529  26.949  27.595  1.00  0.00     0.014 A 
ATOM     34  C   UNL A   1      40.375  25.969  28.114  1.00  0.00     0.014 A 
ATOM     35  C   UNL A   1      42.433  27.746  28.737  1.00  0.00     0.010 A 
ATOM     36  C   UNL A   1      40.237  26.833  29.195  1.00  0.00     0.010 A 
ATOM     37  C   UNL A   1      41.261  27.737  29.513  1.00  0.00    -0.014 A 
BRANCH  37  38
ATOM     38  C   UNL A   1      41.071  28.693  30.633  1.00  0.00     0.031 A 
ATOM     39  C   UNL A   1      41.900  28.576  31.883  1.00  0.00     0.074 A 
ATOM     40  C   UNL A   1      40.095  29.622  30.548  1.00  0.00     0.049 A 
ATOM     41  N   UNL A   1      41.830  29.282  32.982  1.00  0.00    -0.248 NA
ATOM     42  C   UNL A   1      42.923  27.517  31.915  1.00  0.00     0.031 C 
ATOM     43  C   UNL A   1      39.188  29.799  29.409  1.00  0.00     0.029 A 
ATOM     44  N   UNL A   1      39.693  30.585  31.439  1.00  0.00    -0.354 N 
ATOM     45  C   UNL A   1      42.784  28.744  33.838  1.00  0.00     0.074 A 
ATOM     46  C   UNL A   1      43.391  27.627  33.151  1.00  0.00     0.031 C 
ATOM     47  C   UNL A   1      38.358  30.823  29.660  1.00  0.00     0.029 A 
ATOM     48  C   UNL A   1      38.635  31.345  30.994  1.00  0.00     0.049 A 
ATOM     49  H   UNL A   1      40.122  30.721  32.315  1.00  0.00     0.167 HD
ATOM     50  C   UNL A   1      43.132  29.155  35.080  1.00  0.00     0.031 A 
ATOM     51  C   UNL A   1      37.950  32.336  31.597  1.00  0.00     0.031 A 
ATOM     52  C   UNL A   1      42.536  30.280  35.753  1.00  0.00     0.049 A 
ATOM     53  C   UNL A   1      38.352  32.760  32.983  1.00  0.00     0.074 A 
ATOM     54  C   UNL A   1      42.877  30.822  36.979  1.00  0.00     0.029 A 
ATOM     55  N   UNL A   1      41.477  31.028  35.266  1.00  0.00    -0.354 N 
ATOM     56  N   UNL A   1      39.323  32.301  33.736  1.00  0.00    -0.248 NA
ATOM     57  C   UNL A   1      37.570  33.841  33.601  1.00  0.00     0.031 C 
ATOM     58  C   UNL A   1      41.979  31.855  37.265  1.00  0.00     0.029 A 
ATOM     59  C   UNL A   1      41.123  31.999  36.186  1.00  0.00     0.049 A 
ATOM     60  H   UNL A   1      41.040  30.888  34.394  1.00  0.00     0.167 HD
ATOM     61  C   UNL A   1      39.279  33.051  34.906  1.00  0.00     0.074 A 
ATOM     62  C   UNL A   1      38.207  34.011  34.751  1.00  0.00     0.031 C 
ATOM     63  C   UNL A   1      40.052  32.948  36.016  1.00  0.00     0.031 A 
BRANCH  50  64
ATOM     64  C   UNL A   1      44.207  28.392  35.807  1.00  0.00    -0.014 A 
ATOM     65  C   UNL A   1      45.557  28.771  35.712  1.00  0.00     0.010 A 
ATOM     66  C   UNL A   1      43.849  27.345  36.676  1.00  0.00     0.010 A 
ATOM     67  C   UNL A   1      46.532  28.108  36.464  1.00  0.00     0.020 A 
ATOM     68  C   UNL A   1      44.816  26.697  37.450  1.00  0.00     0.020 A 
ATOM     69  C   UNL A   1      46.154  27.081  37.335  1.00  0.00     0.054 A 
BRANCH  69  70
ATOM     70  S   UNL A   1      47.431  26.293  38.353  1.00  0.00     0.124 S 
ATOM     71  O   UNL A   1      48.436  27.348  38.446  1.00  0.00    -0.237 OA
ATOM     72  O   UNL A   1      46.714  25.997  39.590  1.00  0.00    -0.237 OA
ATOM     73  O   UNL A   1      47.828  25.124  37.570  1.00  0.00    -0.744 OA
ENDBRANCH  69  70
ENDBRANCH  50  64
BRANCH  51  74
ATOM     74  C   UNL A   1      36.798  32.984  30.909  1.00  0.00    -0.014 A 
ATOM     75  C   UNL A   1      37.007  33.918  29.878  1.00  0.00     0.010 A 
ATOM     76  C   UNL A   1      35.480  32.691  31.304  1.00  0.00     0.010 A 
ATOM     77  C   UNL A   1      35.923  34.575  29.286  1.00  0.00     0.020 A 
ATOM     78  C   UNL A   1      34.392  33.318  30.691  1.00  0.00     0.020 A 
ATOM     79  C   UNL A   1      34.622  34.273  29.699  1.00  0.00     0.054 A 
BRANCH  79  80
ATOM     80  S   UNL A   1      33.231  35.128  28.910  1.00  0.00     0.124 S 
ATOM     81  O   UNL A   1      33.897  36.255  28.264  1.00  0.00    -0.237 OA
ATOM     82  O   UNL A   1      32.701  34.106  28.011  1.00  0.00    -0.237 OA
ATOM     83  O   UNL A   1      32.361  35.473  30.032  1.00  0.00    -0.744 OA
ENDBRANCH  79  80
ENDBRANCH  51  74
BRANCH  63  84
ATOM     84  C   UNL A   1      39.781  33.912  37.141  1.00  0.00    -0.014 A 
ATOM     85  C   UNL A   1      38.900  33.580  38.184  1.00  0.00     0.010 A 
ATOM     86  C   UNL A   1      40.462  35.142  37.181  1.00  0.00     0.010 A 
ATOM     87  C   UNL A   1      38.677  34.477  39.232  1.00  0.00     0.020 A 
ATOM     88  C   UNL A   1      40.266  36.028  38.244  1.00  0.00     0.020 A 
ATOM     89  C   UNL A   1      39.364  35.695  39.257  1.00  0.00     0.054 A 
BRANCH  89  90
ATOM     90  S   UNL A   1      39.091  36.820  40.652  1.00  0.00     0.124 S 
ATOM     91  O   UNL A   1      38.393  35.960  41.603  1.00  0.00    -0.237 OA
ATOM     92  O   UNL A   1      40.451  37.199  41.027  1.00  0.00    -0.237 OA
ATOM     93  O   UNL A   1      38.285  37.896  40.078  1.00  0.00    -0.744 OA
ENDBRANCH  89  90
ENDBRANCH  63  84
ENDBRANCH  37  38
ENDBRANCH  29  32
ENDBRANCH  27  28
ENDBRANCH   1  27
TORSDOF 16
ENDMDL
