MODEL 1
REMARK VINA RESULT:     -12.3      0.000      0.000
REMARK SMILES Cc1c(C(=O)N[C@H]2C=C[C@@H](C(=O)NCCCNC(=O)c3ccc(-c4c5nc(c(-c6ccc(S(=O)(=O)[O-])cc6)c6ccc([nH]6)c(-c6ccc(S(=O)(=O)[O-])cc6)c6nc(c(-c7ccc(S(=O)(=O)[O-])cc7)c7ccc4[nH]7)C=C6)C=C5)cc3)C2)oc2ccccc12
REMARK SMILES IDX 15 1 14 2 13 3 11 4 12 5 10 7 7 8 8 9 80 10 9 11 6 12 4 13
REMARK SMILES IDX 5 14 3 16 1 17 2 18 87 19 81 20 82 21 86 22 83 23 85 24
REMARK SMILES IDX 84 25 16 26 17 27 18 28 19 30 20 31 21 32 79 33 22 34 78 35
REMARK SMILES IDX 23 36 24 37 25 38 72 39 26 40 77 41 71 42 73 43 27 44 76 45
REMARK SMILES IDX 70 46 69 47 28 49 58 50 39 51 57 52 40 53 43 54 56 55 74 56
REMARK SMILES IDX 41 57 42 58 55 60 75 61 44 62 29 63 30 64 38 65 31 66 37 67
REMARK SMILES IDX 32 68 33 69 34 70 35 71 36 72 59 73 60 74 68 75 61 76 67 77
REMARK SMILES IDX 62 78 63 79 64 80 65 81 66 82 45 83 46 84 54 85 47 86 53 87
REMARK SMILES IDX 48 88 49 89 50 90 51 91 52 92
REMARK H PARENT 13 6 6 15 17 29 73 48 43 59
REMARK Flexibility Score: inf
ROOT
ATOM      1  C   UNL A   1      32.001  30.997  26.804  1.00  0.00     0.042 C 
ENDROOT
BRANCH   1   2
ATOM      2  C   UNL A   1      32.318  29.960  25.749  1.00  0.00     0.117 C 
BRANCH   2   3
ATOM      3  N   UNL A   1      31.311  29.936  24.704  1.00  0.00    -0.356 N 
ATOM      4  C   UNL A   1      30.809  28.891  24.001  1.00  0.00     0.227 C 
ATOM      5  O   UNL A   1      30.018  29.131  23.085  1.00  0.00    -0.274 OA
ATOM      6  H   UNL A   1      30.934  30.816  24.470  1.00  0.00     0.163 HD
BRANCH   4   7
ATOM      7  C   UNL A   1      31.233  27.462  24.295  1.00  0.00     0.103 C 
ATOM      8  C   UNL A   1      30.706  25.413  25.339  1.00  0.00     0.106 C 
ATOM      9  C   UNL A   1      30.386  25.296  23.895  1.00  0.00    -0.006 C 
ATOM     10  C   UNL A   1      30.610  26.912  25.578  1.00  0.00     0.047 C 
ATOM     11  C   UNL A   1      30.825  26.412  23.284  1.00  0.00    -0.016 C 
BRANCH   8  12
ATOM     12  N   UNL A   1      29.974  24.630  26.251  1.00  0.00    -0.343 N 
ATOM     13  C   UNL A   1      30.367  23.406  26.763  1.00  0.00     0.287 C 
ATOM     14  O   UNL A   1      29.594  22.955  27.615  1.00  0.00    -0.266 OA
ATOM     15  H   UNL A   1      29.106  24.985  26.553  1.00  0.00     0.164 HD
BRANCH  13  16
ATOM     16  C   UNL A   1      31.574  22.657  26.334  1.00  0.00     0.195 A 
ATOM     17  C   UNL A   1      33.983  23.733  26.813  1.00  0.00     0.049 C 
ATOM     18  C   UNL A   1      32.985  22.745  26.310  1.00  0.00     0.008 A 
ATOM     19  C   UNL A   1      33.462  21.573  25.635  1.00  0.00     0.024 A 
ATOM     20  O   UNL A   1      31.237  21.447  25.741  1.00  0.00    -0.451 OA
ATOM     21  C   UNL A   1      32.356  20.813  25.333  1.00  0.00     0.135 A 
ATOM     22  C   UNL A   1      34.734  21.090  25.270  1.00  0.00     0.012 A 
ATOM     23  C   UNL A   1      32.410  19.575  24.700  1.00  0.00     0.048 A 
ATOM     24  C   UNL A   1      34.831  19.853  24.629  1.00  0.00     0.001 A 
ATOM     25  C   UNL A   1      33.684  19.107  24.353  1.00  0.00     0.004 A 
ENDBRANCH  13  16
ENDBRANCH   8  12
ENDBRANCH   4   7
ENDBRANCH   2   3
ENDBRANCH   1   2
BRANCH   1  26
ATOM     26  C   UNL A   1      33.245  31.695  27.308  1.00  0.00     0.118 C 
BRANCH  26  27
ATOM     27  N   UNL A   1      32.994  33.107  27.571  1.00  0.00    -0.352 N 
ATOM     28  C   UNL A   1      33.459  33.895  28.593  1.00  0.00     0.251 C 
ATOM     29  H   UNL A   1      32.407  33.559  26.923  1.00  0.00     0.163 HD
ATOM     30  O   UNL A   1      32.889  34.946  28.860  1.00  0.00    -0.269 OA
BRANCH  28  31
ATOM     31  C   UNL A   1      34.654  33.467  29.343  1.00  0.00     0.039 A 
ATOM     32  C   UNL A   1      35.903  33.999  29.018  1.00  0.00     0.014 A 
ATOM     33  C   UNL A   1      34.537  32.505  30.350  1.00  0.00     0.014 A 
ATOM     34  C   UNL A   1      37.028  33.569  29.718  1.00  0.00     0.010 A 
ATOM     35  C   UNL A   1      35.629  32.189  31.138  1.00  0.00     0.010 A 
ATOM     36  C   UNL A   1      36.894  32.667  30.786  1.00  0.00    -0.014 A 
BRANCH  36  37
ATOM     37  C   UNL A   1      38.074  32.117  31.489  1.00  0.00     0.031 A 
ATOM     38  C   UNL A   1      38.444  32.662  32.845  1.00  0.00     0.074 A 
ATOM     39  C   UNL A   1      38.825  31.173  30.893  1.00  0.00     0.049 A 
ATOM     40  N   UNL A   1      39.437  32.325  33.626  1.00  0.00    -0.248 NA
ATOM     41  C   UNL A   1      37.612  33.756  33.377  1.00  0.00     0.031 C 
ATOM     42  C   UNL A   1      38.587  30.614  29.560  1.00  0.00     0.029 A 
ATOM     43  N   UNL A   1      39.934  30.509  31.341  1.00  0.00    -0.354 N 
ATOM     44  C   UNL A   1      39.364  33.186  34.717  1.00  0.00     0.074 A 
ATOM     45  C   UNL A   1      38.281  34.105  34.464  1.00  0.00     0.031 C 
ATOM     46  C   UNL A   1      39.485  29.644  29.327  1.00  0.00     0.029 A 
ATOM     47  C   UNL A   1      40.380  29.541  30.474  1.00  0.00     0.049 A 
ATOM     48  H   UNL A   1      40.370  30.704  32.201  1.00  0.00     0.167 HD
ATOM     49  C   UNL A   1      40.110  33.189  35.847  1.00  0.00     0.031 A 
ATOM     50  C   UNL A   1      41.384  28.655  30.607  1.00  0.00     0.031 A 
ATOM     51  C   UNL A   1      41.164  32.247  36.099  1.00  0.00     0.049 A 
ATOM     52  C   UNL A   1      42.182  28.655  31.881  1.00  0.00     0.074 A 
ATOM     53  C   UNL A   1      41.946  32.108  37.231  1.00  0.00     0.029 A 
ATOM     54  N   UNL A   1      41.580  31.276  35.200  1.00  0.00    -0.354 N 
ATOM     55  N   UNL A   1      42.058  29.429  32.934  1.00  0.00    -0.248 NA
ATOM     56  C   UNL A   1      43.241  27.645  31.991  1.00  0.00     0.031 C 
ATOM     57  C   UNL A   1      42.866  31.079  36.997  1.00  0.00     0.029 A 
ATOM     58  C   UNL A   1      42.618  30.541  35.742  1.00  0.00     0.049 A 
ATOM     59  H   UNL A   1      41.193  31.132  34.306  1.00  0.00     0.167 HD
ATOM     60  C   UNL A   1      43.000  28.974  33.849  1.00  0.00     0.074 A 
ATOM     61  C   UNL A   1      43.679  27.855  33.225  1.00  0.00     0.031 C 
ATOM     62  C   UNL A   1      43.276  29.434  35.096  1.00  0.00     0.031 A 
BRANCH  49  63
ATOM     63  C   UNL A   1      39.803  34.252  36.870  1.00  0.00    -0.014 A 
ATOM     64  C   UNL A   1      40.425  35.514  36.825  1.00  0.00     0.010 A 
ATOM     65  C   UNL A   1      38.899  33.976  37.911  1.00  0.00     0.010 A 
ATOM     66  C   UNL A   1      40.208  36.450  37.840  1.00  0.00     0.020 A 
ATOM     67  C   UNL A   1      38.650  34.923  38.910  1.00  0.00     0.020 A 
ATOM     68  C   UNL A   1      39.330  36.143  38.883  1.00  0.00     0.054 A 
BRANCH  68  69
ATOM     69  S   UNL A   1      39.082  37.364  40.201  1.00  0.00     0.124 S 
ATOM     70  O   UNL A   1      38.528  36.540  41.272  1.00  0.00    -0.237 OA
ATOM     71  O   UNL A   1      40.432  37.868  40.432  1.00  0.00    -0.237 OA
ATOM     72  O   UNL A   1      38.153  38.325  39.611  1.00  0.00    -0.744 OA
ENDBRANCH  68  69
ENDBRANCH  49  63
BRANCH  50  73
ATOM     73  C   UNL A   1      41.624  27.648  29.541  1.00  0.00    -0.014 A 
ATOM     74  C   UNL A   1      42.777  27.735  28.739  1.00  0.00     0.010 A 
ATOM     75  C   UNL A   1      40.734  26.577  29.347  1.00  0.00     0.010 A 
ATOM     76  C   UNL A   1      43.029  26.777  27.754  1.00  0.00     0.020 A 
ATOM     77  C   UNL A   1      40.996  25.602  28.379  1.00  0.00     0.020 A 
ATOM     78  C   UNL A   1      42.138  25.713  27.583  1.00  0.00     0.054 A 
BRANCH  78  79
ATOM     79  S   UNL A   1      42.522  24.448  26.340  1.00  0.00     0.124 S 
ATOM     80  O   UNL A   1      41.405  23.521  26.496  1.00  0.00    -0.237 OA
ATOM     81  O   UNL A   1      42.536  25.220  25.099  1.00  0.00    -0.237 OA
ATOM     82  O   UNL A   1      43.823  23.938  26.762  1.00  0.00    -0.744 OA
ENDBRANCH  78  79
ENDBRANCH  50  73
BRANCH  62  83
ATOM     83  C   UNL A   1      44.322  28.692  35.881  1.00  0.00    -0.014 A 
ATOM     84  C   UNL A   1      45.674  29.073  35.843  1.00  0.00     0.010 A 
ATOM     85  C   UNL A   1      43.933  27.614  36.697  1.00  0.00     0.010 A 
ATOM     86  C   UNL A   1      46.627  28.356  36.571  1.00  0.00     0.020 A 
ATOM     87  C   UNL A   1      44.878  26.915  37.450  1.00  0.00     0.020 A 
ATOM     88  C   UNL A   1      46.223  27.279  37.366  1.00  0.00     0.054 A 
BRANCH  88  89
ATOM     89  S   UNL A   1      47.474  26.375  38.318  1.00  0.00     0.124 S 
ATOM     90  O   UNL A   1      48.685  26.626  37.539  1.00  0.00    -0.237 OA
ATOM     91  O   UNL A   1      47.420  27.031  39.623  1.00  0.00    -0.237 OA
ATOM     92  O   UNL A   1      46.993  24.996  38.299  1.00  0.00    -0.744 OA
ENDBRANCH  88  89
ENDBRANCH  62  83
ENDBRANCH  36  37
ENDBRANCH  28  31
ENDBRANCH  26  27
ENDBRANCH   1  26
TORSDOF 15
ENDMDL
MODEL 2
REMARK VINA RESULT:     -12.2      6.365     11.729
REMARK SMILES Cc1c(C(=O)N[C@H]2C=C[C@@H](C(=O)NCCCNC(=O)c3ccc(-c4c5nc(c(-c6ccc(S(=O)(=O)[O-])cc6)c6ccc([nH]6)c(-c6ccc(S(=O)(=O)[O-])cc6)c6nc(c(-c7ccc(S(=O)(=O)[O-])cc7)c7ccc4[nH]7)C=C6)C=C5)cc3)C2)oc2ccccc12
REMARK SMILES IDX 15 1 14 2 13 3 11 4 12 5 10 7 7 8 8 9 80 10 9 11 6 12 4 13
REMARK SMILES IDX 5 14 3 16 1 17 2 18 87 19 81 20 82 21 86 22 83 23 85 24
REMARK SMILES IDX 84 25 16 26 17 27 18 28 19 30 20 31 21 32 79 33 22 34 78 35
REMARK SMILES IDX 23 36 24 37 25 38 72 39 26 40 77 41 71 42 73 43 27 44 76 45
REMARK SMILES IDX 70 46 69 47 28 49 58 50 39 51 57 52 40 53 43 54 56 55 74 56
REMARK SMILES IDX 41 57 42 58 55 60 75 61 44 62 29 63 30 64 38 65 31 66 37 67
REMARK SMILES IDX 32 68 33 69 34 70 35 71 36 72 59 73 60 74 68 75 61 76 67 77
REMARK SMILES IDX 62 78 63 79 64 80 65 81 66 82 45 83 46 84 54 85 47 86 53 87
REMARK SMILES IDX 48 88 49 89 50 90 51 91 52 92
REMARK H PARENT 13 6 6 15 17 29 73 48 43 59
REMARK Flexibility Score: inf
ROOT
ATOM      1  C   UNL A   1      38.445  19.843  25.334  1.00  0.00     0.042 C 
ENDROOT
BRANCH   1   2
ATOM      2  C   UNL A   1      37.505  20.964  24.948  1.00  0.00     0.117 C 
BRANCH   2   3
ATOM      3  N   UNL A   1      37.701  22.136  25.782  1.00  0.00    -0.356 N 
ATOM      4  C   UNL A   1      36.981  23.282  25.858  1.00  0.00     0.227 C 
ATOM      5  O   UNL A   1      37.401  24.188  26.585  1.00  0.00    -0.274 OA
ATOM      6  H   UNL A   1      38.477  22.091  26.387  1.00  0.00     0.163 HD
BRANCH   4   7
ATOM      7  C   UNL A   1      35.711  23.476  25.046  1.00  0.00     0.103 C 
ATOM      8  C   UNL A   1      33.353  23.520  25.033  1.00  0.00     0.106 C 
ATOM      9  C   UNL A   1      33.844  24.918  25.082  1.00  0.00    -0.006 C 
ATOM     10  C   UNL A   1      34.510  22.741  25.640  1.00  0.00     0.047 C 
ATOM     11  C   UNL A   1      35.183  24.890  24.940  1.00  0.00    -0.016 C 
BRANCH   8  12
ATOM     12  N   UNL A   1      32.097  23.232  25.600  1.00  0.00    -0.343 N 
ATOM     13  C   UNL A   1      31.461  22.004  25.576  1.00  0.00     0.287 C 
ATOM     14  O   UNL A   1      30.405  21.981  26.218  1.00  0.00    -0.266 OA
ATOM     15  H   UNL A   1      31.629  23.971  26.054  1.00  0.00     0.164 HD
BRANCH  13  16
ATOM     16  C   UNL A   1      31.947  20.813  24.836  1.00  0.00     0.195 A 
ATOM     17  C   UNL A   1      32.069  20.935  22.160  1.00  0.00     0.049 C 
ATOM     18  C   UNL A   1      32.181  20.341  23.524  1.00  0.00     0.008 A 
ATOM     19  C   UNL A   1      32.627  18.983  23.646  1.00  0.00     0.024 A 
ATOM     20  O   UNL A   1      32.295  19.784  25.701  1.00  0.00    -0.451 OA
ATOM     21  C   UNL A   1      32.697  18.709  24.992  1.00  0.00     0.135 A 
ATOM     22  C   UNL A   1      32.988  17.974  22.731  1.00  0.00     0.012 A 
ATOM     23  C   UNL A   1      33.123  17.493  25.519  1.00  0.00     0.048 A 
ATOM     24  C   UNL A   1      33.417  16.739  23.220  1.00  0.00     0.001 A 
ATOM     25  C   UNL A   1      33.487  16.506  24.594  1.00  0.00     0.004 A 
ENDBRANCH  13  16
ENDBRANCH   8  12
ENDBRANCH   4   7
ENDBRANCH   2   3
ENDBRANCH   1   2
BRANCH   1  26
ATOM     26  C   UNL A   1      39.650  20.349  26.098  1.00  0.00     0.118 C 
BRANCH  26  27
ATOM     27  N   UNL A   1      40.743  19.386  26.064  1.00  0.00    -0.352 N 
ATOM     28  C   UNL A   1      42.094  19.609  25.967  1.00  0.00     0.251 C 
ATOM     29  H   UNL A   1      40.475  18.440  26.119  1.00  0.00     0.163 HD
ATOM     30  O   UNL A   1      42.837  18.705  25.607  1.00  0.00    -0.269 OA
BRANCH  28  31
ATOM     31  C   UNL A   1      42.628  20.938  26.315  1.00  0.00     0.039 A 
ATOM     32  C   UNL A   1      42.775  21.295  27.656  1.00  0.00     0.014 A 
ATOM     33  C   UNL A   1      42.951  21.847  25.303  1.00  0.00     0.014 A 
ATOM     34  C   UNL A   1      43.259  22.563  27.973  1.00  0.00     0.010 A 
ATOM     35  C   UNL A   1      43.565  23.045  25.617  1.00  0.00     0.010 A 
ATOM     36  C   UNL A   1      43.662  23.441  26.954  1.00  0.00    -0.014 A 
BRANCH  36  37
ATOM     37  C   UNL A   1      44.090  24.825  27.249  1.00  0.00     0.031 A 
ATOM     38  C   UNL A   1      45.528  25.217  27.019  1.00  0.00     0.074 A 
ATOM     39  C   UNL A   1      43.206  25.703  27.757  1.00  0.00     0.049 A 
ATOM     40  N   UNL A   1      46.110  26.371  27.216  1.00  0.00    -0.248 NA
ATOM     41  C   UNL A   1      46.441  24.164  26.541  1.00  0.00     0.031 C 
ATOM     42  C   UNL A   1      41.804  25.413  28.069  1.00  0.00     0.029 A 
ATOM     43  N   UNL A   1      43.357  27.022  28.090  1.00  0.00    -0.354 N 
ATOM     44  C   UNL A   1      47.454  26.169  26.918  1.00  0.00     0.074 A 
ATOM     45  C   UNL A   1      47.615  24.770  26.602  1.00  0.00     0.031 C 
ATOM     46  C   UNL A   1      41.207  26.541  28.485  1.00  0.00     0.029 A 
ATOM     47  C   UNL A   1      42.191  27.618  28.505  1.00  0.00     0.049 A 
ATOM     48  H   UNL A   1      44.217  27.498  28.035  1.00  0.00     0.167 HD
ATOM     49  C   UNL A   1      48.460  27.073  26.877  1.00  0.00     0.031 A 
ATOM     50  C   UNL A   1      41.944  28.898  28.838  1.00  0.00     0.031 A 
ATOM     51  C   UNL A   1      48.279  28.469  27.163  1.00  0.00     0.049 A 
ATOM     52  C   UNL A   1      43.067  29.894  28.759  1.00  0.00     0.074 A 
ATOM     53  C   UNL A   1      49.204  29.493  27.092  1.00  0.00     0.029 A 
ATOM     54  N   UNL A   1      47.080  29.036  27.572  1.00  0.00    -0.354 N 
ATOM     55  N   UNL A   1      44.318  29.703  28.410  1.00  0.00    -0.248 NA
ATOM     56  C   UNL A   1      42.736  31.284  29.097  1.00  0.00     0.031 C 
ATOM     57  C   UNL A   1      48.575  30.675  27.502  1.00  0.00     0.029 A 
ATOM     58  C   UNL A   1      47.243  30.394  27.773  1.00  0.00     0.049 A 
ATOM     59  H   UNL A   1      46.237  28.543  27.701  1.00  0.00     0.167 HD
ATOM     60  C   UNL A   1      44.917  30.957  28.450  1.00  0.00     0.074 A 
ATOM     61  C   UNL A   1      43.887  31.896  28.851  1.00  0.00     0.031 C 
ATOM     62  C   UNL A   1      46.199  31.304  28.174  1.00  0.00     0.031 A 
BRANCH  49  63
ATOM     63  C   UNL A   1      49.832  26.561  26.520  1.00  0.00    -0.014 A 
ATOM     64  C   UNL A   1      50.281  26.537  25.186  1.00  0.00     0.010 A 
ATOM     65  C   UNL A   1      50.675  26.068  27.532  1.00  0.00     0.010 A 
ATOM     66  C   UNL A   1      51.513  25.964  24.862  1.00  0.00     0.020 A 
ATOM     67  C   UNL A   1      51.925  25.525  27.215  1.00  0.00     0.020 A 
ATOM     68  C   UNL A   1      52.323  25.450  25.879  1.00  0.00     0.054 A 
BRANCH  68  69
ATOM     69  S   UNL A   1      53.907  24.690  25.431  1.00  0.00     0.124 S 
ATOM     70  O   UNL A   1      54.356  25.554  24.341  1.00  0.00    -0.237 OA
ATOM     71  O   UNL A   1      54.675  24.791  26.668  1.00  0.00    -0.237 OA
ATOM     72  O   UNL A   1      53.540  23.332  25.037  1.00  0.00    -0.744 OA
ENDBRANCH  68  69
ENDBRANCH  49  63
BRANCH  50  73
ATOM     73  C   UNL A   1      40.561  29.314  29.190  1.00  0.00    -0.014 A 
ATOM     74  C   UNL A   1      40.201  29.488  30.539  1.00  0.00     0.010 A 
ATOM     75  C   UNL A   1      39.612  29.582  28.188  1.00  0.00     0.010 A 
ATOM     76  C   UNL A   1      38.914  29.909  30.881  1.00  0.00     0.020 A 
ATOM     77  C   UNL A   1      38.329  30.027  28.525  1.00  0.00     0.020 A 
ATOM     78  C   UNL A   1      37.986  30.179  29.870  1.00  0.00     0.054 A 
BRANCH  78  79
ATOM     79  S   UNL A   1      36.341  30.785  30.338  1.00  0.00     0.124 S 
ATOM     80  O   UNL A   1      35.988  29.889  31.435  1.00  0.00    -0.237 OA
ATOM     81  O   UNL A   1      36.612  32.172  30.714  1.00  0.00    -0.237 OA
ATOM     82  O   UNL A   1      35.557  30.621  29.117  1.00  0.00    -0.744 OA
ENDBRANCH  78  79
ENDBRANCH  50  73
BRANCH  62  83
ATOM     83  C   UNL A   1      46.542  32.766  28.249  1.00  0.00    -0.014 A 
ATOM     84  C   UNL A   1      47.007  33.350  29.440  1.00  0.00     0.010 A 
ATOM     85  C   UNL A   1      46.425  33.559  27.093  1.00  0.00     0.010 A 
ATOM     86  C   UNL A   1      47.304  34.714  29.485  1.00  0.00     0.020 A 
ATOM     87  C   UNL A   1      46.750  34.916  27.127  1.00  0.00     0.020 A 
ATOM     88  C   UNL A   1      47.168  35.489  28.329  1.00  0.00     0.054 A 
BRANCH  88  89
ATOM     89  S   UNL A   1      47.578  37.254  28.405  1.00  0.00     0.124 S 
ATOM     90  O   UNL A   1      47.457  37.530  29.834  1.00  0.00    -0.237 OA
ATOM     91  O   UNL A   1      48.937  37.292  27.871  1.00  0.00    -0.237 OA
ATOM     92  O   UNL A   1      46.565  37.881  27.559  1.00  0.00    -0.744 OA
ENDBRANCH  88  89
ENDBRANCH  62  83
ENDBRANCH  36  37
ENDBRANCH  28  31
ENDBRANCH  26  27
ENDBRANCH   1  26
TORSDOF 15
ENDMDL
MODEL 3
REMARK VINA RESULT:     -12.2      2.600      9.259
REMARK SMILES Cc1c(C(=O)N[C@H]2C=C[C@@H](C(=O)NCCCNC(=O)c3ccc(-c4c5nc(c(-c6ccc(S(=O)(=O)[O-])cc6)c6ccc([nH]6)c(-c6ccc(S(=O)(=O)[O-])cc6)c6nc(c(-c7ccc(S(=O)(=O)[O-])cc7)c7ccc4[nH]7)C=C6)C=C5)cc3)C2)oc2ccccc12
REMARK SMILES IDX 15 1 14 2 13 3 11 4 12 5 10 7 7 8 8 9 80 10 9 11 6 12 4 13
REMARK SMILES IDX 5 14 3 16 1 17 2 18 87 19 81 20 82 21 86 22 83 23 85 24
REMARK SMILES IDX 84 25 16 26 17 27 18 28 19 30 20 31 21 32 79 33 22 34 78 35
REMARK SMILES IDX 23 36 24 37 25 38 72 39 26 40 77 41 71 42 73 43 27 44 76 45
REMARK SMILES IDX 70 46 69 47 28 49 58 50 39 51 57 52 40 53 43 54 56 55 74 56
REMARK SMILES IDX 41 57 42 58 55 60 75 61 44 62 29 63 30 64 38 65 31 66 37 67
REMARK SMILES IDX 32 68 33 69 34 70 35 71 36 72 59 73 60 74 68 75 61 76 67 77
REMARK SMILES IDX 62 78 63 79 64 80 65 81 66 82 45 83 46 84 54 85 47 86 53 87
REMARK SMILES IDX 48 88 49 89 50 90 51 91 52 92
REMARK H PARENT 13 6 6 15 17 29 73 48 43 59
REMARK Flexibility Score: inf
ROOT
ATOM      1  C   UNL A   1      41.149  22.075  27.286  1.00  0.00     0.042 C 
ENDROOT
BRANCH   1   2
ATOM      2  C   UNL A   1      39.836  22.462  26.641  1.00  0.00     0.117 C 
BRANCH   2   3
ATOM      3  N   UNL A   1      39.276  21.365  25.874  1.00  0.00    -0.356 N 
ATOM      4  C   UNL A   1      38.058  21.241  25.290  1.00  0.00     0.227 C 
ATOM      5  O   UNL A   1      37.770  20.162  24.764  1.00  0.00    -0.274 OA
ATOM      6  H   UNL A   1      39.873  20.590  25.758  1.00  0.00     0.163 HD
BRANCH   4   7
ATOM      7  C   UNL A   1      37.050  22.378  25.313  1.00  0.00     0.103 C 
ATOM      8  C   UNL A   1      35.321  23.516  24.183  1.00  0.00     0.106 C 
ATOM      9  C   UNL A   1      34.705  22.606  25.180  1.00  0.00    -0.006 C 
ATOM     10  C   UNL A   1      36.662  22.853  23.913  1.00  0.00     0.047 C 
ATOM     11  C   UNL A   1      35.696  22.072  25.917  1.00  0.00    -0.016 C 
BRANCH   8  12
ATOM     12  N   UNL A   1      34.585  23.836  23.026  1.00  0.00    -0.343 N 
ATOM     13  C   UNL A   1      33.668  24.865  22.910  1.00  0.00     0.287 C 
ATOM     14  O   UNL A   1      33.217  24.999  21.766  1.00  0.00    -0.266 OA
ATOM     15  H   UNL A   1      34.738  23.278  22.229  1.00  0.00     0.164 HD
BRANCH  13  16
ATOM     16  C   UNL A   1      33.215  25.726  24.030  1.00  0.00     0.195 A 
ATOM     17  C   UNL A   1      31.833  24.597  26.031  1.00  0.00     0.049 C 
ATOM     18  C   UNL A   1      32.490  25.679  25.243  1.00  0.00     0.008 A 
ATOM     19  C   UNL A   1      32.439  27.021  25.747  1.00  0.00     0.024 A 
ATOM     20  O   UNL A   1      33.622  27.043  23.855  1.00  0.00    -0.451 OA
ATOM     21  C   UNL A   1      33.161  27.800  24.873  1.00  0.00     0.135 A 
ATOM     22  C   UNL A   1      31.853  27.634  26.873  1.00  0.00     0.012 A 
ATOM     23  C   UNL A   1      33.372  29.166  25.038  1.00  0.00     0.048 A 
ATOM     24  C   UNL A   1      32.039  29.003  27.071  1.00  0.00     0.001 A 
ATOM     25  C   UNL A   1      32.791  29.755  26.168  1.00  0.00     0.004 A 
ENDBRANCH  13  16
ENDBRANCH   8  12
ENDBRANCH   4   7
ENDBRANCH   2   3
ENDBRANCH   1   2
BRANCH   1  26
ATOM     26  C   UNL A   1      42.048  23.272  27.507  1.00  0.00     0.118 C 
BRANCH  26  27
ATOM     27  N   UNL A   1      42.073  24.142  26.337  1.00  0.00    -0.352 N 
ATOM     28  C   UNL A   1      41.599  25.422  26.198  1.00  0.00     0.251 C 
ATOM     29  H   UNL A   1      42.487  23.756  25.532  1.00  0.00     0.163 HD
ATOM     30  O   UNL A   1      41.386  25.876  25.080  1.00  0.00    -0.269 OA
BRANCH  28  31
ATOM     31  C   UNL A   1      41.370  26.238  27.405  1.00  0.00     0.039 A 
ATOM     32  C   UNL A   1      40.292  25.947  28.241  1.00  0.00     0.014 A 
ATOM     33  C   UNL A   1      42.210  27.319  27.685  1.00  0.00     0.014 A 
ATOM     34  C   UNL A   1      40.071  26.740  29.366  1.00  0.00     0.010 A 
ATOM     35  C   UNL A   1      42.077  28.011  28.875  1.00  0.00     0.010 A 
ATOM     36  C   UNL A   1      40.968  27.771  29.691  1.00  0.00    -0.014 A 
BRANCH  36  37
ATOM     37  C   UNL A   1      40.714  28.690  30.821  1.00  0.00     0.031 A 
ATOM     38  C   UNL A   1      41.582  28.605  32.051  1.00  0.00     0.074 A 
ATOM     39  C   UNL A   1      39.688  29.558  30.758  1.00  0.00     0.049 A 
ATOM     40  N   UNL A   1      41.528  29.310  33.150  1.00  0.00    -0.248 NA
ATOM     41  C   UNL A   1      42.626  27.564  32.062  1.00  0.00     0.031 C 
ATOM     42  C   UNL A   1      38.752  29.687  29.638  1.00  0.00     0.029 A 
ATOM     43  N   UNL A   1      39.270  30.505  31.653  1.00  0.00    -0.354 N 
ATOM     44  C   UNL A   1      42.503  28.776  33.987  1.00  0.00     0.074 A 
ATOM     45  C   UNL A   1      43.079  27.644  33.302  1.00  0.00     0.031 C 
ATOM     46  C   UNL A   1      37.910  30.703  29.887  1.00  0.00     0.029 A 
ATOM     47  C   UNL A   1      38.224  31.268  31.194  1.00  0.00     0.049 A 
ATOM     48  H   UNL A   1      39.680  30.629  32.539  1.00  0.00     0.167 HD
ATOM     49  C   UNL A   1      42.907  29.209  35.204  1.00  0.00     0.031 A 
ATOM     50  C   UNL A   1      37.607  32.322  31.760  1.00  0.00     0.031 A 
ATOM     51  C   UNL A   1      42.345  30.357  35.860  1.00  0.00     0.049 A 
ATOM     52  C   UNL A   1      38.089  32.806  33.099  1.00  0.00     0.074 A 
ATOM     53  C   UNL A   1      42.713  30.932  37.062  1.00  0.00     0.029 A 
ATOM     54  N   UNL A   1      41.292  31.109  35.359  1.00  0.00    -0.354 N 
ATOM     55  N   UNL A   1      39.057  32.334  33.849  1.00  0.00    -0.248 NA
ATOM     56  C   UNL A   1      37.407  33.981  33.656  1.00  0.00     0.031 C 
ATOM     57  C   UNL A   1      41.852  32.007  37.309  1.00  0.00     0.029 A 
ATOM     58  C   UNL A   1      40.985  32.135  36.233  1.00  0.00     0.049 A 
ATOM     59  H   UNL A   1      40.830  30.936  34.506  1.00  0.00     0.167 HD
ATOM     60  C   UNL A   1      39.127  33.178  34.951  1.00  0.00     0.074 A 
ATOM     61  C   UNL A   1      38.106  34.192  34.763  1.00  0.00     0.031 C 
ATOM     62  C   UNL A   1      39.962  33.128  36.020  1.00  0.00     0.031 A 
BRANCH  49  63
ATOM     63  C   UNL A   1      43.996  28.423  35.887  1.00  0.00    -0.014 A 
ATOM     64  C   UNL A   1      45.343  28.827  35.821  1.00  0.00     0.010 A 
ATOM     65  C   UNL A   1      43.673  27.244  36.582  1.00  0.00     0.010 A 
ATOM     66  C   UNL A   1      46.351  28.032  36.371  1.00  0.00     0.020 A 
ATOM     67  C   UNL A   1      44.675  26.463  37.166  1.00  0.00     0.020 A 
ATOM     68  C   UNL A   1      46.011  26.847  37.031  1.00  0.00     0.054 A 
BRANCH  68  69
ATOM     69  S   UNL A   1      47.339  25.820  37.716  1.00  0.00     0.124 S 
ATOM     70  O   UNL A   1      47.320  24.667  36.818  1.00  0.00    -0.237 OA
ATOM     71  O   UNL A   1      48.509  26.685  37.601  1.00  0.00    -0.237 OA
ATOM     72  O   UNL A   1      46.898  25.552  39.083  1.00  0.00    -0.744 OA
ENDBRANCH  68  69
ENDBRANCH  49  63
BRANCH  50  73
ATOM     73  C   UNL A   1      36.532  33.031  31.019  1.00  0.00    -0.014 A 
ATOM     74  C   UNL A   1      35.222  33.054  31.531  1.00  0.00     0.010 A 
ATOM     75  C   UNL A   1      36.813  33.723  29.828  1.00  0.00     0.010 A 
ATOM     76  C   UNL A   1      34.210  33.743  30.860  1.00  0.00     0.020 A 
ATOM     77  C   UNL A   1      35.808  34.436  29.165  1.00  0.00     0.020 A 
ATOM     78  C   UNL A   1      34.510  34.434  29.682  1.00  0.00     0.054 A 
BRANCH  78  79
ATOM     79  S   UNL A   1      33.192  35.374  28.863  1.00  0.00     0.124 S 
ATOM     80  O   UNL A   1      32.455  35.917  30.000  1.00  0.00    -0.237 OA
ATOM     81  O   UNL A   1      33.944  36.347  28.073  1.00  0.00    -0.237 OA
ATOM     82  O   UNL A   1      32.485  34.362  28.084  1.00  0.00    -0.744 OA
ENDBRANCH  78  79
ENDBRANCH  50  73
BRANCH  62  83
ATOM     83  C   UNL A   1      39.837  34.227  37.038  1.00  0.00    -0.014 A 
ATOM     84  C   UNL A   1      39.133  34.037  38.239  1.00  0.00     0.010 A 
ATOM     85  C   UNL A   1      40.465  35.462  36.796  1.00  0.00     0.010 A 
ATOM     86  C   UNL A   1      39.020  35.081  39.160  1.00  0.00     0.020 A 
ATOM     87  C   UNL A   1      40.380  36.497  37.728  1.00  0.00     0.020 A 
ATOM     88  C   UNL A   1      39.640  36.306  38.895  1.00  0.00     0.054 A 
BRANCH  88  89
ATOM     89  S   UNL A   1      39.497  37.641  40.114  1.00  0.00     0.124 S 
ATOM     90  O   UNL A   1      40.836  38.223  40.083  1.00  0.00    -0.237 OA
ATOM     91  O   UNL A   1      38.436  38.475  39.554  1.00  0.00    -0.237 OA
ATOM     92  O   UNL A   1      39.146  36.945  41.350  1.00  0.00    -0.744 OA
ENDBRANCH  88  89
ENDBRANCH  62  83
ENDBRANCH  36  37
ENDBRANCH  28  31
ENDBRANCH  26  27
ENDBRANCH   1  26
TORSDOF 15
ENDMDL
