MODEL 1
REMARK VINA RESULT:     -11.2      0.000      0.000
REMARK SMILES O=C(NCCCNC(=O)[C@H]1CC[C@@H]2CCCC[C@@H]2N1C(=O)NC1CC1)c1ccc(-c2c3nc(c(-c4ccc(S(=O)(=O)[O-])cc4)c4ccc([nH]4)c(-c4ccc(S(=O)(=O)[O-])cc4)c4nc(c(-c5ccc(S(=O)(=O)[O-])cc5)c5ccc2[nH]5)C=C4)C=C3)cc1
REMARK SMILES IDX 4 1 3 2 1 3 2 4 26 6 27 7 85 8 28 9 84 10 29 11 30 12 31 13
REMARK SMILES IDX 78 14 32 15 83 16 77 17 79 18 33 19 82 20 76 21 75 22 34 24
REMARK SMILES IDX 64 25 45 26 63 27 46 28 49 29 62 30 80 31 47 32 48 33 61 35
REMARK SMILES IDX 81 36 50 37 35 38 36 39 44 40 37 41 43 42 38 43 39 44 40 45
REMARK SMILES IDX 41 46 42 47 65 48 66 49 74 50 67 51 73 52 68 53 69 54 70 55
REMARK SMILES IDX 71 56 72 57 51 58 52 59 60 60 53 61 59 62 54 63 55 64 56 65
REMARK SMILES IDX 57 66 58 67 5 68 6 69 7 70 8 71 9 73 10 74 11 75 19 76 12 77
REMARK SMILES IDX 18 78 13 79 17 80 14 81 16 82 15 83 20 84 21 85 22 86 23 88
REMARK SMILES IDX 24 89 25 90
REMARK H PARENT 3 5 79 23 49 34 7 72 22 87
REMARK Flexibility Score: inf
ROOT
ATOM      1  C   UNL A   1      34.270  28.426  26.998  1.00  0.00     0.118 C 
ENDROOT
BRANCH   1   2
ATOM      2  N   UNL A   1      33.870  29.765  27.427  1.00  0.00    -0.352 N 
ATOM      3  O   UNL A   1      34.038  31.639  28.686  1.00  0.00    -0.269 OA
ATOM      4  C   UNL A   1      34.571  30.631  28.234  1.00  0.00     0.251 C 
ATOM      5  H   UNL A   1      32.998  30.083  27.101  1.00  0.00     0.163 HD
BRANCH   4   6
ATOM      6  C   UNL A   1      35.973  30.300  28.553  1.00  0.00     0.039 A 
ATOM      7  C   UNL A   1      36.957  30.535  27.593  1.00  0.00     0.014 A 
ATOM      8  C   UNL A   1      36.290  29.686  29.766  1.00  0.00     0.014 A 
ATOM      9  C   UNL A   1      38.222  30.008  27.774  1.00  0.00     0.010 A 
ATOM     10  C   UNL A   1      37.603  29.265  29.998  1.00  0.00     0.010 A 
ATOM     11  C   UNL A   1      38.573  29.403  28.994  1.00  0.00    -0.014 A 
BRANCH  11  12
ATOM     12  C   UNL A   1      39.996  29.036  29.200  1.00  0.00     0.031 A 
ATOM     13  C   UNL A   1      40.547  27.707  28.768  1.00  0.00     0.074 A 
ATOM     14  C   UNL A   1      40.808  29.981  29.718  1.00  0.00     0.049 A 
ATOM     15  N   UNL A   1      41.782  27.280  28.827  1.00  0.00    -0.248 NA
ATOM     16  C   UNL A   1      39.600  26.727  28.210  1.00  0.00     0.031 C 
ATOM     17  C   UNL A   1      40.368  31.302  30.185  1.00  0.00     0.029 A 
ATOM     18  N   UNL A   1      42.165  30.008  29.891  1.00  0.00    -0.354 N 
ATOM     19  C   UNL A   1      41.763  25.978  28.339  1.00  0.00     0.074 A 
ATOM     20  C   UNL A   1      40.387  25.679  28.000  1.00  0.00     0.031 C 
ATOM     21  C   UNL A   1      41.440  32.040  30.497  1.00  0.00     0.029 A 
ATOM     22  C   UNL A   1      42.632  31.220  30.345  1.00  0.00     0.049 A 
ATOM     23  H   UNL A   1      42.749  29.238  29.708  1.00  0.00     0.167 HD
ATOM     24  C   UNL A   1      42.799  25.118  28.193  1.00  0.00     0.031 A 
ATOM     25  C   UNL A   1      43.882  31.627  30.629  1.00  0.00     0.031 A 
ATOM     26  C   UNL A   1      44.164  25.435  28.533  1.00  0.00     0.049 A 
ATOM     27  C   UNL A   1      45.007  30.655  30.446  1.00  0.00     0.074 A 
ATOM     28  C   UNL A   1      45.286  24.631  28.432  1.00  0.00     0.029 A 
ATOM     29  N   UNL A   1      44.594  26.657  29.030  1.00  0.00    -0.354 N 
ATOM     30  N   UNL A   1      44.959  29.422  29.999  1.00  0.00    -0.248 NA
ATOM     31  C   UNL A   1      46.347  31.121  30.814  1.00  0.00     0.031 C 
ATOM     32  C   UNL A   1      46.388  25.355  28.903  1.00  0.00     0.029 A 
ATOM     33  C   UNL A   1      45.961  26.625  29.251  1.00  0.00     0.049 A 
ATOM     34  H   UNL A   1      44.012  27.432  29.202  1.00  0.00     0.167 HD
ATOM     35  C   UNL A   1      46.267  28.958  30.045  1.00  0.00     0.074 A 
ATOM     36  C   UNL A   1      47.084  30.060  30.517  1.00  0.00     0.031 C 
ATOM     37  C   UNL A   1      46.746  27.727  29.742  1.00  0.00     0.031 A 
BRANCH  24  38
ATOM     38  C   UNL A   1      42.501  23.739  27.664  1.00  0.00    -0.014 A 
ATOM     39  C   UNL A   1      42.556  23.462  26.286  1.00  0.00     0.010 A 
ATOM     40  C   UNL A   1      42.235  22.689  28.562  1.00  0.00     0.010 A 
ATOM     41  C   UNL A   1      42.327  22.165  25.815  1.00  0.00     0.020 A 
ATOM     42  C   UNL A   1      42.027  21.386  28.096  1.00  0.00     0.020 A 
ATOM     43  C   UNL A   1      42.064  21.135  26.723  1.00  0.00     0.054 A 
BRANCH  43  44
ATOM     44  S   UNL A   1      41.814  19.453  26.087  1.00  0.00     0.124 S 
ATOM     45  O   UNL A   1      42.257  18.637  27.214  1.00  0.00    -0.237 OA
ATOM     46  O   UNL A   1      40.378  19.422  25.816  1.00  0.00    -0.237 OA
ATOM     47  O   UNL A   1      42.669  19.400  24.904  1.00  0.00    -0.744 OA
ENDBRANCH  43  44
ENDBRANCH  24  38
BRANCH  25  48
ATOM     48  C   UNL A   1      44.110  32.996  31.159  1.00  0.00    -0.014 A 
ATOM     49  C   UNL A   1      44.265  34.092  30.293  1.00  0.00     0.010 A 
ATOM     50  C   UNL A   1      44.140  33.212  32.550  1.00  0.00     0.010 A 
ATOM     51  C   UNL A   1      44.464  35.376  30.810  1.00  0.00     0.020 A 
ATOM     52  C   UNL A   1      44.305  34.497  33.069  1.00  0.00     0.020 A 
ATOM     53  C   UNL A   1      44.482  35.569  32.195  1.00  0.00     0.054 A 
BRANCH  53  54
ATOM     54  S   UNL A   1      44.690  37.247  32.852  1.00  0.00     0.124 S 
ATOM     55  O   UNL A   1      45.433  37.901  31.779  1.00  0.00    -0.237 OA
ATOM     56  O   UNL A   1      43.311  37.694  33.032  1.00  0.00    -0.237 OA
ATOM     57  O   UNL A   1      45.433  37.034  34.093  1.00  0.00    -0.744 OA
ENDBRANCH  53  54
ENDBRANCH  25  48
BRANCH  37  58
ATOM     58  C   UNL A   1      48.225  27.528  29.919  1.00  0.00    -0.014 A 
ATOM     59  C   UNL A   1      49.120  27.827  28.877  1.00  0.00     0.010 A 
ATOM     60  C   UNL A   1      48.721  27.031  31.136  1.00  0.00     0.010 A 
ATOM     61  C   UNL A   1      50.486  27.584  29.031  1.00  0.00     0.020 A 
ATOM     62  C   UNL A   1      50.090  26.809  31.302  1.00  0.00     0.020 A 
ATOM     63  C   UNL A   1      50.961  27.066  30.240  1.00  0.00     0.054 A 
BRANCH  63  64
ATOM     64  S   UNL A   1      52.738  26.756  30.421  1.00  0.00     0.124 S 
ATOM     65  O   UNL A   1      53.240  28.081  30.773  1.00  0.00    -0.237 OA
ATOM     66  O   UNL A   1      52.784  25.761  31.490  1.00  0.00    -0.237 OA
ATOM     67  O   UNL A   1      53.138  26.266  29.104  1.00  0.00    -0.744 OA
ENDBRANCH  63  64
ENDBRANCH  37  58
ENDBRANCH  11  12
ENDBRANCH   4   6
ENDBRANCH   1   2
BRANCH   1  68
ATOM     68  C   UNL A   1      33.686  28.077  25.640  1.00  0.00     0.042 C 
BRANCH  68  69
ATOM     69  C   UNL A   1      33.759  26.577  25.411  1.00  0.00     0.117 C 
BRANCH  69  70
ATOM     70  N   UNL A   1      32.697  25.902  26.132  1.00  0.00    -0.354 N 
ATOM     71  C   UNL A   1      32.470  24.588  26.397  1.00  0.00     0.242 C 
ATOM     72  H   UNL A   1      32.011  26.508  26.497  1.00  0.00     0.163 HD
ATOM     73  O   UNL A   1      31.484  24.333  27.102  1.00  0.00    -0.273 OA
BRANCH  71  74
ATOM     74  C   UNL A   1      33.392  23.453  25.912  1.00  0.00     0.176 C 
ATOM     75  C   UNL A   1      33.401  22.146  26.716  1.00  0.00     0.036 C 
ATOM     76  N   UNL A   1      33.669  23.176  24.477  1.00  0.00    -0.310 N 
ATOM     77  C   UNL A   1      34.765  21.473  26.614  1.00  0.00     0.008 C 
ATOM     78  C   UNL A   1      35.000  22.527  24.278  1.00  0.00     0.091 C 
ATOM     79  C   UNL A   1      35.132  21.250  25.140  1.00  0.00     0.012 C 
ATOM     80  C   UNL A   1      36.190  23.503  24.371  1.00  0.00     0.025 C 
ATOM     81  C   UNL A   1      36.531  20.666  24.981  1.00  0.00     0.006 C 
ATOM     82  C   UNL A   1      37.345  23.099  25.289  1.00  0.00     0.002 C 
ATOM     83  C   UNL A   1      37.623  21.606  25.471  1.00  0.00     0.000 C 
BRANCH  76  84
ATOM     84  C   UNL A   1      32.780  22.978  23.450  1.00  0.00     0.318 C 
ATOM     85  O   UNL A   1      32.234  21.878  23.267  1.00  0.00    -0.249 OA
ATOM     86  N   UNL A   1      32.411  23.882  22.527  1.00  0.00    -0.335 N 
ATOM     87  H   UNL A   1      31.601  23.585  22.050  1.00  0.00     0.165 HD
BRANCH  86  88
ATOM     88  C   UNL A   1      32.850  25.138  22.042  1.00  0.00     0.084 C 
ATOM     89  C   UNL A   1      32.543  25.512  20.603  1.00  0.00     0.027 C 
ATOM     90  C   UNL A   1      31.835  26.207  21.712  1.00  0.00     0.027 C 
ENDBRANCH  86  88
ENDBRANCH  76  84
ENDBRANCH  71  74
ENDBRANCH  69  70
ENDBRANCH  68  69
ENDBRANCH   1  68
TORSDOF 15
ENDMDL
MODEL 2
REMARK VINA RESULT:     -10.9      2.806      9.297
REMARK SMILES O=C(NCCCNC(=O)[C@H]1CC[C@@H]2CCCC[C@@H]2N1C(=O)NC1CC1)c1ccc(-c2c3nc(c(-c4ccc(S(=O)(=O)[O-])cc4)c4ccc([nH]4)c(-c4ccc(S(=O)(=O)[O-])cc4)c4nc(c(-c5ccc(S(=O)(=O)[O-])cc5)c5ccc2[nH]5)C=C4)C=C3)cc1
REMARK SMILES IDX 4 1 3 2 1 3 2 4 26 6 27 7 85 8 28 9 84 10 29 11 30 12 31 13
REMARK SMILES IDX 78 14 32 15 83 16 77 17 79 18 33 19 82 20 76 21 75 22 34 24
REMARK SMILES IDX 64 25 45 26 63 27 46 28 49 29 62 30 80 31 47 32 48 33 61 35
REMARK SMILES IDX 81 36 50 37 35 38 36 39 44 40 37 41 43 42 38 43 39 44 40 45
REMARK SMILES IDX 41 46 42 47 65 48 66 49 74 50 67 51 73 52 68 53 69 54 70 55
REMARK SMILES IDX 71 56 72 57 51 58 52 59 60 60 53 61 59 62 54 63 55 64 56 65
REMARK SMILES IDX 57 66 58 67 5 68 6 69 7 70 8 71 9 73 10 74 11 75 19 76 12 77
REMARK SMILES IDX 18 78 13 79 17 80 14 81 16 82 15 83 20 84 21 85 22 86 23 88
REMARK SMILES IDX 24 89 25 90
REMARK H PARENT 3 5 79 23 49 34 7 72 22 87
REMARK Flexibility Score: inf
ROOT
ATOM      1  C   UNL A   1      36.646  24.139  25.800  1.00  0.00     0.118 C 
ENDROOT
BRANCH   1   2
ATOM      2  N   UNL A   1      37.563  23.001  25.778  1.00  0.00    -0.352 N 
ATOM      3  O   UNL A   1      39.600  22.020  25.888  1.00  0.00    -0.269 OA
ATOM      4  C   UNL A   1      38.888  22.985  26.146  1.00  0.00     0.251 C 
ATOM      5  H   UNL A   1      37.188  22.148  25.462  1.00  0.00     0.163 HD
BRANCH   4   6
ATOM      6  C   UNL A   1      39.429  24.168  26.842  1.00  0.00     0.039 A 
ATOM      7  C   UNL A   1      39.150  24.339  28.197  1.00  0.00     0.014 A 
ATOM      8  C   UNL A   1      40.138  25.138  26.130  1.00  0.00     0.014 A 
ATOM      9  C   UNL A   1      39.431  25.551  28.801  1.00  0.00     0.010 A 
ATOM     10  C   UNL A   1      40.533  26.312  26.779  1.00  0.00     0.010 A 
ATOM     11  C   UNL A   1      40.162  26.536  28.113  1.00  0.00    -0.014 A 
BRANCH  11  12
ATOM     12  C   UNL A   1      40.603  27.729  28.877  1.00  0.00     0.031 A 
ATOM     13  C   UNL A   1      39.696  28.902  29.116  1.00  0.00     0.074 A 
ATOM     14  C   UNL A   1      41.834  27.688  29.428  1.00  0.00     0.049 A 
ATOM     15  N   UNL A   1      39.928  29.980  29.820  1.00  0.00    -0.248 NA
ATOM     16  C   UNL A   1      38.367  28.875  28.483  1.00  0.00     0.031 C 
ATOM     17  C   UNL A   1      42.801  26.599  29.243  1.00  0.00     0.029 A 
ATOM     18  N   UNL A   1      42.465  28.543  30.291  1.00  0.00    -0.354 N 
ATOM     19  C   UNL A   1      38.791  30.771  29.698  1.00  0.00     0.074 A 
ATOM     20  C   UNL A   1      37.872  30.054  28.840  1.00  0.00     0.031 C 
ATOM     21  C   UNL A   1      43.855  26.804  30.043  1.00  0.00     0.029 A 
ATOM     22  C   UNL A   1      43.685  28.078  30.723  1.00  0.00     0.049 A 
ATOM     23  H   UNL A   1      42.083  29.404  30.575  1.00  0.00     0.167 HD
ATOM     24  C   UNL A   1      38.545  31.984  30.251  1.00  0.00     0.031 A 
ATOM     25  C   UNL A   1      44.584  28.624  31.561  1.00  0.00     0.031 A 
ATOM     26  C   UNL A   1      39.472  32.682  31.107  1.00  0.00     0.049 A 
ATOM     27  C   UNL A   1      44.276  29.960  32.165  1.00  0.00     0.074 A 
ATOM     28  C   UNL A   1      39.323  33.919  31.710  1.00  0.00     0.029 A 
ATOM     29  N   UNL A   1      40.716  32.201  31.489  1.00  0.00    -0.354 N 
ATOM     30  N   UNL A   1      43.200  30.696  32.019  1.00  0.00    -0.248 NA
ATOM     31  C   UNL A   1      45.304  30.543  33.033  1.00  0.00     0.031 C 
ATOM     32  C   UNL A   1      40.491  34.201  32.427  1.00  0.00     0.029 A 
ATOM     33  C   UNL A   1      41.348  33.119  32.310  1.00  0.00     0.049 A 
ATOM     34  H   UNL A   1      41.094  31.334  31.215  1.00  0.00     0.167 HD
ATOM     35  C   UNL A   1      43.427  31.841  32.770  1.00  0.00     0.074 A 
ATOM     36  C   UNL A   1      44.721  31.674  33.404  1.00  0.00     0.031 C 
ATOM     37  C   UNL A   1      42.645  32.939  32.909  1.00  0.00     0.031 A 
BRANCH  24  38
ATOM     38  C   UNL A   1      37.232  32.649  29.933  1.00  0.00    -0.014 A 
ATOM     39  C   UNL A   1      36.126  32.525  30.794  1.00  0.00     0.010 A 
ATOM     40  C   UNL A   1      37.122  33.471  28.797  1.00  0.00     0.010 A 
ATOM     41  C   UNL A   1      34.930  33.191  30.512  1.00  0.00     0.020 A 
ATOM     42  C   UNL A   1      35.934  34.157  28.521  1.00  0.00     0.020 A 
ATOM     43  C   UNL A   1      34.841  34.003  29.376  1.00  0.00     0.054 A 
BRANCH  43  44
ATOM     44  S   UNL A   1      33.290  34.890  29.058  1.00  0.00     0.124 S 
ATOM     45  O   UNL A   1      33.775  36.175  28.562  1.00  0.00    -0.237 OA
ATOM     46  O   UNL A   1      32.633  34.043  28.065  1.00  0.00    -0.237 OA
ATOM     47  O   UNL A   1      32.639  34.932  30.365  1.00  0.00    -0.744 OA
ENDBRANCH  43  44
ENDBRANCH  24  38
BRANCH  25  48
ATOM     48  C   UNL A   1      45.867  27.923  31.826  1.00  0.00    -0.014 A 
ATOM     49  C   UNL A   1      45.981  26.988  32.868  1.00  0.00     0.010 A 
ATOM     50  C   UNL A   1      46.983  28.170  31.003  1.00  0.00     0.010 A 
ATOM     51  C   UNL A   1      47.192  26.327  33.093  1.00  0.00     0.020 A 
ATOM     52  C   UNL A   1      48.183  27.488  31.204  1.00  0.00     0.020 A 
ATOM     53  C   UNL A   1      48.285  26.581  32.258  1.00  0.00     0.054 A 
BRANCH  53  54
ATOM     54  S   UNL A   1      49.835  25.679  32.529  1.00  0.00     0.124 S 
ATOM     55  O   UNL A   1      50.748  26.756  32.901  1.00  0.00    -0.237 OA
ATOM     56  O   UNL A   1      49.482  24.750  33.600  1.00  0.00    -0.237 OA
ATOM     57  O   UNL A   1      50.094  25.054  31.234  1.00  0.00    -0.744 OA
ENDBRANCH  53  54
ENDBRANCH  25  48
BRANCH  37  58
ATOM     58  C   UNL A   1      43.186  34.034  33.784  1.00  0.00    -0.014 A 
ATOM     59  C   UNL A   1      42.872  34.082  35.153  1.00  0.00     0.010 A 
ATOM     60  C   UNL A   1      44.011  35.027  33.229  1.00  0.00     0.010 A 
ATOM     61  C   UNL A   1      43.332  35.136  35.945  1.00  0.00     0.020 A 
ATOM     62  C   UNL A   1      44.493  36.070  34.023  1.00  0.00     0.020 A 
ATOM     63  C   UNL A   1      44.132  36.129  35.371  1.00  0.00     0.054 A 
BRANCH  63  64
ATOM     64  S   UNL A   1      44.720  37.490  36.415  1.00  0.00     0.124 S 
ATOM     65  O   UNL A   1      46.169  37.363  36.286  1.00  0.00    -0.237 OA
ATOM     66  O   UNL A   1      44.131  38.664  35.775  1.00  0.00    -0.237 OA
ATOM     67  O   UNL A   1      44.179  37.170  37.734  1.00  0.00    -0.744 OA
ENDBRANCH  63  64
ENDBRANCH  37  58
ENDBRANCH  11  12
ENDBRANCH   4   6
ENDBRANCH   1   2
BRANCH   1  68
ATOM     68  C   UNL A   1      35.356  23.832  25.058  1.00  0.00     0.042 C 
BRANCH  68  69
ATOM     69  C   UNL A   1      34.322  24.908  25.343  1.00  0.00     0.117 C 
BRANCH  69  70
ATOM     70  N   UNL A   1      33.309  24.407  26.253  1.00  0.00    -0.354 N 
ATOM     71  C   UNL A   1      32.029  24.798  26.493  1.00  0.00     0.242 C 
ATOM     72  H   UNL A   1      33.603  23.642  26.800  1.00  0.00     0.163 HD
ATOM     73  O   UNL A   1      31.392  24.116  27.306  1.00  0.00    -0.273 OA
BRANCH  71  74
ATOM     74  C   UNL A   1      31.355  25.983  25.776  1.00  0.00     0.176 C 
ATOM     75  C   UNL A   1      29.866  25.856  25.427  1.00  0.00     0.036 C 
ATOM     76  N   UNL A   1      31.702  27.406  26.036  1.00  0.00    -0.310 N 
ATOM     77  C   UNL A   1      29.546  26.662  24.174  1.00  0.00     0.008 C 
ATOM     78  C   UNL A   1      31.435  28.274  24.849  1.00  0.00     0.091 C 
ATOM     79  C   UNL A   1      29.974  28.124  24.367  1.00  0.00     0.012 C 
ATOM     80  C   UNL A   1      32.502  28.164  23.742  1.00  0.00     0.025 C 
ATOM     81  C   UNL A   1      29.762  28.953  23.105  1.00  0.00     0.006 C 
ATOM     82  C   UNL A   1      31.998  27.925  22.318  1.00  0.00     0.002 C 
ATOM     83  C   UNL A   1      30.627  28.490  21.941  1.00  0.00     0.000 C 
BRANCH  76  84
ATOM     84  C   UNL A   1      31.751  28.076  27.232  1.00  0.00     0.318 C 
ATOM     85  O   UNL A   1      30.953  27.825  28.149  1.00  0.00    -0.249 OA
ATOM     86  N   UNL A   1      32.599  29.065  27.561  1.00  0.00    -0.335 N 
ATOM     87  H   UNL A   1      32.597  29.219  28.534  1.00  0.00     0.165 HD
BRANCH  86  88
ATOM     88  C   UNL A   1      33.496  29.949  26.911  1.00  0.00     0.084 C 
ATOM     89  C   UNL A   1      34.459  30.763  27.758  1.00  0.00     0.027 C 
ATOM     90  C   UNL A   1      34.977  29.648  26.918  1.00  0.00     0.027 C 
ENDBRANCH  86  88
ENDBRANCH  76  84
ENDBRANCH  71  74
ENDBRANCH  69  70
ENDBRANCH  68  69
ENDBRANCH   1  68
TORSDOF 15
ENDMDL
MODEL 3
REMARK VINA RESULT:     -10.9      4.933      9.959
REMARK SMILES O=C(NCCCNC(=O)[C@H]1CC[C@@H]2CCCC[C@@H]2N1C(=O)NC1CC1)c1ccc(-c2c3nc(c(-c4ccc(S(=O)(=O)[O-])cc4)c4ccc([nH]4)c(-c4ccc(S(=O)(=O)[O-])cc4)c4nc(c(-c5ccc(S(=O)(=O)[O-])cc5)c5ccc2[nH]5)C=C4)C=C3)cc1
REMARK SMILES IDX 4 1 3 2 1 3 2 4 26 6 27 7 85 8 28 9 84 10 29 11 30 12 31 13
REMARK SMILES IDX 78 14 32 15 83 16 77 17 79 18 33 19 82 20 76 21 75 22 34 24
REMARK SMILES IDX 64 25 45 26 63 27 46 28 49 29 62 30 80 31 47 32 48 33 61 35
REMARK SMILES IDX 81 36 50 37 35 38 36 39 44 40 37 41 43 42 38 43 39 44 40 45
REMARK SMILES IDX 41 46 42 47 65 48 66 49 74 50 67 51 73 52 68 53 69 54 70 55
REMARK SMILES IDX 71 56 72 57 51 58 52 59 60 60 53 61 59 62 54 63 55 64 56 65
REMARK SMILES IDX 57 66 58 67 5 68 6 69 7 70 8 71 9 73 10 74 11 75 19 76 12 77
REMARK SMILES IDX 18 78 13 79 17 80 14 81 16 82 15 83 20 84 21 85 22 86 23 88
REMARK SMILES IDX 24 89 25 90
REMARK H PARENT 3 5 79 23 49 34 7 72 22 87
REMARK Flexibility Score: inf
ROOT
ATOM      1  C   UNL A   1      32.884  32.833  27.395  1.00  0.00     0.118 C 
ENDROOT
BRANCH   1   2
ATOM      2  N   UNL A   1      32.628  34.201  27.837  1.00  0.00    -0.352 N 
ATOM      3  O   UNL A   1      32.781  35.945  29.273  1.00  0.00    -0.269 OA
ATOM      4  C   UNL A   1      33.228  34.875  28.875  1.00  0.00     0.251 C 
ATOM      5  H   UNL A   1      31.945  34.700  27.332  1.00  0.00     0.163 HD
BRANCH   4   6
ATOM      6  C   UNL A   1      34.412  34.261  29.507  1.00  0.00     0.039 A 
ATOM      7  C   UNL A   1      34.238  33.485  30.653  1.00  0.00     0.014 A 
ATOM      8  C   UNL A   1      35.689  34.523  29.008  1.00  0.00     0.014 A 
ATOM      9  C   UNL A   1      35.345  33.112  31.395  1.00  0.00     0.010 A 
ATOM     10  C   UNL A   1      36.806  34.036  29.694  1.00  0.00     0.010 A 
ATOM     11  C   UNL A   1      36.642  33.347  30.904  1.00  0.00    -0.014 A 
BRANCH  11  12
ATOM     12  C   UNL A   1      37.779  32.750  31.647  1.00  0.00     0.031 A 
ATOM     13  C   UNL A   1      38.181  33.232  33.011  1.00  0.00     0.074 A 
ATOM     14  C   UNL A   1      38.396  31.691  31.083  1.00  0.00     0.049 A 
ATOM     15  N   UNL A   1      39.112  32.760  33.800  1.00  0.00    -0.248 NA
ATOM     16  C   UNL A   1      37.462  34.393  33.562  1.00  0.00     0.031 C 
ATOM     17  C   UNL A   1      38.090  31.152  29.751  1.00  0.00     0.029 A 
ATOM     18  N   UNL A   1      39.358  30.845  31.565  1.00  0.00    -0.354 N 
ATOM     19  C   UNL A   1      39.111  33.574  34.927  1.00  0.00     0.074 A 
ATOM     20  C   UNL A   1      38.093  34.582  34.715  1.00  0.00     0.031 C 
ATOM     21  C   UNL A   1      38.776  30.018  29.565  1.00  0.00     0.029 A 
ATOM     22  C   UNL A   1      39.637  29.798  30.717  1.00  0.00     0.049 A 
ATOM     23  H   UNL A   1      39.805  30.972  32.432  1.00  0.00     0.167 HD
ATOM     24  C   UNL A   1      39.892  33.485  36.031  1.00  0.00     0.031 A 
ATOM     25  C   UNL A   1      40.506  28.779  30.840  1.00  0.00     0.031 A 
ATOM     26  C   UNL A   1      40.898  32.472  36.227  1.00  0.00     0.049 A 
ATOM     27  C   UNL A   1      41.346  28.703  32.078  1.00  0.00     0.074 A 
ATOM     28  C   UNL A   1      41.749  32.299  37.305  1.00  0.00     0.029 A 
ATOM     29  N   UNL A   1      41.184  31.453  35.329  1.00  0.00    -0.354 N 
ATOM     30  N   UNL A   1      41.338  29.498  33.122  1.00  0.00    -0.248 NA
ATOM     31  C   UNL A   1      42.316  27.607  32.150  1.00  0.00     0.031 C 
ATOM     32  C   UNL A   1      42.573  31.198  37.043  1.00  0.00     0.029 A 
ATOM     33  C   UNL A   1      42.203  30.656  35.823  1.00  0.00     0.049 A 
ATOM     34  H   UNL A   1      40.729  31.318  34.466  1.00  0.00     0.167 HD
ATOM     35  C   UNL A   1      42.315  29.002  33.975  1.00  0.00     0.074 A 
ATOM     36  C   UNL A   1      42.856  27.814  33.343  1.00  0.00     0.031 C 
ATOM     37  C   UNL A   1      42.739  29.494  35.164  1.00  0.00     0.031 A 
BRANCH  24  38
ATOM     38  C   UNL A   1      39.709  34.522  37.108  1.00  0.00    -0.014 A 
ATOM     39  C   UNL A   1      38.914  34.264  38.239  1.00  0.00     0.010 A 
ATOM     40  C   UNL A   1      40.401  35.745  37.025  1.00  0.00     0.010 A 
ATOM     41  C   UNL A   1      38.796  35.217  39.255  1.00  0.00     0.020 A 
ATOM     42  C   UNL A   1      40.303  36.693  38.050  1.00  0.00     0.020 A 
ATOM     43  C   UNL A   1      39.491  36.427  39.154  1.00  0.00     0.054 A 
BRANCH  43  44
ATOM     44  S   UNL A   1      39.354  37.628  40.507  1.00  0.00     0.124 S 
ATOM     45  O   UNL A   1      38.987  36.772  41.632  1.00  0.00    -0.237 OA
ATOM     46  O   UNL A   1      40.697  38.201  40.567  1.00  0.00    -0.237 OA
ATOM     47  O   UNL A   1      38.310  38.544  40.054  1.00  0.00    -0.744 OA
ENDBRANCH  43  44
ENDBRANCH  24  38
BRANCH  25  48
ATOM     48  C   UNL A   1      40.649  27.794  29.737  1.00  0.00    -0.014 A 
ATOM     49  C   UNL A   1      39.717  26.756  29.567  1.00  0.00     0.010 A 
ATOM     50  C   UNL A   1      41.714  27.915  28.823  1.00  0.00     0.010 A 
ATOM     51  C   UNL A   1      39.858  25.846  28.514  1.00  0.00     0.020 A 
ATOM     52  C   UNL A   1      41.839  27.029  27.753  1.00  0.00     0.020 A 
ATOM     53  C   UNL A   1      40.919  25.990  27.613  1.00  0.00     0.054 A 
BRANCH  53  54
ATOM     54  S   UNL A   1      41.062  24.835  26.223  1.00  0.00     0.124 S 
ATOM     55  O   UNL A   1      39.758  24.180  26.240  1.00  0.00    -0.237 OA
ATOM     56  O   UNL A   1      41.311  25.724  25.092  1.00  0.00    -0.237 OA
ATOM     57  O   UNL A   1      42.194  23.990  26.601  1.00  0.00    -0.744 OA
ENDBRANCH  53  54
ENDBRANCH  25  48
BRANCH  37  58
ATOM     58  C   UNL A   1      43.843  28.734  35.843  1.00  0.00    -0.014 A 
ATOM     59  C   UNL A   1      43.552  27.670  36.715  1.00  0.00     0.010 A 
ATOM     60  C   UNL A   1      45.182  29.091  35.610  1.00  0.00     0.010 A 
ATOM     61  C   UNL A   1      44.583  27.008  37.385  1.00  0.00     0.020 A 
ATOM     62  C   UNL A   1      46.216  28.415  36.260  1.00  0.00     0.020 A 
ATOM     63  C   UNL A   1      45.908  27.392  37.161  1.00  0.00     0.054 A 
BRANCH  63  64
ATOM     64  S   UNL A   1      47.233  26.521  38.040  1.00  0.00     0.124 S 
ATOM     65  O   UNL A   1      47.728  27.557  38.941  1.00  0.00    -0.237 OA
ATOM     66  O   UNL A   1      46.522  25.417  38.681  1.00  0.00    -0.237 OA
ATOM     67  O   UNL A   1      48.152  26.127  36.975  1.00  0.00    -0.744 OA
ENDBRANCH  63  64
ENDBRANCH  37  58
ENDBRANCH  11  12
ENDBRANCH   4   6
ENDBRANCH   1   2
BRANCH   1  68
ATOM     68  C   UNL A   1      31.696  32.255  26.645  1.00  0.00     0.042 C 
BRANCH  68  69
ATOM     69  C   UNL A   1      31.694  30.740  26.759  1.00  0.00     0.117 C 
BRANCH  69  70
ATOM     70  N   UNL A   1      32.995  30.263  27.189  1.00  0.00    -0.354 N 
ATOM     71  C   UNL A   1      33.640  29.081  26.996  1.00  0.00     0.242 C 
ATOM     72  H   UNL A   1      33.506  30.916  27.721  1.00  0.00     0.163 HD
ATOM     73  O   UNL A   1      34.788  29.004  27.453  1.00  0.00    -0.273 OA
BRANCH  71  74
ATOM     74  C   UNL A   1      33.032  27.901  26.214  1.00  0.00     0.176 C 
ATOM     75  C   UNL A   1      31.627  27.429  26.609  1.00  0.00     0.036 C 
ATOM     76  N   UNL A   1      33.263  27.672  24.763  1.00  0.00    -0.310 N 
ATOM     77  C   UNL A   1      31.473  25.938  26.332  1.00  0.00     0.008 C 
ATOM     78  C   UNL A   1      33.147  26.227  24.398  1.00  0.00     0.091 C 
ATOM     79  C   UNL A   1      31.792  25.643  24.858  1.00  0.00     0.012 C 
ATOM     80  C   UNL A   1      34.382  25.387  24.779  1.00  0.00     0.025 C 
ATOM     81  C   UNL A   1      31.744  24.151  24.551  1.00  0.00     0.006 C 
ATOM     82  C   UNL A   1      34.126  24.093  25.552  1.00  0.00     0.002 C 
ATOM     83  C   UNL A   1      32.807  23.359  25.301  1.00  0.00     0.000 C 
BRANCH  76  84
ATOM     84  C   UNL A   1      33.086  28.540  23.715  1.00  0.00     0.318 C 
ATOM     85  O   UNL A   1      34.050  29.007  23.089  1.00  0.00    -0.249 OA
ATOM     86  N   UNL A   1      31.913  29.009  23.255  1.00  0.00    -0.335 N 
ATOM     87  H   UNL A   1      32.025  29.419  22.366  1.00  0.00     0.165 HD
BRANCH  86  88
ATOM     88  C   UNL A   1      30.564  29.083  23.679  1.00  0.00     0.084 C 
ATOM     89  C   UNL A   1      29.494  29.411  22.653  1.00  0.00     0.027 C 
ATOM     90  C   UNL A   1      29.578  28.036  23.218  1.00  0.00     0.027 C 
ENDBRANCH  86  88
ENDBRANCH  76  84
ENDBRANCH  71  74
ENDBRANCH  69  70
ENDBRANCH  68  69
ENDBRANCH   1  68
TORSDOF 15
ENDMDL
