MODEL 1
REMARK VINA RESULT:     -10.4      0.000      0.000
REMARK SMILES COc1ccc(C2=NO[C@](C)(C(=O)NCCCNC(=O)c3ccc(-c4c5nc(c(-c6ccc(S(=O)(=O)[O-])cc6)c6ccc([nH]6)c(-c6ccc(S(=O)(=O)[O-])cc6)c6nc(c(-c7ccc(S(=O)(=O)[O-])cc7)c7ccc4[nH]7)C=C6)C=C5)cc3)C2)c(OC)c1OC
REMARK SMILES IDX 16 1 15 2 14 3 12 4 13 5 10 7 7 8 8 9 81 10 9 11 11 12 6 13
REMARK SMILES IDX 3 14 4 15 85 16 5 17 82 18 2 19 1 20 86 21 87 22 83 23 84 24
REMARK SMILES IDX 17 25 18 26 19 27 20 29 21 30 22 31 80 32 23 33 79 34 24 35
REMARK SMILES IDX 25 36 26 37 73 38 27 39 78 40 72 41 74 42 28 43 77 44 71 45
REMARK SMILES IDX 70 46 29 48 59 49 40 50 58 51 41 52 44 53 57 54 75 55 42 56
REMARK SMILES IDX 43 57 56 59 76 60 45 61 30 62 31 63 39 64 32 65 38 66 33 67
REMARK SMILES IDX 34 68 35 69 36 70 37 71 60 72 61 73 69 74 62 75 68 76 63 77
REMARK SMILES IDX 64 78 65 79 66 80 67 81 46 82 47 83 55 84 48 85 54 86 49 87
REMARK SMILES IDX 50 88 51 89 52 90 53 91
REMARK H PARENT 14 6 18 28 74 47 44 58
REMARK Flexibility Score: inf
ROOT
ATOM      1  C   UNL A   1      35.873  23.634  24.914  1.00  0.00     0.042 C 
ENDROOT
BRANCH   1   2
ATOM      2  C   UNL A   1      34.539  22.897  24.793  1.00  0.00     0.118 C 
BRANCH   2   3
ATOM      3  N   UNL A   1      34.146  22.296  26.056  1.00  0.00    -0.352 N 
ATOM      4  C   UNL A   1      33.042  22.475  26.844  1.00  0.00     0.267 C 
ATOM      5  O   UNL A   1      33.045  21.862  27.916  1.00  0.00    -0.270 OA
ATOM      6  H   UNL A   1      34.791  21.641  26.409  1.00  0.00     0.163 HD
BRANCH   4   7
ATOM      7  C   UNL A   1      31.823  23.301  26.367  1.00  0.00     0.217 C 
ATOM      8  C   UNL A   1      31.321  25.386  25.549  1.00  0.00     0.095 C 
ATOM      9  N   UNL A   1      30.956  25.421  26.788  1.00  0.00    -0.089 NA
ATOM     10  C   UNL A   1      32.088  24.176  25.161  1.00  0.00     0.122 C 
ATOM     11  O   UNL A   1      31.455  24.239  27.398  1.00  0.00    -0.379 OA
ATOM     12  C   UNL A   1      30.638  22.348  26.188  1.00  0.00     0.071 C 
BRANCH   8  13
ATOM     13  C   UNL A   1      31.047  26.435  24.547  1.00  0.00     0.046 A 
ATOM     14  C   UNL A   1      30.434  28.358  22.632  1.00  0.00     0.164 A 
ATOM     15  C   UNL A   1      29.428  27.525  23.132  1.00  0.00     0.051 A 
ATOM     16  C   UNL A   1      31.763  28.254  23.097  1.00  0.00     0.203 A 
ATOM     17  C   UNL A   1      29.730  26.566  24.091  1.00  0.00     0.018 A 
ATOM     18  C   UNL A   1      32.080  27.256  24.049  1.00  0.00     0.173 A 
BRANCH  14  19
ATOM     19  O   UNL A   1      30.055  29.363  21.779  1.00  0.00    -0.493 OA
ATOM     20  C   UNL A   1      29.350  30.408  22.457  1.00  0.00     0.278 C 
ENDBRANCH  14  19
BRANCH  16  21
ATOM     21  O   UNL A   1      32.754  29.138  22.755  1.00  0.00    -0.490 OA
ATOM     22  C   UNL A   1      33.899  28.628  22.083  1.00  0.00     0.278 C 
ENDBRANCH  16  21
BRANCH  18  23
ATOM     23  O   UNL A   1      33.322  26.961  24.552  1.00  0.00    -0.492 OA
ATOM     24  C   UNL A   1      33.812  27.656  25.687  1.00  0.00     0.278 C 
ENDBRANCH  18  23
ENDBRANCH   8  13
ENDBRANCH   4   7
ENDBRANCH   2   3
ENDBRANCH   1   2
BRANCH   1  25
ATOM     25  C   UNL A   1      36.524  23.488  26.286  1.00  0.00     0.118 C 
BRANCH  25  26
ATOM     26  N   UNL A   1      37.637  22.546  26.263  1.00  0.00    -0.352 N 
ATOM     27  C   UNL A   1      38.983  22.772  26.390  1.00  0.00     0.251 C 
ATOM     28  H   UNL A   1      37.382  21.604  26.135  1.00  0.00     0.163 HD
ATOM     29  O   UNL A   1      39.774  21.870  26.104  1.00  0.00    -0.269 OA
BRANCH  27  30
ATOM     30  C   UNL A   1      39.492  24.083  26.847  1.00  0.00     0.039 A 
ATOM     31  C   UNL A   1      39.472  24.379  28.212  1.00  0.00     0.014 A 
ATOM     32  C   UNL A   1      39.963  25.031  25.934  1.00  0.00     0.014 A 
ATOM     33  C   UNL A   1      39.990  25.594  28.668  1.00  0.00     0.010 A 
ATOM     34  C   UNL A   1      40.546  26.209  26.395  1.00  0.00     0.010 A 
ATOM     35  C   UNL A   1      40.570  26.502  27.767  1.00  0.00    -0.014 A 
BRANCH  35  36
ATOM     36  C   UNL A   1      41.229  27.747  28.240  1.00  0.00     0.031 A 
ATOM     37  C   UNL A   1      42.730  27.850  28.270  1.00  0.00     0.074 A 
ATOM     38  C   UNL A   1      40.472  28.758  28.712  1.00  0.00     0.049 A 
ATOM     39  N   UNL A   1      43.479  28.821  28.725  1.00  0.00    -0.248 NA
ATOM     40  C   UNL A   1      43.488  26.704  27.742  1.00  0.00     0.031 C 
ATOM     41  C   UNL A   1      39.008  28.766  28.769  1.00  0.00     0.029 A 
ATOM     42  N   UNL A   1      40.829  29.970  29.249  1.00  0.00    -0.354 N 
ATOM     43  C   UNL A   1      44.793  28.399  28.553  1.00  0.00     0.074 A 
ATOM     44  C   UNL A   1      44.737  27.066  27.995  1.00  0.00     0.031 C 
ATOM     45  C   UNL A   1      38.594  29.931  29.288  1.00  0.00     0.029 A 
ATOM     46  C   UNL A   1      39.757  30.733  29.649  1.00  0.00     0.049 A 
ATOM     47  H   UNL A   1      41.764  30.266  29.339  1.00  0.00     0.167 HD
ATOM     48  C   UNL A   1      45.940  29.068  28.822  1.00  0.00     0.031 A 
ATOM     49  C   UNL A   1      39.712  31.936  30.256  1.00  0.00     0.031 A 
ATOM     50  C   UNL A   1      45.988  30.395  29.377  1.00  0.00     0.049 A 
ATOM     51  C   UNL A   1      41.000  32.644  30.574  1.00  0.00     0.074 A 
ATOM     52  C   UNL A   1      47.100  31.179  29.633  1.00  0.00     0.029 A 
ATOM     53  N   UNL A   1      44.881  31.133  29.768  1.00  0.00    -0.354 N 
ATOM     54  N   UNL A   1      42.231  32.257  30.339  1.00  0.00    -0.248 NA
ATOM     55  C   UNL A   1      40.893  33.952  31.235  1.00  0.00     0.031 C 
ATOM     56  C   UNL A   1      46.669  32.365  30.237  1.00  0.00     0.029 A 
ATOM     57  C   UNL A   1      45.284  32.348  30.295  1.00  0.00     0.049 A 
ATOM     58  H   UNL A   1      43.946  30.836  29.683  1.00  0.00     0.167 HD
ATOM     59  C   UNL A   1      43.045  33.285  30.803  1.00  0.00     0.074 A 
ATOM     60  C   UNL A   1      42.166  34.316  31.316  1.00  0.00     0.031 C 
ATOM     61  C   UNL A   1      44.399  33.365  30.805  1.00  0.00     0.031 A 
BRANCH  48  62
ATOM     62  C   UNL A   1      47.242  28.368  28.531  1.00  0.00    -0.014 A 
ATOM     63  C   UNL A   1      47.895  27.607  29.517  1.00  0.00     0.010 A 
ATOM     64  C   UNL A   1      47.796  28.430  27.239  1.00  0.00     0.010 A 
ATOM     65  C   UNL A   1      49.099  26.955  29.229  1.00  0.00     0.020 A 
ATOM     66  C   UNL A   1      48.983  27.755  26.938  1.00  0.00     0.020 A 
ATOM     67  C   UNL A   1      49.636  27.036  27.940  1.00  0.00     0.054 A 
BRANCH  67  68
ATOM     68  S   UNL A   1      51.185  26.160  27.591  1.00  0.00     0.124 S 
ATOM     69  O   UNL A   1      51.710  26.920  26.458  1.00  0.00    -0.237 OA
ATOM     70  O   UNL A   1      51.925  26.308  28.841  1.00  0.00    -0.237 OA
ATOM     71  O   UNL A   1      50.754  24.800  27.281  1.00  0.00    -0.744 OA
ENDBRANCH  67  68
ENDBRANCH  48  62
BRANCH  49  72
ATOM     72  C   UNL A   1      38.397  32.543  30.603  1.00  0.00    -0.014 A 
ATOM     73  C   UNL A   1      37.655  33.246  29.639  1.00  0.00     0.010 A 
ATOM     74  C   UNL A   1      37.872  32.403  31.901  1.00  0.00     0.010 A 
ATOM     75  C   UNL A   1      36.418  33.808  29.968  1.00  0.00     0.020 A 
ATOM     76  C   UNL A   1      36.622  32.938  32.226  1.00  0.00     0.020 A 
ATOM     77  C   UNL A   1      35.907  33.646  31.258  1.00  0.00     0.054 A 
BRANCH  77  78
ATOM     78  S   UNL A   1      34.270  34.326  31.646  1.00  0.00     0.124 S 
ATOM     79  O   UNL A   1      33.794  33.409  32.675  1.00  0.00    -0.237 OA
ATOM     80  O   UNL A   1      34.590  35.678  32.099  1.00  0.00    -0.237 OA
ATOM     81  O   UNL A   1      33.562  34.261  30.369  1.00  0.00    -0.744 OA
ENDBRANCH  77  78
ENDBRANCH  49  72
BRANCH  61  82
ATOM     82  C   UNL A   1      45.020  34.621  31.356  1.00  0.00    -0.014 A 
ATOM     83  C   UNL A   1      45.467  34.689  32.688  1.00  0.00     0.010 A 
ATOM     84  C   UNL A   1      45.224  35.724  30.507  1.00  0.00     0.010 A 
ATOM     85  C   UNL A   1      46.088  35.845  33.166  1.00  0.00     0.020 A 
ATOM     86  C   UNL A   1      45.871  36.871  30.974  1.00  0.00     0.020 A 
ATOM     87  C   UNL A   1      46.289  36.929  32.304  1.00  0.00     0.054 A 
BRANCH  87  88
ATOM     88  S   UNL A   1      47.154  38.393  32.935  1.00  0.00     0.124 S 
ATOM     89  O   UNL A   1      46.719  38.426  34.328  1.00  0.00    -0.237 OA
ATOM     90  O   UNL A   1      48.558  38.051  32.722  1.00  0.00    -0.237 OA
ATOM     91  O   UNL A   1      46.649  39.481  32.100  1.00  0.00    -0.744 OA
ENDBRANCH  87  88
ENDBRANCH  61  82
ENDBRANCH  35  36
ENDBRANCH  27  30
ENDBRANCH  25  26
ENDBRANCH   1  25
TORSDOF 17
ENDMDL
MODEL 2
REMARK VINA RESULT:     -10.1      5.264     11.258
REMARK SMILES COc1ccc(C2=NO[C@](C)(C(=O)NCCCNC(=O)c3ccc(-c4c5nc(c(-c6ccc(S(=O)(=O)[O-])cc6)c6ccc([nH]6)c(-c6ccc(S(=O)(=O)[O-])cc6)c6nc(c(-c7ccc(S(=O)(=O)[O-])cc7)c7ccc4[nH]7)C=C6)C=C5)cc3)C2)c(OC)c1OC
REMARK SMILES IDX 16 1 15 2 14 3 12 4 13 5 10 7 7 8 8 9 81 10 9 11 11 12 6 13
REMARK SMILES IDX 3 14 4 15 85 16 5 17 82 18 2 19 1 20 86 21 87 22 83 23 84 24
REMARK SMILES IDX 17 25 18 26 19 27 20 29 21 30 22 31 80 32 23 33 79 34 24 35
REMARK SMILES IDX 25 36 26 37 73 38 27 39 78 40 72 41 74 42 28 43 77 44 71 45
REMARK SMILES IDX 70 46 29 48 59 49 40 50 58 51 41 52 44 53 57 54 75 55 42 56
REMARK SMILES IDX 43 57 56 59 76 60 45 61 30 62 31 63 39 64 32 65 38 66 33 67
REMARK SMILES IDX 34 68 35 69 36 70 37 71 60 72 61 73 69 74 62 75 68 76 63 77
REMARK SMILES IDX 64 78 65 79 66 80 67 81 46 82 47 83 55 84 48 85 54 86 49 87
REMARK SMILES IDX 50 88 51 89 52 90 53 91
REMARK H PARENT 14 6 18 28 74 47 44 58
REMARK Flexibility Score: inf
ROOT
ATOM      1  C   UNL A   1      37.272  29.986  32.583  1.00  0.00     0.042 C 
ENDROOT
BRANCH   1   2
ATOM      2  C   UNL A   1      38.631  30.516  33.040  1.00  0.00     0.118 C 
BRANCH   2   3
ATOM      3  N   UNL A   1      38.750  30.501  34.487  1.00  0.00    -0.352 N 
ATOM      4  C   UNL A   1      38.669  31.502  35.417  1.00  0.00     0.267 C 
ATOM      5  O   UNL A   1      38.900  31.167  36.583  1.00  0.00    -0.270 OA
ATOM      6  H   UNL A   1      38.919  29.609  34.869  1.00  0.00     0.163 HD
BRANCH   4   7
ATOM      7  C   UNL A   1      38.207  32.930  35.043  1.00  0.00     0.217 C 
ATOM      8  C   UNL A   1      36.781  33.995  33.593  1.00  0.00     0.095 C 
ATOM      9  N   UNL A   1      37.955  34.159  33.081  1.00  0.00    -0.089 NA
ATOM     10  C   UNL A   1      36.730  33.055  34.740  1.00  0.00     0.122 C 
ATOM     11  O   UNL A   1      38.844  33.326  33.812  1.00  0.00    -0.379 OA
ATOM     12  C   UNL A   1      38.696  33.893  36.128  1.00  0.00     0.071 C 
BRANCH   8  13
ATOM     13  C   UNL A   1      35.543  34.644  33.119  1.00  0.00     0.046 A 
ATOM     14  C   UNL A   1      33.196  35.913  32.329  1.00  0.00     0.164 A 
ATOM     15  C   UNL A   1      33.874  36.348  33.473  1.00  0.00     0.051 A 
ATOM     16  C   UNL A   1      33.692  34.845  31.551  1.00  0.00     0.203 A 
ATOM     17  C   UNL A   1      35.048  35.719  33.867  1.00  0.00     0.018 A 
ATOM     18  C   UNL A   1      34.870  34.181  31.969  1.00  0.00     0.173 A 
BRANCH  14  19
ATOM     19  O   UNL A   1      32.112  36.647  31.921  1.00  0.00    -0.493 OA
ATOM     20  C   UNL A   1      30.891  36.167  32.494  1.00  0.00     0.278 C 
ENDBRANCH  14  19
BRANCH  16  21
ATOM     21  O   UNL A   1      33.154  34.476  30.345  1.00  0.00    -0.490 OA
ATOM     22  C   UNL A   1      33.475  35.263  29.204  1.00  0.00     0.278 C 
ENDBRANCH  16  21
BRANCH  18  23
ATOM     23  O   UNL A   1      35.450  33.083  31.385  1.00  0.00    -0.492 OA
ATOM     24  C   UNL A   1      36.236  33.234  30.214  1.00  0.00     0.278 C 
ENDBRANCH  18  23
ENDBRANCH   8  13
ENDBRANCH   4   7
ENDBRANCH   2   3
ENDBRANCH   1   2
BRANCH   1  25
ATOM     25  C   UNL A   1      37.372  28.923  31.493  1.00  0.00     0.118 C 
BRANCH  25  26
ATOM     26  N   UNL A   1      36.701  29.337  30.267  1.00  0.00    -0.352 N 
ATOM     27  C   UNL A   1      37.223  29.622  29.032  1.00  0.00     0.251 C 
ATOM     28  H   UNL A   1      35.723  29.425  30.337  1.00  0.00     0.163 HD
ATOM     29  O   UNL A   1      36.513  30.183  28.194  1.00  0.00    -0.269 OA
BRANCH  27  30
ATOM     30  C   UNL A   1      38.624  29.281  28.704  1.00  0.00     0.039 A 
ATOM     31  C   UNL A   1      39.040  29.335  27.372  1.00  0.00     0.014 A 
ATOM     32  C   UNL A   1      39.521  28.883  29.700  1.00  0.00     0.014 A 
ATOM     33  C   UNL A   1      40.372  29.060  27.048  1.00  0.00     0.010 A 
ATOM     34  C   UNL A   1      40.862  28.682  29.386  1.00  0.00     0.010 A 
ATOM     35  C   UNL A   1      41.304  28.772  28.057  1.00  0.00    -0.014 A 
BRANCH  35  36
ATOM     36  C   UNL A   1      42.747  28.590  27.751  1.00  0.00     0.031 A 
ATOM     37  C   UNL A   1      43.706  29.741  27.884  1.00  0.00     0.074 A 
ATOM     38  C   UNL A   1      43.177  27.403  27.278  1.00  0.00     0.049 A 
ATOM     39  N   UNL A   1      44.978  29.792  27.583  1.00  0.00    -0.248 NA
ATOM     40  C   UNL A   1      43.160  31.007  28.401  1.00  0.00     0.031 C 
ATOM     41  C   UNL A   1      42.339  26.219  27.070  1.00  0.00     0.029 A 
ATOM     42  N   UNL A   1      44.425  26.998  26.874  1.00  0.00    -0.354 N 
ATOM     43  C   UNL A   1      45.381  31.094  27.859  1.00  0.00     0.074 A 
ATOM     44  C   UNL A   1      44.209  31.812  28.308  1.00  0.00     0.031 C 
ATOM     45  C   UNL A   1      43.099  25.219  26.599  1.00  0.00     0.029 A 
ATOM     46  C   UNL A   1      44.465  25.699  26.422  1.00  0.00     0.049 A 
ATOM     47  H   UNL A   1      45.217  27.582  26.903  1.00  0.00     0.167 HD
ATOM     48  C   UNL A   1      46.619  31.637  27.762  1.00  0.00     0.031 A 
ATOM     49  C   UNL A   1      45.480  24.979  25.905  1.00  0.00     0.031 A 
ATOM     50  C   UNL A   1      47.782  30.916  27.316  1.00  0.00     0.049 A 
ATOM     51  C   UNL A   1      46.837  25.614  25.777  1.00  0.00     0.074 A 
ATOM     52  C   UNL A   1      49.090  31.362  27.235  1.00  0.00     0.029 A 
ATOM     53  N   UNL A   1      47.779  29.603  26.867  1.00  0.00    -0.354 N 
ATOM     54  N   UNL A   1      47.213  26.826  26.109  1.00  0.00    -0.248 NA
ATOM     55  C   UNL A   1      47.907  24.784  25.207  1.00  0.00     0.031 C 
ATOM     56  C   UNL A   1      49.866  30.339  26.680  1.00  0.00     0.029 A 
ATOM     57  C   UNL A   1      49.055  29.234  26.477  1.00  0.00     0.049 A 
ATOM     58  H   UNL A   1      46.987  29.020  26.832  1.00  0.00     0.167 HD
ATOM     59  C   UNL A   1      48.569  26.896  25.810  1.00  0.00     0.074 A 
ATOM     60  C   UNL A   1      48.950  25.600  25.286  1.00  0.00     0.031 C 
ATOM     61  C   UNL A   1      49.421  27.941  25.955  1.00  0.00     0.031 A 
BRANCH  48  62
ATOM     62  C   UNL A   1      46.777  33.089  28.134  1.00  0.00    -0.014 A 
ATOM     63  C   UNL A   1      47.037  33.475  29.461  1.00  0.00     0.010 A 
ATOM     64  C   UNL A   1      46.715  34.077  27.135  1.00  0.00     0.010 A 
ATOM     65  C   UNL A   1      47.190  34.825  29.790  1.00  0.00     0.020 A 
ATOM     66  C   UNL A   1      46.897  35.427  27.454  1.00  0.00     0.020 A 
ATOM     67  C   UNL A   1      47.117  35.793  28.783  1.00  0.00     0.054 A 
BRANCH  67  68
ATOM     68  S   UNL A   1      47.344  37.534  29.236  1.00  0.00     0.124 S 
ATOM     69  O   UNL A   1      46.122  38.142  28.713  1.00  0.00    -0.237 OA
ATOM     70  O   UNL A   1      47.441  37.475  30.692  1.00  0.00    -0.237 OA
ATOM     71  O   UNL A   1      48.573  37.916  28.547  1.00  0.00    -0.744 OA
ENDBRANCH  67  68
ENDBRANCH  48  62
BRANCH  49  72
ATOM     72  C   UNL A   1      45.246  23.575  25.469  1.00  0.00    -0.014 A 
ATOM     73  C   UNL A   1      44.938  23.282  24.129  1.00  0.00     0.010 A 
ATOM     74  C   UNL A   1      45.350  22.517  26.392  1.00  0.00     0.010 A 
ATOM     75  C   UNL A   1      44.726  21.961  23.723  1.00  0.00     0.020 A 
ATOM     76  C   UNL A   1      45.169  21.193  25.983  1.00  0.00     0.020 A 
ATOM     77  C   UNL A   1      44.848  20.925  24.652  1.00  0.00     0.054 A 
BRANCH  77  78
ATOM     78  S   UNL A   1      44.635  19.212  24.090  1.00  0.00     0.124 S 
ATOM     79  O   UNL A   1      43.407  18.818  24.771  1.00  0.00    -0.237 OA
ATOM     80  O   UNL A   1      44.536  19.367  22.640  1.00  0.00    -0.237 OA
ATOM     81  O   UNL A   1      45.853  18.548  24.552  1.00  0.00    -0.744 OA
ENDBRANCH  77  78
ENDBRANCH  49  72
BRANCH  61  82
ATOM     82  C   UNL A   1      50.859  27.725  25.566  1.00  0.00    -0.014 A 
ATOM     83  C   UNL A   1      51.301  27.957  24.252  1.00  0.00     0.010 A 
ATOM     84  C   UNL A   1      51.795  27.354  26.550  1.00  0.00     0.010 A 
ATOM     85  C   UNL A   1      52.650  27.800  23.924  1.00  0.00     0.020 A 
ATOM     86  C   UNL A   1      53.149  27.225  26.230  1.00  0.00     0.020 A 
ATOM     87  C   UNL A   1      53.567  27.439  24.916  1.00  0.00     0.054 A 
BRANCH  87  88
ATOM     88  S   UNL A   1      55.321  27.304  24.475  1.00  0.00     0.124 S 
ATOM     89  O   UNL A   1      55.848  26.494  25.568  1.00  0.00    -0.237 OA
ATOM     90  O   UNL A   1      55.272  26.647  23.171  1.00  0.00    -0.237 OA
ATOM     91  O   UNL A   1      55.780  28.692  24.451  1.00  0.00    -0.744 OA
ENDBRANCH  87  88
ENDBRANCH  61  82
ENDBRANCH  35  36
ENDBRANCH  27  30
ENDBRANCH  25  26
ENDBRANCH   1  25
TORSDOF 17
ENDMDL
MODEL 3
REMARK VINA RESULT:     -10.1      3.635     10.062
REMARK SMILES COc1ccc(C2=NO[C@](C)(C(=O)NCCCNC(=O)c3ccc(-c4c5nc(c(-c6ccc(S(=O)(=O)[O-])cc6)c6ccc([nH]6)c(-c6ccc(S(=O)(=O)[O-])cc6)c6nc(c(-c7ccc(S(=O)(=O)[O-])cc7)c7ccc4[nH]7)C=C6)C=C5)cc3)C2)c(OC)c1OC
REMARK SMILES IDX 16 1 15 2 14 3 12 4 13 5 10 7 7 8 8 9 81 10 9 11 11 12 6 13
REMARK SMILES IDX 3 14 4 15 85 16 5 17 82 18 2 19 1 20 86 21 87 22 83 23 84 24
REMARK SMILES IDX 17 25 18 26 19 27 20 29 21 30 22 31 80 32 23 33 79 34 24 35
REMARK SMILES IDX 25 36 26 37 73 38 27 39 78 40 72 41 74 42 28 43 77 44 71 45
REMARK SMILES IDX 70 46 29 48 59 49 40 50 58 51 41 52 44 53 57 54 75 55 42 56
REMARK SMILES IDX 43 57 56 59 76 60 45 61 30 62 31 63 39 64 32 65 38 66 33 67
REMARK SMILES IDX 34 68 35 69 36 70 37 71 60 72 61 73 69 74 62 75 68 76 63 77
REMARK SMILES IDX 64 78 65 79 66 80 67 81 46 82 47 83 55 84 48 85 54 86 49 87
REMARK SMILES IDX 50 88 51 89 52 90 53 91
REMARK H PARENT 14 6 18 28 74 47 44 58
REMARK Flexibility Score: inf
ROOT
ATOM      1  C   UNL A   1      38.270  33.164  31.747  1.00  0.00     0.042 C 
ENDROOT
BRANCH   1   2
ATOM      2  C   UNL A   1      37.338  33.989  30.859  1.00  0.00     0.118 C 
BRANCH   2   3
ATOM      3  N   UNL A   1      36.232  34.545  31.619  1.00  0.00    -0.352 N 
ATOM      4  C   UNL A   1      34.933  34.804  31.277  1.00  0.00     0.267 C 
ATOM      5  O   UNL A   1      34.254  35.364  32.143  1.00  0.00    -0.270 OA
ATOM      6  H   UNL A   1      36.458  34.777  32.549  1.00  0.00     0.163 HD
BRANCH   4   7
ATOM      7  C   UNL A   1      34.329  34.323  29.936  1.00  0.00     0.217 C 
ATOM      8  C   UNL A   1      34.585  32.642  28.394  1.00  0.00     0.095 C 
ATOM      9  N   UNL A   1      35.150  33.671  27.856  1.00  0.00    -0.089 NA
ATOM     10  C   UNL A   1      34.187  32.821  29.812  1.00  0.00     0.122 C 
ATOM     11  O   UNL A   1      35.225  34.673  28.861  1.00  0.00    -0.379 OA
ATOM     12  C   UNL A   1      33.024  35.086  29.695  1.00  0.00     0.071 C 
BRANCH   8  13
ATOM     13  C   UNL A   1      34.336  31.353  27.718  1.00  0.00     0.046 A 
ATOM     14  C   UNL A   1      33.978  28.913  26.430  1.00  0.00     0.164 A 
ATOM     15  C   UNL A   1      35.231  29.249  26.954  1.00  0.00     0.051 A 
ATOM     16  C   UNL A   1      32.878  29.788  26.557  1.00  0.00     0.203 A 
ATOM     17  C   UNL A   1      35.411  30.465  27.602  1.00  0.00     0.018 A 
ATOM     18  C   UNL A   1      33.067  31.041  27.186  1.00  0.00     0.173 A 
BRANCH  14  19
ATOM     19  O   UNL A   1      33.830  27.653  25.910  1.00  0.00    -0.493 OA
ATOM     20  C   UNL A   1      32.971  26.836  26.713  1.00  0.00     0.278 C 
ENDBRANCH  14  19
BRANCH  16  21
ATOM     21  O   UNL A   1      31.599  29.448  26.197  1.00  0.00    -0.490 OA
ATOM     22  C   UNL A   1      31.279  29.433  24.811  1.00  0.00     0.278 C 
ENDBRANCH  16  21
BRANCH  18  23
ATOM     23  O   UNL A   1      32.138  32.041  27.330  1.00  0.00    -0.492 OA
ATOM     24  C   UNL A   1      31.422  32.512  26.200  1.00  0.00     0.278 C 
ENDBRANCH  18  23
ENDBRANCH   8  13
ENDBRANCH   4   7
ENDBRANCH   2   3
ENDBRANCH   1   2
BRANCH   1  25
ATOM     25  C   UNL A   1      37.562  32.524  32.938  1.00  0.00     0.118 C 
BRANCH  25  26
ATOM     26  N   UNL A   1      36.707  31.416  32.532  1.00  0.00    -0.352 N 
ATOM     27  C   UNL A   1      36.939  30.411  31.629  1.00  0.00     0.251 C 
ATOM     28  H   UNL A   1      35.828  31.385  32.974  1.00  0.00     0.163 HD
ATOM     29  O   UNL A   1      35.996  29.710  31.255  1.00  0.00    -0.269 OA
BRANCH  27  30
ATOM     30  C   UNL A   1      38.296  30.175  31.090  1.00  0.00     0.039 A 
ATOM     31  C   UNL A   1      39.299  29.728  31.954  1.00  0.00     0.014 A 
ATOM     32  C   UNL A   1      38.589  30.416  29.744  1.00  0.00     0.014 A 
ATOM     33  C   UNL A   1      40.575  29.456  31.454  1.00  0.00     0.010 A 
ATOM     34  C   UNL A   1      39.839  30.074  29.235  1.00  0.00     0.010 A 
ATOM     35  C   UNL A   1      40.845  29.586  30.082  1.00  0.00    -0.014 A 
BRANCH  35  36
ATOM     36  C   UNL A   1      42.159  29.193  29.510  1.00  0.00     0.031 A 
ATOM     37  C   UNL A   1      43.265  30.204  29.377  1.00  0.00     0.074 A 
ATOM     38  C   UNL A   1      42.328  27.940  29.041  1.00  0.00     0.049 A 
ATOM     39  N   UNL A   1      44.445  30.066  28.829  1.00  0.00    -0.248 NA
ATOM     40  C   UNL A   1      43.003  31.553  29.907  1.00  0.00     0.031 C 
ATOM     41  C   UNL A   1      41.320  26.878  29.081  1.00  0.00     0.029 A 
ATOM     42  N   UNL A   1      43.405  27.351  28.426  1.00  0.00    -0.354 N 
ATOM     43  C   UNL A   1      45.060  31.309  28.934  1.00  0.00     0.074 A 
ATOM     44  C   UNL A   1      44.106  32.200  29.557  1.00  0.00     0.031 C 
ATOM     45  C   UNL A   1      41.833  25.764  28.536  1.00  0.00     0.029 A 
ATOM     46  C   UNL A   1      43.184  26.043  28.062  1.00  0.00     0.049 A 
ATOM     47  H   UNL A   1      44.255  27.820  28.261  1.00  0.00     0.167 HD
ATOM     48  C   UNL A   1      46.311  31.670  28.559  1.00  0.00     0.031 A 
ATOM     49  C   UNL A   1      43.971  25.169  27.404  1.00  0.00     0.031 A 
ATOM     50  C   UNL A   1      47.256  30.777  27.942  1.00  0.00     0.049 A 
ATOM     51  C   UNL A   1      45.343  25.604  26.969  1.00  0.00     0.074 A 
ATOM     52  C   UNL A   1      48.567  31.033  27.576  1.00  0.00     0.029 A 
ATOM     53  N   UNL A   1      46.994  29.462  27.590  1.00  0.00    -0.354 N 
ATOM     54  N   UNL A   1      45.932  26.764  27.141  1.00  0.00    -0.248 NA
ATOM     55  C   UNL A   1      46.159  24.612  26.256  1.00  0.00     0.031 C 
ATOM     56  C   UNL A   1      49.076  29.893  26.948  1.00  0.00     0.029 A 
ATOM     57  C   UNL A   1      48.105  28.904  26.981  1.00  0.00     0.049 A 
ATOM     58  H   UNL A   1      46.142  28.994  27.749  1.00  0.00     0.167 HD
ATOM     59  C   UNL A   1      47.196  26.633  26.577  1.00  0.00     0.074 A 
ATOM     60  C   UNL A   1      47.293  25.277  26.075  1.00  0.00     0.031 C 
ATOM     61  C   UNL A   1      48.187  27.554  26.483  1.00  0.00     0.031 A 
BRANCH  48  62
ATOM     62  C   UNL A   1      46.727  33.099  28.798  1.00  0.00    -0.014 A 
ATOM     63  C   UNL A   1      47.363  33.481  29.992  1.00  0.00     0.010 A 
ATOM     64  C   UNL A   1      46.525  34.062  27.792  1.00  0.00     0.010 A 
ATOM     65  C   UNL A   1      47.751  34.809  30.195  1.00  0.00     0.020 A 
ATOM     66  C   UNL A   1      46.939  35.385  27.979  1.00  0.00     0.020 A 
ATOM     67  C   UNL A   1      47.534  35.754  29.186  1.00  0.00     0.054 A 
BRANCH  67  68
ATOM     68  S   UNL A   1      48.071  37.463  29.469  1.00  0.00     0.124 S 
ATOM     69  O   UNL A   1      49.520  37.308  29.575  1.00  0.00    -0.237 OA
ATOM     70  O   UNL A   1      47.599  38.149  28.269  1.00  0.00    -0.237 OA
ATOM     71  O   UNL A   1      47.393  37.839  30.707  1.00  0.00    -0.744 OA
ENDBRANCH  67  68
ENDBRANCH  48  62
BRANCH  49  72
ATOM     72  C   UNL A   1      43.474  23.795  27.115  1.00  0.00    -0.014 A 
ATOM     73  C   UNL A   1      43.503  22.799  28.106  1.00  0.00     0.010 A 
ATOM     74  C   UNL A   1      42.951  23.482  25.847  1.00  0.00     0.010 A 
ATOM     75  C   UNL A   1      43.030  21.513  27.832  1.00  0.00     0.020 A 
ATOM     76  C   UNL A   1      42.449  22.205  25.578  1.00  0.00     0.020 A 
ATOM     77  C   UNL A   1      42.501  21.225  26.572  1.00  0.00     0.054 A 
BRANCH  77  78
ATOM     78  S   UNL A   1      41.830  19.568  26.257  1.00  0.00     0.124 S 
ATOM     79  O   UNL A   1      40.404  19.837  26.121  1.00  0.00    -0.237 OA
ATOM     80  O   UNL A   1      42.523  19.176  25.033  1.00  0.00    -0.237 OA
ATOM     81  O   UNL A   1      42.218  18.813  27.448  1.00  0.00    -0.744 OA
ENDBRANCH  77  78
ENDBRANCH  49  72
BRANCH  61  82
ATOM     82  C   UNL A   1      49.476  27.125  25.834  1.00  0.00    -0.014 A 
ATOM     83  C   UNL A   1      49.793  27.510  24.519  1.00  0.00     0.010 A 
ATOM     84  C   UNL A   1      50.414  26.385  26.577  1.00  0.00     0.010 A 
ATOM     85  C   UNL A   1      51.017  27.145  23.953  1.00  0.00     0.020 A 
ATOM     86  C   UNL A   1      51.651  26.044  26.024  1.00  0.00     0.020 A 
ATOM     87  C   UNL A   1      51.940  26.417  24.711  1.00  0.00     0.054 A 
BRANCH  87  88
ATOM     88  S   UNL A   1      53.546  26.012  23.971  1.00  0.00     0.124 S 
ATOM     89  O   UNL A   1      53.213  25.917  22.553  1.00  0.00    -0.237 OA
ATOM     90  O   UNL A   1      54.370  27.157  24.349  1.00  0.00    -0.237 OA
ATOM     91  O   UNL A   1      53.913  24.749  24.610  1.00  0.00    -0.744 OA
ENDBRANCH  87  88
ENDBRANCH  61  82
ENDBRANCH  35  36
ENDBRANCH  27  30
ENDBRANCH  25  26
ENDBRANCH   1  25
TORSDOF 17
ENDMDL
