MODEL 1
REMARK VINA RESULT:     -11.5      0.000      0.000
REMARK SMILES O=C(Cc1ccc(S(=O)(=O)N2CCNC(=O)C2)cc1)NCCCNC(=O)c1ccc(-c2c3nc(c(-c4ccc(S(=O)(=O)[O-])cc4)c4ccc([nH]4)c(-c4ccc(S(=O)(=O)[O-])cc4)c4nc(c(-c5ccc(S(=O)(=O)[O-])cc5)c5ccc2[nH]5)C=C4)C=C3)cc1
REMARK SMILES IDX 22 1 21 2 20 3 1 4 2 5 3 7 4 8 5 9 19 10 6 11 18 12 7 13
REMARK SMILES IDX 8 14 9 15 10 16 11 17 12 18 17 19 13 20 15 21 14 22 16 23
REMARK SMILES IDX 23 25 24 26 25 27 26 29 27 30 28 31 86 32 29 33 85 34 30 35
REMARK SMILES IDX 31 36 32 37 79 38 33 39 84 40 78 41 80 42 34 43 83 44 77 45
REMARK SMILES IDX 76 46 35 48 65 49 46 50 64 51 47 52 50 53 63 54 81 55 48 56
REMARK SMILES IDX 49 57 62 59 82 60 51 61 36 62 37 63 45 64 38 65 44 66 39 67
REMARK SMILES IDX 40 68 41 69 42 70 43 71 66 72 67 73 75 74 68 75 74 76 69 77
REMARK SMILES IDX 70 78 71 79 72 80 73 81 52 82 53 83 61 84 54 85 60 86 55 87
REMARK SMILES IDX 56 88 57 89 58 90 59 91
REMARK H PARENT 20 6 14 24 24 28 80 47 50 58
REMARK Flexibility Score: inf
ROOT
ATOM      1  C   UNL A   1      40.550  22.153  27.534  1.00  0.00     0.042 C 
ENDROOT
BRANCH   1   2
ATOM      2  C   UNL A   1      39.901  21.960  26.170  1.00  0.00     0.117 C 
BRANCH   2   3
ATOM      3  N   UNL A   1      38.454  21.931  26.246  1.00  0.00    -0.356 N 
ATOM      4  O   UNL A   1      38.132  24.150  25.737  1.00  0.00    -0.275 OA
ATOM      5  C   UNL A   1      37.674  23.036  25.974  1.00  0.00     0.224 C 
ATOM      6  H   UNL A   1      38.010  21.090  26.501  1.00  0.00     0.163 HD
BRANCH   5   7
ATOM      7  C   UNL A   1      36.179  22.769  26.008  1.00  0.00     0.135 C 
BRANCH   7   8
ATOM      8  C   UNL A   1      35.314  23.665  25.142  1.00  0.00    -0.039 A 
ATOM      9  C   UNL A   1      34.708  24.842  25.606  1.00  0.00     0.005 A 
ATOM     10  C   UNL A   1      35.096  23.286  23.808  1.00  0.00     0.005 A 
ATOM     11  C   UNL A   1      33.988  25.666  24.737  1.00  0.00     0.022 A 
ATOM     12  C   UNL A   1      34.327  24.079  22.950  1.00  0.00     0.022 A 
ATOM     13  C   UNL A   1      33.815  25.293  23.402  1.00  0.00     0.082 A 
BRANCH  13  14
ATOM     14  S   UNL A   1      32.923  26.390  22.321  1.00  0.00     0.243 S 
ATOM     15  O   UNL A   1      33.901  27.247  21.696  1.00  0.00    -0.207 OA
ATOM     16  O   UNL A   1      32.039  25.557  21.524  1.00  0.00    -0.207 OA
BRANCH  14  17
ATOM     17  N   UNL A   1      31.931  27.329  23.297  1.00  0.00    -0.187 NA
ATOM     18  C   UNL A   1      31.872  28.795  23.137  1.00  0.00     0.124 C 
ATOM     19  C   UNL A   1      30.731  26.739  23.920  1.00  0.00     0.202 C 
ATOM     20  C   UNL A   1      30.616  29.205  22.367  1.00  0.00     0.132 C 
ATOM     21  C   UNL A   1      29.402  27.331  23.479  1.00  0.00     0.235 C 
ATOM     22  N   UNL A   1      29.415  28.537  22.829  1.00  0.00    -0.354 N 
ATOM     23  O   UNL A   1      28.328  26.778  23.714  1.00  0.00    -0.274 OA
ATOM     24  H   UNL A   1      28.550  28.979  22.664  1.00  0.00     0.163 HD
ENDBRANCH  14  17
ENDBRANCH  13  14
ENDBRANCH   7   8
ENDBRANCH   5   7
ENDBRANCH   2   3
ENDBRANCH   1   2
BRANCH   1  25
ATOM     25  C   UNL A   1      41.375  23.429  27.663  1.00  0.00     0.118 C 
BRANCH  25  26
ATOM     26  N   UNL A   1      41.474  24.182  26.418  1.00  0.00    -0.352 N 
ATOM     27  C   UNL A   1      41.227  25.514  26.180  1.00  0.00     0.251 C 
ATOM     28  H   UNL A   1      41.759  23.660  25.633  1.00  0.00     0.163 HD
ATOM     29  O   UNL A   1      41.240  25.942  25.030  1.00  0.00    -0.269 OA
BRANCH  27  30
ATOM     30  C   UNL A   1      40.921  26.421  27.307  1.00  0.00     0.039 A 
ATOM     31  C   UNL A   1      39.863  26.104  28.166  1.00  0.00     0.014 A 
ATOM     32  C   UNL A   1      41.683  27.570  27.528  1.00  0.00     0.014 A 
ATOM     33  C   UNL A   1      39.625  26.894  29.294  1.00  0.00     0.010 A 
ATOM     34  C   UNL A   1      41.486  28.317  28.686  1.00  0.00     0.010 A 
ATOM     35  C   UNL A   1      40.464  27.980  29.587  1.00  0.00    -0.014 A 
BRANCH  35  36
ATOM     36  C   UNL A   1      40.315  28.778  30.832  1.00  0.00     0.031 A 
ATOM     37  C   UNL A   1      39.299  29.883  30.898  1.00  0.00     0.074 A 
ATOM     38  C   UNL A   1      41.165  28.580  31.860  1.00  0.00     0.049 A 
ATOM     39  N   UNL A   1      39.133  30.798  31.819  1.00  0.00    -0.248 NA
ATOM     40  C   UNL A   1      38.365  29.991  29.766  1.00  0.00     0.031 C 
ATOM     41  C   UNL A   1      42.212  27.557  31.914  1.00  0.00     0.029 A 
ATOM     42  N   UNL A   1      41.297  29.250  33.051  1.00  0.00    -0.354 N 
ATOM     43  C   UNL A   1      38.099  31.609  31.363  1.00  0.00     0.074 A 
ATOM     44  C   UNL A   1      37.698  31.096  30.071  1.00  0.00     0.031 C 
ATOM     45  C   UNL A   1      42.871  27.662  33.079  1.00  0.00     0.029 A 
ATOM     46  C   UNL A   1      42.329  28.787  33.834  1.00  0.00     0.049 A 
ATOM     47  H   UNL A   1      40.708  29.993  33.319  1.00  0.00     0.167 HD
ATOM     48  C   UNL A   1      37.531  32.678  31.969  1.00  0.00     0.031 A 
ATOM     49  C   UNL A   1      42.801  29.229  35.016  1.00  0.00     0.031 A 
ATOM     50  C   UNL A   1      37.917  33.174  33.263  1.00  0.00     0.049 A 
ATOM     51  C   UNL A   1      42.153  30.418  35.671  1.00  0.00     0.074 A 
ATOM     52  C   UNL A   1      37.370  34.224  33.980  1.00  0.00     0.029 A 
ATOM     53  N   UNL A   1      38.940  32.650  34.037  1.00  0.00    -0.354 N 
ATOM     54  N   UNL A   1      41.157  31.153  35.238  1.00  0.00    -0.248 NA
ATOM     55  C   UNL A   1      42.688  30.833  36.976  1.00  0.00     0.031 C 
ATOM     56  C   UNL A   1      38.087  34.358  35.173  1.00  0.00     0.029 A 
ATOM     57  C   UNL A   1      39.048  33.360  35.220  1.00  0.00     0.049 A 
ATOM     58  H   UNL A   1      39.508  31.886  33.783  1.00  0.00     0.167 HD
ATOM     59  C   UNL A   1      40.923  32.095  36.234  1.00  0.00     0.074 A 
ATOM     60  C   UNL A   1      41.880  31.838  37.290  1.00  0.00     0.031 C 
ATOM     61  C   UNL A   1      39.994  33.081  36.270  1.00  0.00     0.031 A 
BRANCH  48  62
ATOM     62  C   UNL A   1      36.433  33.393  31.227  1.00  0.00    -0.014 A 
ATOM     63  C   UNL A   1      35.135  33.481  31.759  1.00  0.00     0.010 A 
ATOM     64  C   UNL A   1      36.712  34.011  29.994  1.00  0.00     0.010 A 
ATOM     65  C   UNL A   1      34.123  34.132  31.050  1.00  0.00     0.020 A 
ATOM     66  C   UNL A   1      35.709  34.687  29.295  1.00  0.00     0.020 A 
ATOM     67  C   UNL A   1      34.415  34.725  29.818  1.00  0.00     0.054 A 
BRANCH  67  68
ATOM     68  S   UNL A   1      33.084  35.570  28.921  1.00  0.00     0.124 S 
ATOM     69  O   UNL A   1      33.834  36.514  28.096  1.00  0.00    -0.237 OA
ATOM     70  O   UNL A   1      32.440  34.477  28.196  1.00  0.00    -0.237 OA
ATOM     71  O   UNL A   1      32.279  36.171  29.982  1.00  0.00    -0.744 OA
ENDBRANCH  67  68
ENDBRANCH  48  62
BRANCH  49  72
ATOM     72  C   UNL A   1      43.946  28.534  35.663  1.00  0.00    -0.014 A 
ATOM     73  C   UNL A   1      45.265  28.943  35.396  1.00  0.00     0.010 A 
ATOM     74  C   UNL A   1      43.726  27.475  36.562  1.00  0.00     0.010 A 
ATOM     75  C   UNL A   1      46.344  28.295  36.005  1.00  0.00     0.020 A 
ATOM     76  C   UNL A   1      44.801  26.841  37.191  1.00  0.00     0.020 A 
ATOM     77  C   UNL A   1      46.104  27.248  36.900  1.00  0.00     0.054 A 
BRANCH  77  78
ATOM     78  S   UNL A   1      47.517  26.458  37.721  1.00  0.00     0.124 S 
ATOM     79  O   UNL A   1      48.132  25.723  36.622  1.00  0.00    -0.237 OA
ATOM     80  O   UNL A   1      48.273  27.602  38.221  1.00  0.00    -0.237 OA
ATOM     81  O   UNL A   1      46.891  25.635  38.755  1.00  0.00    -0.744 OA
ENDBRANCH  77  78
ENDBRANCH  49  72
BRANCH  61  82
ATOM     82  C   UNL A   1      39.921  33.927  37.511  1.00  0.00    -0.014 A 
ATOM     83  C   UNL A   1      40.659  35.116  37.630  1.00  0.00     0.010 A 
ATOM     84  C   UNL A   1      39.031  33.563  38.538  1.00  0.00     0.010 A 
ATOM     85  C   UNL A   1      40.517  35.922  38.763  1.00  0.00     0.020 A 
ATOM     86  C   UNL A   1      38.870  34.378  39.662  1.00  0.00     0.020 A 
ATOM     87  C   UNL A   1      39.621  35.549  39.770  1.00  0.00     0.054 A 
BRANCH  87  88
ATOM     88  S   UNL A   1      39.399  36.649  41.197  1.00  0.00     0.124 S 
ATOM     89  O   UNL A   1      40.773  36.833  41.654  1.00  0.00    -0.237 OA
ATOM     90  O   UNL A   1      38.770  37.826  40.602  1.00  0.00    -0.237 OA
ATOM     91  O   UNL A   1      38.541  35.880  42.095  1.00  0.00    -0.744 OA
ENDBRANCH  87  88
ENDBRANCH  61  82
ENDBRANCH  35  36
ENDBRANCH  27  30
ENDBRANCH  25  26
ENDBRANCH   1  25
TORSDOF 16
ENDMDL
MODEL 2
REMARK VINA RESULT:     -11.5      0.558      8.246
REMARK SMILES O=C(Cc1ccc(S(=O)(=O)N2CCNC(=O)C2)cc1)NCCCNC(=O)c1ccc(-c2c3nc(c(-c4ccc(S(=O)(=O)[O-])cc4)c4ccc([nH]4)c(-c4ccc(S(=O)(=O)[O-])cc4)c4nc(c(-c5ccc(S(=O)(=O)[O-])cc5)c5ccc2[nH]5)C=C4)C=C3)cc1
REMARK SMILES IDX 22 1 21 2 20 3 1 4 2 5 3 7 4 8 5 9 19 10 6 11 18 12 7 13
REMARK SMILES IDX 8 14 9 15 10 16 11 17 12 18 17 19 13 20 15 21 14 22 16 23
REMARK SMILES IDX 23 25 24 26 25 27 26 29 27 30 28 31 86 32 29 33 85 34 30 35
REMARK SMILES IDX 31 36 32 37 79 38 33 39 84 40 78 41 80 42 34 43 83 44 77 45
REMARK SMILES IDX 76 46 35 48 65 49 46 50 64 51 47 52 50 53 63 54 81 55 48 56
REMARK SMILES IDX 49 57 62 59 82 60 51 61 36 62 37 63 45 64 38 65 44 66 39 67
REMARK SMILES IDX 40 68 41 69 42 70 43 71 66 72 67 73 75 74 68 75 74 76 69 77
REMARK SMILES IDX 70 78 71 79 72 80 73 81 52 82 53 83 61 84 54 85 60 86 55 87
REMARK SMILES IDX 56 88 57 89 58 90 59 91
REMARK H PARENT 20 6 14 24 24 28 80 47 50 58
REMARK Flexibility Score: inf
ROOT
ATOM      1  C   UNL A   1      40.377  21.716  27.345  1.00  0.00     0.042 C 
ENDROOT
BRANCH   1   2
ATOM      2  C   UNL A   1      39.685  21.571  25.997  1.00  0.00     0.117 C 
BRANCH   2   3
ATOM      3  N   UNL A   1      38.243  21.684  26.101  1.00  0.00    -0.356 N 
ATOM      4  O   UNL A   1      38.155  23.972  25.891  1.00  0.00    -0.275 OA
ATOM      5  C   UNL A   1      37.583  22.891  25.992  1.00  0.00     0.224 C 
ATOM      6  H   UNL A   1      37.715  20.868  26.256  1.00  0.00     0.163 HD
BRANCH   5   7
ATOM      7  C   UNL A   1      36.069  22.779  26.026  1.00  0.00     0.135 C 
BRANCH   7   8
ATOM      8  C   UNL A   1      35.306  23.657  25.051  1.00  0.00    -0.039 A 
ATOM      9  C   UNL A   1      34.938  23.248  23.762  1.00  0.00     0.005 A 
ATOM     10  C   UNL A   1      34.964  24.957  25.460  1.00  0.00     0.005 A 
ATOM     11  C   UNL A   1      34.167  24.076  22.942  1.00  0.00     0.022 A 
ATOM     12  C   UNL A   1      34.242  25.809  24.620  1.00  0.00     0.022 A 
ATOM     13  C   UNL A   1      33.801  25.351  23.381  1.00  0.00     0.082 A 
BRANCH  13  14
ATOM     14  S   UNL A   1      32.787  26.358  22.320  1.00  0.00     0.243 S 
ATOM     15  O   UNL A   1      33.676  27.256  21.623  1.00  0.00    -0.207 OA
ATOM     16  O   UNL A   1      31.920  25.449  21.592  1.00  0.00    -0.207 OA
BRANCH  14  17
ATOM     17  N   UNL A   1      31.787  27.261  23.322  1.00  0.00    -0.187 NA
ATOM     18  C   UNL A   1      31.654  28.721  23.150  1.00  0.00     0.124 C 
ATOM     19  C   UNL A   1      30.639  26.623  23.994  1.00  0.00     0.202 C 
ATOM     20  C   UNL A   1      30.355  29.064  22.422  1.00  0.00     0.132 C 
ATOM     21  C   UNL A   1      29.269  27.148  23.595  1.00  0.00     0.235 C 
ATOM     22  N   UNL A   1      29.203  28.345  22.933  1.00  0.00    -0.354 N 
ATOM     23  O   UNL A   1      28.232  26.548  23.873  1.00  0.00    -0.274 OA
ATOM     24  H   UNL A   1      28.313  28.746  22.795  1.00  0.00     0.163 HD
ENDBRANCH  14  17
ENDBRANCH  13  14
ENDBRANCH   7   8
ENDBRANCH   5   7
ENDBRANCH   2   3
ENDBRANCH   1   2
BRANCH   1  25
ATOM     25  C   UNL A   1      41.348  22.889  27.430  1.00  0.00     0.118 C 
BRANCH  25  26
ATOM     26  N   UNL A   1      41.367  23.713  26.228  1.00  0.00    -0.352 N 
ATOM     27  C   UNL A   1      41.282  25.081  26.103  1.00  0.00     0.251 C 
ATOM     28  H   UNL A   1      41.451  23.218  25.380  1.00  0.00     0.163 HD
ATOM     29  O   UNL A   1      41.183  25.587  24.990  1.00  0.00    -0.269 OA
BRANCH  27  30
ATOM     30  C   UNL A   1      41.283  25.933  27.311  1.00  0.00     0.039 A 
ATOM     31  C   UNL A   1      42.362  26.795  27.533  1.00  0.00     0.014 A 
ATOM     32  C   UNL A   1      40.217  25.897  28.213  1.00  0.00     0.014 A 
ATOM     33  C   UNL A   1      42.331  27.682  28.613  1.00  0.00     0.010 A 
ATOM     34  C   UNL A   1      40.158  26.824  29.249  1.00  0.00     0.010 A 
ATOM     35  C   UNL A   1      41.208  27.734  29.453  1.00  0.00    -0.014 A 
BRANCH  35  36
ATOM     36  C   UNL A   1      41.085  28.736  30.544  1.00  0.00     0.031 A 
ATOM     37  C   UNL A   1      41.963  28.631  31.760  1.00  0.00     0.074 A 
ATOM     38  C   UNL A   1      40.115  29.670  30.490  1.00  0.00     0.049 A 
ATOM     39  N   UNL A   1      41.895  29.293  32.886  1.00  0.00    -0.248 NA
ATOM     40  C   UNL A   1      43.041  27.630  31.713  1.00  0.00     0.031 C 
ATOM     41  C   UNL A   1      39.181  29.865  29.378  1.00  0.00     0.029 A 
ATOM     42  N   UNL A   1      39.738  30.620  31.408  1.00  0.00    -0.354 N 
ATOM     43  C   UNL A   1      42.897  28.768  33.694  1.00  0.00     0.074 A 
ATOM     44  C   UNL A   1      43.538  27.713  32.939  1.00  0.00     0.031 C 
ATOM     45  C   UNL A   1      38.347  30.874  29.675  1.00  0.00     0.029 A 
ATOM     46  C   UNL A   1      38.653  31.368  31.015  1.00  0.00     0.049 A 
ATOM     47  H   UNL A   1      40.201  30.753  32.266  1.00  0.00     0.167 HD
ATOM     48  C   UNL A   1      43.256  29.137  34.946  1.00  0.00     0.031 A 
ATOM     49  C   UNL A   1      37.966  32.328  31.664  1.00  0.00     0.031 A 
ATOM     50  C   UNL A   1      42.632  30.200  35.687  1.00  0.00     0.049 A 
ATOM     51  C   UNL A   1      38.384  32.721  33.054  1.00  0.00     0.074 A 
ATOM     52  C   UNL A   1      42.955  30.677  36.946  1.00  0.00     0.029 A 
ATOM     53  N   UNL A   1      41.562  30.956  35.234  1.00  0.00    -0.354 N 
ATOM     54  N   UNL A   1      39.354  32.234  33.790  1.00  0.00    -0.248 NA
ATOM     55  C   UNL A   1      37.619  33.798  33.699  1.00  0.00     0.031 C 
ATOM     56  C   UNL A   1      42.057  31.698  37.269  1.00  0.00     0.029 A 
ATOM     57  C   UNL A   1      41.206  31.890  36.191  1.00  0.00     0.049 A 
ATOM     58  H   UNL A   1      41.120  30.845  34.361  1.00  0.00     0.167 HD
ATOM     59  C   UNL A   1      39.339  32.968  34.970  1.00  0.00     0.074 A 
ATOM     60  C   UNL A   1      38.264  33.933  34.851  1.00  0.00     0.031 C 
ATOM     61  C   UNL A   1      40.146  32.856  36.052  1.00  0.00     0.031 A 
BRANCH  48  62
ATOM     62  C   UNL A   1      44.375  28.370  35.601  1.00  0.00    -0.014 A 
ATOM     63  C   UNL A   1      45.712  28.784  35.470  1.00  0.00     0.010 A 
ATOM     64  C   UNL A   1      44.081  27.237  36.382  1.00  0.00     0.010 A 
ATOM     65  C   UNL A   1      46.741  28.052  36.068  1.00  0.00     0.020 A 
ATOM     66  C   UNL A   1      45.104  26.518  37.004  1.00  0.00     0.020 A 
ATOM     67  C   UNL A   1      46.430  26.919  36.826  1.00  0.00     0.054 A 
BRANCH  67  68
ATOM     68  S   UNL A   1      47.783  25.989  37.597  1.00  0.00     0.124 S 
ATOM     69  O   UNL A   1      48.675  27.063  38.028  1.00  0.00    -0.237 OA
ATOM     70  O   UNL A   1      47.107  25.265  38.671  1.00  0.00    -0.237 OA
ATOM     71  O   UNL A   1      48.293  25.155  36.511  1.00  0.00    -0.744 OA
ENDBRANCH  67  68
ENDBRANCH  48  62
BRANCH  49  72
ATOM     72  C   UNL A   1      36.812  32.992  30.999  1.00  0.00    -0.014 A 
ATOM     73  C   UNL A   1      35.504  32.779  31.470  1.00  0.00     0.010 A 
ATOM     74  C   UNL A   1      37.016  33.855  29.907  1.00  0.00     0.010 A 
ATOM     75  C   UNL A   1      34.418  33.404  30.850  1.00  0.00     0.020 A 
ATOM     76  C   UNL A   1      35.934  34.501  29.300  1.00  0.00     0.020 A 
ATOM     77  C   UNL A   1      34.641  34.262  29.769  1.00  0.00     0.054 A 
BRANCH  77  78
ATOM     78  S   UNL A   1      33.223  35.106  29.015  1.00  0.00     0.124 S 
ATOM     79  O   UNL A   1      33.851  36.279  28.418  1.00  0.00    -0.237 OA
ATOM     80  O   UNL A   1      32.722  34.107  28.075  1.00  0.00    -0.237 OA
ATOM     81  O   UNL A   1      32.344  35.374  30.152  1.00  0.00    -0.744 OA
ENDBRANCH  77  78
ENDBRANCH  49  72
BRANCH  61  82
ATOM     82  C   UNL A   1      39.946  33.832  37.178  1.00  0.00    -0.014 A 
ATOM     83  C   UNL A   1      40.398  35.159  37.086  1.00  0.00     0.010 A 
ATOM     84  C   UNL A   1      39.217  33.430  38.313  1.00  0.00     0.010 A 
ATOM     85  C   UNL A   1      40.135  36.066  38.116  1.00  0.00     0.020 A 
ATOM     86  C   UNL A   1      38.933  34.340  39.335  1.00  0.00     0.020 A 
ATOM     87  C   UNL A   1      39.401  35.651  39.233  1.00  0.00     0.054 A 
BRANCH  87  88
ATOM     88  S   UNL A   1      39.009  36.865  40.523  1.00  0.00     0.124 S 
ATOM     89  O   UNL A   1      38.071  36.125  41.361  1.00  0.00    -0.237 OA
ATOM     90  O   UNL A   1      40.315  37.131  41.123  1.00  0.00    -0.237 OA
ATOM     91  O   UNL A   1      38.434  37.984  39.780  1.00  0.00    -0.744 OA
ENDBRANCH  87  88
ENDBRANCH  61  82
ENDBRANCH  35  36
ENDBRANCH  27  30
ENDBRANCH  25  26
ENDBRANCH   1  25
TORSDOF 16
ENDMDL
MODEL 3
REMARK VINA RESULT:     -11.5      1.611      2.184
REMARK SMILES O=C(Cc1ccc(S(=O)(=O)N2CCNC(=O)C2)cc1)NCCCNC(=O)c1ccc(-c2c3nc(c(-c4ccc(S(=O)(=O)[O-])cc4)c4ccc([nH]4)c(-c4ccc(S(=O)(=O)[O-])cc4)c4nc(c(-c5ccc(S(=O)(=O)[O-])cc5)c5ccc2[nH]5)C=C4)C=C3)cc1
REMARK SMILES IDX 22 1 21 2 20 3 1 4 2 5 3 7 4 8 5 9 19 10 6 11 18 12 7 13
REMARK SMILES IDX 8 14 9 15 10 16 11 17 12 18 17 19 13 20 15 21 14 22 16 23
REMARK SMILES IDX 23 25 24 26 25 27 26 29 27 30 28 31 86 32 29 33 85 34 30 35
REMARK SMILES IDX 31 36 32 37 79 38 33 39 84 40 78 41 80 42 34 43 83 44 77 45
REMARK SMILES IDX 76 46 35 48 65 49 46 50 64 51 47 52 50 53 63 54 81 55 48 56
REMARK SMILES IDX 49 57 62 59 82 60 51 61 36 62 37 63 45 64 38 65 44 66 39 67
REMARK SMILES IDX 40 68 41 69 42 70 43 71 66 72 67 73 75 74 68 75 74 76 69 77
REMARK SMILES IDX 70 78 71 79 72 80 73 81 52 82 53 83 61 84 54 85 60 86 55 87
REMARK SMILES IDX 56 88 57 89 58 90 59 91
REMARK H PARENT 20 6 14 24 24 28 80 47 50 58
REMARK Flexibility Score: inf
ROOT
ATOM      1  C   UNL A   1      42.499  21.923  26.937  1.00  0.00     0.042 C 
ENDROOT
BRANCH   1   2
ATOM      2  C   UNL A   1      41.237  21.672  27.749  1.00  0.00     0.117 C 
BRANCH   2   3
ATOM      3  N   UNL A   1      40.118  21.270  26.920  1.00  0.00    -0.356 N 
ATOM      4  O   UNL A   1      39.398  23.395  26.421  1.00  0.00    -0.275 OA
ATOM      5  C   UNL A   1      39.304  22.181  26.277  1.00  0.00     0.224 C 
ATOM      6  H   UNL A   1      39.930  20.309  26.811  1.00  0.00     0.163 HD
BRANCH   5   7
ATOM      7  C   UNL A   1      38.256  21.553  25.375  1.00  0.00     0.135 C 
BRANCH   7   8
ATOM      8  C   UNL A   1      37.081  22.434  24.992  1.00  0.00    -0.039 A 
ATOM      9  C   UNL A   1      36.370  23.223  25.908  1.00  0.00     0.005 A 
ATOM     10  C   UNL A   1      36.676  22.448  23.647  1.00  0.00     0.005 A 
ATOM     11  C   UNL A   1      35.349  24.073  25.478  1.00  0.00     0.022 A 
ATOM     12  C   UNL A   1      35.617  23.255  23.223  1.00  0.00     0.022 A 
ATOM     13  C   UNL A   1      34.986  24.105  24.129  1.00  0.00     0.082 A 
BRANCH  13  14
ATOM     14  S   UNL A   1      33.706  25.230  23.618  1.00  0.00     0.243 S 
ATOM     15  O   UNL A   1      33.867  26.430  24.404  1.00  0.00    -0.207 OA
ATOM     16  O   UNL A   1      33.747  25.274  22.168  1.00  0.00    -0.207 OA
BRANCH  14  17
ATOM     17  N   UNL A   1      32.242  24.513  24.025  1.00  0.00    -0.187 NA
ATOM     18  C   UNL A   1      31.822  23.238  23.413  1.00  0.00     0.124 C 
ATOM     19  C   UNL A   1      31.619  24.792  25.333  1.00  0.00     0.202 C 
ATOM     20  C   UNL A   1      32.060  22.072  24.374  1.00  0.00     0.132 C 
ATOM     21  C   UNL A   1      31.476  23.596  26.262  1.00  0.00     0.235 C 
ATOM     22  N   UNL A   1      31.610  22.342  25.726  1.00  0.00    -0.354 N 
ATOM     23  O   UNL A   1      31.217  23.722  27.457  1.00  0.00    -0.274 OA
ATOM     24  H   UNL A   1      31.386  21.572  26.298  1.00  0.00     0.163 HD
ENDBRANCH  14  17
ENDBRANCH  13  14
ENDBRANCH   7   8
ENDBRANCH   5   7
ENDBRANCH   2   3
ENDBRANCH   1   2
BRANCH   1  25
ATOM     25  C   UNL A   1      43.079  23.325  27.094  1.00  0.00     0.118 C 
BRANCH  25  26
ATOM     26  N   UNL A   1      42.716  24.227  26.007  1.00  0.00    -0.352 N 
ATOM     27  C   UNL A   1      42.182  25.493  26.062  1.00  0.00     0.251 C 
ATOM     28  H   UNL A   1      42.877  23.877  25.100  1.00  0.00     0.163 HD
ATOM     29  O   UNL A   1      41.820  26.048  25.030  1.00  0.00    -0.269 OA
BRANCH  27  30
ATOM     30  C   UNL A   1      42.020  26.169  27.367  1.00  0.00     0.039 A 
ATOM     31  C   UNL A   1      42.887  27.214  27.702  1.00  0.00     0.014 A 
ATOM     32  C   UNL A   1      41.007  25.788  28.250  1.00  0.00     0.014 A 
ATOM     33  C   UNL A   1      42.685  27.933  28.884  1.00  0.00     0.010 A 
ATOM     34  C   UNL A   1      40.767  26.545  29.392  1.00  0.00     0.010 A 
ATOM     35  C   UNL A   1      41.595  27.632  29.716  1.00  0.00    -0.014 A 
BRANCH  35  36
ATOM     36  C   UNL A   1      41.278  28.440  30.922  1.00  0.00     0.031 A 
ATOM     37  C   UNL A   1      40.149  29.433  30.884  1.00  0.00     0.074 A 
ATOM     38  C   UNL A   1      42.071  28.360  32.010  1.00  0.00     0.049 A 
ATOM     39  N   UNL A   1      39.825  30.347  31.762  1.00  0.00    -0.248 NA
ATOM     40  C   UNL A   1      39.290  29.412  29.690  1.00  0.00     0.031 C 
ATOM     41  C   UNL A   1      43.212  27.455  32.166  1.00  0.00     0.029 A 
ATOM     42  N   UNL A   1      42.049  29.070  33.185  1.00  0.00    -0.354 N 
ATOM     43  C   UNL A   1      38.747  31.032  31.213  1.00  0.00     0.074 A 
ATOM     44  C   UNL A   1      38.493  30.447  29.914  1.00  0.00     0.031 C 
ATOM     45  C   UNL A   1      43.774  27.659  33.368  1.00  0.00     0.029 A 
ATOM     46  C   UNL A   1      43.066  28.739  34.049  1.00  0.00     0.049 A 
ATOM     47  H   UNL A   1      41.368  29.752  33.389  1.00  0.00     0.167 HD
ATOM     48  C   UNL A   1      38.030  32.049  31.745  1.00  0.00     0.031 A 
ATOM     49  C   UNL A   1      43.406  29.258  35.245  1.00  0.00     0.031 A 
ATOM     50  C   UNL A   1      38.271  32.616  33.045  1.00  0.00     0.049 A 
ATOM     51  C   UNL A   1      42.594  30.387  35.817  1.00  0.00     0.074 A 
ATOM     52  C   UNL A   1      37.569  33.620  33.690  1.00  0.00     0.029 A 
ATOM     53  N   UNL A   1      39.287  32.223  33.902  1.00  0.00    -0.354 N 
ATOM     54  N   UNL A   1      41.559  31.001  35.296  1.00  0.00    -0.248 NA
ATOM     55  C   UNL A   1      42.991  30.889  37.141  1.00  0.00     0.031 C 
ATOM     56  C   UNL A   1      38.184  33.859  34.923  1.00  0.00     0.029 A 
ATOM     57  C   UNL A   1      39.238  32.970  35.066  1.00  0.00     0.049 A 
ATOM     58  H   UNL A   1      39.948  31.518  33.711  1.00  0.00     0.167 HD
ATOM     59  C   UNL A   1      41.159  31.938  36.243  1.00  0.00     0.074 A 
ATOM     60  C   UNL A   1      42.063  31.810  37.367  1.00  0.00     0.031 C 
ATOM     61  C   UNL A   1      40.133  32.820  36.185  1.00  0.00     0.031 A 
BRANCH  48  62
ATOM     62  C   UNL A   1      36.917  32.625  30.909  1.00  0.00    -0.014 A 
ATOM     63  C   UNL A   1      35.599  32.152  31.031  1.00  0.00     0.010 A 
ATOM     64  C   UNL A   1      37.190  33.674  30.012  1.00  0.00     0.010 A 
ATOM     65  C   UNL A   1      34.581  32.684  30.235  1.00  0.00     0.020 A 
ATOM     66  C   UNL A   1      36.170  34.227  29.234  1.00  0.00     0.020 A 
ATOM     67  C   UNL A   1      34.875  33.714  29.336  1.00  0.00     0.054 A 
BRANCH  67  68
ATOM     68  S   UNL A   1      33.535  34.391  28.319  1.00  0.00     0.124 S 
ATOM     69  O   UNL A   1      32.722  35.081  29.317  1.00  0.00    -0.237 OA
ATOM     70  O   UNL A   1      34.246  35.256  27.381  1.00  0.00    -0.237 OA
ATOM     71  O   UNL A   1      32.918  33.206  27.726  1.00  0.00    -0.744 OA
ENDBRANCH  67  68
ENDBRANCH  48  62
BRANCH  49  72
ATOM     72  C   UNL A   1      44.571  28.706  35.988  1.00  0.00    -0.014 A 
ATOM     73  C   UNL A   1      45.864  29.204  35.752  1.00  0.00     0.010 A 
ATOM     74  C   UNL A   1      44.391  27.693  36.949  1.00  0.00     0.010 A 
ATOM     75  C   UNL A   1      46.960  28.690  36.451  1.00  0.00     0.020 A 
ATOM     76  C   UNL A   1      45.481  27.194  37.668  1.00  0.00     0.020 A 
ATOM     77  C   UNL A   1      46.761  27.688  37.406  1.00  0.00     0.054 A 
BRANCH  77  78
ATOM     78  S   UNL A   1      48.189  27.074  38.341  1.00  0.00     0.124 S 
ATOM     79  O   UNL A   1      48.924  28.305  38.612  1.00  0.00    -0.237 OA
ATOM     80  O   UNL A   1      47.563  26.442  39.499  1.00  0.00    -0.237 OA
ATOM     81  O   UNL A   1      48.833  26.150  37.409  1.00  0.00    -0.744 OA
ENDBRANCH  77  78
ENDBRANCH  49  72
BRANCH  61  82
ATOM     82  C   UNL A   1      39.885  33.684  37.391  1.00  0.00    -0.014 A 
ATOM     83  C   UNL A   1      40.427  34.977  37.487  1.00  0.00     0.010 A 
ATOM     84  C   UNL A   1      39.025  33.220  38.403  1.00  0.00     0.010 A 
ATOM     85  C   UNL A   1      40.123  35.787  38.584  1.00  0.00     0.020 A 
ATOM     86  C   UNL A   1      38.701  34.036  39.490  1.00  0.00     0.020 A 
ATOM     87  C   UNL A   1      39.259  35.313  39.577  1.00  0.00     0.054 A 
BRANCH  87  88
ATOM     88  S   UNL A   1      38.820  36.411  40.953  1.00  0.00     0.124 S 
ATOM     89  O   UNL A   1      37.828  35.616  41.671  1.00  0.00    -0.237 OA
ATOM     90  O   UNL A   1      40.097  36.593  41.640  1.00  0.00    -0.237 OA
ATOM     91  O   UNL A   1      38.301  37.605  40.290  1.00  0.00    -0.744 OA
ENDBRANCH  87  88
ENDBRANCH  61  82
ENDBRANCH  35  36
ENDBRANCH  27  30
ENDBRANCH  25  26
ENDBRANCH   1  25
TORSDOF 16
ENDMDL
