MODEL 1
REMARK VINA RESULT:      -9.8      0.000      0.000
REMARK SMILES CS(=O)(=O)CCSCc1cc(F)cc(/C=C/C(=O)NCCCNC(=O)c2ccc(-c3c4nc(c(-c5ccc(S(=O)(=O)[O-])cc5)c5ccc([nH]5)c(-c5ccc(S(=O)(=O)[O-])cc5)c5nc(c(-c6ccc(S(=O)(=O)[O-])cc6)c6ccc3[nH]6)C=C5)C=C4)cc2)c1
REMARK SMILES IDX 17 1 18 2 19 3 16 5 15 6 14 7 9 8 10 9 86 10 11 11 12 12
REMARK SMILES IDX 13 13 8 14 7 15 6 16 5 17 2 18 1 19 3 20 4 21 20 22 21 23
REMARK SMILES IDX 22 24 23 25 24 26 25 28 26 29 27 30 85 31 28 32 84 33 29 34
REMARK SMILES IDX 30 35 31 36 78 37 32 38 83 39 77 40 79 41 33 42 82 43 76 44
REMARK SMILES IDX 75 45 34 47 64 48 45 49 63 50 46 51 49 52 62 53 80 54 47 55
REMARK SMILES IDX 48 56 61 58 81 59 50 60 35 61 36 62 44 63 37 64 43 65 38 66
REMARK SMILES IDX 39 67 40 68 41 69 42 70 65 71 66 72 74 73 67 74 73 75 68 76
REMARK SMILES IDX 69 77 70 78 71 79 72 80 51 81 52 82 60 83 53 84 59 85 54 86
REMARK SMILES IDX 55 87 56 88 57 89 58 90
REMARK H PARENT 19 4 23 27 79 46 49 57
REMARK Flexibility Score: inf
ROOT
ATOM      1  C   UNL A   1      33.563  20.895  24.763  1.00  0.00     0.244 C 
ATOM      2  O   UNL A   1      33.080  20.109  23.949  1.00  0.00    -0.270 OA
ATOM      3  N   UNL A   1      34.809  20.661  25.236  1.00  0.00    -0.352 N 
ATOM      4  H   UNL A   1      35.218  19.833  24.893  1.00  0.00     0.163 HD
ENDROOT
BRANCH   1   5
ATOM      5  C   UNL A   1      32.802  22.124  25.089  1.00  0.00     0.072 C 
ATOM      6  C   UNL A   1      32.665  23.248  24.368  1.00  0.00     0.014 C 
BRANCH   6   7
ATOM      7  C   UNL A   1      31.841  24.386  24.823  1.00  0.00    -0.022 A 
ATOM      8  C   UNL A   1      31.459  26.819  24.805  1.00  0.00    -0.035 A 
ATOM      9  C   UNL A   1      30.287  26.615  25.545  1.00  0.00     0.043 A 
ATOM     10  C   UNL A   1      32.238  25.691  24.489  1.00  0.00     0.013 A 
ATOM     11  C   UNL A   1      29.929  25.332  25.946  1.00  0.00     0.124 A 
ATOM     12  F   UNL A   1      28.837  25.162  26.704  1.00  0.00    -0.207 F 
ATOM     13  C   UNL A   1      30.688  24.222  25.594  1.00  0.00     0.047 A 
BRANCH   8  14
ATOM     14  C   UNL A   1      31.927  28.220  24.500  1.00  0.00     0.105 C 
BRANCH  14  15
ATOM     15  S   UNL A   1      32.185  28.742  22.775  1.00  0.00    -0.156 SA
BRANCH  15  16
ATOM     16  C   UNL A   1      30.653  29.590  22.249  1.00  0.00     0.086 C 
BRANCH  16  17
ATOM     17  C   UNL A   1      29.575  29.715  23.315  1.00  0.00     0.147 C 
BRANCH  17  18
ATOM     18  S   UNL A   1      27.915  29.934  22.719  1.00  0.00     0.148 S 
ATOM     19  C   UNL A   1      27.026  28.494  23.262  1.00  0.00     0.158 C 
ATOM     20  O   UNL A   1      27.984  29.877  21.274  1.00  0.00    -0.229 OA
ATOM     21  O   UNL A   1      27.345  31.100  23.374  1.00  0.00    -0.229 OA
ENDBRANCH  17  18
ENDBRANCH  16  17
ENDBRANCH  15  16
ENDBRANCH  14  15
ENDBRANCH   8  14
ENDBRANCH   6   7
ENDBRANCH   1   5
BRANCH   3  22
ATOM     22  C   UNL A   1      35.657  21.402  26.153  1.00  0.00     0.118 C 
BRANCH  22  23
ATOM     23  C   UNL A   1      35.913  22.813  25.633  1.00  0.00     0.042 C 
BRANCH  23  24
ATOM     24  C   UNL A   1      37.379  23.071  25.288  1.00  0.00     0.118 C 
BRANCH  24  25
ATOM     25  N   UNL A   1      38.267  22.054  25.843  1.00  0.00    -0.352 N 
ATOM     26  C   UNL A   1      39.472  22.198  26.485  1.00  0.00     0.251 C 
ATOM     27  H   UNL A   1      37.953  21.126  25.744  1.00  0.00     0.163 HD
ATOM     28  O   UNL A   1      40.177  21.214  26.691  1.00  0.00    -0.269 OA
BRANCH  26  29
ATOM     29  C   UNL A   1      39.920  23.537  26.919  1.00  0.00     0.039 A 
ATOM     30  C   UNL A   1      40.430  23.704  28.209  1.00  0.00     0.014 A 
ATOM     31  C   UNL A   1      39.831  24.627  26.050  1.00  0.00     0.014 A 
ATOM     32  C   UNL A   1      40.919  24.952  28.602  1.00  0.00     0.010 A 
ATOM     33  C   UNL A   1      40.389  25.847  26.415  1.00  0.00     0.010 A 
ATOM     34  C   UNL A   1      40.940  26.023  27.694  1.00  0.00    -0.014 A 
BRANCH  34  35
ATOM     35  C   UNL A   1      41.544  27.334  28.043  1.00  0.00     0.031 A 
ATOM     36  C   UNL A   1      43.036  27.519  27.968  1.00  0.00     0.074 A 
ATOM     37  C   UNL A   1      40.761  28.324  28.517  1.00  0.00     0.049 A 
ATOM     38  N   UNL A   1      43.760  28.540  28.348  1.00  0.00    -0.248 NA
ATOM     39  C   UNL A   1      43.818  26.397  27.421  1.00  0.00     0.031 C 
ATOM     40  C   UNL A   1      39.305  28.256  28.665  1.00  0.00     0.029 A 
ATOM     41  N   UNL A   1      41.081  29.576  28.979  1.00  0.00    -0.354 N 
ATOM     42  C   UNL A   1      45.080  28.176  28.108  1.00  0.00     0.074 A 
ATOM     43  C   UNL A   1      45.060  26.824  27.596  1.00  0.00     0.031 C 
ATOM     44  C   UNL A   1      38.857  29.420  29.164  1.00  0.00     0.029 A 
ATOM     45  C   UNL A   1      39.995  30.296  29.422  1.00  0.00     0.049 A 
ATOM     46  H   UNL A   1      42.000  29.927  28.992  1.00  0.00     0.167 HD
ATOM     47  C   UNL A   1      46.206  28.908  28.285  1.00  0.00     0.031 A 
ATOM     48  C   UNL A   1      39.923  31.515  29.993  1.00  0.00     0.031 A 
ATOM     49  C   UNL A   1      46.216  30.256  28.789  1.00  0.00     0.049 A 
ATOM     50  C   UNL A   1      41.189  32.298  30.207  1.00  0.00     0.074 A 
ATOM     51  C   UNL A   1      47.297  31.103  28.955  1.00  0.00     0.029 A 
ATOM     52  N   UNL A   1      45.094  30.952  29.216  1.00  0.00    -0.354 N 
ATOM     53  N   UNL A   1      42.424  31.962  29.916  1.00  0.00    -0.248 NA
ATOM     54  C   UNL A   1      41.056  33.627  30.819  1.00  0.00     0.031 C 
ATOM     55  C   UNL A   1      46.839  32.286  29.541  1.00  0.00     0.029 A 
ATOM     56  C   UNL A   1      45.461  32.206  29.672  1.00  0.00     0.049 A 
ATOM     57  H   UNL A   1      44.172  30.604  29.197  1.00  0.00     0.167 HD
ATOM     58  C   UNL A   1      43.209  33.051  30.278  1.00  0.00     0.074 A 
ATOM     59  C   UNL A   1      42.310  34.059  30.801  1.00  0.00     0.031 C 
ATOM     60  C   UNL A   1      44.553  33.203  30.182  1.00  0.00     0.031 A 
BRANCH  47  61
ATOM     61  C   UNL A   1      47.524  28.263  27.942  1.00  0.00    -0.014 A 
ATOM     62  C   UNL A   1      48.078  28.373  26.653  1.00  0.00     0.010 A 
ATOM     63  C   UNL A   1      48.242  27.573  28.936  1.00  0.00     0.010 A 
ATOM     64  C   UNL A   1      49.303  27.772  26.355  1.00  0.00     0.020 A 
ATOM     65  C   UNL A   1      49.484  26.998  28.651  1.00  0.00     0.020 A 
ATOM     66  C   UNL A   1      49.999  27.088  27.356  1.00  0.00     0.054 A 
BRANCH  66  67
ATOM     67  S   UNL A   1      51.599  26.341  26.945  1.00  0.00     0.124 S 
ATOM     68  O   UNL A   1      51.916  26.987  25.673  1.00  0.00    -0.237 OA
ATOM     69  O   UNL A   1      52.436  26.738  28.075  1.00  0.00    -0.237 OA
ATOM     70  O   UNL A   1      51.306  24.912  26.860  1.00  0.00    -0.744 OA
ENDBRANCH  66  67
ENDBRANCH  47  61
BRANCH  48  71
ATOM     71  C   UNL A   1      38.601  32.068  30.402  1.00  0.00    -0.014 A 
ATOM     72  C   UNL A   1      38.104  31.849  31.699  1.00  0.00     0.010 A 
ATOM     73  C   UNL A   1      37.838  32.832  29.499  1.00  0.00     0.010 A 
ATOM     74  C   UNL A   1      36.862  32.367  32.079  1.00  0.00     0.020 A 
ATOM     75  C   UNL A   1      36.610  33.378  29.886  1.00  0.00     0.020 A 
ATOM     76  C   UNL A   1      36.124  33.132  31.171  1.00  0.00     0.054 A 
BRANCH  76  77
ATOM     77  S   UNL A   1      34.540  33.838  31.705  1.00  0.00     0.124 S 
ATOM     78  O   UNL A   1      33.957  32.736  32.463  1.00  0.00    -0.237 OA
ATOM     79  O   UNL A   1      34.961  34.997  32.489  1.00  0.00    -0.237 OA
ATOM     80  O   UNL A   1      33.868  34.160  30.447  1.00  0.00    -0.744 OA
ENDBRANCH  76  77
ENDBRANCH  48  71
BRANCH  60  81
ATOM     81  C   UNL A   1      45.142  34.522  30.607  1.00  0.00    -0.014 A 
ATOM     82  C   UNL A   1      45.239  35.604  29.715  1.00  0.00     0.010 A 
ATOM     83  C   UNL A   1      45.524  34.705  31.950  1.00  0.00     0.010 A 
ATOM     84  C   UNL A   1      45.723  36.840  30.155  1.00  0.00     0.020 A 
ATOM     85  C   UNL A   1      45.977  35.945  32.401  1.00  0.00     0.020 A 
ATOM     86  C   UNL A   1      46.081  37.004  31.498  1.00  0.00     0.054 A 
BRANCH  86  87
ATOM     87  S   UNL A   1      46.635  38.639  32.058  1.00  0.00     0.124 S 
ATOM     88  O   UNL A   1      47.998  38.694  31.538  1.00  0.00    -0.237 OA
ATOM     89  O   UNL A   1      45.679  39.536  31.413  1.00  0.00    -0.237 OA
ATOM     90  O   UNL A   1      46.526  38.562  33.512  1.00  0.00    -0.744 OA
ENDBRANCH  86  87
ENDBRANCH  60  81
ENDBRANCH  34  35
ENDBRANCH  26  29
ENDBRANCH  24  25
ENDBRANCH  23  24
ENDBRANCH  22  23
ENDBRANCH   3  22
TORSDOF 19
ENDMDL
MODEL 2
REMARK VINA RESULT:      -9.8      4.988      6.534
REMARK SMILES CS(=O)(=O)CCSCc1cc(F)cc(/C=C/C(=O)NCCCNC(=O)c2ccc(-c3c4nc(c(-c5ccc(S(=O)(=O)[O-])cc5)c5ccc([nH]5)c(-c5ccc(S(=O)(=O)[O-])cc5)c5nc(c(-c6ccc(S(=O)(=O)[O-])cc6)c6ccc3[nH]6)C=C5)C=C4)cc2)c1
REMARK SMILES IDX 17 1 18 2 19 3 16 5 15 6 14 7 9 8 10 9 86 10 11 11 12 12
REMARK SMILES IDX 13 13 8 14 7 15 6 16 5 17 2 18 1 19 3 20 4 21 20 22 21 23
REMARK SMILES IDX 22 24 23 25 24 26 25 28 26 29 27 30 85 31 28 32 84 33 29 34
REMARK SMILES IDX 30 35 31 36 78 37 32 38 83 39 77 40 79 41 33 42 82 43 76 44
REMARK SMILES IDX 75 45 34 47 64 48 45 49 63 50 46 51 49 52 62 53 80 54 47 55
REMARK SMILES IDX 48 56 61 58 81 59 50 60 35 61 36 62 44 63 37 64 43 65 38 66
REMARK SMILES IDX 39 67 40 68 41 69 42 70 65 71 66 72 74 73 67 74 73 75 68 76
REMARK SMILES IDX 69 77 70 78 71 79 72 80 51 81 52 82 60 83 53 84 59 85 54 86
REMARK SMILES IDX 55 87 56 88 57 89 58 90
REMARK H PARENT 19 4 23 27 79 46 49 57
REMARK Flexibility Score: inf
ROOT
ATOM      1  C   UNL A   1      38.676  21.727  25.754  1.00  0.00     0.244 C 
ATOM      2  O   UNL A   1      39.393  20.730  25.668  1.00  0.00    -0.270 OA
ATOM      3  N   UNL A   1      39.223  22.888  26.185  1.00  0.00    -0.352 N 
ATOM      4  H   UNL A   1      40.174  22.816  26.427  1.00  0.00     0.163 HD
ENDROOT
BRANCH   1   5
ATOM      5  C   UNL A   1      37.282  21.634  25.265  1.00  0.00     0.072 C 
ATOM      6  C   UNL A   1      36.449  20.581  25.282  1.00  0.00     0.014 C 
BRANCH   6   7
ATOM      7  C   UNL A   1      35.064  20.655  24.776  1.00  0.00    -0.022 A 
ATOM      8  C   UNL A   1      33.268  22.044  23.820  1.00  0.00    -0.035 A 
ATOM      9  C   UNL A   1      32.479  20.893  23.698  1.00  0.00     0.043 A 
ATOM     10  C   UNL A   1      34.544  21.904  24.396  1.00  0.00     0.013 A 
ATOM     11  C   UNL A   1      32.958  19.666  24.146  1.00  0.00     0.124 A 
ATOM     12  F   UNL A   1      32.166  18.588  24.077  1.00  0.00    -0.207 F 
ATOM     13  C   UNL A   1      34.235  19.536  24.678  1.00  0.00     0.047 A 
BRANCH   8  14
ATOM     14  C   UNL A   1      32.694  23.396  23.475  1.00  0.00     0.105 C 
BRANCH  14  15
ATOM     15  S   UNL A   1      30.933  23.745  23.777  1.00  0.00    -0.156 SA
BRANCH  15  16
ATOM     16  C   UNL A   1      30.857  25.376  24.599  1.00  0.00     0.086 C 
BRANCH  16  17
ATOM     17  C   UNL A   1      31.818  26.426  24.063  1.00  0.00     0.147 C 
BRANCH  17  18
ATOM     18  S   UNL A   1      31.135  27.579  22.895  1.00  0.00     0.148 S 
ATOM     19  C   UNL A   1      32.298  28.922  22.824  1.00  0.00     0.158 C 
ATOM     20  O   UNL A   1      29.918  28.094  23.486  1.00  0.00    -0.229 OA
ATOM     21  O   UNL A   1      31.094  26.938  21.591  1.00  0.00    -0.229 OA
ENDBRANCH  17  18
ENDBRANCH  16  17
ENDBRANCH  15  16
ENDBRANCH  14  15
ENDBRANCH   8  14
ENDBRANCH   6   7
ENDBRANCH   1   5
BRANCH   3  22
ATOM     22  C   UNL A   1      38.670  24.220  26.355  1.00  0.00     0.118 C 
BRANCH  22  23
ATOM     23  C   UNL A   1      39.708  25.165  26.953  1.00  0.00     0.042 C 
BRANCH  23  24
ATOM     24  C   UNL A   1      40.680  25.725  25.915  1.00  0.00     0.118 C 
BRANCH  24  25
ATOM     25  N   UNL A   1      41.983  25.069  25.966  1.00  0.00    -0.352 N 
ATOM     26  C   UNL A   1      43.097  25.388  26.702  1.00  0.00     0.251 C 
ATOM     27  H   UNL A   1      42.077  24.279  25.385  1.00  0.00     0.163 HD
ATOM     28  O   UNL A   1      44.171  24.848  26.453  1.00  0.00    -0.269 OA
BRANCH  26  29
ATOM     29  C   UNL A   1      43.001  26.384  27.789  1.00  0.00     0.039 A 
ATOM     30  C   UNL A   1      43.450  27.687  27.565  1.00  0.00     0.014 A 
ATOM     31  C   UNL A   1      42.470  26.025  29.030  1.00  0.00     0.014 A 
ATOM     32  C   UNL A   1      43.299  28.651  28.565  1.00  0.00     0.010 A 
ATOM     33  C   UNL A   1      42.249  27.002  29.994  1.00  0.00     0.010 A 
ATOM     34  C   UNL A   1      42.659  28.326  29.772  1.00  0.00    -0.014 A 
BRANCH  34  35
ATOM     35  C   UNL A   1      42.391  29.347  30.817  1.00  0.00     0.031 A 
ATOM     36  C   UNL A   1      43.271  29.425  32.035  1.00  0.00     0.074 A 
ATOM     37  C   UNL A   1      41.303  30.136  30.714  1.00  0.00     0.049 A 
ATOM     38  N   UNL A   1      43.128  30.158  33.110  1.00  0.00    -0.248 NA
ATOM     39  C   UNL A   1      44.449  28.542  32.062  1.00  0.00     0.031 C 
ATOM     40  C   UNL A   1      40.357  30.134  29.596  1.00  0.00     0.029 A 
ATOM     41  N   UNL A   1      40.799  31.083  31.571  1.00  0.00    -0.354 N 
ATOM     42  C   UNL A   1      44.183  29.809  33.947  1.00  0.00     0.074 A 
ATOM     43  C   UNL A   1      44.928  28.766  33.278  1.00  0.00     0.031 C 
ATOM     44  C   UNL A   1      39.400  31.048  29.826  1.00  0.00     0.029 A 
ATOM     45  C   UNL A   1      39.631  31.661  31.131  1.00  0.00     0.049 A 
ATOM     46  H   UNL A   1      41.232  31.326  32.421  1.00  0.00     0.167 HD
ATOM     47  C   UNL A   1      44.508  30.322  35.157  1.00  0.00     0.031 A 
ATOM     48  C   UNL A   1      38.823  32.566  31.717  1.00  0.00     0.031 A 
ATOM     49  C   UNL A   1      43.763  31.365  35.813  1.00  0.00     0.049 A 
ATOM     50  C   UNL A   1      39.188  33.101  33.075  1.00  0.00     0.074 A 
ATOM     51  C   UNL A   1      44.040  31.993  37.014  1.00  0.00     0.029 A 
ATOM     52  N   UNL A   1      42.593  31.930  35.328  1.00  0.00    -0.354 N 
ATOM     53  N   UNL A   1      40.224  32.804  33.825  1.00  0.00    -0.248 NA
ATOM     54  C   UNL A   1      38.283  34.096  33.665  1.00  0.00     0.031 C 
ATOM     55  C   UNL A   1      43.005  32.890  37.287  1.00  0.00     0.029 A 
ATOM     56  C   UNL A   1      42.121  32.877  36.220  1.00  0.00     0.049 A 
ATOM     57  H   UNL A   1      42.163  31.692  34.474  1.00  0.00     0.167 HD
ATOM     58  C   UNL A   1      40.111  33.602  34.958  1.00  0.00     0.074 A 
ATOM     59  C   UNL A   1      38.914  34.399  34.792  1.00  0.00     0.031 C 
ATOM     60  C   UNL A   1      40.930  33.670  36.037  1.00  0.00     0.031 A 
BRANCH  47  61
ATOM     61  C   UNL A   1      45.715  29.755  35.858  1.00  0.00    -0.014 A 
ATOM     62  C   UNL A   1      45.606  28.648  36.720  1.00  0.00     0.010 A 
ATOM     63  C   UNL A   1      46.986  30.309  35.617  1.00  0.00     0.010 A 
ATOM     64  C   UNL A   1      46.737  28.133  37.358  1.00  0.00     0.020 A 
ATOM     65  C   UNL A   1      48.125  29.776  36.228  1.00  0.00     0.020 A 
ATOM     66  C   UNL A   1      47.990  28.700  37.108  1.00  0.00     0.054 A 
BRANCH  66  67
ATOM     67  S   UNL A   1      49.443  27.992  37.930  1.00  0.00     0.124 S 
ATOM     68  O   UNL A   1      49.011  27.953  39.325  1.00  0.00    -0.237 OA
ATOM     69  O   UNL A   1      49.576  26.692  37.278  1.00  0.00    -0.237 OA
ATOM     70  O   UNL A   1      50.509  28.946  37.636  1.00  0.00    -0.744 OA
ENDBRANCH  66  67
ENDBRANCH  47  61
BRANCH  48  71
ATOM     71  C   UNL A   1      37.588  33.024  31.020  1.00  0.00    -0.014 A 
ATOM     72  C   UNL A   1      37.664  33.945  29.959  1.00  0.00     0.010 A 
ATOM     73  C   UNL A   1      36.327  32.529  31.404  1.00  0.00     0.010 A 
ATOM     74  C   UNL A   1      36.503  34.375  29.309  1.00  0.00     0.020 A 
ATOM     75  C   UNL A   1      35.168  32.933  30.735  1.00  0.00     0.020 A 
ATOM     76  C   UNL A   1      35.262  33.863  29.699  1.00  0.00     0.054 A 
BRANCH  76  77
ATOM     77  S   UNL A   1      33.775  34.395  28.805  1.00  0.00     0.124 S 
ATOM     78  O   UNL A   1      32.847  34.671  29.896  1.00  0.00    -0.237 OA
ATOM     79  O   UNL A   1      34.253  35.562  28.067  1.00  0.00    -0.237 OA
ATOM     80  O   UNL A   1      33.442  33.239  27.976  1.00  0.00    -0.744 OA
ENDBRANCH  76  77
ENDBRANCH  48  71
BRANCH  60  81
ATOM     81  C   UNL A   1      40.593  34.670  37.111  1.00  0.00    -0.014 A 
ATOM     82  C   UNL A   1      41.152  35.960  37.114  1.00  0.00     0.010 A 
ATOM     83  C   UNL A   1      39.632  34.337  38.084  1.00  0.00     0.010 A 
ATOM     84  C   UNL A   1      40.766  36.893  38.081  1.00  0.00     0.020 A 
ATOM     85  C   UNL A   1      39.222  35.276  39.032  1.00  0.00     0.020 A 
ATOM     86  C   UNL A   1      39.797  36.547  39.029  1.00  0.00     0.054 A 
BRANCH  86  87
ATOM     87  S   UNL A   1      39.262  37.801  40.226  1.00  0.00     0.124 S 
ATOM     88  O   UNL A   1      40.446  38.650  40.329  1.00  0.00    -0.237 OA
ATOM     89  O   UNL A   1      38.111  38.406  39.559  1.00  0.00    -0.237 OA
ATOM     90  O   UNL A   1      38.945  37.026  41.423  1.00  0.00    -0.744 OA
ENDBRANCH  86  87
ENDBRANCH  60  81
ENDBRANCH  34  35
ENDBRANCH  26  29
ENDBRANCH  24  25
ENDBRANCH  23  24
ENDBRANCH  22  23
ENDBRANCH   3  22
TORSDOF 19
ENDMDL
MODEL 3
REMARK VINA RESULT:      -9.6      3.894     10.197
REMARK SMILES CS(=O)(=O)CCSCc1cc(F)cc(/C=C/C(=O)NCCCNC(=O)c2ccc(-c3c4nc(c(-c5ccc(S(=O)(=O)[O-])cc5)c5ccc([nH]5)c(-c5ccc(S(=O)(=O)[O-])cc5)c5nc(c(-c6ccc(S(=O)(=O)[O-])cc6)c6ccc3[nH]6)C=C5)C=C4)cc2)c1
REMARK SMILES IDX 17 1 18 2 19 3 16 5 15 6 14 7 9 8 10 9 86 10 11 11 12 12
REMARK SMILES IDX 13 13 8 14 7 15 6 16 5 17 2 18 1 19 3 20 4 21 20 22 21 23
REMARK SMILES IDX 22 24 23 25 24 26 25 28 26 29 27 30 85 31 28 32 84 33 29 34
REMARK SMILES IDX 30 35 31 36 78 37 32 38 83 39 77 40 79 41 33 42 82 43 76 44
REMARK SMILES IDX 75 45 34 47 64 48 45 49 63 50 46 51 49 52 62 53 80 54 47 55
REMARK SMILES IDX 48 56 61 58 81 59 50 60 35 61 36 62 44 63 37 64 43 65 38 66
REMARK SMILES IDX 39 67 40 68 41 69 42 70 65 71 66 72 74 73 67 74 73 75 68 76
REMARK SMILES IDX 69 77 70 78 71 79 72 80 51 81 52 82 60 83 53 84 59 85 54 86
REMARK SMILES IDX 55 87 56 88 57 89 58 90
REMARK H PARENT 19 4 23 27 79 46 49 57
REMARK Flexibility Score: inf
ROOT
ATOM      1  C   UNL A   1      38.974  34.137  33.190  1.00  0.00     0.244 C 
ATOM      2  O   UNL A   1      40.059  34.615  32.860  1.00  0.00    -0.270 OA
ATOM      3  N   UNL A   1      38.735  33.904  34.502  1.00  0.00    -0.352 N 
ATOM      4  H   UNL A   1      39.494  34.120  35.090  1.00  0.00     0.163 HD
ENDROOT
BRANCH   1   5
ATOM      5  C   UNL A   1      37.940  33.957  32.145  1.00  0.00     0.072 C 
ATOM      6  C   UNL A   1      36.632  34.258  32.191  1.00  0.00     0.014 C 
BRANCH   6   7
ATOM      7  C   UNL A   1      35.728  34.041  31.044  1.00  0.00    -0.022 A 
ATOM      8  C   UNL A   1      35.264  32.812  28.960  1.00  0.00    -0.035 A 
ATOM      9  C   UNL A   1      34.033  33.474  28.873  1.00  0.00     0.043 A 
ATOM     10  C   UNL A   1      36.110  33.141  30.035  1.00  0.00     0.013 A 
ATOM     11  C   UNL A   1      33.682  34.426  29.826  1.00  0.00     0.124 A 
ATOM     12  F   UNL A   1      32.528  35.093  29.695  1.00  0.00    -0.207 F 
ATOM     13  C   UNL A   1      34.512  34.713  30.904  1.00  0.00     0.047 A 
BRANCH   8  14
ATOM     14  C   UNL A   1      35.710  31.894  27.849  1.00  0.00     0.105 C 
BRANCH  14  15
ATOM     15  S   UNL A   1      35.870  30.106  28.150  1.00  0.00    -0.156 SA
BRANCH  15  16
ATOM     16  C   UNL A   1      34.846  29.269  26.888  1.00  0.00     0.086 C 
BRANCH  16  17
ATOM     17  C   UNL A   1      33.469  29.873  26.656  1.00  0.00     0.147 C 
BRANCH  17  18
ATOM     18  S   UNL A   1      32.203  28.740  26.132  1.00  0.00     0.148 S 
ATOM     19  C   UNL A   1      31.403  28.204  27.626  1.00  0.00     0.158 C 
ATOM     20  O   UNL A   1      32.882  27.592  25.570  1.00  0.00    -0.229 OA
ATOM     21  O   UNL A   1      31.236  29.475  25.332  1.00  0.00    -0.229 OA
ENDBRANCH  17  18
ENDBRANCH  16  17
ENDBRANCH  15  16
ENDBRANCH  14  15
ENDBRANCH   8  14
ENDBRANCH   6   7
ENDBRANCH   1   5
BRANCH   3  22
ATOM     22  C   UNL A   1      37.569  33.397  35.203  1.00  0.00     0.118 C 
BRANCH  22  23
ATOM     23  C   UNL A   1      37.778  31.945  35.621  1.00  0.00     0.042 C 
BRANCH  23  24
ATOM     24  C   UNL A   1      38.321  31.067  34.493  1.00  0.00     0.118 C 
BRANCH  24  25
ATOM     25  N   UNL A   1      37.262  30.561  33.626  1.00  0.00    -0.352 N 
ATOM     26  C   UNL A   1      37.312  30.196  32.303  1.00  0.00     0.251 C 
ATOM     27  H   UNL A   1      36.380  30.467  34.053  1.00  0.00     0.163 HD
ATOM     28  O   UNL A   1      36.271  29.997  31.683  1.00  0.00    -0.269 OA
BRANCH  26  29
ATOM     29  C   UNL A   1      38.618  30.048  31.628  1.00  0.00     0.039 A 
ATOM     30  C   UNL A   1      39.612  29.267  32.223  1.00  0.00     0.014 A 
ATOM     31  C   UNL A   1      38.860  30.688  30.410  1.00  0.00     0.014 A 
ATOM     32  C   UNL A   1      40.825  29.068  31.559  1.00  0.00     0.010 A 
ATOM     33  C   UNL A   1      40.035  30.425  29.715  1.00  0.00     0.010 A 
ATOM     34  C   UNL A   1      41.029  29.611  30.280  1.00  0.00    -0.014 A 
BRANCH  34  35
ATOM     35  C   UNL A   1      42.264  29.338  29.501  1.00  0.00     0.031 A 
ATOM     36  C   UNL A   1      42.480  27.981  28.887  1.00  0.00     0.074 A 
ATOM     37  C   UNL A   1      43.228  30.276  29.428  1.00  0.00     0.049 A 
ATOM     38  N   UNL A   1      43.539  27.509  28.281  1.00  0.00    -0.248 NA
ATOM     39  C   UNL A   1      41.370  27.018  28.994  1.00  0.00     0.031 C 
ATOM     40  C   UNL A   1      43.150  31.620  30.008  1.00  0.00     0.029 A 
ATOM     41  N   UNL A   1      44.473  30.239  28.850  1.00  0.00    -0.354 N 
ATOM     42  C   UNL A   1      43.232  26.192  27.956  1.00  0.00     0.074 A 
ATOM     43  C   UNL A   1      41.909  25.925  28.474  1.00  0.00     0.031 C 
ATOM     44  C   UNL A   1      44.287  32.283  29.740  1.00  0.00     0.029 A 
ATOM     45  C   UNL A   1      45.196  31.397  29.020  1.00  0.00     0.049 A 
ATOM     46  H   UNL A   1      44.816  29.457  28.361  1.00  0.00     0.167 HD
ATOM     47  C   UNL A   1      43.981  25.292  27.275  1.00  0.00     0.031 A 
ATOM     48  C   UNL A   1      46.456  31.707  28.656  1.00  0.00     0.031 A 
ATOM     49  C   UNL A   1      45.295  25.569  26.757  1.00  0.00     0.049 A 
ATOM     50  C   UNL A   1      47.280  30.681  27.927  1.00  0.00     0.074 A 
ATOM     51  C   UNL A   1      46.114  24.745  26.007  1.00  0.00     0.029 A 
ATOM     52  N   UNL A   1      45.986  26.758  26.941  1.00  0.00    -0.354 N 
ATOM     53  N   UNL A   1      46.950  29.461  27.573  1.00  0.00    -0.248 NA
ATOM     54  C   UNL A   1      48.642  31.073  27.540  1.00  0.00     0.031 C 
ATOM     55  C   UNL A   1      47.324  25.409  25.792  1.00  0.00     0.029 A 
ATOM     56  C   UNL A   1      47.232  26.677  26.344  1.00  0.00     0.049 A 
ATOM     57  H   UNL A   1      45.640  27.543  27.426  1.00  0.00     0.167 HD
ATOM     58  C   UNL A   1      48.052  28.954  26.893  1.00  0.00     0.074 A 
ATOM     59  C   UNL A   1      49.053  30.000  26.877  1.00  0.00     0.031 C 
ATOM     60  C   UNL A   1      48.216  27.732  26.329  1.00  0.00     0.031 A 
BRANCH  47  61
ATOM     61  C   UNL A   1      43.402  23.918  27.059  1.00  0.00    -0.014 A 
ATOM     62  C   UNL A   1      43.339  22.980  28.106  1.00  0.00     0.010 A 
ATOM     63  C   UNL A   1      42.870  23.574  25.803  1.00  0.00     0.010 A 
ATOM     64  C   UNL A   1      42.795  21.711  27.889  1.00  0.00     0.020 A 
ATOM     65  C   UNL A   1      42.295  22.317  25.590  1.00  0.00     0.020 A 
ATOM     66  C   UNL A   1      42.276  21.388  26.632  1.00  0.00     0.054 A 
BRANCH  66  67
ATOM     67  S   UNL A   1      41.552  19.744  26.389  1.00  0.00     0.124 S 
ATOM     68  O   UNL A   1      41.841  19.095  27.666  1.00  0.00    -0.237 OA
ATOM     69  O   UNL A   1      40.144  20.048  26.144  1.00  0.00    -0.237 OA
ATOM     70  O   UNL A   1      42.280  19.208  25.241  1.00  0.00    -0.744 OA
ENDBRANCH  66  67
ENDBRANCH  47  61
BRANCH  48  71
ATOM     71  C   UNL A   1      47.015  33.051  28.979  1.00  0.00    -0.014 A 
ATOM     72  C   UNL A   1      47.719  33.264  30.177  1.00  0.00     0.010 A 
ATOM     73  C   UNL A   1      46.860  34.122  28.080  1.00  0.00     0.010 A 
ATOM     74  C   UNL A   1      48.239  34.526  30.479  1.00  0.00     0.020 A 
ATOM     75  C   UNL A   1      47.405  35.378  28.363  1.00  0.00     0.020 A 
ATOM     76  C   UNL A   1      48.083  35.575  29.568  1.00  0.00     0.054 A 
BRANCH  76  77
ATOM     77  S   UNL A   1      48.814  37.189  29.957  1.00  0.00     0.124 S 
ATOM     78  O   UNL A   1      48.901  37.809  28.638  1.00  0.00    -0.237 OA
ATOM     79  O   UNL A   1      47.830  37.770  30.867  1.00  0.00    -0.237 OA
ATOM     80  O   UNL A   1      50.093  36.846  30.574  1.00  0.00    -0.744 OA
ENDBRANCH  76  77
ENDBRANCH  48  71
BRANCH  60  81
ATOM     81  C   UNL A   1      49.507  27.462  25.602  1.00  0.00    -0.014 A 
ATOM     82  C   UNL A   1      50.647  26.994  26.279  1.00  0.00     0.010 A 
ATOM     83  C   UNL A   1      49.550  27.599  24.201  1.00  0.00     0.010 A 
ATOM     84  C   UNL A   1      51.810  26.683  25.568  1.00  0.00     0.020 A 
ATOM     85  C   UNL A   1      50.699  27.259  23.486  1.00  0.00     0.020 A 
ATOM     86  C   UNL A   1      51.825  26.810  24.176  1.00  0.00     0.054 A 
BRANCH  86  87
ATOM     87  S   UNL A   1      53.324  26.328  23.273  1.00  0.00     0.124 S 
ATOM     88  O   UNL A   1      53.815  25.209  24.073  1.00  0.00    -0.237 OA
ATOM     89  O   UNL A   1      52.802  25.977  21.954  1.00  0.00    -0.237 OA
ATOM     90  O   UNL A   1      54.153  27.530  23.309  1.00  0.00    -0.744 OA
ENDBRANCH  86  87
ENDBRANCH  60  81
ENDBRANCH  34  35
ENDBRANCH  26  29
ENDBRANCH  24  25
ENDBRANCH  23  24
ENDBRANCH  22  23
ENDBRANCH   3  22
TORSDOF 19
ENDMDL
