MODEL 1
REMARK VINA RESULT:      -9.5      0.000      0.000
REMARK SMILES O=C(NCCCNC(=O)[C@H]1C[C@](F)(c2cccc(F)c2)C1)c1ccc(-c2c3nc(c(-c4ccc(S(=O)(=O)[O-])cc4)c4ccc([nH]4)c(-c4ccc(S(=O)(=O)[O-])cc4)c4nc(c(-c5ccc(S(=O)(=O)[O-])cc5)c5ccc2[nH]5)C=C4)C=C3)cc1
REMARK SMILES IDX 4 1 3 2 1 3 2 4 22 6 23 7 81 8 24 9 80 10 25 11 26 12 27 13
REMARK SMILES IDX 74 14 28 15 79 16 73 17 75 18 29 19 78 20 72 21 71 22 30 24
REMARK SMILES IDX 60 25 41 26 59 27 42 28 45 29 58 30 76 31 43 32 44 33 57 35
REMARK SMILES IDX 77 36 46 37 31 38 32 39 40 40 33 41 39 42 34 43 35 44 36 45
REMARK SMILES IDX 37 46 38 47 61 48 62 49 70 50 63 51 69 52 64 53 65 54 66 55
REMARK SMILES IDX 67 56 68 57 47 58 48 59 56 60 49 61 55 62 50 63 51 64 52 65
REMARK SMILES IDX 53 66 54 67 5 68 6 69 7 70 8 71 9 73 10 74 11 75 21 76 12 77
REMARK SMILES IDX 13 78 14 79 15 80 20 81 16 82 18 83 17 84 19 85
REMARK H PARENT 3 5 75 23 45 34 7 72
REMARK Flexibility Score: inf
ROOT
ATOM      1  C   UNL A   1      34.556  32.928  27.941  1.00  0.00     0.118 C 
ENDROOT
BRANCH   1   2
ATOM      2  N   UNL A   1      33.789  31.701  27.797  1.00  0.00    -0.352 N 
ATOM      3  O   UNL A   1      33.434  29.513  27.432  1.00  0.00    -0.269 OA
ATOM      4  C   UNL A   1      34.219  30.394  27.764  1.00  0.00     0.251 C 
ATOM      5  H   UNL A   1      32.815  31.824  27.711  1.00  0.00     0.163 HD
BRANCH   4   6
ATOM      6  C   UNL A   1      35.620  30.053  28.111  1.00  0.00     0.039 A 
ATOM      7  C   UNL A   1      36.637  30.149  27.162  1.00  0.00     0.014 A 
ATOM      8  C   UNL A   1      35.928  29.670  29.421  1.00  0.00     0.014 A 
ATOM      9  C   UNL A   1      37.921  29.719  27.474  1.00  0.00     0.010 A 
ATOM     10  C   UNL A   1      37.247  29.342  29.764  1.00  0.00     0.010 A 
ATOM     11  C   UNL A   1      38.251  29.343  28.787  1.00  0.00    -0.014 A 
BRANCH  11  12
ATOM     12  C   UNL A   1      39.676  29.059  29.102  1.00  0.00     0.031 A 
ATOM     13  C   UNL A   1      40.528  30.036  29.862  1.00  0.00     0.074 A 
ATOM     14  C   UNL A   1      40.173  27.856  28.746  1.00  0.00     0.049 A 
ATOM     15  N   UNL A   1      41.756  29.886  30.292  1.00  0.00    -0.248 NA
ATOM     16  C   UNL A   1      39.941  31.347  30.173  1.00  0.00     0.031 C 
ATOM     17  C   UNL A   1      39.444  26.838  27.981  1.00  0.00     0.029 A 
ATOM     18  N   UNL A   1      41.381  27.266  29.010  1.00  0.00    -0.354 N 
ATOM     19  C   UNL A   1      42.091  31.080  30.920  1.00  0.00     0.074 A 
ATOM     20  C   UNL A   1      40.948  31.958  30.785  1.00  0.00     0.031 C 
ATOM     21  C   UNL A   1      40.190  25.728  27.902  1.00  0.00     0.029 A 
ATOM     22  C   UNL A   1      41.472  25.974  28.547  1.00  0.00     0.049 A 
ATOM     23  H   UNL A   1      42.113  27.723  29.484  1.00  0.00     0.167 HD
ATOM     24  C   UNL A   1      43.243  31.409  31.556  1.00  0.00     0.031 A 
ATOM     25  C   UNL A   1      42.477  25.082  28.623  1.00  0.00     0.031 A 
ATOM     26  C   UNL A   1      44.380  30.532  31.678  1.00  0.00     0.049 A 
ATOM     27  C   UNL A   1      43.740  25.475  29.332  1.00  0.00     0.074 A 
ATOM     28  C   UNL A   1      45.592  30.772  32.302  1.00  0.00     0.029 A 
ATOM     29  N   UNL A   1      44.446  29.243  31.168  1.00  0.00    -0.354 N 
ATOM     30  N   UNL A   1      44.026  26.607  29.932  1.00  0.00    -0.248 NA
ATOM     31  C   UNL A   1      44.812  24.475  29.376  1.00  0.00     0.031 C 
ATOM     32  C   UNL A   1      46.405  29.645  32.133  1.00  0.00     0.029 A 
ATOM     33  C   UNL A   1      45.680  28.682  31.451  1.00  0.00     0.049 A 
ATOM     34  H   UNL A   1      43.721  28.793  30.676  1.00  0.00     0.167 HD
ATOM     35  C   UNL A   1      45.314  26.452  30.426  1.00  0.00     0.074 A 
ATOM     36  C   UNL A   1      45.733  25.105  30.089  1.00  0.00     0.031 C 
ATOM     37  C   UNL A   1      46.087  27.347  31.090  1.00  0.00     0.031 A 
BRANCH  24  38
ATOM     38  C   UNL A   1      43.339  32.785  32.164  1.00  0.00    -0.014 A 
ATOM     39  C   UNL A   1      43.912  33.853  31.450  1.00  0.00     0.010 A 
ATOM     40  C   UNL A   1      42.794  33.031  33.437  1.00  0.00     0.010 A 
ATOM     41  C   UNL A   1      43.962  35.134  32.009  1.00  0.00     0.020 A 
ATOM     42  C   UNL A   1      42.822  34.315  33.991  1.00  0.00     0.020 A 
ATOM     43  C   UNL A   1      43.419  35.356  33.277  1.00  0.00     0.054 A 
BRANCH  43  44
ATOM     44  S   UNL A   1      43.469  37.036  33.964  1.00  0.00     0.124 S 
ATOM     45  O   UNL A   1      43.502  37.854  32.754  1.00  0.00    -0.237 OA
ATOM     46  O   UNL A   1      42.231  37.105  34.735  1.00  0.00    -0.237 OA
ATOM     47  O   UNL A   1      44.696  37.050  34.758  1.00  0.00    -0.744 OA
ENDBRANCH  43  44
ENDBRANCH  24  38
BRANCH  25  48
ATOM     48  C   UNL A   1      42.331  23.747  27.983  1.00  0.00    -0.014 A 
ATOM     49  C   UNL A   1      42.934  23.464  26.746  1.00  0.00     0.010 A 
ATOM     50  C   UNL A   1      41.594  22.738  28.632  1.00  0.00     0.010 A 
ATOM     51  C   UNL A   1      42.785  22.204  26.160  1.00  0.00     0.020 A 
ATOM     52  C   UNL A   1      41.471  21.468  28.065  1.00  0.00     0.020 A 
ATOM     53  C   UNL A   1      42.054  21.213  26.824  1.00  0.00     0.054 A 
BRANCH  53  54
ATOM     54  S   UNL A   1      41.907  19.570  26.070  1.00  0.00     0.124 S 
ATOM     55  O   UNL A   1      42.330  18.698  27.161  1.00  0.00    -0.237 OA
ATOM     56  O   UNL A   1      40.490  19.506  25.720  1.00  0.00    -0.237 OA
ATOM     57  O   UNL A   1      42.819  19.637  24.929  1.00  0.00    -0.744 OA
ENDBRANCH  53  54
ENDBRANCH  25  48
BRANCH  37  58
ATOM     58  C   UNL A   1      47.459  26.885  31.496  1.00  0.00    -0.014 A 
ATOM     59  C   UNL A   1      47.688  26.327  32.767  1.00  0.00     0.010 A 
ATOM     60  C   UNL A   1      48.531  27.007  30.595  1.00  0.00     0.010 A 
ATOM     61  C   UNL A   1      48.977  25.946  33.148  1.00  0.00     0.020 A 
ATOM     62  C   UNL A   1      49.816  26.601  30.962  1.00  0.00     0.020 A 
ATOM     63  C   UNL A   1      50.034  26.094  32.245  1.00  0.00     0.054 A 
BRANCH  63  64
ATOM     64  S   UNL A   1      51.698  25.587  32.757  1.00  0.00     0.124 S 
ATOM     65  O   UNL A   1      51.714  24.176  32.382  1.00  0.00    -0.237 OA
ATOM     66  O   UNL A   1      52.561  26.459  31.961  1.00  0.00    -0.237 OA
ATOM     67  O   UNL A   1      51.714  25.851  34.194  1.00  0.00    -0.744 OA
ENDBRANCH  63  64
ENDBRANCH  37  58
ENDBRANCH  11  12
ENDBRANCH   4   6
ENDBRANCH   1   2
BRANCH   1  68
ATOM     68  C   UNL A   1      34.703  33.356  29.392  1.00  0.00     0.042 C 
BRANCH  68  69
ATOM     69  C   UNL A   1      36.107  33.826  29.760  1.00  0.00     0.117 C 
BRANCH  69  70
ATOM     70  N   UNL A   1      36.118  34.548  31.015  1.00  0.00    -0.356 N 
ATOM     71  C   UNL A   1      36.623  34.204  32.243  1.00  0.00     0.223 C 
ATOM     72  H   UNL A   1      35.689  35.435  30.981  1.00  0.00     0.163 HD
ATOM     73  O   UNL A   1      36.465  35.044  33.142  1.00  0.00    -0.275 OA
BRANCH  71  74
ATOM     74  C   UNL A   1      37.371  32.878  32.498  1.00  0.00     0.085 C 
ATOM     75  C   UNL A   1      36.799  31.687  33.281  1.00  0.00     0.059 C 
ATOM     76  C   UNL A   1      38.497  32.958  33.558  1.00  0.00     0.059 C 
ATOM     77  C   UNL A   1      38.122  31.549  34.080  1.00  0.00     0.137 C 
ATOM     78  F   UNL A   1      37.927  31.517  35.425  1.00  0.00    -0.239 F 
BRANCH  77  79
ATOM     79  C   UNL A   1      39.017  30.280  33.731  1.00  0.00    -0.008 A 
ATOM     80  C   UNL A   1      40.364  30.218  34.161  1.00  0.00     0.007 A 
ATOM     81  C   UNL A   1      38.568  29.197  32.955  1.00  0.00     0.046 A 
ATOM     82  C   UNL A   1      41.204  29.143  33.857  1.00  0.00     0.003 A 
ATOM     83  C   UNL A   1      39.405  28.125  32.651  1.00  0.00     0.123 A 
ATOM     84  C   UNL A   1      40.718  28.087  33.098  1.00  0.00     0.039 A 
ATOM     85  F   UNL A   1      38.934  27.114  31.909  1.00  0.00    -0.207 F 
ENDBRANCH  77  79
ENDBRANCH  71  74
ENDBRANCH  69  70
ENDBRANCH  68  69
ENDBRANCH   1  68
TORSDOF 14
ENDMDL
MODEL 2
REMARK VINA RESULT:      -9.3      3.088     10.533
REMARK SMILES O=C(NCCCNC(=O)[C@H]1C[C@](F)(c2cccc(F)c2)C1)c1ccc(-c2c3nc(c(-c4ccc(S(=O)(=O)[O-])cc4)c4ccc([nH]4)c(-c4ccc(S(=O)(=O)[O-])cc4)c4nc(c(-c5ccc(S(=O)(=O)[O-])cc5)c5ccc2[nH]5)C=C4)C=C3)cc1
REMARK SMILES IDX 4 1 3 2 1 3 2 4 22 6 23 7 81 8 24 9 80 10 25 11 26 12 27 13
REMARK SMILES IDX 74 14 28 15 79 16 73 17 75 18 29 19 78 20 72 21 71 22 30 24
REMARK SMILES IDX 60 25 41 26 59 27 42 28 45 29 58 30 76 31 43 32 44 33 57 35
REMARK SMILES IDX 77 36 46 37 31 38 32 39 40 40 33 41 39 42 34 43 35 44 36 45
REMARK SMILES IDX 37 46 38 47 61 48 62 49 70 50 63 51 69 52 64 53 65 54 66 55
REMARK SMILES IDX 67 56 68 57 47 58 48 59 56 60 49 61 55 62 50 63 51 64 52 65
REMARK SMILES IDX 53 66 54 67 5 68 6 69 7 70 8 71 9 73 10 74 11 75 21 76 12 77
REMARK SMILES IDX 13 78 14 79 15 80 20 81 16 82 18 83 17 84 19 85
REMARK H PARENT 3 5 75 23 45 34 7 72
REMARK Flexibility Score: inf
ROOT
ATOM      1  C   UNL A   1      40.414  21.450  27.030  1.00  0.00     0.118 C 
ENDROOT
BRANCH   1   2
ATOM      2  N   UNL A   1      39.334  21.835  26.137  1.00  0.00    -0.352 N 
ATOM      3  O   UNL A   1      37.632  23.082  25.365  1.00  0.00    -0.269 OA
ATOM      4  C   UNL A   1      38.647  23.025  26.050  1.00  0.00     0.251 C 
ATOM      5  H   UNL A   1      39.051  21.141  25.498  1.00  0.00     0.163 HD
BRANCH   4   6
ATOM      6  C   UNL A   1      39.118  24.222  26.787  1.00  0.00     0.039 A 
ATOM      7  C   UNL A   1      38.771  24.423  28.123  1.00  0.00     0.014 A 
ATOM      8  C   UNL A   1      39.955  25.140  26.143  1.00  0.00     0.014 A 
ATOM      9  C   UNL A   1      39.128  25.603  28.764  1.00  0.00     0.010 A 
ATOM     10  C   UNL A   1      40.406  26.277  26.826  1.00  0.00     0.010 A 
ATOM     11  C   UNL A   1      39.978  26.530  28.137  1.00  0.00    -0.014 A 
BRANCH  11  12
ATOM     12  C   UNL A   1      40.467  27.688  28.929  1.00  0.00     0.031 A 
ATOM     13  C   UNL A   1      41.865  27.741  29.476  1.00  0.00     0.074 A 
ATOM     14  C   UNL A   1      39.635  28.739  29.089  1.00  0.00     0.049 A 
ATOM     15  N   UNL A   1      42.461  28.724  30.102  1.00  0.00    -0.248 NA
ATOM     16  C   UNL A   1      42.701  26.542  29.310  1.00  0.00     0.031 C 
ATOM     17  C   UNL A   1      38.243  28.788  28.624  1.00  0.00     0.029 A 
ATOM     18  N   UNL A   1      39.839  29.974  29.644  1.00  0.00    -0.354 N 
ATOM     19  C   UNL A   1      43.737  28.266  30.410  1.00  0.00     0.074 A 
ATOM     20  C   UNL A   1      43.819  26.903  29.930  1.00  0.00     0.031 C 
ATOM     21  C   UNL A   1      37.747  30.012  28.846  1.00  0.00     0.029 A 
ATOM     22  C   UNL A   1      38.755  30.813  29.529  1.00  0.00     0.049 A 
ATOM     23  H   UNL A   1      40.681  30.238  30.082  1.00  0.00     0.167 HD
ATOM     24  C   UNL A   1      44.748  28.926  31.027  1.00  0.00     0.031 A 
ATOM     25  C   UNL A   1      38.581  32.084  29.932  1.00  0.00     0.031 A 
ATOM     26  C   UNL A   1      44.656  30.281  31.510  1.00  0.00     0.049 A 
ATOM     27  C   UNL A   1      39.717  32.788  30.615  1.00  0.00     0.074 A 
ATOM     28  C   UNL A   1      45.623  31.037  32.149  1.00  0.00     0.029 A 
ATOM     29  N   UNL A   1      43.531  31.086  31.403  1.00  0.00    -0.354 N 
ATOM     30  N   UNL A   1      40.921  32.338  30.879  1.00  0.00    -0.248 NA
ATOM     31  C   UNL A   1      39.474  34.168  31.049  1.00  0.00     0.031 C 
ATOM     32  C   UNL A   1      45.070  32.283  32.466  1.00  0.00     0.029 A 
ATOM     33  C   UNL A   1      43.775  32.323  31.977  1.00  0.00     0.049 A 
ATOM     34  H   UNL A   1      42.682  30.817  30.983  1.00  0.00     0.167 HD
ATOM     35  C   UNL A   1      41.580  33.382  31.514  1.00  0.00     0.074 A 
ATOM     36  C   UNL A   1      40.654  34.497  31.554  1.00  0.00     0.031 C 
ATOM     37  C   UNL A   1      42.835  33.414  32.026  1.00  0.00     0.031 A 
BRANCH  24  38
ATOM     38  C   UNL A   1      46.046  28.187  31.230  1.00  0.00    -0.014 A 
ATOM     39  C   UNL A   1      46.270  27.420  32.388  1.00  0.00     0.010 A 
ATOM     40  C   UNL A   1      47.030  28.204  30.224  1.00  0.00     0.010 A 
ATOM     41  C   UNL A   1      47.463  26.709  32.548  1.00  0.00     0.020 A 
ATOM     42  C   UNL A   1      48.215  27.477  30.370  1.00  0.00     0.020 A 
ATOM     43  C   UNL A   1      48.429  26.743  31.539  1.00  0.00     0.054 A 
BRANCH  43  44
ATOM     44  S   UNL A   1      49.953  25.783  31.760  1.00  0.00     0.124 S 
ATOM     45  O   UNL A   1      50.136  25.199  30.435  1.00  0.00    -0.237 OA
ATOM     46  O   UNL A   1      50.926  26.807  32.135  1.00  0.00    -0.237 OA
ATOM     47  O   UNL A   1      49.615  24.833  32.818  1.00  0.00    -0.744 OA
ENDBRANCH  43  44
ENDBRANCH  24  38
BRANCH  25  48
ATOM     48  C   UNL A   1      37.268  32.754  29.725  1.00  0.00    -0.014 A 
ATOM     49  C   UNL A   1      36.371  32.941  30.790  1.00  0.00     0.010 A 
ATOM     50  C   UNL A   1      36.919  33.228  28.445  1.00  0.00     0.010 A 
ATOM     51  C   UNL A   1      35.142  33.572  30.576  1.00  0.00     0.020 A 
ATOM     52  C   UNL A   1      35.707  33.886  28.234  1.00  0.00     0.020 A 
ATOM     53  C   UNL A   1      34.817  34.040  29.299  1.00  0.00     0.054 A 
BRANCH  53  54
ATOM     54  S   UNL A   1      33.237  34.894  29.047  1.00  0.00     0.124 S 
ATOM     55  O   UNL A   1      33.671  36.185  28.525  1.00  0.00    -0.237 OA
ATOM     56  O   UNL A   1      32.553  34.022  28.095  1.00  0.00    -0.237 OA
ATOM     57  O   UNL A   1      32.650  34.922  30.385  1.00  0.00    -0.744 OA
ENDBRANCH  53  54
ENDBRANCH  25  48
BRANCH  37  58
ATOM     58  C   UNL A   1      43.270  34.703  32.667  1.00  0.00    -0.014 A 
ATOM     59  C   UNL A   1      43.116  34.911  34.050  1.00  0.00     0.010 A 
ATOM     60  C   UNL A   1      43.843  35.716  31.878  1.00  0.00     0.010 A 
ATOM     61  C   UNL A   1      43.481  36.132  34.624  1.00  0.00     0.020 A 
ATOM     62  C   UNL A   1      44.235  36.927  32.453  1.00  0.00     0.020 A 
ATOM     63  C   UNL A   1      44.030  37.134  33.819  1.00  0.00     0.054 A 
BRANCH  63  64
ATOM     64  S   UNL A   1      44.503  38.708  34.586  1.00  0.00     0.124 S 
ATOM     65  O   UNL A   1      44.172  38.472  35.989  1.00  0.00    -0.237 OA
ATOM     66  O   UNL A   1      45.930  38.800  34.284  1.00  0.00    -0.237 OA
ATOM     67  O   UNL A   1      43.665  39.691  33.904  1.00  0.00    -0.744 OA
ENDBRANCH  63  64
ENDBRANCH  37  58
ENDBRANCH  11  12
ENDBRANCH   4   6
ENDBRANCH   1   2
BRANCH   1  68
ATOM     68  C   UNL A   1      41.669  21.032  26.281  1.00  0.00     0.042 C 
BRANCH  68  69
ATOM     69  C   UNL A   1      42.486  22.201  25.740  1.00  0.00     0.117 C 
BRANCH  69  70
ATOM     70  N   UNL A   1      43.895  22.053  26.038  1.00  0.00    -0.356 N 
ATOM     71  C   UNL A   1      44.863  22.992  26.286  1.00  0.00     0.223 C 
ATOM     72  H   UNL A   1      44.212  21.120  26.066  1.00  0.00     0.163 HD
ATOM     73  O   UNL A   1      46.000  22.546  26.500  1.00  0.00    -0.275 OA
BRANCH  71  74
ATOM     74  C   UNL A   1      44.566  24.506  26.331  1.00  0.00     0.085 C 
ATOM     75  C   UNL A   1      44.319  25.388  25.098  1.00  0.00     0.059 C 
ATOM     76  C   UNL A   1      45.789  25.401  26.653  1.00  0.00     0.059 C 
ATOM     77  C   UNL A   1      45.285  26.470  25.651  1.00  0.00     0.137 C 
ATOM     78  F   UNL A   1      46.234  26.841  24.751  1.00  0.00    -0.239 F 
BRANCH  77  79
ATOM     79  C   UNL A   1      44.605  27.815  26.159  1.00  0.00    -0.008 A 
ATOM     80  C   UNL A   1      45.368  28.776  26.866  1.00  0.00     0.007 A 
ATOM     81  C   UNL A   1      43.240  28.111  25.997  1.00  0.00     0.046 A 
ATOM     82  C   UNL A   1      44.816  29.961  27.362  1.00  0.00     0.003 A 
ATOM     83  C   UNL A   1      42.689  29.291  26.492  1.00  0.00     0.123 A 
ATOM     84  C   UNL A   1      43.466  30.220  27.170  1.00  0.00     0.039 A 
ATOM     85  F   UNL A   1      41.383  29.531  26.315  1.00  0.00    -0.207 F 
ENDBRANCH  77  79
ENDBRANCH  71  74
ENDBRANCH  69  70
ENDBRANCH  68  69
ENDBRANCH   1  68
TORSDOF 14
ENDMDL
MODEL 3
REMARK VINA RESULT:      -9.3      3.091      9.272
REMARK SMILES O=C(NCCCNC(=O)[C@H]1C[C@](F)(c2cccc(F)c2)C1)c1ccc(-c2c3nc(c(-c4ccc(S(=O)(=O)[O-])cc4)c4ccc([nH]4)c(-c4ccc(S(=O)(=O)[O-])cc4)c4nc(c(-c5ccc(S(=O)(=O)[O-])cc5)c5ccc2[nH]5)C=C4)C=C3)cc1
REMARK SMILES IDX 4 1 3 2 1 3 2 4 22 6 23 7 81 8 24 9 80 10 25 11 26 12 27 13
REMARK SMILES IDX 74 14 28 15 79 16 73 17 75 18 29 19 78 20 72 21 71 22 30 24
REMARK SMILES IDX 60 25 41 26 59 27 42 28 45 29 58 30 76 31 43 32 44 33 57 35
REMARK SMILES IDX 77 36 46 37 31 38 32 39 40 40 33 41 39 42 34 43 35 44 36 45
REMARK SMILES IDX 37 46 38 47 61 48 62 49 70 50 63 51 69 52 64 53 65 54 66 55
REMARK SMILES IDX 67 56 68 57 47 58 48 59 56 60 49 61 55 62 50 63 51 64 52 65
REMARK SMILES IDX 53 66 54 67 5 68 6 69 7 70 8 71 9 73 10 74 11 75 21 76 12 77
REMARK SMILES IDX 13 78 14 79 15 80 20 81 16 82 18 83 17 84 19 85
REMARK H PARENT 3 5 75 23 45 34 7 72
REMARK Flexibility Score: inf
ROOT
ATOM      1  C   UNL A   1      40.471  21.275  26.901  1.00  0.00     0.118 C 
ENDROOT
BRANCH   1   2
ATOM      2  N   UNL A   1      39.376  21.655  26.024  1.00  0.00    -0.352 N 
ATOM      3  O   UNL A   1      37.661  22.898  25.273  1.00  0.00    -0.269 OA
ATOM      4  C   UNL A   1      38.687  22.845  25.942  1.00  0.00     0.251 C 
ATOM      5  H   UNL A   1      39.082  20.957  25.394  1.00  0.00     0.163 HD
BRANCH   4   6
ATOM      6  C   UNL A   1      39.171  24.046  26.663  1.00  0.00     0.039 A 
ATOM      7  C   UNL A   1      38.834  24.264  28.000  1.00  0.00     0.014 A 
ATOM      8  C   UNL A   1      40.009  24.952  26.004  1.00  0.00     0.014 A 
ATOM      9  C   UNL A   1      39.202  25.448  28.625  1.00  0.00     0.010 A 
ATOM     10  C   UNL A   1      40.472  26.093  26.672  1.00  0.00     0.010 A 
ATOM     11  C   UNL A   1      40.055  26.362  27.983  1.00  0.00    -0.014 A 
BRANCH  11  12
ATOM     12  C   UNL A   1      40.556  27.526  28.760  1.00  0.00     0.031 A 
ATOM     13  C   UNL A   1      39.706  28.741  29.004  1.00  0.00     0.074 A 
ATOM     14  C   UNL A   1      41.785  27.434  29.310  1.00  0.00     0.049 A 
ATOM     15  N   UNL A   1      39.973  29.790  29.742  1.00  0.00    -0.248 NA
ATOM     16  C   UNL A   1      38.399  28.798  28.334  1.00  0.00     0.031 C 
ATOM     17  C   UNL A   1      42.711  26.312  29.118  1.00  0.00     0.029 A 
ATOM     18  N   UNL A   1      42.453  28.268  30.167  1.00  0.00    -0.354 N 
ATOM     19  C   UNL A   1      38.874  30.632  29.623  1.00  0.00     0.074 A 
ATOM     20  C   UNL A   1      37.949  29.987  28.715  1.00  0.00     0.031 C 
ATOM     21  C   UNL A   1      43.789  26.492  29.892  1.00  0.00     0.029 A 
ATOM     22  C   UNL A   1      43.667  27.770  30.580  1.00  0.00     0.049 A 
ATOM     23  H   UNL A   1      42.099  29.139  30.460  1.00  0.00     0.167 HD
ATOM     24  C   UNL A   1      38.654  31.828  30.223  1.00  0.00     0.031 A 
ATOM     25  C   UNL A   1      44.589  28.283  31.416  1.00  0.00     0.031 A 
ATOM     26  C   UNL A   1      39.584  32.467  31.119  1.00  0.00     0.049 A 
ATOM     27  C   UNL A   1      44.319  29.609  32.064  1.00  0.00     0.074 A 
ATOM     28  C   UNL A   1      39.454  33.678  31.778  1.00  0.00     0.029 A 
ATOM     29  N   UNL A   1      40.816  31.947  31.488  1.00  0.00    -0.354 N 
ATOM     30  N   UNL A   1      43.262  30.379  31.948  1.00  0.00    -0.248 NA
ATOM     31  C   UNL A   1      45.359  30.133  32.955  1.00  0.00     0.031 C 
ATOM     32  C   UNL A   1      40.625  33.909  32.509  1.00  0.00     0.029 A 
ATOM     33  C   UNL A   1      41.462  32.817  32.351  1.00  0.00     0.049 A 
ATOM     34  H   UNL A   1      41.180  31.085  31.180  1.00  0.00     0.167 HD
ATOM     35  C   UNL A   1      43.514  31.482  32.753  1.00  0.00     0.074 A 
ATOM     36  C   UNL A   1      44.801  31.257  33.380  1.00  0.00     0.031 C 
ATOM     37  C   UNL A   1      42.752  32.586  32.949  1.00  0.00     0.031 A 
BRANCH  24  38
ATOM     38  C   UNL A   1      37.357  32.535  29.922  1.00  0.00    -0.014 A 
ATOM     39  C   UNL A   1      36.204  32.290  30.690  1.00  0.00     0.010 A 
ATOM     40  C   UNL A   1      37.304  33.503  28.903  1.00  0.00     0.010 A 
ATOM     41  C   UNL A   1      35.017  32.979  30.426  1.00  0.00     0.020 A 
ATOM     42  C   UNL A   1      36.125  34.210  28.649  1.00  0.00     0.020 A 
ATOM     43  C   UNL A   1      34.984  33.933  29.405  1.00  0.00     0.054 A 
BRANCH  43  44
ATOM     44  S   UNL A   1      33.437  34.836  29.106  1.00  0.00     0.124 S 
ATOM     45  O   UNL A   1      33.922  36.067  28.488  1.00  0.00    -0.237 OA
ATOM     46  O   UNL A   1      32.705  33.934  28.221  1.00  0.00    -0.237 OA
ATOM     47  O   UNL A   1      32.864  34.994  30.442  1.00  0.00    -0.744 OA
ENDBRANCH  43  44
ENDBRANCH  24  38
BRANCH  25  48
ATOM     48  C   UNL A   1      45.861  27.548  31.656  1.00  0.00    -0.014 A 
ATOM     49  C   UNL A   1      46.027  26.736  32.790  1.00  0.00     0.010 A 
ATOM     50  C   UNL A   1      46.912  27.646  30.724  1.00  0.00     0.010 A 
ATOM     51  C   UNL A   1      47.229  26.054  33.000  1.00  0.00     0.020 A 
ATOM     52  C   UNL A   1      48.101  26.941  30.914  1.00  0.00     0.020 A 
ATOM     53  C   UNL A   1      48.259  26.161  32.060  1.00  0.00     0.054 A 
BRANCH  53  54
ATOM     54  S   UNL A   1      49.796  25.234  32.325  1.00  0.00     0.124 S 
ATOM     55  O   UNL A   1      50.645  26.235  32.963  1.00  0.00    -0.237 OA
ATOM     56  O   UNL A   1      49.360  24.133  33.180  1.00  0.00    -0.237 OA
ATOM     57  O   UNL A   1      50.193  24.843  30.974  1.00  0.00    -0.744 OA
ENDBRANCH  53  54
ENDBRANCH  25  48
BRANCH  37  58
ATOM     58  C   UNL A   1      43.301  33.627  33.886  1.00  0.00    -0.014 A 
ATOM     59  C   UNL A   1      44.120  34.667  33.412  1.00  0.00     0.010 A 
ATOM     60  C   UNL A   1      42.990  33.566  35.256  1.00  0.00     0.010 A 
ATOM     61  C   UNL A   1      44.662  35.599  34.301  1.00  0.00     0.020 A 
ATOM     62  C   UNL A   1      43.507  34.512  36.143  1.00  0.00     0.020 A 
ATOM     63  C   UNL A   1      44.357  35.510  35.662  1.00  0.00     0.054 A 
BRANCH  63  64
ATOM     64  S   UNL A   1      45.066  36.734  36.798  1.00  0.00     0.124 S 
ATOM     65  O   UNL A   1      45.588  35.887  37.866  1.00  0.00    -0.237 OA
ATOM     66  O   UNL A   1      46.074  37.396  35.971  1.00  0.00    -0.237 OA
ATOM     67  O   UNL A   1      43.925  37.569  37.163  1.00  0.00    -0.744 OA
ENDBRANCH  63  64
ENDBRANCH  37  58
ENDBRANCH  11  12
ENDBRANCH   4   6
ENDBRANCH   1   2
BRANCH   1  68
ATOM     68  C   UNL A   1      41.832  21.568  26.294  1.00  0.00     0.042 C 
BRANCH  68  69
ATOM     69  C   UNL A   1      42.877  22.029  27.306  1.00  0.00     0.117 C 
BRANCH  69  70
ATOM     70  N   UNL A   1      44.219  21.935  26.770  1.00  0.00    -0.356 N 
ATOM     71  C   UNL A   1      45.078  22.909  26.330  1.00  0.00     0.223 C 
ATOM     72  H   UNL A   1      44.574  21.018  26.712  1.00  0.00     0.163 HD
ATOM     73  O   UNL A   1      46.174  22.507  25.910  1.00  0.00    -0.275 OA
BRANCH  71  74
ATOM     74  C   UNL A   1      44.733  24.413  26.378  1.00  0.00     0.085 C 
ATOM     75  C   UNL A   1      44.734  25.351  25.161  1.00  0.00     0.059 C 
ATOM     76  C   UNL A   1      45.829  25.314  26.999  1.00  0.00     0.059 C 
ATOM     77  C   UNL A   1      45.523  26.422  25.960  1.00  0.00     0.137 C 
ATOM     78  F   UNL A   1      46.634  26.857  25.308  1.00  0.00    -0.239 F 
BRANCH  77  79
ATOM     79  C   UNL A   1      44.709  27.726  26.368  1.00  0.00    -0.008 A 
ATOM     80  C   UNL A   1      45.283  28.681  27.242  1.00  0.00     0.007 A 
ATOM     81  C   UNL A   1      43.392  27.988  25.950  1.00  0.00     0.046 A 
ATOM     82  C   UNL A   1      44.602  29.829  27.657  1.00  0.00     0.003 A 
ATOM     83  C   UNL A   1      42.712  29.132  26.364  1.00  0.00     0.123 A 
ATOM     84  C   UNL A   1      43.307  30.056  27.212  1.00  0.00     0.039 A 
ATOM     85  F   UNL A   1      41.458  29.340  25.941  1.00  0.00    -0.207 F 
ENDBRANCH  77  79
ENDBRANCH  71  74
ENDBRANCH  69  70
ENDBRANCH  68  69
ENDBRANCH   1  68
TORSDOF 14
ENDMDL
