MODEL 1
REMARK VINA RESULT:     -12.2      0.000      0.000
REMARK SMILES [NH3+][C@H]1CN(C(=O)OCC2c3ccccc3-c3ccccc32)C[C@@H]1C(=O)NCCCNC(=O)c1ccc(-c2c3nc(c(-c4ccc(S(=O)(=O)[O-])cc4)c4ccc([nH]4)c(-c4ccc(S(=O)(=O)[O-])cc4)c4nc(c(-c5ccc(S(=O)(=O)[O-])cc5)c5ccc2[nH]5)C=C4)C=C3)cc1
REMARK SMILES IDX 27 1 26 2 24 3 25 4 23 6 2 7 3 8 4 9 22 10 1 11 5 15 6 16
REMARK SMILES IDX 7 17 8 18 9 19 10 20 21 21 11 22 15 23 16 24 20 25 12 26
REMARK SMILES IDX 14 27 17 28 19 29 13 30 18 31 28 32 29 33 30 34 31 35 32 37
REMARK SMILES IDX 33 38 34 39 92 40 35 41 91 42 36 43 37 44 38 45 85 46 39 47
REMARK SMILES IDX 90 48 84 49 86 50 40 51 89 52 83 53 82 54 41 56 71 57 52 58
REMARK SMILES IDX 70 59 53 60 56 61 69 62 87 63 54 64 55 65 68 67 88 68 57 69
REMARK SMILES IDX 42 70 43 71 51 72 44 73 50 74 45 75 46 76 47 77 48 78 49 79
REMARK SMILES IDX 72 80 73 81 81 82 74 83 80 84 75 85 76 86 77 87 78 88 79 89
REMARK SMILES IDX 58 90 59 91 67 92 60 93 66 94 61 95 62 96 63 97 64 98 65 99
REMARK H PARENT 26 5 1 12 1 13 1 14 30 36 86 55 56 66
REMARK Flexibility Score: inf
ROOT
ATOM      1  C   UNL A   1      38.457  23.237  26.480  1.00  0.00     0.117 C 
ENDROOT
BRANCH   1   2
ATOM      2  N   UNL A   1      38.047  23.141  25.087  1.00  0.00    -0.356 N 
ATOM      3  C   UNL A   1      37.000  22.457  24.538  1.00  0.00     0.231 C 
ATOM      4  O   UNL A   1      36.893  22.434  23.312  1.00  0.00    -0.274 OA
ATOM      5  H   UNL A   1      38.605  23.639  24.448  1.00  0.00     0.163 HD
BRANCH   3   6
ATOM      6  C   UNL A   1      36.012  21.766  25.462  1.00  0.00     0.158 C 
ATOM      7  C   UNL A   1      34.973  20.935  24.688  1.00  0.00     0.215 C 
ATOM      8  C   UNL A   1      33.905  21.981  24.298  1.00  0.00     0.188 C 
ATOM      9  N   UNL A   1      34.042  23.052  25.271  1.00  0.00    -0.301 N 
ATOM     10  C   UNL A   1      35.161  22.820  26.164  1.00  0.00     0.143 C 
BRANCH   7  11
ATOM     11  N   UNL A   1      34.408  19.889  25.564  1.00  0.00    -0.353 N 
ATOM     12  H   UNL A   1      35.089  19.642  26.281  1.00  0.00     0.344 HD
ATOM     13  H   UNL A   1      34.185  19.063  25.008  1.00  0.00     0.344 HD
ATOM     14  H   UNL A   1      33.559  20.238  26.008  1.00  0.00     0.344 HD
ENDBRANCH   7  11
BRANCH   9  15
ATOM     15  C   UNL A   1      33.323  24.212  25.291  1.00  0.00     0.410 C 
ATOM     16  O   UNL A   1      32.101  24.252  25.192  1.00  0.00    -0.224 OA
BRANCH  15  17
ATOM     17  O   UNL A   1      34.110  25.315  25.436  1.00  0.00    -0.448 OA
BRANCH  17  18
ATOM     18  C   UNL A   1      33.504  26.396  26.178  1.00  0.00     0.248 C 
BRANCH  18  19
ATOM     19  C   UNL A   1      33.659  27.743  25.453  1.00  0.00     0.088 C 
ATOM     20  C   UNL A   1      32.380  28.216  24.771  1.00  0.00    -0.029 A 
ATOM     21  C   UNL A   1      33.952  28.912  26.391  1.00  0.00    -0.029 A 
ATOM     22  C   UNL A   1      31.627  27.559  23.808  1.00  0.00     0.005 A 
ATOM     23  C   UNL A   1      32.038  29.513  25.210  1.00  0.00    -0.014 A 
ATOM     24  C   UNL A   1      33.002  29.941  26.201  1.00  0.00    -0.014 A 
ATOM     25  C   UNL A   1      34.994  29.052  27.295  1.00  0.00     0.005 A 
ATOM     26  C   UNL A   1      30.507  28.208  23.289  1.00  0.00     0.000 A 
ATOM     27  C   UNL A   1      30.929  30.160  24.688  1.00  0.00     0.009 A 
ATOM     28  C   UNL A   1      33.095  31.124  26.913  1.00  0.00     0.009 A 
ATOM     29  C   UNL A   1      35.080  30.243  28.019  1.00  0.00     0.000 A 
ATOM     30  C   UNL A   1      30.161  29.498  23.724  1.00  0.00     0.001 A 
ATOM     31  C   UNL A   1      34.143  31.272  27.827  1.00  0.00     0.001 A 
ENDBRANCH  18  19
ENDBRANCH  17  18
ENDBRANCH  15  17
ENDBRANCH   9  15
ENDBRANCH   3   6
ENDBRANCH   1   2
BRANCH   1  32
ATOM     32  C   UNL A   1      39.720  22.431  26.757  1.00  0.00     0.042 C 
BRANCH  32  33
ATOM     33  C   UNL A   1      40.942  23.282  27.095  1.00  0.00     0.118 C 
BRANCH  33  34
ATOM     34  N   UNL A   1      41.334  24.167  26.007  1.00  0.00    -0.352 N 
ATOM     35  C   UNL A   1      41.440  25.536  25.971  1.00  0.00     0.251 C 
ATOM     36  H   UNL A   1      41.558  23.712  25.163  1.00  0.00     0.163 HD
ATOM     37  O   UNL A   1      41.625  26.096  24.894  1.00  0.00    -0.269 OA
BRANCH  35  38
ATOM     38  C   UNL A   1      41.309  26.338  27.208  1.00  0.00     0.039 A 
ATOM     39  C   UNL A   1      42.311  27.263  27.516  1.00  0.00     0.014 A 
ATOM     40  C   UNL A   1      40.224  26.173  28.073  1.00  0.00     0.014 A 
ATOM     41  C   UNL A   1      42.188  28.068  28.653  1.00  0.00     0.010 A 
ATOM     42  C   UNL A   1      40.064  27.030  29.160  1.00  0.00     0.010 A 
ATOM     43  C   UNL A   1      41.043  27.988  29.462  1.00  0.00    -0.014 A 
BRANCH  43  44
ATOM     44  C   UNL A   1      40.847  28.911  30.612  1.00  0.00     0.031 A 
ATOM     45  C   UNL A   1      41.682  28.769  31.858  1.00  0.00     0.074 A 
ATOM     46  C   UNL A   1      39.875  29.844  30.558  1.00  0.00     0.049 A 
ATOM     47  N   UNL A   1      41.617  29.449  32.974  1.00  0.00    -0.248 NA
ATOM     48  C   UNL A   1      42.706  27.712  31.858  1.00  0.00     0.031 C 
ATOM     49  C   UNL A   1      38.973  30.063  29.423  1.00  0.00     0.029 A 
ATOM     50  N   UNL A   1      39.477  30.781  31.481  1.00  0.00    -0.354 N 
ATOM     51  C   UNL A   1      42.579  28.897  33.812  1.00  0.00     0.074 A 
ATOM     52  C   UNL A   1      43.177  27.791  33.095  1.00  0.00     0.031 C 
ATOM     53  C   UNL A   1      38.151  31.086  29.705  1.00  0.00     0.029 A 
ATOM     54  C   UNL A   1      38.429  31.565  31.055  1.00  0.00     0.049 A 
ATOM     55  H   UNL A   1      39.901  30.882  32.363  1.00  0.00     0.167 HD
ATOM     56  C   UNL A   1      42.945  29.282  35.058  1.00  0.00     0.031 A 
ATOM     57  C   UNL A   1      37.758  32.552  31.681  1.00  0.00     0.031 A 
ATOM     58  C   UNL A   1      42.348  30.384  35.769  1.00  0.00     0.049 A 
ATOM     59  C   UNL A   1      38.164  32.943  33.076  1.00  0.00     0.074 A 
ATOM     60  C   UNL A   1      42.685  30.885  37.014  1.00  0.00     0.029 A 
ATOM     61  N   UNL A   1      41.289  31.149  35.305  1.00  0.00    -0.354 N 
ATOM     62  N   UNL A   1      39.122  32.451  33.825  1.00  0.00    -0.248 NA
ATOM     63  C   UNL A   1      37.404  34.032  33.706  1.00  0.00     0.031 C 
ATOM     64  C   UNL A   1      41.788  31.909  37.332  1.00  0.00     0.029 A 
ATOM     65  C   UNL A   1      40.938  32.097  36.253  1.00  0.00     0.049 A 
ATOM     66  H   UNL A   1      40.850  31.035  34.431  1.00  0.00     0.167 HD
ATOM     67  C   UNL A   1      39.100  33.191  35.003  1.00  0.00     0.074 A 
ATOM     68  C   UNL A   1      38.045  34.174  34.858  1.00  0.00     0.031 C 
ATOM     69  C   UNL A   1      39.885  33.069  36.102  1.00  0.00     0.031 A 
BRANCH  56  70
ATOM     70  C   UNL A   1      44.037  28.499  35.742  1.00  0.00    -0.014 A 
ATOM     71  C   UNL A   1      43.742  27.379  36.540  1.00  0.00     0.010 A 
ATOM     72  C   UNL A   1      45.383  28.858  35.543  1.00  0.00     0.010 A 
ATOM     73  C   UNL A   1      44.767  26.660  37.161  1.00  0.00     0.020 A 
ATOM     74  C   UNL A   1      46.414  28.123  36.135  1.00  0.00     0.020 A 
ATOM     75  C   UNL A   1      46.098  27.037  36.954  1.00  0.00     0.054 A 
BRANCH  75  76
ATOM     76  S   UNL A   1      47.407  26.070  37.754  1.00  0.00     0.124 S 
ATOM     77  O   UNL A   1      46.652  24.969  38.345  1.00  0.00    -0.237 OA
ATOM     78  O   UNL A   1      48.269  25.709  36.630  1.00  0.00    -0.237 OA
ATOM     79  O   UNL A   1      47.996  27.005  38.710  1.00  0.00    -0.744 OA
ENDBRANCH  75  76
ENDBRANCH  56  70
BRANCH  57  80
ATOM     80  C   UNL A   1      36.635  33.243  30.990  1.00  0.00    -0.014 A 
ATOM     81  C   UNL A   1      35.318  33.127  31.469  1.00  0.00     0.010 A 
ATOM     82  C   UNL A   1      36.879  34.031  29.850  1.00  0.00     0.010 A 
ATOM     83  C   UNL A   1      34.265  33.769  30.810  1.00  0.00     0.020 A 
ATOM     84  C   UNL A   1      35.834  34.701  29.207  1.00  0.00     0.020 A 
ATOM     85  C   UNL A   1      34.530  34.555  29.684  1.00  0.00     0.054 A 
BRANCH  85  86
ATOM     86  S   UNL A   1      33.154  35.418  28.876  1.00  0.00     0.124 S 
ATOM     87  O   UNL A   1      33.851  36.439  28.099  1.00  0.00    -0.237 OA
ATOM     88  O   UNL A   1      32.525  34.351  28.103  1.00  0.00    -0.237 OA
ATOM     89  O   UNL A   1      32.360  35.918  29.996  1.00  0.00    -0.744 OA
ENDBRANCH  85  86
ENDBRANCH  57  80
BRANCH  69  90
ATOM     90  C   UNL A   1      39.663  34.045  37.227  1.00  0.00    -0.014 A 
ATOM     91  C   UNL A   1      39.030  33.659  38.422  1.00  0.00     0.010 A 
ATOM     92  C   UNL A   1      40.146  35.362  37.106  1.00  0.00     0.010 A 
ATOM     93  C   UNL A   1      38.854  34.578  39.459  1.00  0.00     0.020 A 
ATOM     94  C   UNL A   1      40.003  36.275  38.154  1.00  0.00     0.020 A 
ATOM     95  C   UNL A   1      39.344  35.881  39.320  1.00  0.00     0.054 A 
BRANCH  95  96
ATOM     96  S   UNL A   1      39.142  37.042  40.698  1.00  0.00     0.124 S 
ATOM     97  O   UNL A   1      38.457  36.219  41.691  1.00  0.00    -0.237 OA
ATOM     98  O   UNL A   1      40.522  37.397  41.020  1.00  0.00    -0.237 OA
ATOM     99  O   UNL A   1      38.342  38.124  40.128  1.00  0.00    -0.744 OA
ENDBRANCH  95  96
ENDBRANCH  69  90
ENDBRANCH  43  44
ENDBRANCH  35  38
ENDBRANCH  33  34
ENDBRANCH  32  33
ENDBRANCH   1  32
TORSDOF 18
ENDMDL
MODEL 2
REMARK VINA RESULT:     -12.2      6.050     12.021
REMARK SMILES [NH3+][C@H]1CN(C(=O)OCC2c3ccccc3-c3ccccc32)C[C@@H]1C(=O)NCCCNC(=O)c1ccc(-c2c3nc(c(-c4ccc(S(=O)(=O)[O-])cc4)c4ccc([nH]4)c(-c4ccc(S(=O)(=O)[O-])cc4)c4nc(c(-c5ccc(S(=O)(=O)[O-])cc5)c5ccc2[nH]5)C=C4)C=C3)cc1
REMARK SMILES IDX 27 1 26 2 24 3 25 4 23 6 2 7 3 8 4 9 22 10 1 11 5 15 6 16
REMARK SMILES IDX 7 17 8 18 9 19 10 20 21 21 11 22 15 23 16 24 20 25 12 26
REMARK SMILES IDX 14 27 17 28 19 29 13 30 18 31 28 32 29 33 30 34 31 35 32 37
REMARK SMILES IDX 33 38 34 39 92 40 35 41 91 42 36 43 37 44 38 45 85 46 39 47
REMARK SMILES IDX 90 48 84 49 86 50 40 51 89 52 83 53 82 54 41 56 71 57 52 58
REMARK SMILES IDX 70 59 53 60 56 61 69 62 87 63 54 64 55 65 68 67 88 68 57 69
REMARK SMILES IDX 42 70 43 71 51 72 44 73 50 74 45 75 46 76 47 77 48 78 49 79
REMARK SMILES IDX 72 80 73 81 81 82 74 83 80 84 75 85 76 86 77 87 78 88 79 89
REMARK SMILES IDX 58 90 59 91 67 92 60 93 66 94 61 95 62 96 63 97 64 98 65 99
REMARK H PARENT 26 5 1 12 1 13 1 14 30 36 86 55 56 66
REMARK Flexibility Score: inf
ROOT
ATOM      1  C   UNL A   1      33.435  30.271  27.048  1.00  0.00     0.117 C 
ENDROOT
BRANCH   1   2
ATOM      2  N   UNL A   1      32.503  29.358  27.694  1.00  0.00    -0.356 N 
ATOM      3  C   UNL A   1      31.908  28.234  27.197  1.00  0.00     0.231 C 
ATOM      4  O   UNL A   1      31.070  27.659  27.890  1.00  0.00    -0.274 OA
ATOM      5  H   UNL A   1      32.268  29.584  28.622  1.00  0.00     0.163 HD
BRANCH   3   6
ATOM      6  C   UNL A   1      32.313  27.739  25.819  1.00  0.00     0.158 C 
ATOM      7  C   UNL A   1      31.117  27.656  24.855  1.00  0.00     0.215 C 
ATOM      8  C   UNL A   1      30.495  26.281  25.185  1.00  0.00     0.188 C 
ATOM      9  N   UNL A   1      31.574  25.500  25.765  1.00  0.00    -0.301 N 
ATOM     10  C   UNL A   1      32.779  26.290  25.923  1.00  0.00     0.143 C 
BRANCH   7  11
ATOM     11  N   UNL A   1      31.589  27.712  23.456  1.00  0.00    -0.353 N 
ATOM     12  H   UNL A   1      31.478  26.795  23.023  1.00  0.00     0.344 HD
ATOM     13  H   UNL A   1      32.574  27.979  23.439  1.00  0.00     0.344 HD
ATOM     14  H   UNL A   1      31.042  28.399  22.939  1.00  0.00     0.344 HD
ENDBRANCH   7  11
BRANCH   9  15
ATOM     15  C   UNL A   1      31.472  24.225  26.245  1.00  0.00     0.410 C 
ATOM     16  O   UNL A   1      31.345  23.960  27.436  1.00  0.00    -0.224 OA
BRANCH  15  17
ATOM     17  O   UNL A   1      31.523  23.288  25.258  1.00  0.00    -0.448 OA
BRANCH  17  18
ATOM     18  C   UNL A   1      32.182  22.057  25.628  1.00  0.00     0.248 C 
BRANCH  18  19
ATOM     19  C   UNL A   1      33.234  21.637  24.589  1.00  0.00     0.088 C 
ATOM     20  C   UNL A   1      34.643  22.116  24.922  1.00  0.00    -0.029 A 
ATOM     21  C   UNL A   1      33.441  20.127  24.502  1.00  0.00    -0.029 A 
ATOM     22  C   UNL A   1      35.080  23.416  25.132  1.00  0.00     0.005 A 
ATOM     23  C   UNL A   1      35.541  21.028  24.946  1.00  0.00    -0.014 A 
ATOM     24  C   UNL A   1      34.806  19.809  24.686  1.00  0.00    -0.014 A 
ATOM     25  C   UNL A   1      32.501  19.142  24.242  1.00  0.00     0.005 A 
ATOM     26  C   UNL A   1      36.436  23.625  25.385  1.00  0.00     0.000 A 
ATOM     27  C   UNL A   1      36.889  21.237  25.189  1.00  0.00     0.009 A 
ATOM     28  C   UNL A   1      35.240  18.497  24.605  1.00  0.00     0.009 A 
ATOM     29  C   UNL A   1      32.940  17.818  24.168  1.00  0.00     0.000 A 
ATOM     30  C   UNL A   1      37.334  22.545  25.411  1.00  0.00     0.001 A 
ATOM     31  C   UNL A   1      34.297  17.498  24.343  1.00  0.00     0.001 A 
ENDBRANCH  18  19
ENDBRANCH  17  18
ENDBRANCH  15  17
ENDBRANCH   9  15
ENDBRANCH   3   6
ENDBRANCH   1   2
BRANCH   1  32
ATOM     32  C   UNL A   1      34.873  30.017  27.484  1.00  0.00     0.042 C 
BRANCH  32  33
ATOM     33  C   UNL A   1      35.536  31.206  28.174  1.00  0.00     0.118 C 
BRANCH  33  34
ATOM     34  N   UNL A   1      35.463  31.130  29.626  1.00  0.00    -0.352 N 
ATOM     35  C   UNL A   1      36.403  30.722  30.542  1.00  0.00     0.251 C 
ATOM     36  H   UNL A   1      34.604  31.415  30.014  1.00  0.00     0.163 HD
ATOM     37  O   UNL A   1      36.074  30.576  31.715  1.00  0.00    -0.269 OA
BRANCH  35  38
ATOM     38  C   UNL A   1      37.794  30.438  30.123  1.00  0.00     0.039 A 
ATOM     39  C   UNL A   1      38.751  30.177  31.108  1.00  0.00     0.014 A 
ATOM     40  C   UNL A   1      38.166  30.446  28.776  1.00  0.00     0.014 A 
ATOM     41  C   UNL A   1      40.061  29.857  30.738  1.00  0.00     0.010 A 
ATOM     42  C   UNL A   1      39.450  30.049  28.406  1.00  0.00     0.010 A 
ATOM     43  C   UNL A   1      40.412  29.749  29.383  1.00  0.00    -0.014 A 
BRANCH  43  44
ATOM     44  C   UNL A   1      41.771  29.305  28.972  1.00  0.00     0.031 A 
ATOM     45  C   UNL A   1      42.913  30.286  28.920  1.00  0.00     0.074 A 
ATOM     46  C   UNL A   1      41.966  28.028  28.589  1.00  0.00     0.049 A 
ATOM     47  N   UNL A   1      44.150  30.091  28.541  1.00  0.00    -0.248 NA
ATOM     48  C   UNL A   1      42.622  31.671  29.326  1.00  0.00     0.031 C 
ATOM     49  C   UNL A   1      40.935  26.985  28.559  1.00  0.00     0.029 A 
ATOM     50  N   UNL A   1      43.096  27.385  28.145  1.00  0.00    -0.354 N 
ATOM     51  C   UNL A   1      44.780  31.325  28.649  1.00  0.00     0.074 A 
ATOM     52  C   UNL A   1      43.777  32.274  29.079  1.00  0.00     0.031 C 
ATOM     53  C   UNL A   1      41.487  25.832  28.151  1.00  0.00     0.029 A 
ATOM     54  C   UNL A   1      42.895  26.058  27.842  1.00  0.00     0.049 A 
ATOM     55  H   UNL A   1      43.968  27.832  28.054  1.00  0.00     0.167 HD
ATOM     56  C   UNL A   1      46.080  31.639  28.427  1.00  0.00     0.031 A 
ATOM     57  C   UNL A   1      43.742  25.128  27.360  1.00  0.00     0.031 A 
ATOM     58  C   UNL A   1      47.077  30.691  27.999  1.00  0.00     0.049 A 
ATOM     59  C   UNL A   1      45.173  25.508  27.094  1.00  0.00     0.074 A 
ATOM     60  C   UNL A   1      48.430  30.901  27.798  1.00  0.00     0.029 A 
ATOM     61  N   UNL A   1      46.831  29.360  27.700  1.00  0.00    -0.354 N 
ATOM     62  N   UNL A   1      45.765  26.665  27.267  1.00  0.00    -0.248 NA
ATOM     63  C   UNL A   1      46.054  24.451  26.577  1.00  0.00     0.031 C 
ATOM     64  C   UNL A   1      48.989  29.715  27.314  1.00  0.00     0.029 A 
ATOM     65  C   UNL A   1      48.001  28.744  27.284  1.00  0.00     0.049 A 
ATOM     66  H   UNL A   1      45.955  28.917  27.772  1.00  0.00     0.167 HD
ATOM     67  C   UNL A   1      47.095  26.468  26.910  1.00  0.00     0.074 A 
ATOM     68  C   UNL A   1      47.222  25.076  26.528  1.00  0.00     0.031 C 
ATOM     69  C   UNL A   1      48.118  27.358  26.903  1.00  0.00     0.031 A 
BRANCH  56  70
ATOM     70  C   UNL A   1      46.499  33.073  28.631  1.00  0.00    -0.014 A 
ATOM     71  C   UNL A   1      46.342  34.031  27.614  1.00  0.00     0.010 A 
ATOM     72  C   UNL A   1      47.011  33.480  29.877  1.00  0.00     0.010 A 
ATOM     73  C   UNL A   1      46.730  35.358  27.822  1.00  0.00     0.020 A 
ATOM     74  C   UNL A   1      47.369  34.812  30.101  1.00  0.00     0.020 A 
ATOM     75  C   UNL A   1      47.241  35.740  29.066  1.00  0.00     0.054 A 
BRANCH  75  76
ATOM     76  S   UNL A   1      47.712  37.473  29.314  1.00  0.00     0.124 S 
ATOM     77  O   UNL A   1      49.145  37.440  29.033  1.00  0.00    -0.237 OA
ATOM     78  O   UNL A   1      46.894  38.171  28.325  1.00  0.00    -0.237 OA
ATOM     79  O   UNL A   1      47.358  37.735  30.707  1.00  0.00    -0.744 OA
ENDBRANCH  75  76
ENDBRANCH  56  70
BRANCH  57  80
ATOM     80  C   UNL A   1      43.259  23.743  27.102  1.00  0.00    -0.014 A 
ATOM     81  C   UNL A   1      42.946  23.323  25.796  1.00  0.00     0.010 A 
ATOM     82  C   UNL A   1      43.116  22.830  28.164  1.00  0.00     0.010 A 
ATOM     83  C   UNL A   1      42.482  22.026  25.560  1.00  0.00     0.020 A 
ATOM     84  C   UNL A   1      42.683  21.522  27.928  1.00  0.00     0.020 A 
ATOM     85  C   UNL A   1      42.356  21.132  26.628  1.00  0.00     0.054 A 
BRANCH  85  86
ATOM     86  S   UNL A   1      41.800  19.439  26.290  1.00  0.00     0.124 S 
ATOM     87  O   UNL A   1      42.539  19.113  25.074  1.00  0.00    -0.237 OA
ATOM     88  O   UNL A   1      42.214  18.725  27.495  1.00  0.00    -0.237 OA
ATOM     89  O   UNL A   1      40.355  19.581  26.125  1.00  0.00    -0.744 OA
ENDBRANCH  85  86
ENDBRANCH  57  80
BRANCH  69  90
ATOM     90  C   UNL A   1      49.479  26.852  26.505  1.00  0.00    -0.014 A 
ATOM     91  C   UNL A   1      50.341  26.247  27.437  1.00  0.00     0.010 A 
ATOM     92  C   UNL A   1      49.880  26.935  25.158  1.00  0.00     0.010 A 
ATOM     93  C   UNL A   1      51.591  25.767  27.037  1.00  0.00     0.020 A 
ATOM     94  C   UNL A   1      51.115  26.425  24.747  1.00  0.00     0.020 A 
ATOM     95  C   UNL A   1      51.970  25.857  25.694  1.00  0.00     0.054 A 
BRANCH  95  96
ATOM     96  S   UNL A   1      53.578  25.186  25.194  1.00  0.00     0.124 S 
ATOM     97  O   UNL A   1      53.353  23.747  25.294  1.00  0.00    -0.237 OA
ATOM     98  O   UNL A   1      53.732  25.705  23.837  1.00  0.00    -0.237 OA
ATOM     99  O   UNL A   1      54.507  25.741  26.176  1.00  0.00    -0.744 OA
ENDBRANCH  95  96
ENDBRANCH  69  90
ENDBRANCH  43  44
ENDBRANCH  35  38
ENDBRANCH  33  34
ENDBRANCH  32  33
ENDBRANCH   1  32
TORSDOF 18
ENDMDL
MODEL 3
REMARK VINA RESULT:     -12.1      6.290     12.014
REMARK SMILES [NH3+][C@H]1CN(C(=O)OCC2c3ccccc3-c3ccccc32)C[C@@H]1C(=O)NCCCNC(=O)c1ccc(-c2c3nc(c(-c4ccc(S(=O)(=O)[O-])cc4)c4ccc([nH]4)c(-c4ccc(S(=O)(=O)[O-])cc4)c4nc(c(-c5ccc(S(=O)(=O)[O-])cc5)c5ccc2[nH]5)C=C4)C=C3)cc1
REMARK SMILES IDX 27 1 26 2 24 3 25 4 23 6 2 7 3 8 4 9 22 10 1 11 5 15 6 16
REMARK SMILES IDX 7 17 8 18 9 19 10 20 21 21 11 22 15 23 16 24 20 25 12 26
REMARK SMILES IDX 14 27 17 28 19 29 13 30 18 31 28 32 29 33 30 34 31 35 32 37
REMARK SMILES IDX 33 38 34 39 92 40 35 41 91 42 36 43 37 44 38 45 85 46 39 47
REMARK SMILES IDX 90 48 84 49 86 50 40 51 89 52 83 53 82 54 41 56 71 57 52 58
REMARK SMILES IDX 70 59 53 60 56 61 69 62 87 63 54 64 55 65 68 67 88 68 57 69
REMARK SMILES IDX 42 70 43 71 51 72 44 73 50 74 45 75 46 76 47 77 48 78 49 79
REMARK SMILES IDX 72 80 73 81 81 82 74 83 80 84 75 85 76 86 77 87 78 88 79 89
REMARK SMILES IDX 58 90 59 91 67 92 60 93 66 94 61 95 62 96 63 97 64 98 65 99
REMARK H PARENT 26 5 1 12 1 13 1 14 30 36 86 55 56 66
REMARK Flexibility Score: inf
ROOT
ATOM      1  C   UNL A   1      33.386  30.100  26.676  1.00  0.00     0.117 C 
ENDROOT
BRANCH   1   2
ATOM      2  N   UNL A   1      33.774  28.729  26.380  1.00  0.00    -0.356 N 
ATOM      3  C   UNL A   1      33.643  28.026  25.216  1.00  0.00     0.231 C 
ATOM      4  O   UNL A   1      33.953  26.835  25.214  1.00  0.00    -0.274 OA
ATOM      5  H   UNL A   1      34.189  28.238  27.124  1.00  0.00     0.163 HD
BRANCH   3   6
ATOM      6  C   UNL A   1      33.133  28.745  23.979  1.00  0.00     0.158 C 
ATOM      7  C   UNL A   1      31.619  28.555  23.779  1.00  0.00     0.215 C 
ATOM      8  C   UNL A   1      31.529  27.196  23.048  1.00  0.00     0.188 C 
ATOM      9  N   UNL A   1      32.816  27.024  22.397  1.00  0.00    -0.301 N 
ATOM     10  C   UNL A   1      33.733  28.094  22.737  1.00  0.00     0.143 C 
BRANCH   7  11
ATOM     11  N   UNL A   1      31.077  29.650  22.949  1.00  0.00    -0.353 N 
ATOM     12  H   UNL A   1      31.833  30.281  22.683  1.00  0.00     0.344 HD
ATOM     13  H   UNL A   1      30.375  30.165  23.480  1.00  0.00     0.344 HD
ATOM     14  H   UNL A   1      30.649  29.261  22.108  1.00  0.00     0.344 HD
ENDBRANCH   7  11
BRANCH   9  15
ATOM     15  C   UNL A   1      33.203  25.939  21.664  1.00  0.00     0.410 C 
ATOM     16  O   UNL A   1      33.034  25.845  20.452  1.00  0.00    -0.224 OA
BRANCH  15  17
ATOM     17  O   UNL A   1      33.798  24.978  22.425  1.00  0.00    -0.448 OA
BRANCH  17  18
ATOM     18  C   UNL A   1      33.329  23.634  22.176  1.00  0.00     0.248 C 
BRANCH  18  19
ATOM     19  C   UNL A   1      33.584  22.709  23.377  1.00  0.00     0.088 C 
ATOM     20  C   UNL A   1      34.945  22.922  24.031  1.00  0.00    -0.029 A 
ATOM     21  C   UNL A   1      32.641  22.958  24.553  1.00  0.00    -0.029 A 
ATOM     22  C   UNL A   1      36.200  22.837  23.446  1.00  0.00     0.005 A 
ATOM     23  C   UNL A   1      34.794  23.183  25.409  1.00  0.00    -0.014 A 
ATOM     24  C   UNL A   1      33.383  23.203  25.730  1.00  0.00    -0.014 A 
ATOM     25  C   UNL A   1      31.255  22.928  24.568  1.00  0.00     0.005 A 
ATOM     26  C   UNL A   1      37.320  23.031  24.255  1.00  0.00     0.000 A 
ATOM     27  C   UNL A   1      35.908  23.367  26.213  1.00  0.00     0.009 A 
ATOM     28  C   UNL A   1      32.738  23.412  26.937  1.00  0.00     0.009 A 
ATOM     29  C   UNL A   1      30.607  23.147  25.785  1.00  0.00     0.000 A 
ATOM     30  C   UNL A   1      37.176  23.292  25.627  1.00  0.00     0.001 A 
ATOM     31  C   UNL A   1      31.341  23.382  26.960  1.00  0.00     0.001 A 
ENDBRANCH  18  19
ENDBRANCH  17  18
ENDBRANCH  15  17
ENDBRANCH   9  15
ENDBRANCH   3   6
ENDBRANCH   1   2
BRANCH   1  32
ATOM     32  C   UNL A   1      34.498  30.863  27.387  1.00  0.00     0.042 C 
BRANCH  32  33
ATOM     33  C   UNL A   1      35.544  29.970  28.051  1.00  0.00     0.118 C 
BRANCH  33  34
ATOM     34  N   UNL A   1      35.512  30.048  29.505  1.00  0.00    -0.352 N 
ATOM     35  C   UNL A   1      36.505  29.821  30.427  1.00  0.00     0.251 C 
ATOM     36  H   UNL A   1      34.642  30.302  29.888  1.00  0.00     0.163 HD
ATOM     37  O   UNL A   1      36.218  29.777  31.620  1.00  0.00    -0.269 OA
BRANCH  35  38
ATOM     38  C   UNL A   1      37.905  29.607  29.995  1.00  0.00     0.039 A 
ATOM     39  C   UNL A   1      38.859  29.266  30.959  1.00  0.00     0.014 A 
ATOM     40  C   UNL A   1      38.287  29.759  28.660  1.00  0.00     0.014 A 
ATOM     41  C   UNL A   1      40.178  29.011  30.571  1.00  0.00     0.010 A 
ATOM     42  C   UNL A   1      39.582  29.427  28.265  1.00  0.00     0.010 A 
ATOM     43  C   UNL A   1      40.541  29.048  29.215  1.00  0.00    -0.014 A 
BRANCH  43  44
ATOM     44  C   UNL A   1      41.912  28.674  28.776  1.00  0.00     0.031 A 
ATOM     45  C   UNL A   1      42.999  29.714  28.693  1.00  0.00     0.074 A 
ATOM     46  C   UNL A   1      42.166  27.407  28.394  1.00  0.00     0.049 A 
ATOM     47  N   UNL A   1      44.236  29.582  28.286  1.00  0.00    -0.248 NA
ATOM     48  C   UNL A   1      42.645  31.084  29.099  1.00  0.00     0.031 C 
ATOM     49  C   UNL A   1      41.192  26.311  28.392  1.00  0.00     0.029 A 
ATOM     50  N   UNL A   1      43.319  26.822  27.927  1.00  0.00    -0.354 N 
ATOM     51  C   UNL A   1      44.802  30.848  28.374  1.00  0.00     0.074 A 
ATOM     52  C   UNL A   1      43.760  31.746  28.822  1.00  0.00     0.031 C 
ATOM     53  C   UNL A   1      41.795  25.186  27.977  1.00  0.00     0.029 A 
ATOM     54  C   UNL A   1      43.181  25.484  27.635  1.00  0.00     0.049 A 
ATOM     55  H   UNL A   1      44.163  27.315  27.813  1.00  0.00     0.167 HD
ATOM     56  C   UNL A   1      46.078  31.230  28.121  1.00  0.00     0.031 A 
ATOM     57  C   UNL A   1      44.065  24.598  27.137  1.00  0.00     0.031 A 
ATOM     58  C   UNL A   1      47.114  30.334  27.674  1.00  0.00     0.049 A 
ATOM     59  C   UNL A   1      45.468  25.052  26.836  1.00  0.00     0.074 A 
ATOM     60  C   UNL A   1      48.449  30.613  27.441  1.00  0.00     0.029 A 
ATOM     61  N   UNL A   1      46.932  28.989  27.386  1.00  0.00    -0.354 N 
ATOM     62  N   UNL A   1      46.001  26.240  26.991  1.00  0.00    -0.248 NA
ATOM     63  C   UNL A   1      46.392  24.040  26.304  1.00  0.00     0.031 C 
ATOM     64  C   UNL A   1      49.059  29.456  26.949  1.00  0.00     0.029 A 
ATOM     65  C   UNL A   1      48.123  28.434  26.947  1.00  0.00     0.049 A 
ATOM     66  H   UNL A   1      46.082  28.501  27.481  1.00  0.00     0.167 HD
ATOM     67  C   UNL A   1      47.332  26.111  26.604  1.00  0.00     0.074 A 
ATOM     68  C   UNL A   1      47.523  24.726  26.225  1.00  0.00     0.031 C 
ATOM     69  C   UNL A   1      48.305  27.055  26.569  1.00  0.00     0.031 A 
BRANCH  56  70
ATOM     70  C   UNL A   1      46.425  32.685  28.309  1.00  0.00    -0.014 A 
ATOM     71  C   UNL A   1      46.910  33.167  29.538  1.00  0.00     0.010 A 
ATOM     72  C   UNL A   1      46.312  33.575  27.225  1.00  0.00     0.010 A 
ATOM     73  C   UNL A   1      47.234  34.518  29.693  1.00  0.00     0.020 A 
ATOM     74  C   UNL A   1      46.666  34.920  27.365  1.00  0.00     0.020 A 
ATOM     75  C   UNL A   1      47.109  35.386  28.604  1.00  0.00     0.054 A 
BRANCH  75  76
ATOM     76  S   UNL A   1      47.560  37.128  28.829  1.00  0.00     0.124 S 
ATOM     77  O   UNL A   1      47.968  37.512  27.481  1.00  0.00    -0.237 OA
ATOM     78  O   UNL A   1      46.311  37.723  29.300  1.00  0.00    -0.237 OA
ATOM     79  O   UNL A   1      48.636  37.085  29.816  1.00  0.00    -0.744 OA
ENDBRANCH  75  76
ENDBRANCH  56  70
BRANCH  57  80
ATOM     80  C   UNL A   1      43.650  23.188  26.896  1.00  0.00    -0.014 A 
ATOM     81  C   UNL A   1      43.102  22.414  27.935  1.00  0.00     0.010 A 
ATOM     82  C   UNL A   1      43.793  22.613  25.620  1.00  0.00     0.010 A 
ATOM     83  C   UNL A   1      42.724  21.088  27.707  1.00  0.00     0.020 A 
ATOM     84  C   UNL A   1      43.386  21.297  25.380  1.00  0.00     0.020 A 
ATOM     85  C   UNL A   1      42.866  20.538  26.429  1.00  0.00     0.054 A 
BRANCH  85  86
ATOM     86  S   UNL A   1      42.322  18.831  26.147  1.00  0.00     0.124 S 
ATOM     87  O   UNL A   1      42.534  18.223  27.457  1.00  0.00    -0.237 OA
ATOM     88  O   UNL A   1      40.928  19.007  25.748  1.00  0.00    -0.237 OA
ATOM     89  O   UNL A   1      43.210  18.360  25.086  1.00  0.00    -0.744 OA
ENDBRANCH  85  86
ENDBRANCH  57  80
BRANCH  69  90
ATOM     90  C   UNL A   1      49.682  26.618  26.141  1.00  0.00    -0.014 A 
ATOM     91  C   UNL A   1      50.149  26.835  24.833  1.00  0.00     0.010 A 
ATOM     92  C   UNL A   1      50.543  26.028  27.085  1.00  0.00     0.010 A 
ATOM     93  C   UNL A   1      51.438  26.439  24.467  1.00  0.00     0.020 A 
ATOM     94  C   UNL A   1      51.845  25.662  26.733  1.00  0.00     0.020 A 
ATOM     95  C   UNL A   1      52.280  25.857  25.420  1.00  0.00     0.054 A 
BRANCH  95  96
ATOM     96  S   UNL A   1      53.963  25.392  24.931  1.00  0.00     0.124 S 
ATOM     97  O   UNL A   1      54.758  25.918  26.038  1.00  0.00    -0.237 OA
ATOM     98  O   UNL A   1      53.882  23.936  24.852  1.00  0.00    -0.237 OA
ATOM     99  O   UNL A   1      54.153  26.070  23.651  1.00  0.00    -0.744 OA
ENDBRANCH  95  96
ENDBRANCH  69  90
ENDBRANCH  43  44
ENDBRANCH  35  38
ENDBRANCH  33  34
ENDBRANCH  32  33
ENDBRANCH   1  32
TORSDOF 18
ENDMDL
