MODEL 1
REMARK VINA RESULT:      -9.8      0.000      0.000
REMARK SMILES CCN1CC(=O)N(C[C@@H]([NH3+])C(=O)NCCCNC(=O)c2ccc(-c3c4nc(c(-c5ccc(S(=O)(=O)[O-])cc5)c5ccc([nH]5)c(-c5ccc(S(=O)(=O)[O-])cc5)c5nc(c(-c6ccc(S(=O)(=O)[O-])cc6)c6ccc3[nH]6)C=C5)C=C4)cc2)CC1=O
REMARK SMILES IDX 15 1 14 2 13 3 11 4 12 5 9 7 8 8 7 9 3 10 4 11 81 12 5 13
REMARK SMILES IDX 80 14 82 15 6 16 2 17 1 18 10 19 16 23 17 24 18 25 19 27
REMARK SMILES IDX 20 28 21 29 79 30 22 31 78 32 23 33 24 34 25 35 72 36 26 37
REMARK SMILES IDX 77 38 71 39 73 40 27 41 76 42 70 43 69 44 28 46 58 47 39 48
REMARK SMILES IDX 57 49 40 50 43 51 56 52 74 53 41 54 42 55 55 57 75 58 44 59
REMARK SMILES IDX 29 60 30 61 38 62 31 63 37 64 32 65 33 66 34 67 35 68 36 69
REMARK SMILES IDX 59 70 60 71 68 72 61 73 67 74 62 75 63 76 64 77 65 78 66 79
REMARK SMILES IDX 45 80 46 81 54 82 47 83 53 84 48 85 49 86 50 87 51 88 52 89
REMARK H PARENT 13 6 10 20 10 21 10 22 17 26 73 45 43 56
REMARK Flexibility Score: inf
ROOT
ATOM      1  C   UNL A   1      34.010  28.088  25.720  1.00  0.00     0.042 C 
ENDROOT
BRANCH   1   2
ATOM      2  C   UNL A   1      33.440  26.802  25.123  1.00  0.00     0.118 C 
BRANCH   2   3
ATOM      3  N   UNL A   1      32.299  26.307  25.878  1.00  0.00    -0.351 N 
ATOM      4  C   UNL A   1      31.454  25.267  25.625  1.00  0.00     0.280 C 
ATOM      5  O   UNL A   1      30.593  25.011  26.474  1.00  0.00    -0.268 OA
ATOM      6  H   UNL A   1      32.106  26.805  26.706  1.00  0.00     0.163 HD
BRANCH   4   7
ATOM      7  C   UNL A   1      31.590  24.393  24.361  1.00  0.00     0.290 C 
BRANCH   7   8
ATOM      8  C   UNL A   1      32.415  23.125  24.662  1.00  0.00     0.195 C 
BRANCH   8   9
ATOM      9  N   UNL A   1      33.849  23.323  24.873  1.00  0.00    -0.325 N 
ATOM     10  N   UNL A   1      36.521  22.656  24.953  1.00  0.00    -0.332 N 
ATOM     11  C   UNL A   1      35.939  23.268  26.153  1.00  0.00     0.219 C 
ATOM     12  C   UNL A   1      36.023  23.020  23.704  1.00  0.00     0.242 C 
ATOM     13  C   UNL A   1      34.407  23.221  26.139  1.00  0.00     0.242 C 
ATOM     14  C   UNL A   1      34.686  23.757  23.753  1.00  0.00     0.220 C 
ATOM     15  O   UNL A   1      36.652  22.901  22.655  1.00  0.00    -0.273 OA
ATOM     16  O   UNL A   1      33.740  23.212  27.170  1.00  0.00    -0.273 OA
BRANCH  10  17
ATOM     17  C   UNL A   1      37.802  21.964  25.048  1.00  0.00     0.116 C 
ATOM     18  C   UNL A   1      38.725  22.572  26.093  1.00  0.00     0.027 C 
ENDBRANCH  10  17
ENDBRANCH   8   9
ENDBRANCH   7   8
BRANCH   7  19
ATOM     19  N   UNL A   1      30.244  24.168  23.773  1.00  0.00    -0.346 N 
ATOM     20  H   UNL A   1      29.645  24.969  23.977  1.00  0.00     0.345 HD
ATOM     21  H   UNL A   1      29.833  23.325  24.175  1.00  0.00     0.345 HD
ATOM     22  H   UNL A   1      30.328  24.055  22.763  1.00  0.00     0.345 HD
ENDBRANCH   7  19
ENDBRANCH   4   7
ENDBRANCH   2   3
ENDBRANCH   1   2
BRANCH   1  23
ATOM     23  C   UNL A   1      33.664  28.311  27.189  1.00  0.00     0.118 C 
BRANCH  23  24
ATOM     24  N   UNL A   1      33.542  29.720  27.528  1.00  0.00    -0.352 N 
ATOM     25  C   UNL A   1      34.422  30.561  28.156  1.00  0.00     0.251 C 
ATOM     26  H   UNL A   1      32.689  30.136  27.264  1.00  0.00     0.163 HD
ATOM     27  O   UNL A   1      34.030  31.679  28.500  1.00  0.00    -0.269 OA
BRANCH  25  28
ATOM     28  C   UNL A   1      35.817  30.153  28.439  1.00  0.00     0.039 A 
ATOM     29  C   UNL A   1      36.758  30.236  27.407  1.00  0.00     0.014 A 
ATOM     30  C   UNL A   1      36.199  29.641  29.682  1.00  0.00     0.014 A 
ATOM     31  C   UNL A   1      38.081  29.853  27.635  1.00  0.00     0.010 A 
ATOM     32  C   UNL A   1      37.536  29.324  29.929  1.00  0.00     0.010 A 
ATOM     33  C   UNL A   1      38.490  29.418  28.906  1.00  0.00    -0.014 A 
BRANCH  33  34
ATOM     34  C   UNL A   1      39.910  29.065  29.168  1.00  0.00     0.031 A 
ATOM     35  C   UNL A   1      40.847  30.065  29.793  1.00  0.00     0.074 A 
ATOM     36  C   UNL A   1      40.366  27.848  28.811  1.00  0.00     0.049 A 
ATOM     37  N   UNL A   1      42.114  29.930  30.094  1.00  0.00    -0.248 NA
ATOM     38  C   UNL A   1      40.297  31.394  30.102  1.00  0.00     0.031 C 
ATOM     39  C   UNL A   1      39.573  26.805  28.156  1.00  0.00     0.029 A 
ATOM     40  N   UNL A   1      41.608  27.280  28.950  1.00  0.00    -0.354 N 
ATOM     41  C   UNL A   1      42.514  31.155  30.615  1.00  0.00     0.074 A 
ATOM     42  C   UNL A   1      41.369  32.035  30.546  1.00  0.00     0.031 C 
ATOM     43  C   UNL A   1      40.338  25.715  27.980  1.00  0.00     0.029 A 
ATOM     44  C   UNL A   1      41.681  25.991  28.478  1.00  0.00     0.049 A 
ATOM     45  H   UNL A   1      42.374  27.752  29.350  1.00  0.00     0.167 HD
ATOM     46  C   UNL A   1      43.719  31.509  31.122  1.00  0.00     0.031 A 
ATOM     47  C   UNL A   1      42.712  25.124  28.450  1.00  0.00     0.031 A 
ATOM     48  C   UNL A   1      44.857  30.631  31.201  1.00  0.00     0.049 A 
ATOM     49  C   UNL A   1      44.037  25.539  29.028  1.00  0.00     0.074 A 
ATOM     50  C   UNL A   1      46.103  30.882  31.748  1.00  0.00     0.029 A 
ATOM     51  N   UNL A   1      44.886  29.330  30.721  1.00  0.00    -0.354 N 
ATOM     52  N   UNL A   1      44.375  26.682  29.575  1.00  0.00    -0.248 NA
ATOM     53  C   UNL A   1      45.114  24.540  28.998  1.00  0.00     0.031 C 
ATOM     54  C   UNL A   1      46.901  29.748  31.559  1.00  0.00     0.029 A 
ATOM     55  C   UNL A   1      46.135  28.772  30.941  1.00  0.00     0.049 A 
ATOM     56  H   UNL A   1      44.131  28.870  30.287  1.00  0.00     0.167 HD
ATOM     57  C   UNL A   1      45.698  26.532  29.975  1.00  0.00     0.074 A 
ATOM     58  C   UNL A   1      46.091  25.182  29.624  1.00  0.00     0.031 C 
ATOM     59  C   UNL A   1      46.514  27.430  30.580  1.00  0.00     0.031 A 
BRANCH  46  60
ATOM     60  C   UNL A   1      43.870  32.919  31.633  1.00  0.00    -0.014 A 
ATOM     61  C   UNL A   1      44.288  33.958  30.782  1.00  0.00     0.010 A 
ATOM     62  C   UNL A   1      43.552  33.217  32.970  1.00  0.00     0.010 A 
ATOM     63  C   UNL A   1      44.423  35.261  31.268  1.00  0.00     0.020 A 
ATOM     64  C   UNL A   1      43.661  34.526  33.454  1.00  0.00     0.020 A 
ATOM     65  C   UNL A   1      44.113  35.536  32.603  1.00  0.00     0.054 A 
BRANCH  65  66
ATOM     66  S   UNL A   1      44.278  37.241  33.203  1.00  0.00     0.124 S 
ATOM     67  O   UNL A   1      44.541  37.970  31.965  1.00  0.00    -0.237 OA
ATOM     68  O   UNL A   1      42.976  37.493  33.815  1.00  0.00    -0.237 OA
ATOM     69  O   UNL A   1      45.399  37.172  34.136  1.00  0.00    -0.744 OA
ENDBRANCH  65  66
ENDBRANCH  46  60
BRANCH  47  70
ATOM     70  C   UNL A   1      42.523  23.765  27.875  1.00  0.00    -0.014 A 
ATOM     71  C   UNL A   1      42.063  22.708  28.679  1.00  0.00     0.010 A 
ATOM     72  C   UNL A   1      42.790  23.525  26.515  1.00  0.00     0.010 A 
ATOM     73  C   UNL A   1      41.894  21.430  28.138  1.00  0.00     0.020 A 
ATOM     74  C   UNL A   1      42.597  22.255  25.965  1.00  0.00     0.020 A 
ATOM     75  C   UNL A   1      42.161  21.212  26.784  1.00  0.00     0.054 A 
BRANCH  75  76
ATOM     76  S   UNL A   1      41.885  19.558  26.090  1.00  0.00     0.124 S 
ATOM     77  O   UNL A   1      40.440  19.549  25.892  1.00  0.00    -0.237 OA
ATOM     78  O   UNL A   1      42.691  19.586  24.872  1.00  0.00    -0.237 OA
ATOM     79  O   UNL A   1      42.381  18.665  27.135  1.00  0.00    -0.744 OA
ENDBRANCH  75  76
ENDBRANCH  47  70
BRANCH  59  80
ATOM     80  C   UNL A   1      47.907  26.972  30.921  1.00  0.00    -0.014 A 
ATOM     81  C   UNL A   1      48.988  27.223  30.057  1.00  0.00     0.010 A 
ATOM     82  C   UNL A   1      48.139  26.307  32.139  1.00  0.00     0.010 A 
ATOM     83  C   UNL A   1      50.271  26.779  30.387  1.00  0.00     0.020 A 
ATOM     84  C   UNL A   1      49.426  25.885  32.483  1.00  0.00     0.020 A 
ATOM     85  C   UNL A   1      50.481  26.107  31.596  1.00  0.00     0.054 A 
BRANCH  85  86
ATOM     86  S   UNL A   1      52.160  25.561  32.014  1.00  0.00     0.124 S 
ATOM     87  O   UNL A   1      52.476  26.407  33.161  1.00  0.00    -0.237 OA
ATOM     88  O   UNL A   1      51.974  24.142  32.310  1.00  0.00    -0.237 OA
ATOM     89  O   UNL A   1      52.926  25.843  30.802  1.00  0.00    -0.744 OA
ENDBRANCH  85  86
ENDBRANCH  59  80
ENDBRANCH  33  34
ENDBRANCH  25  28
ENDBRANCH  23  24
ENDBRANCH   1  23
TORSDOF 17
ENDMDL
MODEL 2
REMARK VINA RESULT:      -9.7      3.456     10.410
REMARK SMILES CCN1CC(=O)N(C[C@@H]([NH3+])C(=O)NCCCNC(=O)c2ccc(-c3c4nc(c(-c5ccc(S(=O)(=O)[O-])cc5)c5ccc([nH]5)c(-c5ccc(S(=O)(=O)[O-])cc5)c5nc(c(-c6ccc(S(=O)(=O)[O-])cc6)c6ccc3[nH]6)C=C5)C=C4)cc2)CC1=O
REMARK SMILES IDX 15 1 14 2 13 3 11 4 12 5 9 7 8 8 7 9 3 10 4 11 81 12 5 13
REMARK SMILES IDX 80 14 82 15 6 16 2 17 1 18 10 19 16 23 17 24 18 25 19 27
REMARK SMILES IDX 20 28 21 29 79 30 22 31 78 32 23 33 24 34 25 35 72 36 26 37
REMARK SMILES IDX 77 38 71 39 73 40 27 41 76 42 70 43 69 44 28 46 58 47 39 48
REMARK SMILES IDX 57 49 40 50 43 51 56 52 74 53 41 54 42 55 55 57 75 58 44 59
REMARK SMILES IDX 29 60 30 61 38 62 31 63 37 64 32 65 33 66 34 67 35 68 36 69
REMARK SMILES IDX 59 70 60 71 68 72 61 73 67 74 62 75 63 76 64 77 65 78 66 79
REMARK SMILES IDX 45 80 46 81 54 82 47 83 53 84 48 85 49 86 50 87 51 88 52 89
REMARK H PARENT 13 6 10 20 10 21 10 22 17 26 73 45 43 56
REMARK Flexibility Score: inf
ROOT
ATOM      1  C   UNL A   1      41.264  20.585  26.177  1.00  0.00     0.042 C 
ENDROOT
BRANCH   1   2
ATOM      2  C   UNL A   1      42.648  20.437  26.811  1.00  0.00     0.118 C 
BRANCH   2   3
ATOM      3  N   UNL A   1      43.360  19.274  26.303  1.00  0.00    -0.351 N 
ATOM      4  C   UNL A   1      44.263  19.163  25.287  1.00  0.00     0.280 C 
ATOM      5  O   UNL A   1      44.780  18.057  25.100  1.00  0.00    -0.268 OA
ATOM      6  H   UNL A   1      43.157  18.431  26.769  1.00  0.00     0.163 HD
BRANCH   4   7
ATOM      7  C   UNL A   1      44.681  20.377  24.431  1.00  0.00     0.290 C 
BRANCH   7   8
ATOM      8  C   UNL A   1      45.867  21.119  25.081  1.00  0.00     0.195 C 
BRANCH   8   9
ATOM      9  N   UNL A   1      45.643  22.527  25.409  1.00  0.00    -0.325 N 
ATOM     10  N   UNL A   1      44.294  24.927  25.517  1.00  0.00    -0.332 N 
ATOM     11  C   UNL A   1      45.660  24.941  24.984  1.00  0.00     0.219 C 
ATOM     12  C   UNL A   1      43.968  24.002  26.506  1.00  0.00     0.242 C 
ATOM     13  C   UNL A   1      46.146  23.538  24.603  1.00  0.00     0.242 C 
ATOM     14  C   UNL A   1      44.986  22.875  26.670  1.00  0.00     0.220 C 
ATOM     15  O   UNL A   1      43.029  24.137  27.288  1.00  0.00    -0.273 OA
ATOM     16  O   UNL A   1      46.995  23.349  23.737  1.00  0.00    -0.273 OA
BRANCH  10  17
ATOM     17  C   UNL A   1      43.414  26.066  25.273  1.00  0.00     0.116 C 
ATOM     18  C   UNL A   1      44.022  27.386  25.719  1.00  0.00     0.027 C 
ENDBRANCH  10  17
ENDBRANCH   8   9
ENDBRANCH   7   8
BRANCH   7  19
ATOM     19  N   UNL A   1      44.882  19.939  23.024  1.00  0.00    -0.346 N 
ATOM     20  H   UNL A   1      44.761  20.735  22.399  1.00  0.00     0.345 HD
ATOM     21  H   UNL A   1      44.199  19.217  22.792  1.00  0.00     0.345 HD
ATOM     22  H   UNL A   1      45.824  19.562  22.916  1.00  0.00     0.345 HD
ENDBRANCH   7  19
ENDBRANCH   4   7
ENDBRANCH   2   3
ENDBRANCH   1   2
BRANCH   1  23
ATOM     23  C   UNL A   1      40.304  21.476  26.958  1.00  0.00     0.118 C 
BRANCH  23  24
ATOM     24  N   UNL A   1      39.170  21.912  26.160  1.00  0.00    -0.352 N 
ATOM     25  C   UNL A   1      38.514  23.115  26.130  1.00  0.00     0.251 C 
ATOM     26  H   UNL A   1      38.815  21.233  25.541  1.00  0.00     0.163 HD
ATOM     27  O   UNL A   1      37.458  23.198  25.499  1.00  0.00    -0.269 OA
BRANCH  25  28
ATOM     28  C   UNL A   1      39.036  24.300  26.847  1.00  0.00     0.039 A 
ATOM     29  C   UNL A   1      39.829  25.210  26.140  1.00  0.00     0.014 A 
ATOM     30  C   UNL A   1      38.804  24.500  28.211  1.00  0.00     0.014 A 
ATOM     31  C   UNL A   1      40.345  26.336  26.784  1.00  0.00     0.010 A 
ATOM     32  C   UNL A   1      39.262  25.661  28.837  1.00  0.00     0.010 A 
ATOM     33  C   UNL A   1      40.045  26.587  28.133  1.00  0.00    -0.014 A 
BRANCH  33  34
ATOM     34  C   UNL A   1      40.544  27.814  28.807  1.00  0.00     0.031 A 
ATOM     35  C   UNL A   1      41.952  27.879  29.340  1.00  0.00     0.074 A 
ATOM     36  C   UNL A   1      39.715  28.864  28.970  1.00  0.00     0.049 A 
ATOM     37  N   UNL A   1      42.555  28.865  29.954  1.00  0.00    -0.248 NA
ATOM     38  C   UNL A   1      42.783  26.675  29.181  1.00  0.00     0.031 C 
ATOM     39  C   UNL A   1      38.315  28.912  28.542  1.00  0.00     0.029 A 
ATOM     40  N   UNL A   1      39.928  30.095  29.539  1.00  0.00    -0.354 N 
ATOM     41  C   UNL A   1      43.827  28.399  30.264  1.00  0.00     0.074 A 
ATOM     42  C   UNL A   1      43.894  27.026  29.813  1.00  0.00     0.031 C 
ATOM     43  C   UNL A   1      37.807  30.120  28.832  1.00  0.00     0.029 A 
ATOM     44  C   UNL A   1      38.830  30.920  29.497  1.00  0.00     0.049 A 
ATOM     45  H   UNL A   1      40.787  30.361  29.939  1.00  0.00     0.167 HD
ATOM     46  C   UNL A   1      44.854  29.058  30.854  1.00  0.00     0.031 A 
ATOM     47  C   UNL A   1      38.662  32.182  29.939  1.00  0.00     0.031 A 
ATOM     48  C   UNL A   1      44.793  30.428  31.293  1.00  0.00     0.049 A 
ATOM     49  C   UNL A   1      39.821  32.895  30.581  1.00  0.00     0.074 A 
ATOM     50  C   UNL A   1      45.797  31.199  31.851  1.00  0.00     0.029 A 
ATOM     51  N   UNL A   1      43.665  31.231  31.223  1.00  0.00    -0.354 N 
ATOM     52  N   UNL A   1      41.036  32.456  30.806  1.00  0.00    -0.248 NA
ATOM     53  C   UNL A   1      39.586  34.279  31.015  1.00  0.00     0.031 C 
ATOM     54  C   UNL A   1      45.264  32.456  32.160  1.00  0.00     0.029 A 
ATOM     55  C   UNL A   1      43.943  32.484  31.745  1.00  0.00     0.049 A 
ATOM     56  H   UNL A   1      42.795  30.953  30.856  1.00  0.00     0.167 HD
ATOM     57  C   UNL A   1      41.719  33.519  31.387  1.00  0.00     0.074 A 
ATOM     58  C   UNL A   1      40.786  34.625  31.461  1.00  0.00     0.031 C 
ATOM     59  C   UNL A   1      43.003  33.573  31.820  1.00  0.00     0.031 A 
BRANCH  46  60
ATOM     60  C   UNL A   1      46.140  28.300  31.059  1.00  0.00    -0.014 A 
ATOM     61  C   UNL A   1      47.143  28.294  30.074  1.00  0.00     0.010 A 
ATOM     62  C   UNL A   1      46.367  27.619  32.269  1.00  0.00     0.010 A 
ATOM     63  C   UNL A   1      48.332  27.588  30.276  1.00  0.00     0.020 A 
ATOM     64  C   UNL A   1      47.567  26.933  32.487  1.00  0.00     0.020 A 
ATOM     65  C   UNL A   1      48.534  26.908  31.480  1.00  0.00     0.054 A 
BRANCH  65  66
ATOM     66  S   UNL A   1      50.096  26.016  31.726  1.00  0.00     0.124 S 
ATOM     67  O   UNL A   1      49.744  25.086  32.796  1.00  0.00    -0.237 OA
ATOM     68  O   UNL A   1      50.328  25.409  30.418  1.00  0.00    -0.237 OA
ATOM     69  O   UNL A   1      51.039  27.066  32.099  1.00  0.00    -0.744 OA
ENDBRANCH  65  66
ENDBRANCH  46  60
BRANCH  47  70
ATOM     70  C   UNL A   1      37.350  32.861  29.766  1.00  0.00    -0.014 A 
ATOM     71  C   UNL A   1      36.426  32.906  30.824  1.00  0.00     0.010 A 
ATOM     72  C   UNL A   1      37.024  33.477  28.545  1.00  0.00     0.010 A 
ATOM     73  C   UNL A   1      35.191  33.538  30.658  1.00  0.00     0.020 A 
ATOM     74  C   UNL A   1      35.800  34.132  28.383  1.00  0.00     0.020 A 
ATOM     75  C   UNL A   1      34.886  34.148  29.438  1.00  0.00     0.054 A 
BRANCH  75  76
ATOM     76  S   UNL A   1      33.297  35.007  29.258  1.00  0.00     0.124 S 
ATOM     77  O   UNL A   1      33.715  36.323  28.788  1.00  0.00    -0.237 OA
ATOM     78  O   UNL A   1      32.596  34.178  28.280  1.00  0.00    -0.237 OA
ATOM     79  O   UNL A   1      32.737  34.971  30.608  1.00  0.00    -0.744 OA
ENDBRANCH  75  76
ENDBRANCH  47  70
BRANCH  59  80
ATOM     80  C   UNL A   1      43.481  34.882  32.390  1.00  0.00    -0.014 A 
ATOM     81  C   UNL A   1      44.065  35.863  31.569  1.00  0.00     0.010 A 
ATOM     82  C   UNL A   1      43.315  35.143  33.762  1.00  0.00     0.010 A 
ATOM     83  C   UNL A   1      44.513  37.067  32.119  1.00  0.00     0.020 A 
ATOM     84  C   UNL A   1      43.738  36.356  34.310  1.00  0.00     0.020 A 
ATOM     85  C   UNL A   1      44.352  37.303  33.488  1.00  0.00     0.054 A 
BRANCH  85  86
ATOM     86  S   UNL A   1      44.920  38.883  34.176  1.00  0.00     0.124 S 
ATOM     87  O   UNL A   1      45.911  38.448  35.155  1.00  0.00    -0.237 OA
ATOM     88  O   UNL A   1      45.453  39.573  33.004  1.00  0.00    -0.237 OA
ATOM     89  O   UNL A   1      43.705  39.471  34.737  1.00  0.00    -0.744 OA
ENDBRANCH  85  86
ENDBRANCH  59  80
ENDBRANCH  33  34
ENDBRANCH  25  28
ENDBRANCH  23  24
ENDBRANCH   1  23
TORSDOF 17
ENDMDL
MODEL 3
REMARK VINA RESULT:      -9.6      5.486     11.537
REMARK SMILES CCN1CC(=O)N(C[C@@H]([NH3+])C(=O)NCCCNC(=O)c2ccc(-c3c4nc(c(-c5ccc(S(=O)(=O)[O-])cc5)c5ccc([nH]5)c(-c5ccc(S(=O)(=O)[O-])cc5)c5nc(c(-c6ccc(S(=O)(=O)[O-])cc6)c6ccc3[nH]6)C=C5)C=C4)cc2)CC1=O
REMARK SMILES IDX 15 1 14 2 13 3 11 4 12 5 9 7 8 8 7 9 3 10 4 11 81 12 5 13
REMARK SMILES IDX 80 14 82 15 6 16 2 17 1 18 10 19 16 23 17 24 18 25 19 27
REMARK SMILES IDX 20 28 21 29 79 30 22 31 78 32 23 33 24 34 25 35 72 36 26 37
REMARK SMILES IDX 77 38 71 39 73 40 27 41 76 42 70 43 69 44 28 46 58 47 39 48
REMARK SMILES IDX 57 49 40 50 43 51 56 52 74 53 41 54 42 55 55 57 75 58 44 59
REMARK SMILES IDX 29 60 30 61 38 62 31 63 37 64 32 65 33 66 34 67 35 68 36 69
REMARK SMILES IDX 59 70 60 71 68 72 61 73 67 74 62 75 63 76 64 77 65 78 66 79
REMARK SMILES IDX 45 80 46 81 54 82 47 83 53 84 48 85 49 86 50 87 51 88 52 89
REMARK H PARENT 13 6 10 20 10 21 10 22 17 26 73 45 43 56
REMARK Flexibility Score: inf
ROOT
ATOM      1  C   UNL A   1      41.661  21.845  27.527  1.00  0.00     0.042 C 
ENDROOT
BRANCH   1   2
ATOM      2  C   UNL A   1      42.082  21.443  26.113  1.00  0.00     0.118 C 
BRANCH   2   3
ATOM      3  N   UNL A   1      42.545  20.065  26.052  1.00  0.00    -0.351 N 
ATOM      4  C   UNL A   1      43.632  19.523  25.431  1.00  0.00     0.280 C 
ATOM      5  O   UNL A   1      43.840  18.316  25.593  1.00  0.00    -0.268 OA
ATOM      6  H   UNL A   1      41.982  19.419  26.538  1.00  0.00     0.163 HD
BRANCH   4   7
ATOM      7  C   UNL A   1      44.610  20.381  24.603  1.00  0.00     0.290 C 
BRANCH   7   8
ATOM      8  C   UNL A   1      45.775  20.881  25.482  1.00  0.00     0.195 C 
BRANCH   8   9
ATOM      9  N   UNL A   1      45.877  22.330  25.653  1.00  0.00    -0.325 N 
ATOM     10  N   UNL A   1      45.039  24.955  25.638  1.00  0.00    -0.332 N 
ATOM     11  C   UNL A   1      46.277  24.635  24.919  1.00  0.00     0.219 C 
ATOM     12  C   UNL A   1      44.713  24.220  26.775  1.00  0.00     0.242 C 
ATOM     13  C   UNL A   1      46.420  23.131  24.659  1.00  0.00     0.242 C 
ATOM     14  C   UNL A   1      45.515  22.929  26.938  1.00  0.00     0.220 C 
ATOM     15  O   UNL A   1      43.959  24.622  27.658  1.00  0.00    -0.273 OA
ATOM     16  O   UNL A   1      47.064  22.686  23.712  1.00  0.00    -0.273 OA
BRANCH  10  17
ATOM     17  C   UNL A   1      44.360  26.220  25.375  1.00  0.00     0.116 C 
ATOM     18  C   UNL A   1      45.181  27.428  25.798  1.00  0.00     0.027 C 
ENDBRANCH  10  17
ENDBRANCH   8   9
ENDBRANCH   7   8
BRANCH   7  19
ATOM     19  N   UNL A   1      44.996  19.637  23.375  1.00  0.00    -0.346 N 
ATOM     20  H   UNL A   1      45.431  18.752  23.636  1.00  0.00     0.345 HD
ATOM     21  H   UNL A   1      45.657  20.194  22.833  1.00  0.00     0.345 HD
ATOM     22  H   UNL A   1      44.165  19.454  22.812  1.00  0.00     0.345 HD
ENDBRANCH   7  19
ENDBRANCH   4   7
ENDBRANCH   2   3
ENDBRANCH   1   2
BRANCH   1  23
ATOM     23  C   UNL A   1      40.986  23.210  27.621  1.00  0.00     0.118 C 
BRANCH  23  24
ATOM     24  N   UNL A   1      41.121  23.987  26.399  1.00  0.00    -0.352 N 
ATOM     25  C   UNL A   1      40.980  25.332  26.183  1.00  0.00     0.251 C 
ATOM     26  H   UNL A   1      41.350  23.461  25.598  1.00  0.00     0.163 HD
ATOM     27  O   UNL A   1      40.964  25.746  25.021  1.00  0.00    -0.269 OA
BRANCH  25  28
ATOM     28  C   UNL A   1      40.834  26.287  27.304  1.00  0.00     0.039 A 
ATOM     29  C   UNL A   1      39.835  26.051  28.254  1.00  0.00     0.014 A 
ATOM     30  C   UNL A   1      41.626  27.435  27.406  1.00  0.00     0.014 A 
ATOM     31  C   UNL A   1      39.662  26.933  29.323  1.00  0.00     0.010 A 
ATOM     32  C   UNL A   1      41.499  28.278  28.511  1.00  0.00     0.010 A 
ATOM     33  C   UNL A   1      40.510  28.041  29.477  1.00  0.00    -0.014 A 
BRANCH  33  34
ATOM     34  C   UNL A   1      40.367  28.951  30.644  1.00  0.00     0.031 A 
ATOM     35  C   UNL A   1      41.242  28.785  31.858  1.00  0.00     0.074 A 
ATOM     36  C   UNL A   1      39.422  29.912  30.623  1.00  0.00     0.049 A 
ATOM     37  N   UNL A   1      41.257  29.484  32.965  1.00  0.00    -0.248 NA
ATOM     38  C   UNL A   1      42.212  27.678  31.837  1.00  0.00     0.031 C 
ATOM     39  C   UNL A   1      38.479  30.148  29.527  1.00  0.00     0.029 A 
ATOM     40  N   UNL A   1      39.097  30.870  31.551  1.00  0.00    -0.354 N 
ATOM     41  C   UNL A   1      42.225  28.898  33.773  1.00  0.00     0.074 A 
ATOM     42  C   UNL A   1      42.742  27.757  33.049  1.00  0.00     0.031 C 
ATOM     43  C   UNL A   1      37.707  31.204  29.831  1.00  0.00     0.029 A 
ATOM     44  C   UNL A   1      38.074  31.697  31.154  1.00  0.00     0.049 A 
ATOM     45  H   UNL A   1      39.555  30.956  32.418  1.00  0.00     0.167 HD
ATOM     46  C   UNL A   1      42.657  29.285  34.997  1.00  0.00     0.031 A 
ATOM     47  C   UNL A   1      37.495  32.740  31.781  1.00  0.00     0.031 A 
ATOM     48  C   UNL A   1      42.151  30.426  35.713  1.00  0.00     0.049 A 
ATOM     49  C   UNL A   1      38.000  33.155  33.136  1.00  0.00     0.074 A 
ATOM     50  C   UNL A   1      42.564  30.929  36.935  1.00  0.00     0.029 A 
ATOM     51  N   UNL A   1      41.121  31.244  35.272  1.00  0.00    -0.354 N 
ATOM     52  N   UNL A   1      38.961  32.625  33.854  1.00  0.00    -0.248 NA
ATOM     53  C   UNL A   1      37.351  34.318  33.756  1.00  0.00     0.031 C 
ATOM     54  C   UNL A   1      41.754  32.025  37.254  1.00  0.00     0.029 A 
ATOM     55  C   UNL A   1      40.872  32.236  36.206  1.00  0.00     0.049 A 
ATOM     56  H   UNL A   1      40.639  31.135  34.421  1.00  0.00     0.167 HD
ATOM     57  C   UNL A   1      39.048  33.405  35.002  1.00  0.00     0.074 A 
ATOM     58  C   UNL A   1      38.054  34.452  34.872  1.00  0.00     0.031 C 
ATOM     59  C   UNL A   1      39.875  33.267  36.067  1.00  0.00     0.031 A 
BRANCH  46  60
ATOM     60  C   UNL A   1      43.739  28.459  35.645  1.00  0.00    -0.014 A 
ATOM     61  C   UNL A   1      43.420  27.383  36.492  1.00  0.00     0.010 A 
ATOM     62  C   UNL A   1      45.090  28.735  35.371  1.00  0.00     0.010 A 
ATOM     63  C   UNL A   1      44.431  26.624  37.086  1.00  0.00     0.020 A 
ATOM     64  C   UNL A   1      46.106  27.961  35.942  1.00  0.00     0.020 A 
ATOM     65  C   UNL A   1      45.769  26.921  36.811  1.00  0.00     0.054 A 
BRANCH  65  66
ATOM     66  S   UNL A   1      47.063  25.907  37.579  1.00  0.00     0.124 S 
ATOM     67  O   UNL A   1      46.934  24.650  36.845  1.00  0.00    -0.237 OA
ATOM     68  O   UNL A   1      48.277  26.672  37.304  1.00  0.00    -0.237 OA
ATOM     69  O   UNL A   1      46.671  25.850  38.984  1.00  0.00    -0.744 OA
ENDBRANCH  65  66
ENDBRANCH  46  60
BRANCH  47  70
ATOM     70  C   UNL A   1      36.387  33.481  31.121  1.00  0.00    -0.014 A 
ATOM     71  C   UNL A   1      35.180  33.716  31.803  1.00  0.00     0.010 A 
ATOM     72  C   UNL A   1      36.539  33.968  29.810  1.00  0.00     0.010 A 
ATOM     73  C   UNL A   1      34.138  34.406  31.178  1.00  0.00     0.020 A 
ATOM     74  C   UNL A   1      35.508  34.680  29.192  1.00  0.00     0.020 A 
ATOM     75  C   UNL A   1      34.309  34.885  29.876  1.00  0.00     0.054 A 
BRANCH  75  76
ATOM     76  S   UNL A   1      32.962  35.823  29.102  1.00  0.00     0.124 S 
ATOM     77  O   UNL A   1      33.684  36.915  28.459  1.00  0.00    -0.237 OA
ATOM     78  O   UNL A   1      32.368  34.838  28.200  1.00  0.00    -0.237 OA
ATOM     79  O   UNL A   1      32.121  36.206  30.233  1.00  0.00    -0.744 OA
ENDBRANCH  75  76
ENDBRANCH  47  70
BRANCH  59  80
ATOM     80  C   UNL A   1      39.757  34.289  37.166  1.00  0.00    -0.014 A 
ATOM     81  C   UNL A   1      40.346  35.560  37.043  1.00  0.00     0.010 A 
ATOM     82  C   UNL A   1      39.021  33.981  38.325  1.00  0.00     0.010 A 
ATOM     83  C   UNL A   1      40.235  36.492  38.080  1.00  0.00     0.020 A 
ATOM     84  C   UNL A   1      38.887  34.919  39.351  1.00  0.00     0.020 A 
ATOM     85  C   UNL A   1      39.511  36.163  39.230  1.00  0.00     0.054 A 
BRANCH  85  86
ATOM     86  S   UNL A   1      39.360  37.396  40.552  1.00  0.00     0.124 S 
ATOM     87  O   UNL A   1      38.293  38.254  40.045  1.00  0.00    -0.237 OA
ATOM     88  O   UNL A   1      39.015  36.583  41.716  1.00  0.00    -0.237 OA
ATOM     89  O   UNL A   1      40.685  38.011  40.601  1.00  0.00    -0.744 OA
ENDBRANCH  85  86
ENDBRANCH  59  80
ENDBRANCH  33  34
ENDBRANCH  25  28
ENDBRANCH  23  24
ENDBRANCH   1  23
TORSDOF 17
ENDMDL
