MODEL 1
REMARK VINA RESULT:     -11.1      0.000      0.000
REMARK SMILES CC[C@](NC(=O)c1cccc(CS(C)(=O)=O)c1)(C(=O)NCCCNC(=O)c1ccc(-c2c3nc(c(-c4ccc(S(=O)(=O)[O-])cc4)c4ccc([nH]4)c(-c4ccc(S(=O)(=O)[O-])cc4)c4nc(c(-c5ccc(S(=O)(=O)[O-])cc5)c5ccc2[nH]5)C=C4)C=C3)cc1)c1ccccc1
REMARK SMILES IDX 21 1 20 2 18 3 19 4 3 6 2 7 1 8 87 9 88 10 92 11 89 12 91 13
REMARK SMILES IDX 90 14 4 15 5 16 6 18 7 19 8 20 17 21 9 22 11 23 10 24 12 25
REMARK SMILES IDX 13 26 14 27 15 28 16 29 22 30 23 31 24 32 25 33 26 35 27 36
REMARK SMILES IDX 28 37 86 38 29 39 85 40 30 41 31 42 32 43 79 44 33 45 84 46
REMARK SMILES IDX 78 47 80 48 34 49 83 50 77 51 76 52 35 54 65 55 46 56 64 57
REMARK SMILES IDX 47 58 50 59 63 60 81 61 48 62 49 63 62 65 82 66 51 67 36 68
REMARK SMILES IDX 37 69 45 70 38 71 44 72 39 73 40 74 41 75 42 76 43 77 66 78
REMARK SMILES IDX 67 79 75 80 68 81 74 82 69 83 70 84 71 85 72 86 73 87 52 88
REMARK SMILES IDX 53 89 61 90 54 91 60 92 55 93 56 94 57 95 58 96 59 97
REMARK H PARENT 20 5 4 17 24 34 80 53 50 64
REMARK Flexibility Score: inf
ROOT
ATOM      1  C   UNL A   1      35.112  23.117  23.129  1.00  0.00     0.117 C 
ENDROOT
BRANCH   1   2
ATOM      2  N   UNL A   1      34.345  22.319  24.074  1.00  0.00    -0.354 N 
ATOM      3  C   UNL A   1      33.260  22.631  24.859  1.00  0.00     0.250 C 
ATOM      4  O   UNL A   1      32.663  21.646  25.304  1.00  0.00    -0.272 OA
ATOM      5  H   UNL A   1      34.659  21.391  24.169  1.00  0.00     0.163 HD
BRANCH   3   6
ATOM      6  C   UNL A   1      32.747  24.121  24.994  1.00  0.00     0.144 C 
BRANCH   6   7
ATOM      7  C   UNL A   1      33.778  24.718  26.037  1.00  0.00     0.040 C 
ATOM      8  C   UNL A   1      34.404  23.792  27.073  1.00  0.00     0.007 C 
ENDBRANCH   6   7
BRANCH   6   9
ATOM      9  C   UNL A   1      32.803  25.026  23.733  1.00  0.00    -0.013 A 
ATOM     10  C   UNL A   1      33.643  26.142  23.590  1.00  0.00     0.007 A 
ATOM     11  C   UNL A   1      31.946  24.742  22.646  1.00  0.00     0.007 A 
ATOM     12  C   UNL A   1      33.590  26.960  22.454  1.00  0.00     0.000 A 
ATOM     13  C   UNL A   1      31.876  25.568  21.520  1.00  0.00     0.000 A 
ATOM     14  C   UNL A   1      32.695  26.685  21.428  1.00  0.00     0.000 A 
ENDBRANCH   6   9
BRANCH   6  15
ATOM     15  N   UNL A   1      31.349  24.086  25.502  1.00  0.00    -0.334 N 
ATOM     16  C   UNL A   1      30.475  25.103  25.823  1.00  0.00     0.252 C 
ATOM     17  H   UNL A   1      30.985  23.181  25.631  1.00  0.00     0.165 HD
ATOM     18  O   UNL A   1      29.413  24.826  26.374  1.00  0.00    -0.269 OA
BRANCH  16  19
ATOM     19  C   UNL A   1      30.809  26.523  25.577  1.00  0.00     0.040 A 
ATOM     20  C   UNL A   1      31.617  27.193  26.497  1.00  0.00     0.014 A 
ATOM     21  C   UNL A   1      30.341  27.196  24.448  1.00  0.00     0.018 A 
ATOM     22  C   UNL A   1      32.038  28.495  26.226  1.00  0.00     0.001 A 
ATOM     23  C   UNL A   1      30.835  28.466  24.115  1.00  0.00    -0.032 A 
ATOM     24  C   UNL A   1      31.683  29.113  25.023  1.00  0.00     0.005 A 
BRANCH  23  25
ATOM     25  C   UNL A   1      30.548  29.034  22.751  1.00  0.00     0.172 C 
BRANCH  25  26
ATOM     26  S   UNL A   1      28.898  29.680  22.590  1.00  0.00     0.151 S 
ATOM     27  C   UNL A   1      28.889  31.139  23.606  1.00  0.00     0.158 C 
ATOM     28  O   UNL A   1      28.761  30.128  21.219  1.00  0.00    -0.229 OA
ATOM     29  O   UNL A   1      27.952  28.724  23.142  1.00  0.00    -0.229 OA
ENDBRANCH  25  26
ENDBRANCH  23  25
ENDBRANCH  16  19
ENDBRANCH   6  15
ENDBRANCH   3   6
ENDBRANCH   1   2
BRANCH   1  30
ATOM     30  C   UNL A   1      36.614  23.066  23.365  1.00  0.00     0.042 C 
BRANCH  30  31
ATOM     31  C   UNL A   1      37.046  23.434  24.779  1.00  0.00     0.118 C 
BRANCH  31  32
ATOM     32  N   UNL A   1      37.932  22.445  25.383  1.00  0.00    -0.352 N 
ATOM     33  C   UNL A   1      39.001  22.595  26.230  1.00  0.00     0.251 C 
ATOM     34  H   UNL A   1      37.727  21.512  25.143  1.00  0.00     0.163 HD
ATOM     35  O   UNL A   1      39.709  21.621  26.475  1.00  0.00    -0.269 OA
BRANCH  33  36
ATOM     36  C   UNL A   1      39.327  23.913  26.819  1.00  0.00     0.039 A 
ATOM     37  C   UNL A   1      38.812  24.233  28.079  1.00  0.00     0.014 A 
ATOM     38  C   UNL A   1      40.113  24.841  26.135  1.00  0.00     0.014 A 
ATOM     39  C   UNL A   1      39.155  25.445  28.684  1.00  0.00     0.010 A 
ATOM     40  C   UNL A   1      40.525  26.009  26.773  1.00  0.00     0.010 A 
ATOM     41  C   UNL A   1      40.051  26.324  28.056  1.00  0.00    -0.014 A 
BRANCH  41  42
ATOM     42  C   UNL A   1      40.514  27.570  28.722  1.00  0.00     0.031 A 
ATOM     43  C   UNL A   1      41.880  27.632  29.351  1.00  0.00     0.074 A 
ATOM     44  C   UNL A   1      39.676  28.621  28.824  1.00  0.00     0.049 A 
ATOM     45  N   UNL A   1      42.426  28.601  30.042  1.00  0.00    -0.248 NA
ATOM     46  C   UNL A   1      42.737  26.444  29.205  1.00  0.00     0.031 C 
ATOM     47  C   UNL A   1      38.312  28.674  28.291  1.00  0.00     0.029 A 
ATOM     48  N   UNL A   1      39.845  29.847  29.420  1.00  0.00    -0.354 N 
ATOM     49  C   UNL A   1      43.677  28.133  30.429  1.00  0.00     0.074 A 
ATOM     50  C   UNL A   1      43.790  26.777  29.936  1.00  0.00     0.031 C 
ATOM     51  C   UNL A   1      37.780  29.876  28.560  1.00  0.00     0.029 A 
ATOM     52  C   UNL A   1      38.742  30.663  29.324  1.00  0.00     0.049 A 
ATOM     53  H   UNL A   1      40.677  30.115  29.873  1.00  0.00     0.167 HD
ATOM     54  C   UNL A   1      44.651  28.777  31.114  1.00  0.00     0.031 A 
ATOM     55  C   UNL A   1      38.523  31.903  29.805  1.00  0.00     0.031 A 
ATOM     56  C   UNL A   1      44.538  30.128  31.598  1.00  0.00     0.049 A 
ATOM     57  C   UNL A   1      39.614  32.593  30.578  1.00  0.00     0.074 A 
ATOM     58  C   UNL A   1      45.488  30.886  32.259  1.00  0.00     0.029 A 
ATOM     59  N   UNL A   1      43.408  30.923  31.471  1.00  0.00    -0.354 N 
ATOM     60  N   UNL A   1      40.811  32.154  30.883  1.00  0.00    -0.248 NA
ATOM     61  C   UNL A   1      39.327  33.950  31.062  1.00  0.00     0.031 C 
ATOM     62  C   UNL A   1      44.916  32.122  32.578  1.00  0.00     0.029 A 
ATOM     63  C   UNL A   1      43.630  32.156  32.062  1.00  0.00     0.049 A 
ATOM     64  H   UNL A   1      42.573  30.651  31.029  1.00  0.00     0.167 HD
ATOM     65  C   UNL A   1      41.430  33.191  31.572  1.00  0.00     0.074 A 
ATOM     66  C   UNL A   1      40.480  34.283  31.626  1.00  0.00     0.031 C 
ATOM     67  C   UNL A   1      42.674  33.235  32.109  1.00  0.00     0.031 A 
BRANCH  54  68
ATOM     68  C   UNL A   1      45.925  28.022  31.386  1.00  0.00    -0.014 A 
ATOM     69  C   UNL A   1      46.072  27.240  32.547  1.00  0.00     0.010 A 
ATOM     70  C   UNL A   1      46.978  28.062  30.453  1.00  0.00     0.010 A 
ATOM     71  C   UNL A   1      47.262  26.549  32.790  1.00  0.00     0.020 A 
ATOM     72  C   UNL A   1      48.159  27.348  30.678  1.00  0.00     0.020 A 
ATOM     73  C   UNL A   1      48.300  26.610  31.855  1.00  0.00     0.054 A 
BRANCH  73  74
ATOM     74  S   UNL A   1      49.824  25.685  32.188  1.00  0.00     0.124 S 
ATOM     75  O   UNL A   1      50.732  26.745  32.619  1.00  0.00    -0.237 OA
ATOM     76  O   UNL A   1      49.411  24.751  33.232  1.00  0.00    -0.237 OA
ATOM     77  O   UNL A   1      50.147  25.073  30.901  1.00  0.00    -0.744 OA
ENDBRANCH  73  74
ENDBRANCH  54  68
BRANCH  55  78
ATOM     78  C   UNL A   1      37.219  32.576  29.554  1.00  0.00    -0.014 A 
ATOM     79  C   UNL A   1      36.175  32.477  30.490  1.00  0.00     0.010 A 
ATOM     80  C   UNL A   1      37.021  33.337  28.387  1.00  0.00     0.010 A 
ATOM     81  C   UNL A   1      34.952  33.112  30.259  1.00  0.00     0.020 A 
ATOM     82  C   UNL A   1      35.808  33.997  28.165  1.00  0.00     0.020 A 
ATOM     83  C   UNL A   1      34.778  33.872  29.098  1.00  0.00     0.054 A 
BRANCH  83  84
ATOM     84  S   UNL A   1      33.200  34.735  28.846  1.00  0.00     0.124 S 
ATOM     85  O   UNL A   1      32.648  34.756  30.198  1.00  0.00    -0.237 OA
ATOM     86  O   UNL A   1      33.630  36.027  28.317  1.00  0.00    -0.237 OA
ATOM     87  O   UNL A   1      32.493  33.883  27.893  1.00  0.00    -0.744 OA
ENDBRANCH  83  84
ENDBRANCH  55  78
BRANCH  67  88
ATOM     88  C   UNL A   1      43.098  34.516  32.775  1.00  0.00    -0.014 A 
ATOM     89  C   UNL A   1      43.031  34.671  34.171  1.00  0.00     0.010 A 
ATOM     90  C   UNL A   1      43.628  35.560  31.993  1.00  0.00     0.010 A 
ATOM     91  C   UNL A   1      43.460  35.859  34.770  1.00  0.00     0.020 A 
ATOM     92  C   UNL A   1      44.084  36.737  32.591  1.00  0.00     0.020 A 
ATOM     93  C   UNL A   1      43.985  36.885  33.977  1.00  0.00     0.054 A 
BRANCH  93  94
ATOM     94  S   UNL A   1      44.580  38.396  34.783  1.00  0.00     0.124 S 
ATOM     95  O   UNL A   1      44.477  38.048  36.198  1.00  0.00    -0.237 OA
ATOM     96  O   UNL A   1      45.941  38.521  34.264  1.00  0.00    -0.237 OA
ATOM     97  O   UNL A   1      43.648  39.424  34.325  1.00  0.00    -0.744 OA
ENDBRANCH  93  94
ENDBRANCH  67  88
ENDBRANCH  41  42
ENDBRANCH  33  36
ENDBRANCH  31  32
ENDBRANCH  30  31
ENDBRANCH   1  30
TORSDOF 19
ENDMDL
MODEL 2
REMARK VINA RESULT:     -11.1      3.019      9.221
REMARK SMILES CC[C@](NC(=O)c1cccc(CS(C)(=O)=O)c1)(C(=O)NCCCNC(=O)c1ccc(-c2c3nc(c(-c4ccc(S(=O)(=O)[O-])cc4)c4ccc([nH]4)c(-c4ccc(S(=O)(=O)[O-])cc4)c4nc(c(-c5ccc(S(=O)(=O)[O-])cc5)c5ccc2[nH]5)C=C4)C=C3)cc1)c1ccccc1
REMARK SMILES IDX 21 1 20 2 18 3 19 4 3 6 2 7 1 8 87 9 88 10 92 11 89 12 91 13
REMARK SMILES IDX 90 14 4 15 5 16 6 18 7 19 8 20 17 21 9 22 11 23 10 24 12 25
REMARK SMILES IDX 13 26 14 27 15 28 16 29 22 30 23 31 24 32 25 33 26 35 27 36
REMARK SMILES IDX 28 37 86 38 29 39 85 40 30 41 31 42 32 43 79 44 33 45 84 46
REMARK SMILES IDX 78 47 80 48 34 49 83 50 77 51 76 52 35 54 65 55 46 56 64 57
REMARK SMILES IDX 47 58 50 59 63 60 81 61 48 62 49 63 62 65 82 66 51 67 36 68
REMARK SMILES IDX 37 69 45 70 38 71 44 72 39 73 40 74 41 75 42 76 43 77 66 78
REMARK SMILES IDX 67 79 75 80 68 81 74 82 69 83 70 84 71 85 72 86 73 87 52 88
REMARK SMILES IDX 53 89 61 90 54 91 60 92 55 93 56 94 57 95 58 96 59 97
REMARK H PARENT 20 5 4 17 24 34 80 53 50 64
REMARK Flexibility Score: inf
ROOT
ATOM      1  C   UNL A   1      32.083  28.643  24.399  1.00  0.00     0.117 C 
ENDROOT
BRANCH   1   2
ATOM      2  N   UNL A   1      31.467  28.421  25.699  1.00  0.00    -0.354 N 
ATOM      3  C   UNL A   1      31.161  27.263  26.375  1.00  0.00     0.250 C 
ATOM      4  O   UNL A   1      30.937  27.430  27.579  1.00  0.00    -0.272 OA
ATOM      5  H   UNL A   1      31.228  29.246  26.179  1.00  0.00     0.163 HD
BRANCH   3   6
ATOM      6  C   UNL A   1      31.282  25.849  25.677  1.00  0.00     0.144 C 
BRANCH   6   7
ATOM      7  C   UNL A   1      30.497  26.095  24.325  1.00  0.00     0.040 C 
ATOM      8  C   UNL A   1      28.992  26.332  24.373  1.00  0.00     0.007 C 
ENDBRANCH   6   7
BRANCH   6   9
ATOM      9  C   UNL A   1      32.701  25.349  25.292  1.00  0.00    -0.013 A 
ATOM     10  C   UNL A   1      33.225  25.364  23.990  1.00  0.00     0.007 A 
ATOM     11  C   UNL A   1      33.537  24.816  26.299  1.00  0.00     0.007 A 
ATOM     12  C   UNL A   1      34.487  24.827  23.700  1.00  0.00     0.000 A 
ATOM     13  C   UNL A   1      34.787  24.261  26.010  1.00  0.00     0.000 A 
ATOM     14  C   UNL A   1      35.259  24.259  24.705  1.00  0.00     0.000 A 
ENDBRANCH   6   9
BRANCH   6  15
ATOM     15  N   UNL A   1      30.635  24.840  26.558  1.00  0.00    -0.334 N 
ATOM     16  C   UNL A   1      30.454  23.482  26.401  1.00  0.00     0.252 C 
ATOM     17  H   UNL A   1      30.275  25.204  27.398  1.00  0.00     0.165 HD
ATOM     18  O   UNL A   1      29.748  22.878  27.204  1.00  0.00    -0.269 OA
BRANCH  16  19
ATOM     19  C   UNL A   1      31.038  22.746  25.259  1.00  0.00     0.040 A 
ATOM     20  C   UNL A   1      30.771  23.194  23.964  1.00  0.00     0.014 A 
ATOM     21  C   UNL A   1      31.848  21.627  25.451  1.00  0.00     0.018 A 
ATOM     22  C   UNL A   1      31.403  22.586  22.879  1.00  0.00     0.001 A 
ATOM     23  C   UNL A   1      32.566  21.071  24.382  1.00  0.00    -0.032 A 
ATOM     24  C   UNL A   1      32.327  21.557  23.090  1.00  0.00     0.005 A 
BRANCH  23  25
ATOM     25  C   UNL A   1      33.654  20.070  24.666  1.00  0.00     0.172 C 
BRANCH  25  26
ATOM     26  S   UNL A   1      33.106  18.381  24.546  1.00  0.00     0.151 S 
ATOM     27  C   UNL A   1      34.606  17.431  24.458  1.00  0.00     0.158 C 
ATOM     28  O   UNL A   1      32.483  18.057  25.813  1.00  0.00    -0.229 OA
ATOM     29  O   UNL A   1      32.370  18.202  23.305  1.00  0.00    -0.229 OA
ENDBRANCH  25  26
ENDBRANCH  23  25
ENDBRANCH  16  19
ENDBRANCH   6  15
ENDBRANCH   3   6
ENDBRANCH   1   2
BRANCH   1  30
ATOM     30  C   UNL A   1      33.556  29.014  24.477  1.00  0.00     0.042 C 
BRANCH  30  31
ATOM     31  C   UNL A   1      34.168  28.890  25.867  1.00  0.00     0.118 C 
BRANCH  31  32
ATOM     32  N   UNL A   1      33.936  30.064  26.701  1.00  0.00    -0.352 N 
ATOM     33  C   UNL A   1      34.667  30.587  27.739  1.00  0.00     0.251 C 
ATOM     34  H   UNL A   1      33.118  30.566  26.482  1.00  0.00     0.163 HD
ATOM     35  O   UNL A   1      34.183  31.496  28.410  1.00  0.00    -0.269 OA
BRANCH  33  36
ATOM     36  C   UNL A   1      36.005  30.051  28.074  1.00  0.00     0.039 A 
ATOM     37  C   UNL A   1      37.007  30.085  27.099  1.00  0.00     0.014 A 
ATOM     38  C   UNL A   1      36.273  29.499  29.327  1.00  0.00     0.014 A 
ATOM     39  C   UNL A   1      38.296  29.642  27.411  1.00  0.00     0.010 A 
ATOM     40  C   UNL A   1      37.577  29.139  29.664  1.00  0.00     0.010 A 
ATOM     41  C   UNL A   1      38.603  29.208  28.710  1.00  0.00    -0.014 A 
BRANCH  41  42
ATOM     42  C   UNL A   1      39.988  28.830  29.095  1.00  0.00     0.031 A 
ATOM     43  C   UNL A   1      40.884  29.828  29.779  1.00  0.00     0.074 A 
ATOM     44  C   UNL A   1      40.463  27.613  28.765  1.00  0.00     0.049 A 
ATOM     45  N   UNL A   1      42.143  29.708  30.119  1.00  0.00    -0.248 NA
ATOM     46  C   UNL A   1      40.298  31.140  30.102  1.00  0.00     0.031 C 
ATOM     47  C   UNL A   1      39.709  26.568  28.068  1.00  0.00     0.029 A 
ATOM     48  N   UNL A   1      41.699  27.049  28.965  1.00  0.00    -0.354 N 
ATOM     49  C   UNL A   1      42.503  30.930  30.676  1.00  0.00     0.074 A 
ATOM     50  C   UNL A   1      41.346  31.793  30.584  1.00  0.00     0.031 C 
ATOM     51  C   UNL A   1      40.487  25.485  27.921  1.00  0.00     0.029 A 
ATOM     52  C   UNL A   1      41.809  25.770  28.470  1.00  0.00     0.049 A 
ATOM     53  H   UNL A   1      42.437  27.517  29.419  1.00  0.00     0.167 HD
ATOM     54  C   UNL A   1      43.684  31.297  31.230  1.00  0.00     0.031 A 
ATOM     55  C   UNL A   1      42.857  24.923  28.450  1.00  0.00     0.031 A 
ATOM     56  C   UNL A   1      44.832  30.435  31.325  1.00  0.00     0.049 A 
ATOM     57  C   UNL A   1      44.163  25.358  29.058  1.00  0.00     0.074 A 
ATOM     58  C   UNL A   1      46.057  30.697  31.914  1.00  0.00     0.029 A 
ATOM     59  N   UNL A   1      44.898  29.144  30.821  1.00  0.00    -0.354 N 
ATOM     60  N   UNL A   1      44.465  26.498  29.630  1.00  0.00    -0.248 NA
ATOM     61  C   UNL A   1      45.265  24.387  29.025  1.00  0.00     0.031 C 
ATOM     62  C   UNL A   1      46.881  29.583  31.721  1.00  0.00     0.029 A 
ATOM     63  C   UNL A   1      46.150  28.605  31.065  1.00  0.00     0.049 A 
ATOM     64  H   UNL A   1      44.164  28.681  30.357  1.00  0.00     0.167 HD
ATOM     65  C   UNL A   1      45.785  26.372  30.050  1.00  0.00     0.074 A 
ATOM     66  C   UNL A   1      46.217  25.041  29.677  1.00  0.00     0.031 C 
ATOM     67  C   UNL A   1      46.567  27.277  30.688  1.00  0.00     0.031 A 
BRANCH  54  68
ATOM     68  C   UNL A   1      43.791  32.698  31.773  1.00  0.00    -0.014 A 
ATOM     69  C   UNL A   1      43.532  32.973  33.129  1.00  0.00     0.010 A 
ATOM     70  C   UNL A   1      44.193  33.749  30.928  1.00  0.00     0.010 A 
ATOM     71  C   UNL A   1      43.630  34.278  33.618  1.00  0.00     0.020 A 
ATOM     72  C   UNL A   1      44.321  35.051  31.422  1.00  0.00     0.020 A 
ATOM     73  C   UNL A   1      44.021  35.310  32.761  1.00  0.00     0.054 A 
BRANCH  73  74
ATOM     74  S   UNL A   1      44.159  36.990  33.430  1.00  0.00     0.124 S 
ATOM     75  O   UNL A   1      45.347  36.882  34.272  1.00  0.00    -0.237 OA
ATOM     76  O   UNL A   1      44.316  37.803  32.226  1.00  0.00    -0.237 OA
ATOM     77  O   UNL A   1      42.902  37.183  34.147  1.00  0.00    -0.744 OA
ENDBRANCH  73  74
ENDBRANCH  54  68
BRANCH  55  78
ATOM     78  C   UNL A   1      42.706  23.571  27.846  1.00  0.00    -0.014 A 
ATOM     79  C   UNL A   1      42.274  22.486  28.628  1.00  0.00     0.010 A 
ATOM     80  C   UNL A   1      42.977  23.364  26.481  1.00  0.00     0.010 A 
ATOM     81  C   UNL A   1      42.127  21.217  28.061  1.00  0.00     0.020 A 
ATOM     82  C   UNL A   1      42.804  22.103  25.903  1.00  0.00     0.020 A 
ATOM     83  C   UNL A   1      42.390  21.034  26.700  1.00  0.00     0.054 A 
BRANCH  83  84
ATOM     84  S   UNL A   1      42.138  19.390  25.974  1.00  0.00     0.124 S 
ATOM     85  O   UNL A   1      42.975  19.455  24.779  1.00  0.00    -0.237 OA
ATOM     86  O   UNL A   1      42.614  18.502  27.032  1.00  0.00    -0.237 OA
ATOM     87  O   UNL A   1      40.699  19.341  25.730  1.00  0.00    -0.744 OA
ENDBRANCH  83  84
ENDBRANCH  55  78
BRANCH  67  88
ATOM     88  C   UNL A   1      47.963  26.851  31.057  1.00  0.00    -0.014 A 
ATOM     89  C   UNL A   1      49.054  27.113  30.211  1.00  0.00     0.010 A 
ATOM     90  C   UNL A   1      48.191  26.231  32.300  1.00  0.00     0.010 A 
ATOM     91  C   UNL A   1      50.347  26.736  30.589  1.00  0.00     0.020 A 
ATOM     92  C   UNL A   1      49.484  25.878  32.694  1.00  0.00     0.020 A 
ATOM     93  C   UNL A   1      50.554  26.121  31.828  1.00  0.00     0.054 A 
BRANCH  93  94
ATOM     94  S   UNL A   1      52.245  25.687  32.317  1.00  0.00     0.124 S 
ATOM     95  O   UNL A   1      52.972  25.827  31.057  1.00  0.00    -0.237 OA
ATOM     96  O   UNL A   1      52.553  26.690  33.334  1.00  0.00    -0.237 OA
ATOM     97  O   UNL A   1      52.122  24.320  32.816  1.00  0.00    -0.744 OA
ENDBRANCH  93  94
ENDBRANCH  67  88
ENDBRANCH  41  42
ENDBRANCH  33  36
ENDBRANCH  31  32
ENDBRANCH  30  31
ENDBRANCH   1  30
TORSDOF 19
ENDMDL
MODEL 3
REMARK VINA RESULT:     -10.8      3.489      9.196
REMARK SMILES CC[C@](NC(=O)c1cccc(CS(C)(=O)=O)c1)(C(=O)NCCCNC(=O)c1ccc(-c2c3nc(c(-c4ccc(S(=O)(=O)[O-])cc4)c4ccc([nH]4)c(-c4ccc(S(=O)(=O)[O-])cc4)c4nc(c(-c5ccc(S(=O)(=O)[O-])cc5)c5ccc2[nH]5)C=C4)C=C3)cc1)c1ccccc1
REMARK SMILES IDX 21 1 20 2 18 3 19 4 3 6 2 7 1 8 87 9 88 10 92 11 89 12 91 13
REMARK SMILES IDX 90 14 4 15 5 16 6 18 7 19 8 20 17 21 9 22 11 23 10 24 12 25
REMARK SMILES IDX 13 26 14 27 15 28 16 29 22 30 23 31 24 32 25 33 26 35 27 36
REMARK SMILES IDX 28 37 86 38 29 39 85 40 30 41 31 42 32 43 79 44 33 45 84 46
REMARK SMILES IDX 78 47 80 48 34 49 83 50 77 51 76 52 35 54 65 55 46 56 64 57
REMARK SMILES IDX 47 58 50 59 63 60 81 61 48 62 49 63 62 65 82 66 51 67 36 68
REMARK SMILES IDX 37 69 45 70 38 71 44 72 39 73 40 74 41 75 42 76 43 77 66 78
REMARK SMILES IDX 67 79 75 80 68 81 74 82 69 83 70 84 71 85 72 86 73 87 52 88
REMARK SMILES IDX 53 89 61 90 54 91 60 92 55 93 56 94 57 95 58 96 59 97
REMARK H PARENT 20 5 4 17 24 34 80 53 50 64
REMARK Flexibility Score: inf
ROOT
ATOM      1  C   UNL A   1      32.193  28.621  24.389  1.00  0.00     0.117 C 
ENDROOT
BRANCH   1   2
ATOM      2  N   UNL A   1      31.579  28.409  25.691  1.00  0.00    -0.354 N 
ATOM      3  C   UNL A   1      31.252  27.257  26.367  1.00  0.00     0.250 C 
ATOM      4  O   UNL A   1      31.037  27.426  27.572  1.00  0.00    -0.272 OA
ATOM      5  H   UNL A   1      31.358  29.238  26.174  1.00  0.00     0.163 HD
BRANCH   3   6
ATOM      6  C   UNL A   1      31.342  25.842  25.667  1.00  0.00     0.144 C 
BRANCH   6   7
ATOM      7  C   UNL A   1      30.540  26.101  24.327  1.00  0.00     0.040 C 
ATOM      8  C   UNL A   1      29.030  26.298  24.392  1.00  0.00     0.007 C 
ENDBRANCH   6   7
BRANCH   6   9
ATOM      9  C   UNL A   1      32.747  25.320  25.261  1.00  0.00    -0.013 A 
ATOM     10  C   UNL A   1      33.237  25.295  23.946  1.00  0.00     0.007 A 
ATOM     11  C   UNL A   1      33.605  24.811  26.261  1.00  0.00     0.007 A 
ATOM     12  C   UNL A   1      34.488  24.741  23.640  1.00  0.00     0.000 A 
ATOM     13  C   UNL A   1      34.843  24.239  25.957  1.00  0.00     0.000 A 
ATOM     14  C   UNL A   1      35.282  24.196  24.641  1.00  0.00     0.000 A 
ENDBRANCH   6   9
BRANCH   6  15
ATOM     15  N   UNL A   1      30.693  24.842  26.557  1.00  0.00    -0.334 N 
ATOM     16  C   UNL A   1      30.490  23.487  26.403  1.00  0.00     0.252 C 
ATOM     17  H   UNL A   1      30.349  25.211  27.402  1.00  0.00     0.165 HD
ATOM     18  O   UNL A   1      29.787  22.892  27.216  1.00  0.00    -0.269 OA
BRANCH  16  19
ATOM     19  C   UNL A   1      31.048  22.742  25.253  1.00  0.00     0.040 A 
ATOM     20  C   UNL A   1      30.746  23.177  23.961  1.00  0.00     0.014 A 
ATOM     21  C   UNL A   1      31.869  21.629  25.435  1.00  0.00     0.018 A 
ATOM     22  C   UNL A   1      31.354  22.561  22.866  1.00  0.00     0.001 A 
ATOM     23  C   UNL A   1      32.562  21.066  24.352  1.00  0.00    -0.032 A 
ATOM     24  C   UNL A   1      32.287  21.539  23.063  1.00  0.00     0.005 A 
BRANCH  23  25
ATOM     25  C   UNL A   1      33.662  20.073  24.618  1.00  0.00     0.172 C 
BRANCH  25  26
ATOM     26  S   UNL A   1      33.124  18.380  24.504  1.00  0.00     0.151 S 
ATOM     27  C   UNL A   1      34.626  17.432  24.550  1.00  0.00     0.158 C 
ATOM     28  O   UNL A   1      32.412  18.089  25.732  1.00  0.00    -0.229 OA
ATOM     29  O   UNL A   1      32.478  18.166  23.219  1.00  0.00    -0.229 OA
ENDBRANCH  25  26
ENDBRANCH  23  25
ENDBRANCH  16  19
ENDBRANCH   6  15
ENDBRANCH   3   6
ENDBRANCH   1   2
BRANCH   1  30
ATOM     30  C   UNL A   1      33.682  28.924  24.459  1.00  0.00     0.042 C 
BRANCH  30  31
ATOM     31  C   UNL A   1      34.241  29.034  25.873  1.00  0.00     0.118 C 
BRANCH  31  32
ATOM     32  N   UNL A   1      33.934  30.309  26.511  1.00  0.00    -0.352 N 
ATOM     33  C   UNL A   1      34.507  30.932  27.592  1.00  0.00     0.251 C 
ATOM     34  H   UNL A   1      33.192  30.806  26.097  1.00  0.00     0.163 HD
ATOM     35  O   UNL A   1      33.966  31.933  28.059  1.00  0.00    -0.269 OA
BRANCH  33  36
ATOM     36  C   UNL A   1      35.739  30.400  28.214  1.00  0.00     0.039 A 
ATOM     37  C   UNL A   1      36.968  30.651  27.596  1.00  0.00     0.014 A 
ATOM     38  C   UNL A   1      35.693  29.640  29.384  1.00  0.00     0.014 A 
ATOM     39  C   UNL A   1      38.152  30.212  28.197  1.00  0.00     0.010 A 
ATOM     40  C   UNL A   1      36.875  29.278  30.026  1.00  0.00     0.010 A 
ATOM     41  C   UNL A   1      38.118  29.561  29.440  1.00  0.00    -0.014 A 
BRANCH  41  42
ATOM     42  C   UNL A   1      39.367  29.177  30.149  1.00  0.00     0.031 A 
ATOM     43  C   UNL A   1      39.798  29.922  31.384  1.00  0.00     0.074 A 
ATOM     44  C   UNL A   1      40.149  28.205  29.640  1.00  0.00     0.049 A 
ATOM     45  N   UNL A   1      40.892  29.783  32.090  1.00  0.00    -0.248 NA
ATOM     46  C   UNL A   1      38.896  30.975  31.877  1.00  0.00     0.031 C 
ATOM     47  C   UNL A   1      39.863  27.432  28.428  1.00  0.00     0.029 A 
ATOM     48  N   UNL A   1      41.352  27.703  30.074  1.00  0.00    -0.354 N 
ATOM     49  C   UNL A   1      40.819  30.741  33.095  1.00  0.00     0.074 A 
ATOM     50  C   UNL A   1      39.597  31.486  32.879  1.00  0.00     0.031 C 
ATOM     51  C   UNL A   1      40.847  26.540  28.231  1.00  0.00     0.029 A 
ATOM     52  C   UNL A   1      41.856  26.706  29.272  1.00  0.00     0.049 A 
ATOM     53  H   UNL A   1      41.810  28.028  30.882  1.00  0.00     0.167 HD
ATOM     54  C   UNL A   1      41.679  30.969  34.116  1.00  0.00     0.031 A 
ATOM     55  C   UNL A   1      43.006  26.008  29.356  1.00  0.00     0.031 A 
ATOM     56  C   UNL A   1      42.890  30.223  34.333  1.00  0.00     0.049 A 
ATOM     57  C   UNL A   1      43.953  26.290  30.490  1.00  0.00     0.074 A 
ATOM     58  C   UNL A   1      43.802  30.345  35.367  1.00  0.00     0.029 A 
ATOM     59  N   UNL A   1      43.358  29.215  33.502  1.00  0.00    -0.354 N 
ATOM     60  N   UNL A   1      43.837  27.162  31.463  1.00  0.00    -0.248 NA
ATOM     61  C   UNL A   1      45.182  25.486  30.543  1.00  0.00     0.031 C 
ATOM     62  C   UNL A   1      44.848  29.446  35.135  1.00  0.00     0.029 A 
ATOM     63  C   UNL A   1      44.557  28.721  33.989  1.00  0.00     0.049 A 
ATOM     64  H   UNL A   1      42.906  28.898  32.688  1.00  0.00     0.167 HD
ATOM     65  C   UNL A   1      44.965  26.993  32.258  1.00  0.00     0.074 A 
ATOM     66  C   UNL A   1      45.743  25.927  31.661  1.00  0.00     0.031 C 
ATOM     67  C   UNL A   1      45.322  27.660  33.384  1.00  0.00     0.031 A 
BRANCH  54  68
ATOM     68  C   UNL A   1      41.339  32.079  35.076  1.00  0.00    -0.014 A 
ATOM     69  C   UNL A   1      40.612  31.823  36.255  1.00  0.00     0.010 A 
ATOM     70  C   UNL A   1      41.781  33.390  34.820  1.00  0.00     0.010 A 
ATOM     71  C   UNL A   1      40.298  32.862  37.133  1.00  0.00     0.020 A 
ATOM     72  C   UNL A   1      41.495  34.427  35.713  1.00  0.00     0.020 A 
ATOM     73  C   UNL A   1      40.739  34.159  36.856  1.00  0.00     0.054 A 
BRANCH  73  74
ATOM     74  S   UNL A   1      40.334  35.483  38.027  1.00  0.00     0.124 S 
ATOM     75  O   UNL A   1      41.520  35.506  38.879  1.00  0.00    -0.237 OA
ATOM     76  O   UNL A   1      40.167  36.643  37.154  1.00  0.00    -0.237 OA
ATOM     77  O   UNL A   1      39.111  35.014  38.673  1.00  0.00    -0.744 OA
ENDBRANCH  73  74
ENDBRANCH  54  68
BRANCH  55  78
ATOM     78  C   UNL A   1      43.315  24.963  28.342  1.00  0.00    -0.014 A 
ATOM     79  C   UNL A   1      42.895  23.636  28.537  1.00  0.00     0.010 A 
ATOM     80  C   UNL A   1      44.015  25.292  27.167  1.00  0.00     0.010 A 
ATOM     81  C   UNL A   1      43.180  22.654  27.584  1.00  0.00     0.020 A 
ATOM     82  C   UNL A   1      44.278  24.319  26.198  1.00  0.00     0.020 A 
ATOM     83  C   UNL A   1      43.868  23.003  26.418  1.00  0.00     0.054 A 
BRANCH  83  84
ATOM     84  S   UNL A   1      44.176  21.724  25.168  1.00  0.00     0.124 S 
ATOM     85  O   UNL A   1      44.033  22.474  23.924  1.00  0.00    -0.237 OA
ATOM     86  O   UNL A   1      45.533  21.288  25.492  1.00  0.00    -0.237 OA
ATOM     87  O   UNL A   1      43.134  20.734  25.428  1.00  0.00    -0.744 OA
ENDBRANCH  83  84
ENDBRANCH  55  78
BRANCH  67  88
ATOM     88  C   UNL A   1      46.595  27.237  34.067  1.00  0.00    -0.014 A 
ATOM     89  C   UNL A   1      46.602  26.214  35.031  1.00  0.00     0.010 A 
ATOM     90  C   UNL A   1      47.813  27.835  33.692  1.00  0.00     0.010 A 
ATOM     91  C   UNL A   1      47.801  25.816  35.629  1.00  0.00     0.020 A 
ATOM     92  C   UNL A   1      49.017  27.421  34.266  1.00  0.00     0.020 A 
ATOM     93  C   UNL A   1      49.002  26.422  35.243  1.00  0.00     0.054 A 
BRANCH  93  94
ATOM     94  S   UNL A   1      50.550  25.853  35.998  1.00  0.00     0.124 S 
ATOM     95  O   UNL A   1      50.560  24.437  35.643  1.00  0.00    -0.237 OA
ATOM     96  O   UNL A   1      51.554  26.676  35.327  1.00  0.00    -0.237 OA
ATOM     97  O   UNL A   1      50.368  26.139  37.419  1.00  0.00    -0.744 OA
ENDBRANCH  93  94
ENDBRANCH  67  88
ENDBRANCH  41  42
ENDBRANCH  33  36
ENDBRANCH  31  32
ENDBRANCH  30  31
ENDBRANCH   1  30
TORSDOF 19
ENDMDL
