MODEL 1
REMARK VINA RESULT:     -14.9      0.000      0.000
REMARK SMILES Cc1ccc(C2=NN(C(=O)CCC(=O)NCCCNC(=O)c3ccc(-c4c5nc(c(-c6ccc(S(=O)(=O)[O-])cc6)c6ccc([nH]6)c(-c6ccc(S(=O)(=O)[O-])cc6)c6nc(c(-c7ccc(S(=O)(=O)[O-])cc7)c7ccc4[nH]7)C=C6)C=C5)cc3)[C@H](C[C@@H]3C=c4cccc(C)c4=NC3=O)C2)cc1
REMARK SMILES IDX 16 1 15 2 13 3 14 4 12 6 11 7 9 8 10 9 8 10 6 11 7 12 96 13
REMARK SMILES IDX 82 14 5 15 1 16 2 17 3 18 98 19 4 20 97 21 83 22 84 23 85 24
REMARK SMILES IDX 94 25 86 26 93 27 95 28 87 29 92 30 88 31 90 32 89 33 91 34
REMARK SMILES IDX 17 35 18 36 19 37 20 38 21 40 22 41 23 42 81 43 24 44 80 45
REMARK SMILES IDX 25 46 26 47 27 48 74 49 28 50 79 51 73 52 75 53 29 54 78 55
REMARK SMILES IDX 72 56 71 57 30 59 60 60 41 61 59 62 42 63 45 64 58 65 76 66
REMARK SMILES IDX 43 67 44 68 57 70 77 71 46 72 31 73 32 74 40 75 33 76 39 77
REMARK SMILES IDX 34 78 35 79 36 80 37 81 38 82 61 83 62 84 70 85 63 86 69 87
REMARK SMILES IDX 64 88 65 89 66 90 67 91 68 92 47 93 48 94 56 95 49 96 55 97
REMARK SMILES IDX 50 98 51 99 52 100 53 101 54 102
REMARK H PARENT 15 5 19 39 75 58 45 69
REMARK Flexibility Score: inf
ROOT
ATOM      1  C   UNL A   1      37.085  21.092  24.517  1.00  0.00     0.117 C 
ENDROOT
BRANCH   1   2
ATOM      2  N   UNL A   1      35.485  20.950  24.668  1.00  0.00    -0.356 N 
ATOM      3  C   UNL A   1      34.438  21.767  24.898  1.00  0.00     0.220 C 
ATOM      4  O   UNL A   1      33.359  21.236  25.174  1.00  0.00    -0.275 OA
ATOM      5  H   UNL A   1      35.195  20.014  24.565  1.00  0.00     0.163 HD
BRANCH   3   6
ATOM      6  C   UNL A   1      34.559  23.260  24.801  1.00  0.00     0.110 C 
BRANCH   6   7
ATOM      7  C   UNL A   1      33.382  24.040  24.248  1.00  0.00     0.112 C 
BRANCH   7   8
ATOM      8  C   UNL A   1      32.457  24.624  25.307  1.00  0.00     0.243 C 
ATOM      9  O   UNL A   1      31.809  23.882  26.044  1.00  0.00    -0.273 OA
BRANCH   8  10
ATOM     10  N   UNL A   1      32.323  26.044  25.266  1.00  0.00    -0.230 N 
ATOM     11  C   UNL A   1      31.035  27.752  23.510  1.00  0.00     0.070 C 
ATOM     12  N   UNL A   1      30.814  26.625  24.501  1.00  0.00    -0.174 NA
ATOM     13  C   UNL A   1      33.149  28.223  23.314  1.00  0.00     0.086 C 
ATOM     14  C   UNL A   1      33.764  27.126  24.965  1.00  0.00     0.118 C 
BRANCH  11  15
ATOM     15  C   UNL A   1      29.687  28.990  23.810  1.00  0.00    -0.002 A 
ATOM     16  C   UNL A   1      27.824  32.808  20.929  1.00  0.00     0.044 C 
ATOM     17  C   UNL A   1      28.385  31.703  21.775  1.00  0.00    -0.051 A 
ATOM     18  C   UNL A   1      27.807  30.032  21.592  1.00  0.00     0.004 A 
ATOM     19  C   UNL A   1      29.576  32.144  23.008  1.00  0.00     0.004 A 
ATOM     20  C   UNL A   1      28.463  28.682  22.536  1.00  0.00     0.010 A 
ATOM     21  C   UNL A   1      30.099  30.853  24.166  1.00  0.00     0.010 A 
ENDBRANCH  11  15
BRANCH  14  22
ATOM     22  C   UNL A   1      34.009  27.669  26.621  1.00  0.00     0.045 C 
BRANCH  22  23
ATOM     23  C   UNL A   1      34.023  29.244  26.867  1.00  0.00     0.106 C 
ATOM     24  C   UNL A   1      34.928  29.740  27.981  1.00  0.00    -0.003 C 
ATOM     25  C   UNL A   1      32.716  30.030  27.097  1.00  0.00     0.253 C 
ATOM     26  C   UNL A   1      35.156  31.053  28.068  1.00  0.00    -0.003 A 
ATOM     27  N   UNL A   1      32.841  31.416  27.284  1.00  0.00    -0.212 NA
ATOM     28  O   UNL A   1      31.623  29.480  27.015  1.00  0.00    -0.272 OA
ATOM     29  C   UNL A   1      36.429  31.640  28.405  1.00  0.00     0.010 A 
ATOM     30  C   UNL A   1      33.972  31.893  27.723  1.00  0.00     0.077 A 
ATOM     31  C   UNL A   1      36.583  32.968  28.371  1.00  0.00     0.001 A 
ATOM     32  C   UNL A   1      34.185  33.359  28.045  1.00  0.00    -0.025 A 
ATOM     33  C   UNL A   1      35.427  33.826  28.282  1.00  0.00     0.005 A 
ATOM     34  C   UNL A   1      32.977  34.205  28.284  1.00  0.00     0.047 C 
ENDBRANCH  22  23
ENDBRANCH  14  22
ENDBRANCH   8  10
ENDBRANCH   7   8
ENDBRANCH   6   7
ENDBRANCH   3   6
ENDBRANCH   1   2
BRANCH   1  35
ATOM     35  C   UNL A   1      38.478  21.919  26.057  1.00  0.00     0.042 C 
BRANCH  35  36
ATOM     36  C   UNL A   1      39.973  20.603  26.064  1.00  0.00     0.118 C 
BRANCH  36  37
ATOM     37  N   UNL A   1      41.496  21.147  26.985  1.00  0.00    -0.352 N 
ATOM     38  C   UNL A   1      41.898  22.885  27.238  1.00  0.00     0.251 C 
ATOM     39  H   UNL A   1      42.104  20.461  27.347  1.00  0.00     0.163 HD
ATOM     40  O   UNL A   1      43.118  22.845  27.517  1.00  0.00    -0.269 OA
BRANCH  38  41
ATOM     41  C   UNL A   1      40.365  24.368  26.878  1.00  0.00     0.039 A 
ATOM     42  C   UNL A   1      40.462  25.648  26.104  1.00  0.00     0.014 A 
ATOM     43  C   UNL A   1      39.388  24.915  27.855  1.00  0.00     0.014 A 
ATOM     44  C   UNL A   1      40.840  26.877  26.744  1.00  0.00     0.010 A 
ATOM     45  C   UNL A   1      39.682  26.107  28.587  1.00  0.00     0.010 A 
ATOM     46  C   UNL A   1      40.693  26.939  28.114  1.00  0.00    -0.014 A 
BRANCH  46  47
ATOM     47  C   UNL A   1      41.436  27.822  29.039  1.00  0.00     0.031 A 
ATOM     48  C   UNL A   1      40.753  29.079  29.357  1.00  0.00     0.074 A 
ATOM     49  C   UNL A   1      42.685  27.691  29.582  1.00  0.00     0.049 A 
ATOM     50  N   UNL A   1      41.338  30.201  29.611  1.00  0.00    -0.248 NA
ATOM     51  C   UNL A   1      39.305  29.166  29.225  1.00  0.00     0.031 C 
ATOM     52  C   UNL A   1      43.127  28.312  30.840  1.00  0.00     0.029 A 
ATOM     53  N   UNL A   1      43.850  27.055  29.141  1.00  0.00    -0.354 N 
ATOM     54  C   UNL A   1      40.333  31.034  30.032  1.00  0.00     0.074 A 
ATOM     55  C   UNL A   1      39.119  30.449  29.517  1.00  0.00     0.031 C 
ATOM     56  C   UNL A   1      44.448  28.137  31.006  1.00  0.00     0.029 A 
ATOM     57  C   UNL A   1      44.987  27.515  29.812  1.00  0.00     0.049 A 
ATOM     58  H   UNL A   1      43.867  26.364  28.441  1.00  0.00     0.167 HD
ATOM     59  C   UNL A   1      40.567  31.961  31.001  1.00  0.00     0.031 A 
ATOM     60  C   UNL A   1      46.181  27.794  29.215  1.00  0.00     0.031 A 
ATOM     61  C   UNL A   1      41.971  32.001  31.416  1.00  0.00     0.049 A 
ATOM     62  C   UNL A   1      46.458  29.280  29.246  1.00  0.00     0.074 A 
ATOM     63  C   UNL A   1      42.670  31.564  32.531  1.00  0.00     0.029 A 
ATOM     64  N   UNL A   1      42.939  32.289  30.466  1.00  0.00    -0.354 N 
ATOM     65  N   UNL A   1      45.832  30.110  30.031  1.00  0.00    -0.248 NA
ATOM     66  C   UNL A   1      47.342  29.967  28.304  1.00  0.00     0.031 C 
ATOM     67  C   UNL A   1      44.067  31.629  32.244  1.00  0.00     0.029 A 
ATOM     68  C   UNL A   1      44.221  32.134  30.967  1.00  0.00     0.049 A 
ATOM     69  H   UNL A   1      42.739  32.570  29.545  1.00  0.00     0.167 HD
ATOM     70  C   UNL A   1      46.059  31.390  29.610  1.00  0.00     0.074 A 
ATOM     71  C   UNL A   1      47.052  31.257  28.557  1.00  0.00     0.031 C 
ATOM     72  C   UNL A   1      45.345  32.449  30.092  1.00  0.00     0.031 A 
BRANCH  59  73
ATOM     73  C   UNL A   1      39.409  32.551  31.775  1.00  0.00    -0.014 A 
ATOM     74  C   UNL A   1      38.989  31.971  32.983  1.00  0.00     0.010 A 
ATOM     75  C   UNL A   1      38.657  33.656  31.324  1.00  0.00     0.010 A 
ATOM     76  C   UNL A   1      37.830  32.410  33.646  1.00  0.00     0.020 A 
ATOM     77  C   UNL A   1      37.462  34.054  31.925  1.00  0.00     0.020 A 
ATOM     78  C   UNL A   1      37.060  33.433  33.096  1.00  0.00     0.054 A 
BRANCH  78  79
ATOM     79  S   UNL A   1      35.560  33.985  33.946  1.00  0.00     0.124 S 
ATOM     80  O   UNL A   1      35.599  35.432  33.754  1.00  0.00    -0.237 OA
ATOM     81  O   UNL A   1      34.517  33.275  33.212  1.00  0.00    -0.237 OA
ATOM     82  O   UNL A   1      35.762  33.542  35.324  1.00  0.00    -0.744 OA
ENDBRANCH  78  79
ENDBRANCH  59  73
BRANCH  60  83
ATOM     83  C   UNL A   1      46.617  26.853  28.147  1.00  0.00    -0.014 A 
ATOM     84  C   UNL A   1      46.713  25.488  28.490  1.00  0.00     0.010 A 
ATOM     85  C   UNL A   1      46.605  27.211  26.788  1.00  0.00     0.010 A 
ATOM     86  C   UNL A   1      46.643  24.499  27.506  1.00  0.00     0.020 A 
ATOM     87  C   UNL A   1      46.521  26.220  25.799  1.00  0.00     0.020 A 
ATOM     88  C   UNL A   1      46.488  24.873  26.173  1.00  0.00     0.054 A 
BRANCH  88  89
ATOM     89  S   UNL A   1      46.007  23.578  24.991  1.00  0.00     0.124 S 
ATOM     90  O   UNL A   1      46.873  23.867  23.851  1.00  0.00    -0.237 OA
ATOM     91  O   UNL A   1      46.358  22.375  25.749  1.00  0.00    -0.237 OA
ATOM     92  O   UNL A   1      44.589  23.843  24.775  1.00  0.00    -0.744 OA
ENDBRANCH  88  89
ENDBRANCH  60  83
BRANCH  72  93
ATOM     93  C   UNL A   1      45.600  33.883  29.703  1.00  0.00    -0.014 A 
ATOM     94  C   UNL A   1      45.876  34.887  30.644  1.00  0.00     0.010 A 
ATOM     95  C   UNL A   1      45.443  34.293  28.359  1.00  0.00     0.010 A 
ATOM     96  C   UNL A   1      46.089  36.215  30.246  1.00  0.00     0.020 A 
ATOM     97  C   UNL A   1      45.634  35.614  27.952  1.00  0.00     0.020 A 
ATOM     98  C   UNL A   1      45.983  36.564  28.900  1.00  0.00     0.054 A 
BRANCH  98  99
ATOM     99  S   UNL A   1      46.255  38.280  28.403  1.00  0.00     0.124 S 
ATOM    100  O   UNL A   1      47.707  38.340  28.251  1.00  0.00    -0.237 OA
ATOM    101  O   UNL A   1      45.488  38.357  27.163  1.00  0.00    -0.237 OA
ATOM    102  O   UNL A   1      45.718  39.055  29.519  1.00  0.00    -0.744 OA
ENDBRANCH  98  99
ENDBRANCH  72  93
ENDBRANCH  46  47
ENDBRANCH  38  41
ENDBRANCH  36  37
ENDBRANCH  35  36
ENDBRANCH   1  35
TORSDOF 19
ENDMDL
MODEL 2
REMARK VINA RESULT:     -14.3      5.611      7.081
REMARK SMILES Cc1ccc(C2=NN(C(=O)CCC(=O)NCCCNC(=O)c3ccc(-c4c5nc(c(-c6ccc(S(=O)(=O)[O-])cc6)c6ccc([nH]6)c(-c6ccc(S(=O)(=O)[O-])cc6)c6nc(c(-c7ccc(S(=O)(=O)[O-])cc7)c7ccc4[nH]7)C=C6)C=C5)cc3)[C@H](C[C@@H]3C=c4cccc(C)c4=NC3=O)C2)cc1
REMARK SMILES IDX 16 1 15 2 13 3 14 4 12 6 11 7 9 8 10 9 8 10 6 11 7 12 96 13
REMARK SMILES IDX 82 14 5 15 1 16 2 17 3 18 98 19 4 20 97 21 83 22 84 23 85 24
REMARK SMILES IDX 94 25 86 26 93 27 95 28 87 29 92 30 88 31 90 32 89 33 91 34
REMARK SMILES IDX 17 35 18 36 19 37 20 38 21 40 22 41 23 42 81 43 24 44 80 45
REMARK SMILES IDX 25 46 26 47 27 48 74 49 28 50 79 51 73 52 75 53 29 54 78 55
REMARK SMILES IDX 72 56 71 57 30 59 60 60 41 61 59 62 42 63 45 64 58 65 76 66
REMARK SMILES IDX 43 67 44 68 57 70 77 71 46 72 31 73 32 74 40 75 33 76 39 77
REMARK SMILES IDX 34 78 35 79 36 80 37 81 38 82 61 83 62 84 70 85 63 86 69 87
REMARK SMILES IDX 64 88 65 89 66 90 67 91 68 92 47 93 48 94 56 95 49 96 55 97
REMARK SMILES IDX 50 98 51 99 52 100 53 101 54 102
REMARK H PARENT 15 5 19 39 75 58 45 69
REMARK Flexibility Score: inf
ROOT
ATOM      1  C   UNL A   1      38.485  23.264  26.328  1.00  0.00     0.117 C 
ENDROOT
BRANCH   1   2
ATOM      2  N   UNL A   1      37.654  23.317  24.947  1.00  0.00    -0.356 N 
ATOM      3  C   UNL A   1      36.405  23.643  24.556  1.00  0.00     0.220 C 
ATOM      4  O   UNL A   1      36.074  23.330  23.410  1.00  0.00    -0.275 OA
ATOM      5  H   UNL A   1      38.207  23.034  24.182  1.00  0.00     0.163 HD
BRANCH   3   6
ATOM      6  C   UNL A   1      35.457  24.377  25.459  1.00  0.00     0.110 C 
BRANCH   6   7
ATOM      7  C   UNL A   1      34.411  25.272  24.823  1.00  0.00     0.112 C 
BRANCH   7   8
ATOM      8  C   UNL A   1      33.253  25.640  25.741  1.00  0.00     0.243 C 
ATOM      9  O   UNL A   1      32.686  24.774  26.405  1.00  0.00    -0.273 OA
BRANCH   8  10
ATOM     10  N   UNL A   1      32.828  27.000  25.650  1.00  0.00    -0.230 N 
ATOM     11  C   UNL A   1      31.428  28.398  23.716  1.00  0.00     0.070 C 
ATOM     12  N   UNL A   1      31.332  27.249  24.702  1.00  0.00    -0.174 NA
ATOM     13  C   UNL A   1      33.403  29.306  23.755  1.00  0.00     0.086 C 
ATOM     14  C   UNL A   1      34.035  28.363  25.492  1.00  0.00     0.118 C 
BRANCH  11  15
ATOM     15  C   UNL A   1      29.823  29.321  23.828  1.00  0.00    -0.002 A 
ATOM     16  C   UNL A   1      27.654  32.826  20.768  1.00  0.00     0.044 C 
ATOM     17  C   UNL A   1      28.301  31.815  21.668  1.00  0.00    -0.051 A 
ATOM     18  C   UNL A   1      28.116  30.073  21.366  1.00  0.00     0.004 A 
ATOM     19  C   UNL A   1      29.181  32.425  23.079  1.00  0.00     0.004 A 
ATOM     20  C   UNL A   1      28.891  28.838  22.374  1.00  0.00     0.010 A 
ATOM     21  C   UNL A   1      29.783  31.209  24.279  1.00  0.00     0.010 A 
ENDBRANCH  11  15
BRANCH  14  22
ATOM     22  C   UNL A   1      33.962  28.944  27.152  1.00  0.00     0.045 C 
BRANCH  22  23
ATOM     23  C   UNL A   1      35.180  29.841  27.655  1.00  0.00     0.106 C 
ATOM     24  C   UNL A   1      35.927  29.332  28.875  1.00  0.00    -0.003 C 
ATOM     25  C   UNL A   1      35.001  31.344  27.951  1.00  0.00     0.253 C 
ATOM     26  C   UNL A   1      37.089  29.912  29.188  1.00  0.00    -0.003 A 
ATOM     27  N   UNL A   1      36.145  32.042  28.370  1.00  0.00    -0.212 NA
ATOM     28  O   UNL A   1      33.936  31.910  27.729  1.00  0.00    -0.272 OA
ATOM     29  C   UNL A   1      38.248  29.206  29.675  1.00  0.00     0.010 A 
ATOM     30  C   UNL A   1      37.117  31.381  28.933  1.00  0.00     0.077 A 
ATOM     31  C   UNL A   1      39.399  29.861  29.868  1.00  0.00     0.001 A 
ATOM     32  C   UNL A   1      38.353  32.048  29.501  1.00  0.00    -0.025 A 
ATOM     33  C   UNL A   1      39.415  31.303  29.869  1.00  0.00     0.005 A 
ATOM     34  C   UNL A   1      38.278  33.505  29.821  1.00  0.00     0.047 C 
ENDBRANCH  22  23
ENDBRANCH  14  22
ENDBRANCH   8  10
ENDBRANCH   7   8
ENDBRANCH   6   7
ENDBRANCH   3   6
ENDBRANCH   1   2
BRANCH   1  35
ATOM     35  C   UNL A   1      39.323  25.025  27.422  1.00  0.00     0.042 C 
BRANCH  35  36
ATOM     36  C   UNL A   1      41.225  25.059  26.830  1.00  0.00     0.118 C 
BRANCH  36  37
ATOM     37  N   UNL A   1      41.961  26.758  26.646  1.00  0.00    -0.352 N 
ATOM     38  C   UNL A   1      43.589  27.176  27.295  1.00  0.00     0.251 C 
ATOM     39  H   UNL A   1      41.444  27.452  26.179  1.00  0.00     0.163 HD
ATOM     40  O   UNL A   1      43.554  28.427  27.334  1.00  0.00    -0.269 OA
BRANCH  38  41
ATOM     41  C   UNL A   1      44.914  25.573  27.890  1.00  0.00     0.039 A 
ATOM     42  C   UNL A   1      44.567  24.178  28.315  1.00  0.00     0.014 A 
ATOM     43  C   UNL A   1      46.095  25.661  28.789  1.00  0.00     0.014 A 
ATOM     44  C   UNL A   1      44.326  23.859  29.695  1.00  0.00     0.010 A 
ATOM     45  C   UNL A   1      45.962  25.413  30.190  1.00  0.00     0.010 A 
ATOM     46  C   UNL A   1      44.830  24.734  30.635  1.00  0.00    -0.014 A 
BRANCH  46  47
ATOM     47  C   UNL A   1      44.328  24.931  32.012  1.00  0.00     0.031 A 
ATOM     48  C   UNL A   1      43.806  26.274  32.281  1.00  0.00     0.074 A 
ATOM     49  C   UNL A   1      44.342  24.091  33.092  1.00  0.00     0.049 A 
ATOM     50  N   UNL A   1      43.859  26.879  33.420  1.00  0.00    -0.248 NA
ATOM     51  C   UNL A   1      43.333  27.098  31.176  1.00  0.00     0.031 C 
ATOM     52  C   UNL A   1      43.402  24.154  34.223  1.00  0.00     0.029 A 
ATOM     53  N   UNL A   1      45.198  23.054  33.477  1.00  0.00    -0.354 N 
ATOM     54  C   UNL A   1      43.094  28.005  33.254  1.00  0.00     0.074 A 
ATOM     55  C   UNL A   1      43.041  28.218  31.828  1.00  0.00     0.031 C 
ATOM     56  C   UNL A   1      43.789  23.312  35.195  1.00  0.00     0.029 A 
ATOM     57  C   UNL A   1      45.073  22.745  34.836  1.00  0.00     0.049 A 
ATOM     58  H   UNL A   1      45.816  22.596  32.864  1.00  0.00     0.167 HD
ATOM     59  C   UNL A   1      42.343  28.486  34.283  1.00  0.00     0.031 A 
ATOM     60  C   UNL A   1      46.119  22.496  35.675  1.00  0.00     0.031 A 
ATOM     61  C   UNL A   1      42.546  27.738  35.526  1.00  0.00     0.049 A 
ATOM     62  C   UNL A   1      46.262  23.606  36.691  1.00  0.00     0.074 A 
ATOM     63  C   UNL A   1      41.801  26.806  36.234  1.00  0.00     0.029 A 
ATOM     64  N   UNL A   1      43.819  27.677  36.068  1.00  0.00    -0.354 N 
ATOM     65  N   UNL A   1      45.322  24.470  36.946  1.00  0.00    -0.248 NA
ATOM     66  C   UNL A   1      47.511  23.923  37.386  1.00  0.00     0.031 C 
ATOM     67  C   UNL A   1      42.640  26.216  37.227  1.00  0.00     0.029 A 
ATOM     68  C   UNL A   1      43.886  26.809  37.145  1.00  0.00     0.049 A 
ATOM     69  H   UNL A   1      44.587  28.190  35.728  1.00  0.00     0.167 HD
ATOM     70  C   UNL A   1      45.849  25.518  37.649  1.00  0.00     0.074 A 
ATOM     71  C   UNL A   1      47.211  25.108  37.947  1.00  0.00     0.031 C 
ATOM     72  C   UNL A   1      45.157  26.678  37.848  1.00  0.00     0.031 A 
BRANCH  59  73
ATOM     73  C   UNL A   1      41.185  29.417  34.001  1.00  0.00    -0.014 A 
ATOM     74  C   UNL A   1      41.246  30.768  34.382  1.00  0.00     0.010 A 
ATOM     75  C   UNL A   1      39.977  28.995  33.408  1.00  0.00     0.010 A 
ATOM     76  C   UNL A   1      40.133  31.616  34.263  1.00  0.00     0.020 A 
ATOM     77  C   UNL A   1      38.838  29.800  33.354  1.00  0.00     0.020 A 
ATOM     78  C   UNL A   1      38.927  31.118  33.773  1.00  0.00     0.054 A 
BRANCH  78  79
ATOM     79  S   UNL A   1      37.491  32.211  33.637  1.00  0.00     0.124 S 
ATOM     80  O   UNL A   1      36.647  31.510  32.674  1.00  0.00    -0.237 OA
ATOM     81  O   UNL A   1      36.999  32.239  35.010  1.00  0.00    -0.237 OA
ATOM     82  O   UNL A   1      38.060  33.468  33.154  1.00  0.00    -0.744 OA
ENDBRANCH  78  79
ENDBRANCH  59  73
BRANCH  60  83
ATOM     83  C   UNL A   1      47.234  21.687  35.112  1.00  0.00    -0.014 A 
ATOM     84  C   UNL A   1      48.223  22.374  34.377  1.00  0.00     0.010 A 
ATOM     85  C   UNL A   1      47.505  20.381  35.555  1.00  0.00     0.010 A 
ATOM     86  C   UNL A   1      49.501  21.833  34.222  1.00  0.00     0.020 A 
ATOM     87  C   UNL A   1      48.792  19.842  35.413  1.00  0.00     0.020 A 
ATOM     88  C   UNL A   1      49.792  20.596  34.793  1.00  0.00     0.054 A 
BRANCH  88  89
ATOM     89  S   UNL A   1      51.543  20.120  34.912  1.00  0.00     0.124 S 
ATOM     90  O   UNL A   1      52.088  21.169  35.767  1.00  0.00    -0.237 OA
ATOM     91  O   UNL A   1      51.423  18.802  35.542  1.00  0.00    -0.237 OA
ATOM     92  O   UNL A   1      51.987  20.159  33.523  1.00  0.00    -0.744 OA
ENDBRANCH  88  89
ENDBRANCH  60  83
BRANCH  72  93
ATOM     93  C   UNL A   1      45.671  27.835  38.667  1.00  0.00    -0.014 A 
ATOM     94  C   UNL A   1      46.590  28.770  38.166  1.00  0.00     0.010 A 
ATOM     95  C   UNL A   1      45.331  27.943  40.035  1.00  0.00     0.010 A 
ATOM     96  C   UNL A   1      47.061  29.822  38.964  1.00  0.00     0.020 A 
ATOM     97  C   UNL A   1      45.807  28.974  40.845  1.00  0.00     0.020 A 
ATOM     98  C   UNL A   1      46.651  29.926  40.293  1.00  0.00     0.054 A 
BRANCH  98  99
ATOM     99  S   UNL A   1      47.271  31.284  41.311  1.00  0.00     0.124 S 
ATOM    100  O   UNL A   1      46.235  32.301  41.149  1.00  0.00    -0.237 OA
ATOM    101  O   UNL A   1      47.341  30.662  42.629  1.00  0.00    -0.237 OA
ATOM    102  O   UNL A   1      48.559  31.613  40.706  1.00  0.00    -0.744 OA
ENDBRANCH  98  99
ENDBRANCH  72  93
ENDBRANCH  46  47
ENDBRANCH  38  41
ENDBRANCH  36  37
ENDBRANCH  35  36
ENDBRANCH   1  35
TORSDOF 19
ENDMDL
MODEL 3
REMARK VINA RESULT:     -13.6      2.479      3.412
REMARK SMILES Cc1ccc(C2=NN(C(=O)CCC(=O)NCCCNC(=O)c3ccc(-c4c5nc(c(-c6ccc(S(=O)(=O)[O-])cc6)c6ccc([nH]6)c(-c6ccc(S(=O)(=O)[O-])cc6)c6nc(c(-c7ccc(S(=O)(=O)[O-])cc7)c7ccc4[nH]7)C=C6)C=C5)cc3)[C@H](C[C@@H]3C=c4cccc(C)c4=NC3=O)C2)cc1
REMARK SMILES IDX 16 1 15 2 13 3 14 4 12 6 11 7 9 8 10 9 8 10 6 11 7 12 96 13
REMARK SMILES IDX 82 14 5 15 1 16 2 17 3 18 98 19 4 20 97 21 83 22 84 23 85 24
REMARK SMILES IDX 94 25 86 26 93 27 95 28 87 29 92 30 88 31 90 32 89 33 91 34
REMARK SMILES IDX 17 35 18 36 19 37 20 38 21 40 22 41 23 42 81 43 24 44 80 45
REMARK SMILES IDX 25 46 26 47 27 48 74 49 28 50 79 51 73 52 75 53 29 54 78 55
REMARK SMILES IDX 72 56 71 57 30 59 60 60 41 61 59 62 42 63 45 64 58 65 76 66
REMARK SMILES IDX 43 67 44 68 57 70 77 71 46 72 31 73 32 74 40 75 33 76 39 77
REMARK SMILES IDX 34 78 35 79 36 80 37 81 38 82 61 83 62 84 70 85 63 86 69 87
REMARK SMILES IDX 64 88 65 89 66 90 67 91 68 92 47 93 48 94 56 95 49 96 55 97
REMARK SMILES IDX 50 98 51 99 52 100 53 101 54 102
REMARK H PARENT 15 5 19 39 75 58 45 69
REMARK Flexibility Score: inf
ROOT
ATOM      1  C   UNL A   1      38.456  24.059  26.504  1.00  0.00     0.117 C 
ENDROOT
BRANCH   1   2
ATOM      2  N   UNL A   1      37.702  23.443  25.218  1.00  0.00    -0.356 N 
ATOM      3  C   UNL A   1      36.449  23.430  24.721  1.00  0.00     0.220 C 
ATOM      4  O   UNL A   1      36.216  22.640  23.802  1.00  0.00    -0.275 OA
ATOM      5  H   UNL A   1      38.323  22.943  24.641  1.00  0.00     0.163 HD
BRANCH   3   6
ATOM      6  C   UNL A   1      35.379  24.348  25.236  1.00  0.00     0.110 C 
BRANCH   6   7
ATOM      7  C   UNL A   1      34.215  24.676  24.321  1.00  0.00     0.112 C 
BRANCH   7   8
ATOM      8  C   UNL A   1      32.920  25.021  25.046  1.00  0.00     0.243 C 
ATOM      9  O   UNL A   1      32.168  24.128  25.433  1.00  0.00    -0.273 OA
BRANCH   8  10
ATOM     10  N   UNL A   1      32.622  26.416  25.103  1.00  0.00    -0.230 N 
ATOM     11  C   UNL A   1      31.283  28.116  23.379  1.00  0.00     0.070 C 
ATOM     12  N   UNL A   1      31.120  26.889  24.256  1.00  0.00    -0.174 NA
ATOM     13  C   UNL A   1      33.335  28.836  23.408  1.00  0.00     0.086 C 
ATOM     14  C   UNL A   1      33.944  27.674  25.016  1.00  0.00     0.118 C 
BRANCH  11  15
ATOM     15  C   UNL A   1      29.777  29.164  23.654  1.00  0.00    -0.002 A 
ATOM     16  C   UNL A   1      27.655  32.925  20.880  1.00  0.00     0.044 C 
ATOM     17  C   UNL A   1      28.290  31.838  21.697  1.00  0.00    -0.051 A 
ATOM     18  C   UNL A   1      27.933  30.127  21.372  1.00  0.00     0.004 A 
ATOM     19  C   UNL A   1      29.337  32.330  23.037  1.00  0.00     0.004 A 
ATOM     20  C   UNL A   1      28.686  28.802  22.278  1.00  0.00     0.010 A 
ATOM     21  C   UNL A   1      29.936  31.034  24.151  1.00  0.00     0.010 A 
ENDBRANCH  11  15
BRANCH  14  22
ATOM     22  C   UNL A   1      33.991  28.094  26.725  1.00  0.00     0.045 C 
BRANCH  22  23
ATOM     23  C   UNL A   1      34.564  29.534  27.097  1.00  0.00     0.106 C 
ATOM     24  C   UNL A   1      35.498  29.595  28.292  1.00  0.00    -0.003 C 
ATOM     25  C   UNL A   1      33.625  30.738  27.319  1.00  0.00     0.253 C 
ATOM     26  C   UNL A   1      36.185  30.722  28.496  1.00  0.00    -0.003 A 
ATOM     27  N   UNL A   1      34.237  31.964  27.623  1.00  0.00    -0.212 NA
ATOM     28  O   UNL A   1      32.416  30.640  27.136  1.00  0.00    -0.272 OA
ATOM     29  C   UNL A   1      37.555  30.773  28.945  1.00  0.00     0.010 A 
ATOM     30  C   UNL A   1      35.426  31.961  28.157  1.00  0.00     0.077 A 
ATOM     31  C   UNL A   1      38.190  31.948  29.026  1.00  0.00     0.001 A 
ATOM     32  C   UNL A   1      36.137  33.221  28.606  1.00  0.00    -0.025 A 
ATOM     33  C   UNL A   1      37.441  33.178  28.945  1.00  0.00     0.005 A 
ATOM     34  C   UNL A   1      35.311  34.442  28.848  1.00  0.00     0.047 C 
ENDBRANCH  22  23
ENDBRANCH  14  22
ENDBRANCH   8  10
ENDBRANCH   7   8
ENDBRANCH   6   7
ENDBRANCH   3   6
ENDBRANCH   1   2
BRANCH   1  35
ATOM     35  C   UNL A   1      40.209  23.150  27.555  1.00  0.00     0.042 C 
BRANCH  35  36
ATOM     36  C   UNL A   1      41.653  23.248  26.186  1.00  0.00     0.118 C 
BRANCH  36  37
ATOM     37  N   UNL A   1      43.173  24.185  26.713  1.00  0.00    -0.352 N 
ATOM     38  C   UNL A   1      43.102  25.893  27.280  1.00  0.00     0.251 C 
ATOM     39  H   UNL A   1      44.046  23.731  26.681  1.00  0.00     0.163 HD
ATOM     40  O   UNL A   1      44.289  26.271  27.156  1.00  0.00    -0.269 OA
BRANCH  38  41
ATOM     41  C   UNL A   1      41.179  26.735  27.802  1.00  0.00     0.039 A 
ATOM     42  C   UNL A   1      40.644  28.105  27.511  1.00  0.00     0.014 A 
ATOM     43  C   UNL A   1      40.464  26.622  29.100  1.00  0.00     0.014 A 
ATOM     44  C   UNL A   1      40.843  29.191  28.430  1.00  0.00     0.010 A 
ATOM     45  C   UNL A   1      40.627  27.620  30.110  1.00  0.00     0.010 A 
ATOM     46  C   UNL A   1      41.143  28.858  29.735  1.00  0.00    -0.014 A 
BRANCH  46  47
ATOM     47  C   UNL A   1      41.862  29.701  30.715  1.00  0.00     0.031 A 
ATOM     48  C   UNL A   1      40.993  30.525  31.559  1.00  0.00     0.074 A 
ATOM     49  C   UNL A   1      43.204  29.893  30.906  1.00  0.00     0.049 A 
ATOM     50  N   UNL A   1      41.298  31.687  32.031  1.00  0.00    -0.248 NA
ATOM     51  C   UNL A   1      39.609  30.125  31.775  1.00  0.00     0.031 C 
ATOM     52  C   UNL A   1      43.823  30.315  32.173  1.00  0.00     0.029 A 
ATOM     53  N   UNL A   1      44.304  29.831  30.046  1.00  0.00    -0.354 N 
ATOM     54  C   UNL A   1      40.283  31.989  32.903  1.00  0.00     0.074 A 
ATOM     55  C   UNL A   1      39.178  31.153  32.498  1.00  0.00     0.031 C 
ATOM     56  C   UNL A   1      45.126  30.581  31.986  1.00  0.00     0.029 A 
ATOM     57  C   UNL A   1      45.421  30.489  30.570  1.00  0.00     0.049 A 
ATOM     58  H   UNL A   1      44.293  29.376  29.173  1.00  0.00     0.167 HD
ATOM     59  C   UNL A   1      40.539  32.682  34.046  1.00  0.00     0.031 A 
ATOM     60  C   UNL A   1      46.249  31.303  29.855  1.00  0.00     0.031 A 
ATOM     61  C   UNL A   1      41.935  33.115  34.141  1.00  0.00     0.049 A 
ATOM     62  C   UNL A   1      46.104  32.739  30.304  1.00  0.00     0.074 A 
ATOM     63  C   UNL A   1      43.035  32.701  34.879  1.00  0.00     0.029 A 
ATOM     64  N   UNL A   1      42.447  33.940  33.152  1.00  0.00    -0.354 N 
ATOM     65  N   UNL A   1      45.548  33.085  31.429  1.00  0.00    -0.248 NA
ATOM     66  C   UNL A   1      46.433  33.895  29.468  1.00  0.00     0.031 C 
ATOM     67  C   UNL A   1      44.202  33.319  34.337  1.00  0.00     0.029 A 
ATOM     68  C   UNL A   1      43.811  34.132  33.290  1.00  0.00     0.049 A 
ATOM     69  H   UNL A   1      41.905  34.342  32.436  1.00  0.00     0.167 HD
ATOM     70  C   UNL A   1      45.274  34.424  31.406  1.00  0.00     0.074 A 
ATOM     71  C   UNL A   1      45.893  34.901  30.180  1.00  0.00     0.031 C 
ATOM     72  C   UNL A   1      44.482  35.019  32.345  1.00  0.00     0.031 A 
BRANCH  59  73
ATOM     73  C   UNL A   1      39.560  32.628  35.197  1.00  0.00    -0.014 A 
ATOM     74  C   UNL A   1      39.289  33.776  35.959  1.00  0.00     0.010 A 
ATOM     75  C   UNL A   1      38.915  31.443  35.612  1.00  0.00     0.010 A 
ATOM     76  C   UNL A   1      38.498  33.720  37.118  1.00  0.00     0.020 A 
ATOM     77  C   UNL A   1      38.192  31.352  36.802  1.00  0.00     0.020 A 
ATOM     78  C   UNL A   1      37.976  32.501  37.546  1.00  0.00     0.054 A 
BRANCH  78  79
ATOM     79  S   UNL A   1      36.970  32.431  39.049  1.00  0.00     0.124 S 
ATOM     80  O   UNL A   1      37.579  33.458  39.889  1.00  0.00    -0.237 OA
ATOM     81  O   UNL A   1      35.638  32.737  38.537  1.00  0.00    -0.237 OA
ATOM     82  O   UNL A   1      37.153  31.060  39.524  1.00  0.00    -0.744 OA
ENDBRANCH  78  79
ENDBRANCH  59  73
BRANCH  60  83
ATOM     83  C   UNL A   1      46.576  30.855  28.473  1.00  0.00    -0.014 A 
ATOM     84  C   UNL A   1      47.696  30.013  28.316  1.00  0.00     0.010 A 
ATOM     85  C   UNL A   1      45.654  30.959  27.418  1.00  0.00     0.010 A 
ATOM     86  C   UNL A   1      47.811  29.179  27.201  1.00  0.00     0.020 A 
ATOM     87  C   UNL A   1      45.759  30.113  26.304  1.00  0.00     0.020 A 
ATOM     88  C   UNL A   1      46.810  29.195  26.232  1.00  0.00     0.054 A 
BRANCH  88  89
ATOM     89  S   UNL A   1      46.793  27.836  25.024  1.00  0.00     0.124 S 
ATOM     90  O   UNL A   1      45.413  27.864  24.550  1.00  0.00    -0.237 OA
ATOM     91  O   UNL A   1      47.791  28.314  24.064  1.00  0.00    -0.237 OA
ATOM     92  O   UNL A   1      47.147  26.675  25.834  1.00  0.00    -0.744 OA
ENDBRANCH  88  89
ENDBRANCH  60  83
BRANCH  72  93
ATOM     93  C   UNL A   1      44.202  36.500  32.395  1.00  0.00    -0.014 A 
ATOM     94  C   UNL A   1      43.926  37.180  33.591  1.00  0.00     0.010 A 
ATOM     95  C   UNL A   1      44.085  37.241  31.197  1.00  0.00     0.010 A 
ATOM     96  C   UNL A   1      43.651  38.555  33.596  1.00  0.00     0.020 A 
ATOM     97  C   UNL A   1      43.794  38.605  31.186  1.00  0.00     0.020 A 
ATOM     98  C   UNL A   1      43.606  39.260  32.393  1.00  0.00     0.054 A 
BRANCH  98  99
ATOM     99  S   UNL A   1      43.245  41.031  32.416  1.00  0.00     0.124 S 
ATOM    100  O   UNL A   1      42.404  41.169  33.602  1.00  0.00    -0.237 OA
ATOM    101  O   UNL A   1      44.582  41.607  32.523  1.00  0.00    -0.237 OA
ATOM    102  O   UNL A   1      42.565  41.265  31.145  1.00  0.00    -0.744 OA
ENDBRANCH  98  99
ENDBRANCH  72  93
ENDBRANCH  46  47
ENDBRANCH  38  41
ENDBRANCH  36  37
ENDBRANCH  35  36
ENDBRANCH   1  35
TORSDOF 19
ENDMDL
