MODEL 1
REMARK VINA RESULT:     -11.1      0.000      0.000
REMARK SMILES C[C@]1(C(=O)NCc2ccc(C(=O)NCCCNC(=O)c3ccc(-c4c5nc(c(-c6ccc(S(=O)(=O)[O-])cc6)c6ccc([nH]6)c(-c6ccc(S(=O)(=O)[O-])cc6)c6nc(c(-c7ccc(S(=O)(=O)[O-])cc7)c7ccc4[nH]7)C=C6)C=C5)cc3)o2)CCC[NH2+]C1
REMARK SMILES IDX 15 1 14 2 13 3 11 4 12 5 10 7 7 8 8 9 80 10 9 11 6 12 5 13
REMARK SMILES IDX 3 14 4 15 2 17 1 18 81 19 85 20 82 21 84 22 83 23 16 26
REMARK SMILES IDX 17 27 18 28 19 30 20 31 21 32 79 33 22 34 78 35 23 36 24 37
REMARK SMILES IDX 25 38 72 39 26 40 77 41 71 42 73 43 27 44 76 45 70 46 69 47
REMARK SMILES IDX 28 49 58 50 39 51 57 52 40 53 43 54 56 55 74 56 41 57 42 58
REMARK SMILES IDX 55 60 75 61 44 62 29 63 30 64 38 65 31 66 37 67 32 68 33 69
REMARK SMILES IDX 34 70 35 71 36 72 59 73 60 74 68 75 61 76 67 77 62 78 63 79
REMARK SMILES IDX 64 80 65 81 66 82 45 83 46 84 54 85 47 86 53 87 48 88 49 89
REMARK SMILES IDX 50 90 51 91 52 92
REMARK H PARENT 13 6 5 16 84 24 84 25 17 29 73 48 43 59
REMARK Flexibility Score: inf
ROOT
ATOM      1  C   UNL A   1      44.749  22.930  26.850  1.00  0.00     0.042 C 
ENDROOT
BRANCH   1   2
ATOM      2  C   UNL A   1      43.991  22.263  25.707  1.00  0.00     0.118 C 
BRANCH   2   3
ATOM      3  N   UNL A   1      43.574  20.920  26.054  1.00  0.00    -0.349 N 
ATOM      4  C   UNL A   1      42.314  20.427  26.305  1.00  0.00     0.286 C 
ATOM      5  O   UNL A   1      42.213  19.207  26.414  1.00  0.00    -0.266 OA
ATOM      6  H   UNL A   1      44.303  20.261  26.119  1.00  0.00     0.163 HD
BRANCH   4   7
ATOM      7  C   UNL A   1      41.187  21.335  26.395  1.00  0.00     0.191 A 
ATOM      8  C   UNL A   1      39.059  21.855  26.124  1.00  0.00     0.124 A 
ATOM      9  C   UNL A   1      39.670  22.985  26.617  1.00  0.00     0.048 A 
ATOM     10  O   UNL A   1      39.970  20.854  25.987  1.00  0.00    -0.454 OA
ATOM     11  C   UNL A   1      41.026  22.642  26.820  1.00  0.00     0.056 A 
BRANCH   8  12
ATOM     12  C   UNL A   1      37.678  21.581  25.675  1.00  0.00     0.191 C 
BRANCH  12  13
ATOM     13  N   UNL A   1      37.422  22.136  24.369  1.00  0.00    -0.348 N 
ATOM     14  C   UNL A   1      36.389  22.781  23.784  1.00  0.00     0.232 C 
ATOM     15  O   UNL A   1      36.669  23.293  22.688  1.00  0.00    -0.274 OA
ATOM     16  H   UNL A   1      38.182  22.015  23.755  1.00  0.00     0.163 HD
BRANCH  14  17
ATOM     17  C   UNL A   1      34.919  22.772  24.269  1.00  0.00     0.095 C 
ATOM     18  C   UNL A   1      34.610  21.276  24.533  1.00  0.00     0.028 C 
ATOM     19  C   UNL A   1      34.507  23.562  25.522  1.00  0.00     0.028 C 
ATOM     20  C   UNL A   1      34.028  23.258  23.091  1.00  0.00     0.277 C 
ATOM     21  C   UNL A   1      34.464  25.072  25.292  1.00  0.00     0.063 C 
ATOM     22  N   UNL A   1      34.087  24.716  22.896  1.00  0.00    -0.345 N 
ATOM     23  C   UNL A   1      33.620  25.433  24.077  1.00  0.00     0.260 C 
ATOM     24  H   UNL A   1      35.051  24.985  22.705  1.00  0.00     0.346 HD
ATOM     25  H   UNL A   1      33.478  24.958  22.114  1.00  0.00     0.346 HD
ENDBRANCH  14  17
ENDBRANCH  12  13
ENDBRANCH   8  12
ENDBRANCH   4   7
ENDBRANCH   2   3
ENDBRANCH   1   2
BRANCH   1  26
ATOM     26  C   UNL A   1      44.406  24.407  27.011  1.00  0.00     0.118 C 
BRANCH  26  27
ATOM     27  N   UNL A   1      43.611  24.901  25.895  1.00  0.00    -0.352 N 
ATOM     28  C   UNL A   1      42.531  25.745  25.882  1.00  0.00     0.251 C 
ATOM     29  H   UNL A   1      43.894  24.577  25.010  1.00  0.00     0.163 HD
ATOM     30  O   UNL A   1      41.845  25.818  24.867  1.00  0.00    -0.269 OA
BRANCH  28  31
ATOM     31  C   UNL A   1      42.196  26.561  27.067  1.00  0.00     0.039 A 
ATOM     32  C   UNL A   1      42.820  27.801  27.227  1.00  0.00     0.014 A 
ATOM     33  C   UNL A   1      41.323  26.086  28.050  1.00  0.00     0.014 A 
ATOM     34  C   UNL A   1      42.544  28.575  28.357  1.00  0.00     0.010 A 
ATOM     35  C   UNL A   1      40.984  26.895  29.131  1.00  0.00     0.010 A 
ATOM     36  C   UNL A   1      41.610  28.137  29.308  1.00  0.00    -0.014 A 
BRANCH  36  37
ATOM     37  C   UNL A   1      41.300  28.953  30.508  1.00  0.00     0.031 A 
ATOM     38  C   UNL A   1      42.127  28.805  31.758  1.00  0.00     0.074 A 
ATOM     39  C   UNL A   1      40.251  29.797  30.482  1.00  0.00     0.049 A 
ATOM     40  N   UNL A   1      41.997  29.415  32.907  1.00  0.00    -0.248 NA
ATOM     41  C   UNL A   1      43.227  27.827  31.720  1.00  0.00     0.031 C 
ATOM     42  C   UNL A   1      39.350  29.995  29.342  1.00  0.00     0.029 A 
ATOM     43  N   UNL A   1      39.764  30.649  31.440  1.00  0.00    -0.354 N 
ATOM     44  C   UNL A   1      42.984  28.884  33.731  1.00  0.00     0.074 A 
ATOM     45  C   UNL A   1      43.667  27.863  32.970  1.00  0.00     0.031 C 
ATOM     46  C   UNL A   1      38.445  30.935  29.656  1.00  0.00     0.029 A 
ATOM     47  C   UNL A   1      38.672  31.377  31.029  1.00  0.00     0.049 A 
ATOM     48  H   UNL A   1      40.159  30.732  32.338  1.00  0.00     0.167 HD
ATOM     49  C   UNL A   1      43.308  29.231  35.001  1.00  0.00     0.031 A 
ATOM     50  C   UNL A   1      37.936  32.296  31.681  1.00  0.00     0.031 A 
ATOM     51  C   UNL A   1      42.630  30.256  35.750  1.00  0.00     0.049 A 
ATOM     52  C   UNL A   1      38.316  32.665  33.089  1.00  0.00     0.074 A 
ATOM     53  C   UNL A   1      42.910  30.720  37.023  1.00  0.00     0.029 A 
ATOM     54  N   UNL A   1      41.535  30.976  35.293  1.00  0.00    -0.354 N 
ATOM     55  N   UNL A   1      39.293  32.196  33.830  1.00  0.00    -0.248 NA
ATOM     56  C   UNL A   1      37.507  33.702  33.742  1.00  0.00     0.031 C 
ATOM     57  C   UNL A   1      41.952  31.683  37.357  1.00  0.00     0.029 A 
ATOM     58  C   UNL A   1      41.116  31.866  36.267  1.00  0.00     0.049 A 
ATOM     59  H   UNL A   1      41.119  30.870  34.408  1.00  0.00     0.167 HD
ATOM     60  C   UNL A   1      39.234  32.904  35.025  1.00  0.00     0.074 A 
ATOM     61  C   UNL A   1      38.138  33.844  34.899  1.00  0.00     0.031 C 
ATOM     62  C   UNL A   1      40.020  32.791  36.126  1.00  0.00     0.031 A 
BRANCH  49  63
ATOM     63  C   UNL A   1      44.445  28.490  35.658  1.00  0.00    -0.014 A 
ATOM     64  C   UNL A   1      45.770  28.955  35.565  1.00  0.00     0.010 A 
ATOM     65  C   UNL A   1      44.181  27.331  36.410  1.00  0.00     0.010 A 
ATOM     66  C   UNL A   1      46.814  28.252  36.173  1.00  0.00     0.020 A 
ATOM     67  C   UNL A   1      45.218  26.642  37.047  1.00  0.00     0.020 A 
ATOM     68  C   UNL A   1      46.531  27.098  36.908  1.00  0.00     0.054 A 
BRANCH  68  69
ATOM     69  S   UNL A   1      47.903  26.220  37.706  1.00  0.00     0.124 S 
ATOM     70  O   UNL A   1      48.711  27.326  38.215  1.00  0.00    -0.237 OA
ATOM     71  O   UNL A   1      47.225  25.419  38.722  1.00  0.00    -0.237 OA
ATOM     72  O   UNL A   1      48.508  25.458  36.617  1.00  0.00    -0.744 OA
ENDBRANCH  68  69
ENDBRANCH  49  63
BRANCH  50  73
ATOM     73  C   UNL A   1      36.785  32.947  31.000  1.00  0.00    -0.014 A 
ATOM     74  C   UNL A   1      35.464  32.628  31.362  1.00  0.00     0.010 A 
ATOM     75  C   UNL A   1      37.003  33.905  29.993  1.00  0.00     0.010 A 
ATOM     76  C   UNL A   1      34.385  33.237  30.715  1.00  0.00     0.020 A 
ATOM     77  C   UNL A   1      35.928  34.539  29.366  1.00  0.00     0.020 A 
ATOM     78  C   UNL A   1      34.624  34.191  29.722  1.00  0.00     0.054 A 
BRANCH  78  79
ATOM     79  S   UNL A   1      33.208  35.005  28.931  1.00  0.00     0.124 S 
ATOM     80  O   UNL A   1      33.833  36.175  28.321  1.00  0.00    -0.237 OA
ATOM     81  O   UNL A   1      32.735  33.983  28.002  1.00  0.00    -0.237 OA
ATOM     82  O   UNL A   1      32.309  35.287  30.047  1.00  0.00    -0.744 OA
ENDBRANCH  78  79
ENDBRANCH  50  73
BRANCH  62  83
ATOM     83  C   UNL A   1      39.748  33.739  37.265  1.00  0.00    -0.014 A 
ATOM     84  C   UNL A   1      38.953  33.361  38.361  1.00  0.00     0.010 A 
ATOM     85  C   UNL A   1      40.329  35.020  37.249  1.00  0.00     0.010 A 
ATOM     86  C   UNL A   1      38.703  34.266  39.397  1.00  0.00     0.020 A 
ATOM     87  C   UNL A   1      40.109  35.916  38.297  1.00  0.00     0.020 A 
ATOM     88  C   UNL A   1      39.281  35.539  39.356  1.00  0.00     0.054 A 
BRANCH  88  89
ATOM     89  S   UNL A   1      38.957  36.689  40.720  1.00  0.00     0.124 S 
ATOM     90  O   UNL A   1      40.297  36.905  41.259  1.00  0.00    -0.237 OA
ATOM     91  O   UNL A   1      38.362  37.836  40.039  1.00  0.00    -0.237 OA
ATOM     92  O   UNL A   1      38.048  35.947  41.591  1.00  0.00    -0.744 OA
ENDBRANCH  88  89
ENDBRANCH  62  83
ENDBRANCH  36  37
ENDBRANCH  28  31
ENDBRANCH  26  27
ENDBRANCH   1  26
TORSDOF 16
ENDMDL
MODEL 2
REMARK VINA RESULT:     -11.0      1.634      3.071
REMARK SMILES C[C@]1(C(=O)NCc2ccc(C(=O)NCCCNC(=O)c3ccc(-c4c5nc(c(-c6ccc(S(=O)(=O)[O-])cc6)c6ccc([nH]6)c(-c6ccc(S(=O)(=O)[O-])cc6)c6nc(c(-c7ccc(S(=O)(=O)[O-])cc7)c7ccc4[nH]7)C=C6)C=C5)cc3)o2)CCC[NH2+]C1
REMARK SMILES IDX 15 1 14 2 13 3 11 4 12 5 10 7 7 8 8 9 80 10 9 11 6 12 5 13
REMARK SMILES IDX 3 14 4 15 2 17 1 18 81 19 85 20 82 21 84 22 83 23 16 26
REMARK SMILES IDX 17 27 18 28 19 30 20 31 21 32 79 33 22 34 78 35 23 36 24 37
REMARK SMILES IDX 25 38 72 39 26 40 77 41 71 42 73 43 27 44 76 45 70 46 69 47
REMARK SMILES IDX 28 49 58 50 39 51 57 52 40 53 43 54 56 55 74 56 41 57 42 58
REMARK SMILES IDX 55 60 75 61 44 62 29 63 30 64 38 65 31 66 37 67 32 68 33 69
REMARK SMILES IDX 34 70 35 71 36 72 59 73 60 74 68 75 61 76 67 77 62 78 63 79
REMARK SMILES IDX 64 80 65 81 66 82 45 83 46 84 54 85 47 86 53 87 48 88 49 89
REMARK SMILES IDX 50 90 51 91 52 92
REMARK H PARENT 13 6 5 16 84 24 84 25 17 29 73 48 43 59
REMARK Flexibility Score: inf
ROOT
ATOM      1  C   UNL A   1      39.405  22.216  26.324  1.00  0.00     0.042 C 
ENDROOT
BRANCH   1   2
ATOM      2  C   UNL A   1      37.923  22.449  26.053  1.00  0.00     0.118 C 
BRANCH   2   3
ATOM      3  N   UNL A   1      37.678  22.777  24.665  1.00  0.00    -0.349 N 
ATOM      4  C   UNL A   1      36.594  22.485  23.868  1.00  0.00     0.286 C 
ATOM      5  O   UNL A   1      36.560  23.025  22.766  1.00  0.00    -0.266 OA
ATOM      6  H   UNL A   1      38.396  23.287  24.224  1.00  0.00     0.163 HD
BRANCH   4   7
ATOM      7  C   UNL A   1      35.552  21.605  24.361  1.00  0.00     0.191 A 
ATOM      8  C   UNL A   1      33.439  21.059  24.696  1.00  0.00     0.124 A 
ATOM      9  C   UNL A   1      34.190  20.061  25.275  1.00  0.00     0.048 A 
ATOM     10  O   UNL A   1      34.256  21.995  24.141  1.00  0.00    -0.454 OA
ATOM     11  C   UNL A   1      35.542  20.396  25.034  1.00  0.00     0.056 A 
BRANCH   8  12
ATOM     12  C   UNL A   1      31.984  21.309  24.638  1.00  0.00     0.191 C 
BRANCH  12  13
ATOM     13  N   UNL A   1      31.500  21.919  25.853  1.00  0.00    -0.348 N 
ATOM     14  C   UNL A   1      31.222  23.179  26.250  1.00  0.00     0.232 C 
ATOM     15  O   UNL A   1      30.606  23.245  27.325  1.00  0.00    -0.274 OA
ATOM     16  H   UNL A   1      31.334  21.258  26.563  1.00  0.00     0.163 HD
BRANCH  14  17
ATOM     17  C   UNL A   1      31.746  24.478  25.591  1.00  0.00     0.095 C 
ATOM     18  C   UNL A   1      33.190  24.630  26.134  1.00  0.00     0.028 C 
ATOM     19  C   UNL A   1      31.808  24.604  24.060  1.00  0.00     0.028 C 
ATOM     20  C   UNL A   1      30.892  25.661  26.127  1.00  0.00     0.277 C 
ATOM     21  C   UNL A   1      30.434  24.784  23.417  1.00  0.00     0.063 C 
ATOM     22  N   UNL A   1      29.561  25.732  25.502  1.00  0.00    -0.345 N 
ATOM     23  C   UNL A   1      29.657  25.925  24.059  1.00  0.00     0.260 C 
ATOM     24  H   UNL A   1      29.062  24.862  25.687  1.00  0.00     0.346 HD
ATOM     25  H   UNL A   1      29.064  26.529  25.899  1.00  0.00     0.346 HD
ENDBRANCH  14  17
ENDBRANCH  12  13
ENDBRANCH   8  12
ENDBRANCH   4   7
ENDBRANCH   2   3
ENDBRANCH   1   2
BRANCH   1  26
ATOM     26  C   UNL A   1      40.093  23.421  26.957  1.00  0.00     0.118 C 
BRANCH  26  27
ATOM     27  N   UNL A   1      41.005  24.072  26.027  1.00  0.00    -0.352 N 
ATOM     28  C   UNL A   1      41.458  25.364  25.989  1.00  0.00     0.251 C 
ATOM     29  H   UNL A   1      41.352  23.490  25.313  1.00  0.00     0.163 HD
ATOM     30  O   UNL A   1      42.006  25.773  24.969  1.00  0.00    -0.269 OA
BRANCH  28  31
ATOM     31  C   UNL A   1      41.296  26.257  27.155  1.00  0.00     0.039 A 
ATOM     32  C   UNL A   1      40.358  25.920  28.134  1.00  0.00     0.014 A 
ATOM     33  C   UNL A   1      42.012  27.453  27.256  1.00  0.00     0.014 A 
ATOM     34  C   UNL A   1      40.163  26.767  29.227  1.00  0.00     0.010 A 
ATOM     35  C   UNL A   1      41.880  28.251  28.389  1.00  0.00     0.010 A 
ATOM     36  C   UNL A   1      40.936  27.929  29.373  1.00  0.00    -0.014 A 
BRANCH  36  37
ATOM     37  C   UNL A   1      40.747  28.833  30.535  1.00  0.00     0.031 A 
ATOM     38  C   UNL A   1      41.615  28.686  31.757  1.00  0.00     0.074 A 
ATOM     39  C   UNL A   1      39.769  29.758  30.503  1.00  0.00     0.049 A 
ATOM     40  N   UNL A   1      41.587  29.366  32.873  1.00  0.00    -0.248 NA
ATOM     41  C   UNL A   1      42.631  27.619  31.732  1.00  0.00     0.031 C 
ATOM     42  C   UNL A   1      38.836  29.967  29.391  1.00  0.00     0.029 A 
ATOM     43  N   UNL A   1      39.395  30.698  31.429  1.00  0.00    -0.354 N 
ATOM     44  C   UNL A   1      42.564  28.802  33.686  1.00  0.00     0.074 A 
ATOM     45  C   UNL A   1      43.128  27.687  32.958  1.00  0.00     0.031 C 
ATOM     46  C   UNL A   1      38.024  30.994  29.686  1.00  0.00     0.029 A 
ATOM     47  C   UNL A   1      38.348  31.490  31.020  1.00  0.00     0.049 A 
ATOM     48  H   UNL A   1      39.836  30.797  32.303  1.00  0.00     0.167 HD
ATOM     49  C   UNL A   1      42.972  29.190  34.919  1.00  0.00     0.031 A 
ATOM     50  C   UNL A   1      37.719  32.501  31.648  1.00  0.00     0.031 A 
ATOM     51  C   UNL A   1      42.414  30.306  35.634  1.00  0.00     0.049 A 
ATOM     52  C   UNL A   1      38.191  32.914  33.015  1.00  0.00     0.074 A 
ATOM     53  C   UNL A   1      42.787  30.816  36.865  1.00  0.00     0.029 A 
ATOM     54  N   UNL A   1      41.360  31.088  35.181  1.00  0.00    -0.354 N 
ATOM     55  N   UNL A   1      39.159  32.407  33.741  1.00  0.00    -0.248 NA
ATOM     56  C   UNL A   1      37.497  34.048  33.638  1.00  0.00     0.031 C 
ATOM     57  C   UNL A   1      41.926  31.870  37.181  1.00  0.00     0.029 A 
ATOM     58  C   UNL A   1      41.058  32.062  36.117  1.00  0.00     0.049 A 
ATOM     59  H   UNL A   1      40.897  30.968  34.321  1.00  0.00     0.167 HD
ATOM     60  C   UNL A   1      39.211  33.183  34.894  1.00  0.00     0.074 A 
ATOM     61  C   UNL A   1      38.189  34.201  34.759  1.00  0.00     0.031 C 
ATOM     62  C   UNL A   1      40.034  33.066  35.967  1.00  0.00     0.031 A 
BRANCH  49  63
ATOM     63  C   UNL A   1      44.074  28.395  35.572  1.00  0.00    -0.014 A 
ATOM     64  C   UNL A   1      43.810  27.169  36.210  1.00  0.00     0.010 A 
ATOM     65  C   UNL A   1      45.400  28.862  35.517  1.00  0.00     0.010 A 
ATOM     66  C   UNL A   1      44.842  26.448  36.820  1.00  0.00     0.020 A 
ATOM     67  C   UNL A   1      46.441  28.128  36.096  1.00  0.00     0.020 A 
ATOM     68  C   UNL A   1      46.151  26.935  36.760  1.00  0.00     0.054 A 
BRANCH  68  69
ATOM     69  S   UNL A   1      47.472  25.966  37.538  1.00  0.00     0.124 S 
ATOM     70  O   UNL A   1      47.988  26.905  38.531  1.00  0.00    -0.237 OA
ATOM     71  O   UNL A   1      46.752  24.815  38.077  1.00  0.00    -0.237 OA
ATOM     72  O   UNL A   1      48.380  25.668  36.434  1.00  0.00    -0.744 OA
ENDBRANCH  68  69
ENDBRANCH  49  63
BRANCH  50  73
ATOM     73  C   UNL A   1      36.594  33.207  30.977  1.00  0.00    -0.014 A 
ATOM     74  C   UNL A   1      35.300  33.178  31.528  1.00  0.00     0.010 A 
ATOM     75  C   UNL A   1      36.813  33.927  29.788  1.00  0.00     0.010 A 
ATOM     76  C   UNL A   1      34.244  33.837  30.891  1.00  0.00     0.020 A 
ATOM     77  C   UNL A   1      35.767  34.612  29.166  1.00  0.00     0.020 A 
ATOM     78  C   UNL A   1      34.485  34.552  29.714  1.00  0.00     0.054 A 
BRANCH  78  79
ATOM     79  S   UNL A   1      33.110  35.441  28.933  1.00  0.00     0.124 S 
ATOM     80  O   UNL A   1      32.464  34.384  28.162  1.00  0.00    -0.237 OA
ATOM     81  O   UNL A   1      32.359  35.935  30.084  1.00  0.00    -0.237 OA
ATOM     82  O   UNL A   1      33.776  36.474  28.143  1.00  0.00    -0.744 OA
ENDBRANCH  78  79
ENDBRANCH  50  73
BRANCH  62  83
ATOM     83  C   UNL A   1      39.891  34.094  37.059  1.00  0.00    -0.014 A 
ATOM     84  C   UNL A   1      39.097  33.854  38.194  1.00  0.00     0.010 A 
ATOM     85  C   UNL A   1      40.594  35.309  36.958  1.00  0.00     0.010 A 
ATOM     86  C   UNL A   1      38.969  34.832  39.185  1.00  0.00     0.020 A 
ATOM     87  C   UNL A   1      40.494  36.275  37.961  1.00  0.00     0.020 A 
ATOM     88  C   UNL A   1      39.666  36.038  39.059  1.00  0.00     0.054 A 
BRANCH  88  89
ATOM     89  S   UNL A   1      39.498  37.284  40.366  1.00  0.00     0.124 S 
ATOM     90  O   UNL A   1      40.775  37.165  41.064  1.00  0.00    -0.237 OA
ATOM     91  O   UNL A   1      39.308  38.519  39.610  1.00  0.00    -0.237 OA
ATOM     92  O   UNL A   1      38.331  36.836  41.123  1.00  0.00    -0.744 OA
ENDBRANCH  88  89
ENDBRANCH  62  83
ENDBRANCH  36  37
ENDBRANCH  28  31
ENDBRANCH  26  27
ENDBRANCH   1  26
TORSDOF 16
ENDMDL
MODEL 3
REMARK VINA RESULT:     -10.9      3.868      5.869
REMARK SMILES C[C@]1(C(=O)NCc2ccc(C(=O)NCCCNC(=O)c3ccc(-c4c5nc(c(-c6ccc(S(=O)(=O)[O-])cc6)c6ccc([nH]6)c(-c6ccc(S(=O)(=O)[O-])cc6)c6nc(c(-c7ccc(S(=O)(=O)[O-])cc7)c7ccc4[nH]7)C=C6)C=C5)cc3)o2)CCC[NH2+]C1
REMARK SMILES IDX 15 1 14 2 13 3 11 4 12 5 10 7 7 8 8 9 80 10 9 11 6 12 5 13
REMARK SMILES IDX 3 14 4 15 2 17 1 18 81 19 85 20 82 21 84 22 83 23 16 26
REMARK SMILES IDX 17 27 18 28 19 30 20 31 21 32 79 33 22 34 78 35 23 36 24 37
REMARK SMILES IDX 25 38 72 39 26 40 77 41 71 42 73 43 27 44 76 45 70 46 69 47
REMARK SMILES IDX 28 49 58 50 39 51 57 52 40 53 43 54 56 55 74 56 41 57 42 58
REMARK SMILES IDX 55 60 75 61 44 62 29 63 30 64 38 65 31 66 37 67 32 68 33 69
REMARK SMILES IDX 34 70 35 71 36 72 59 73 60 74 68 75 61 76 67 77 62 78 63 79
REMARK SMILES IDX 64 80 65 81 66 82 45 83 46 84 54 85 47 86 53 87 48 88 49 89
REMARK SMILES IDX 50 90 51 91 52 92
REMARK H PARENT 13 6 5 16 84 24 84 25 17 29 73 48 43 59
REMARK Flexibility Score: inf
ROOT
ATOM      1  C   UNL A   1      35.128  23.146  25.583  1.00  0.00     0.042 C 
ENDROOT
BRANCH   1   2
ATOM      2  C   UNL A   1      34.921  22.074  24.518  1.00  0.00     0.118 C 
BRANCH   2   3
ATOM      3  N   UNL A   1      33.962  21.076  24.944  1.00  0.00    -0.349 N 
ATOM      4  C   UNL A   1      32.589  21.079  24.855  1.00  0.00     0.286 C 
ATOM      5  O   UNL A   1      32.017  20.031  25.141  1.00  0.00    -0.266 OA
ATOM      6  H   UNL A   1      34.353  20.273  25.360  1.00  0.00     0.163 HD
BRANCH   4   7
ATOM      7  C   UNL A   1      31.896  22.273  24.409  1.00  0.00     0.191 A 
ATOM      8  C   UNL A   1      30.853  24.186  24.764  1.00  0.00     0.124 A 
ATOM      9  C   UNL A   1      30.825  23.980  23.403  1.00  0.00     0.048 A 
ATOM     10  O   UNL A   1      31.500  23.158  25.378  1.00  0.00    -0.454 OA
ATOM     11  C   UNL A   1      31.519  22.771  23.174  1.00  0.00     0.056 A 
BRANCH   8  12
ATOM     12  C   UNL A   1      30.273  25.235  25.628  1.00  0.00     0.191 C 
BRANCH  12  13
ATOM     13  N   UNL A   1      29.912  26.408  24.872  1.00  0.00    -0.348 N 
ATOM     14  C   UNL A   1      30.586  27.442  24.322  1.00  0.00     0.232 C 
ATOM     15  O   UNL A   1      29.903  28.136  23.552  1.00  0.00    -0.274 OA
ATOM     16  H   UNL A   1      28.941  26.472  24.721  1.00  0.00     0.163 HD
BRANCH  14  17
ATOM     17  C   UNL A   1      32.013  27.903  24.702  1.00  0.00     0.095 C 
ATOM     18  C   UNL A   1      31.938  28.171  26.227  1.00  0.00     0.028 C 
ATOM     19  C   UNL A   1      33.221  26.986  24.449  1.00  0.00     0.028 C 
ATOM     20  C   UNL A   1      32.286  29.252  23.978  1.00  0.00     0.277 C 
ATOM     21  C   UNL A   1      33.602  26.890  22.972  1.00  0.00     0.063 C 
ATOM     22  N   UNL A   1      32.586  29.079  22.548  1.00  0.00    -0.345 N 
ATOM     23  C   UNL A   1      33.780  28.266  22.346  1.00  0.00     0.260 C 
ATOM     24  H   UNL A   1      31.794  28.623  22.096  1.00  0.00     0.346 HD
ATOM     25  H   UNL A   1      32.756  30.001  22.144  1.00  0.00     0.346 HD
ENDBRANCH  14  17
ENDBRANCH  12  13
ENDBRANCH   8  12
ENDBRANCH   4   7
ENDBRANCH   2   3
ENDBRANCH   1   2
BRANCH   1  26
ATOM     26  C   UNL A   1      36.518  23.771  25.537  1.00  0.00     0.118 C 
BRANCH  26  27
ATOM     27  N   UNL A   1      37.564  22.774  25.720  1.00  0.00    -0.352 N 
ATOM     28  C   UNL A   1      38.852  22.914  26.167  1.00  0.00     0.251 C 
ATOM     29  H   UNL A   1      37.303  21.854  25.486  1.00  0.00     0.163 HD
ATOM     30  O   UNL A   1      39.646  21.994  25.990  1.00  0.00    -0.269 OA
BRANCH  28  31
ATOM     31  C   UNL A   1      39.284  24.147  26.856  1.00  0.00     0.039 A 
ATOM     32  C   UNL A   1      40.055  25.076  26.151  1.00  0.00     0.014 A 
ATOM     33  C   UNL A   1      38.991  24.363  28.206  1.00  0.00     0.014 A 
ATOM     34  C   UNL A   1      40.504  26.232  26.792  1.00  0.00     0.010 A 
ATOM     35  C   UNL A   1      39.366  25.555  28.818  1.00  0.00     0.010 A 
ATOM     36  C   UNL A   1      40.147  26.491  28.125  1.00  0.00    -0.014 A 
BRANCH  36  37
ATOM     37  C   UNL A   1      40.609  27.720  28.816  1.00  0.00     0.031 A 
ATOM     38  C   UNL A   1      42.000  27.788  29.390  1.00  0.00     0.074 A 
ATOM     39  C   UNL A   1      39.762  28.758  28.959  1.00  0.00     0.049 A 
ATOM     40  N   UNL A   1      42.573  28.765  30.043  1.00  0.00    -0.248 NA
ATOM     41  C   UNL A   1      42.848  26.594  29.233  1.00  0.00     0.031 C 
ATOM     42  C   UNL A   1      38.376  28.792  28.482  1.00  0.00     0.029 A 
ATOM     43  N   UNL A   1      39.941  29.985  29.544  1.00  0.00    -0.354 N 
ATOM     44  C   UNL A   1      43.838  28.300  30.387  1.00  0.00     0.074 A 
ATOM     45  C   UNL A   1      43.927  26.934  29.922  1.00  0.00     0.031 C 
ATOM     46  C   UNL A   1      37.845  29.993  28.763  1.00  0.00     0.029 A 
ATOM     47  C   UNL A   1      38.834  30.797  29.473  1.00  0.00     0.049 A 
ATOM     48  H   UNL A   1      40.783  30.258  29.974  1.00  0.00     0.167 HD
ATOM     49  C   UNL A   1      44.844  28.958  31.014  1.00  0.00     0.031 A 
ATOM     50  C   UNL A   1      38.637  32.049  29.928  1.00  0.00     0.031 A 
ATOM     51  C   UNL A   1      44.752  30.321  31.465  1.00  0.00     0.049 A 
ATOM     52  C   UNL A   1      39.769  32.758  30.619  1.00  0.00     0.074 A 
ATOM     53  C   UNL A   1      45.728  31.097  32.065  1.00  0.00     0.029 A 
ATOM     54  N   UNL A   1      43.616  31.112  31.365  1.00  0.00    -0.354 N 
ATOM     55  N   UNL A   1      40.979  32.322  30.880  1.00  0.00    -0.248 NA
ATOM     56  C   UNL A   1      39.514  34.135  31.061  1.00  0.00     0.031 C 
ATOM     57  C   UNL A   1      45.166  32.339  32.377  1.00  0.00     0.029 A 
ATOM     58  C   UNL A   1      43.861  32.360  31.911  1.00  0.00     0.049 A 
ATOM     59  H   UNL A   1      42.763  30.827  30.965  1.00  0.00     0.167 HD
ATOM     60  C   UNL A   1      41.640  33.384  31.487  1.00  0.00     0.074 A 
ATOM     61  C   UNL A   1      40.700  34.486  31.538  1.00  0.00     0.031 C 
ATOM     62  C   UNL A   1      42.912  33.444  31.957  1.00  0.00     0.031 A 
BRANCH  49  63
ATOM     63  C   UNL A   1      46.129  28.205  31.250  1.00  0.00    -0.014 A 
ATOM     64  C   UNL A   1      46.330  27.455  32.425  1.00  0.00     0.010 A 
ATOM     65  C   UNL A   1      47.138  28.218  30.270  1.00  0.00     0.010 A 
ATOM     66  C   UNL A   1      47.531  26.771  32.634  1.00  0.00     0.020 A 
ATOM     67  C   UNL A   1      48.327  27.508  30.460  1.00  0.00     0.020 A 
ATOM     68  C   UNL A   1      48.523  26.804  31.650  1.00  0.00     0.054 A 
BRANCH  68  69
ATOM     69  S   UNL A   1      50.061  25.886  31.938  1.00  0.00     0.124 S 
ATOM     70  O   UNL A   1      50.111  25.011  30.769  1.00  0.00    -0.237 OA
ATOM     71  O   UNL A   1      51.065  26.945  31.972  1.00  0.00    -0.237 OA
ATOM     72  O   UNL A   1      49.828  25.210  33.211  1.00  0.00    -0.744 OA
ENDBRANCH  68  69
ENDBRANCH  49  63
BRANCH  50  73
ATOM     73  C   UNL A   1      37.323  32.717  29.720  1.00  0.00    -0.014 A 
ATOM     74  C   UNL A   1      36.253  32.482  30.602  1.00  0.00     0.010 A 
ATOM     75  C   UNL A   1      37.140  33.606  28.646  1.00  0.00     0.010 A 
ATOM     76  C   UNL A   1      35.018  33.106  30.399  1.00  0.00     0.020 A 
ATOM     77  C   UNL A   1      35.917  34.256  28.458  1.00  0.00     0.020 A 
ATOM     78  C   UNL A   1      34.859  33.991  29.329  1.00  0.00     0.054 A 
BRANCH  78  79
ATOM     79  S   UNL A   1      33.264  34.829  29.116  1.00  0.00     0.124 S 
ATOM     80  O   UNL A   1      32.719  34.795  30.469  1.00  0.00    -0.237 OA
ATOM     81  O   UNL A   1      33.662  36.146  28.626  1.00  0.00    -0.237 OA
ATOM     82  O   UNL A   1      32.567  33.993  28.140  1.00  0.00    -0.744 OA
ENDBRANCH  78  79
ENDBRANCH  50  73
BRANCH  62  83
ATOM     83  C   UNL A   1      43.374  34.760  32.525  1.00  0.00    -0.014 A 
ATOM     84  C   UNL A   1      43.974  35.741  31.716  1.00  0.00     0.010 A 
ATOM     85  C   UNL A   1      43.170  35.030  33.891  1.00  0.00     0.010 A 
ATOM     86  C   UNL A   1      44.408  36.947  32.273  1.00  0.00     0.020 A 
ATOM     87  C   UNL A   1      43.573  36.247  34.445  1.00  0.00     0.020 A 
ATOM     88  C   UNL A   1      44.207  37.190  33.635  1.00  0.00     0.054 A 
BRANCH  88  89
ATOM     89  S   UNL A   1      44.763  38.770  34.331  1.00  0.00     0.124 S 
ATOM     90  O   UNL A   1      45.223  38.372  35.658  1.00  0.00    -0.237 OA
ATOM     91  O   UNL A   1      45.811  39.181  33.400  1.00  0.00    -0.237 OA
ATOM     92  O   UNL A   1      43.560  39.599  34.312  1.00  0.00    -0.744 OA
ENDBRANCH  88  89
ENDBRANCH  62  83
ENDBRANCH  36  37
ENDBRANCH  28  31
ENDBRANCH  26  27
ENDBRANCH   1  26
TORSDOF 16
ENDMDL
