MODEL 1
REMARK VINA RESULT:     -12.0      0.000      0.000
REMARK SMILES O=C(NCCCNC(=O)c1cc(F)ccc1N1CCCc2ccccc21)c1ccc(-c2c3nc(c(-c4ccc(S(=O)(=O)[O-])cc4)c4ccc([nH]4)c(-c4ccc(S(=O)(=O)[O-])cc4)c4nc(c(-c5ccc(S(=O)(=O)[O-])cc5)c5ccc2[nH]5)C=C4)C=C3)cc1
REMARK SMILES IDX 4 1 3 2 1 3 2 4 27 6 28 7 86 8 29 9 85 10 30 11 31 12 32 13
REMARK SMILES IDX 79 14 33 15 84 16 78 17 80 18 34 19 83 20 77 21 76 22 35 24
REMARK SMILES IDX 65 25 46 26 64 27 47 28 50 29 63 30 81 31 48 32 49 33 62 35
REMARK SMILES IDX 82 36 51 37 36 38 37 39 45 40 38 41 44 42 39 43 40 44 41 45
REMARK SMILES IDX 42 46 43 47 66 48 67 49 75 50 68 51 74 52 69 53 70 54 71 55
REMARK SMILES IDX 72 56 73 57 52 58 53 59 61 60 54 61 60 62 55 63 56 64 57 65
REMARK SMILES IDX 58 66 59 67 5 68 6 69 7 70 8 71 9 73 10 74 11 75 16 76 12 77
REMARK SMILES IDX 15 78 13 79 14 80 17 81 18 82 26 83 19 84 21 85 25 86 20 87
REMARK SMILES IDX 22 88 24 89 23 90
REMARK H PARENT 3 5 80 23 50 34 7 72
REMARK Flexibility Score: inf
ROOT
ATOM      1  C   UNL A   1      34.054  28.641  25.731  1.00  0.00     0.118 C 
ENDROOT
BRANCH   1   2
ATOM      2  N   UNL A   1      33.724  29.882  26.414  1.00  0.00    -0.352 N 
ATOM      3  O   UNL A   1      33.793  31.479  27.990  1.00  0.00    -0.269 OA
ATOM      4  C   UNL A   1      34.358  30.533  27.444  1.00  0.00     0.251 C 
ATOM      5  H   UNL A   1      32.913  30.331  26.083  1.00  0.00     0.163 HD
BRANCH   4   6
ATOM      6  C   UNL A   1      35.692  30.099  27.916  1.00  0.00     0.039 A 
ATOM      7  C   UNL A   1      35.879  29.581  29.200  1.00  0.00     0.014 A 
ATOM      8  C   UNL A   1      36.771  30.161  27.028  1.00  0.00     0.014 A 
ATOM      9  C   UNL A   1      37.160  29.252  29.640  1.00  0.00     0.010 A 
ATOM     10  C   UNL A   1      38.042  29.759  27.445  1.00  0.00     0.010 A 
ATOM     11  C   UNL A   1      38.253  29.327  28.764  1.00  0.00    -0.014 A 
BRANCH  11  12
ATOM     12  C   UNL A   1      39.602  28.901  29.213  1.00  0.00     0.031 A 
ATOM     13  C   UNL A   1      40.491  29.841  29.978  1.00  0.00     0.074 A 
ATOM     14  C   UNL A   1      40.037  27.665  28.902  1.00  0.00     0.049 A 
ATOM     15  N   UNL A   1      41.719  29.656  30.393  1.00  0.00    -0.248 NA
ATOM     16  C   UNL A   1      39.934  31.161  30.312  1.00  0.00     0.031 C 
ATOM     17  C   UNL A   1      39.270  26.665  28.155  1.00  0.00     0.029 A 
ATOM     18  N   UNL A   1      41.230  27.043  29.163  1.00  0.00    -0.354 N 
ATOM     19  C   UNL A   1      42.093  30.844  31.009  1.00  0.00     0.074 A 
ATOM     20  C   UNL A   1      40.967  31.748  30.901  1.00  0.00     0.031 C 
ATOM     21  C   UNL A   1      40.007  25.553  28.027  1.00  0.00     0.029 A 
ATOM     22  C   UNL A   1      41.315  25.778  28.632  1.00  0.00     0.049 A 
ATOM     23  H   UNL A   1      41.956  27.461  29.681  1.00  0.00     0.167 HD
ATOM     24  C   UNL A   1      43.269  31.154  31.607  1.00  0.00     0.031 A 
ATOM     25  C   UNL A   1      42.339  24.904  28.603  1.00  0.00     0.031 A 
ATOM     26  C   UNL A   1      44.387  30.254  31.710  1.00  0.00     0.049 A 
ATOM     27  C   UNL A   1      43.639  25.271  29.254  1.00  0.00     0.074 A 
ATOM     28  C   UNL A   1      45.605  30.461  32.334  1.00  0.00     0.029 A 
ATOM     29  N   UNL A   1      44.429  28.979  31.163  1.00  0.00    -0.354 N 
ATOM     30  N   UNL A   1      43.958  26.383  29.872  1.00  0.00    -0.248 NA
ATOM     31  C   UNL A   1      44.712  24.270  29.210  1.00  0.00     0.031 C 
ATOM     32  C   UNL A   1      46.399  29.328  32.128  1.00  0.00     0.029 A 
ATOM     33  C   UNL A   1      45.660  28.396  31.415  1.00  0.00     0.049 A 
ATOM     34  H   UNL A   1      43.692  28.552  30.670  1.00  0.00     0.167 HD
ATOM     35  C   UNL A   1      45.267  26.211  30.304  1.00  0.00     0.074 A 
ATOM     36  C   UNL A   1      45.678  24.886  29.884  1.00  0.00     0.031 C 
ATOM     37  C   UNL A   1      46.054  27.076  30.989  1.00  0.00     0.031 A 
BRANCH  24  38
ATOM     38  C   UNL A   1      43.414  32.547  32.160  1.00  0.00    -0.014 A 
ATOM     39  C   UNL A   1      43.020  32.856  33.475  1.00  0.00     0.010 A 
ATOM     40  C   UNL A   1      43.951  33.563  31.348  1.00  0.00     0.010 A 
ATOM     41  C   UNL A   1      43.106  34.169  33.947  1.00  0.00     0.020 A 
ATOM     42  C   UNL A   1      44.059  34.873  31.826  1.00  0.00     0.020 A 
ATOM     43  C   UNL A   1      43.609  35.171  33.113  1.00  0.00     0.054 A 
BRANCH  43  44
ATOM     44  S   UNL A   1      43.680  36.875  33.735  1.00  0.00     0.124 S 
ATOM     45  O   UNL A   1      44.921  36.858  34.507  1.00  0.00    -0.237 OA
ATOM     46  O   UNL A   1      43.718  37.667  32.507  1.00  0.00    -0.237 OA
ATOM     47  O   UNL A   1      42.457  37.008  34.521  1.00  0.00    -0.744 OA
ENDBRANCH  43  44
ENDBRANCH  24  38
BRANCH  25  48
ATOM     48  C   UNL A   1      42.151  23.605  27.906  1.00  0.00    -0.014 A 
ATOM     49  C   UNL A   1      42.663  23.406  26.614  1.00  0.00     0.010 A 
ATOM     50  C   UNL A   1      41.548  22.527  28.581  1.00  0.00     0.010 A 
ATOM     51  C   UNL A   1      42.592  22.145  26.015  1.00  0.00     0.020 A 
ATOM     52  C   UNL A   1      41.495  21.261  27.994  1.00  0.00     0.020 A 
ATOM     53  C   UNL A   1      42.018  21.079  26.712  1.00  0.00     0.054 A 
BRANCH  53  54
ATOM     54  S   UNL A   1      42.043  19.425  25.966  1.00  0.00     0.124 S 
ATOM     55  O   UNL A   1      40.630  19.195  25.687  1.00  0.00    -0.237 OA
ATOM     56  O   UNL A   1      42.897  19.618  24.795  1.00  0.00    -0.237 OA
ATOM     57  O   UNL A   1      42.622  18.586  27.014  1.00  0.00    -0.744 OA
ENDBRANCH  53  54
ENDBRANCH  25  48
BRANCH  37  58
ATOM     58  C   UNL A   1      47.438  26.617  31.355  1.00  0.00    -0.014 A 
ATOM     59  C   UNL A   1      47.669  25.882  32.530  1.00  0.00     0.010 A 
ATOM     60  C   UNL A   1      48.501  26.845  30.463  1.00  0.00     0.010 A 
ATOM     61  C   UNL A   1      48.945  25.385  32.810  1.00  0.00     0.020 A 
ATOM     62  C   UNL A   1      49.774  26.333  30.731  1.00  0.00     0.020 A 
ATOM     63  C   UNL A   1      49.988  25.610  31.906  1.00  0.00     0.054 A 
BRANCH  63  64
ATOM     64  S   UNL A   1      51.615  24.883  32.247  1.00  0.00     0.124 S 
ATOM     65  O   UNL A   1      52.449  25.512  31.227  1.00  0.00    -0.237 OA
ATOM     66  O   UNL A   1      51.876  25.305  33.622  1.00  0.00    -0.237 OA
ATOM     67  O   UNL A   1      51.395  23.449  32.075  1.00  0.00    -0.744 OA
ENDBRANCH  63  64
ENDBRANCH  37  58
ENDBRANCH  11  12
ENDBRANCH   4   6
ENDBRANCH   1   2
BRANCH   1  68
ATOM     68  C   UNL A   1      33.555  27.406  26.470  1.00  0.00     0.042 C 
BRANCH  68  69
ATOM     69  C   UNL A   1      32.053  27.376  26.719  1.00  0.00     0.118 C 
BRANCH  69  70
ATOM     70  N   UNL A   1      31.514  26.023  26.771  1.00  0.00    -0.352 N 
ATOM     71  C   UNL A   1      31.189  25.150  25.763  1.00  0.00     0.253 C 
ATOM     72  H   UNL A   1      31.357  25.679  27.679  1.00  0.00     0.163 HD
ATOM     73  O   UNL A   1      30.699  24.061  26.057  1.00  0.00    -0.269 OA
BRANCH  71  74
ATOM     74  C   UNL A   1      31.466  25.502  24.352  1.00  0.00     0.066 A 
ATOM     75  C   UNL A   1      30.720  26.549  23.787  1.00  0.00     0.055 A 
ATOM     76  C   UNL A   1      32.517  24.908  23.622  1.00  0.00     0.054 A 
ATOM     77  C   UNL A   1      30.945  26.934  22.473  1.00  0.00     0.124 A 
ATOM     78  C   UNL A   1      32.716  25.329  22.289  1.00  0.00     0.030 A 
ATOM     79  F   UNL A   1      30.206  27.913  21.939  1.00  0.00    -0.207 F 
ATOM     80  C   UNL A   1      31.926  26.323  21.711  1.00  0.00     0.041 A 
BRANCH  76  81
ATOM     81  N   UNL A   1      33.411  23.951  24.137  1.00  0.00    -0.341 N 
ATOM     82  C   UNL A   1      34.633  24.438  24.784  1.00  0.00     0.123 C 
ATOM     83  C   UNL A   1      33.243  22.548  24.089  1.00  0.00     0.044 A 
ATOM     84  C   UNL A   1      34.787  23.762  26.142  1.00  0.00     0.027 C 
ATOM     85  C   UNL A   1      33.940  21.698  24.970  1.00  0.00    -0.024 A 
ATOM     86  C   UNL A   1      32.367  21.959  23.159  1.00  0.00     0.026 A 
ATOM     87  C   UNL A   1      34.927  22.255  25.965  1.00  0.00     0.039 C 
ATOM     88  C   UNL A   1      33.751  20.306  24.906  1.00  0.00     0.006 A 
ATOM     89  C   UNL A   1      32.186  20.577  23.099  1.00  0.00     0.002 A 
ATOM     90  C   UNL A   1      32.875  19.750  23.977  1.00  0.00     0.000 A 
ENDBRANCH  76  81
ENDBRANCH  71  74
ENDBRANCH  69  70
ENDBRANCH  68  69
ENDBRANCH   1  68
TORSDOF 14
ENDMDL
MODEL 2
REMARK VINA RESULT:     -11.8      2.669      9.267
REMARK SMILES O=C(NCCCNC(=O)c1cc(F)ccc1N1CCCc2ccccc21)c1ccc(-c2c3nc(c(-c4ccc(S(=O)(=O)[O-])cc4)c4ccc([nH]4)c(-c4ccc(S(=O)(=O)[O-])cc4)c4nc(c(-c5ccc(S(=O)(=O)[O-])cc5)c5ccc2[nH]5)C=C4)C=C3)cc1
REMARK SMILES IDX 4 1 3 2 1 3 2 4 27 6 28 7 86 8 29 9 85 10 30 11 31 12 32 13
REMARK SMILES IDX 79 14 33 15 84 16 78 17 80 18 34 19 83 20 77 21 76 22 35 24
REMARK SMILES IDX 65 25 46 26 64 27 47 28 50 29 63 30 81 31 48 32 49 33 62 35
REMARK SMILES IDX 82 36 51 37 36 38 37 39 45 40 38 41 44 42 39 43 40 44 41 45
REMARK SMILES IDX 42 46 43 47 66 48 67 49 75 50 68 51 74 52 69 53 70 54 71 55
REMARK SMILES IDX 72 56 73 57 52 58 53 59 61 60 54 61 60 62 55 63 56 64 57 65
REMARK SMILES IDX 58 66 59 67 5 68 6 69 7 70 8 71 9 73 10 74 11 75 16 76 12 77
REMARK SMILES IDX 15 78 13 79 14 80 17 81 18 82 26 83 19 84 21 85 25 86 20 87
REMARK SMILES IDX 22 88 24 89 23 90
REMARK H PARENT 3 5 80 23 50 34 7 72
REMARK Flexibility Score: inf
ROOT
ATOM      1  C   UNL A   1      36.239  23.431  26.128  1.00  0.00     0.118 C 
ENDROOT
BRANCH   1   2
ATOM      2  N   UNL A   1      37.386  22.541  26.029  1.00  0.00    -0.352 N 
ATOM      3  O   UNL A   1      39.539  21.914  25.927  1.00  0.00    -0.269 OA
ATOM      4  C   UNL A   1      38.721  22.772  26.255  1.00  0.00     0.251 C 
ATOM      5  H   UNL A   1      37.169  21.621  25.755  1.00  0.00     0.163 HD
BRANCH   4   6
ATOM      6  C   UNL A   1      39.185  24.038  26.864  1.00  0.00     0.039 A 
ATOM      7  C   UNL A   1      38.950  24.330  28.210  1.00  0.00     0.014 A 
ATOM      8  C   UNL A   1      39.925  24.929  26.079  1.00  0.00     0.014 A 
ATOM      9  C   UNL A   1      39.334  25.563  28.734  1.00  0.00     0.010 A 
ATOM     10  C   UNL A   1      40.377  26.132  26.626  1.00  0.00     0.010 A 
ATOM     11  C   UNL A   1      40.061  26.473  27.951  1.00  0.00    -0.014 A 
BRANCH  11  12
ATOM     12  C   UNL A   1      40.536  27.751  28.536  1.00  0.00     0.031 A 
ATOM     13  C   UNL A   1      41.939  27.882  29.061  1.00  0.00     0.074 A 
ATOM     14  C   UNL A   1      39.684  28.790  28.621  1.00  0.00     0.049 A 
ATOM     15  N   UNL A   1      42.500  28.902  29.659  1.00  0.00    -0.248 NA
ATOM     16  C   UNL A   1      42.821  26.716  28.901  1.00  0.00     0.031 C 
ATOM     17  C   UNL A   1      38.295  28.782  28.157  1.00  0.00     0.029 A 
ATOM     18  N   UNL A   1      39.856  30.049  29.137  1.00  0.00    -0.354 N 
ATOM     19  C   UNL A   1      43.790  28.492  29.975  1.00  0.00     0.074 A 
ATOM     20  C   UNL A   1      43.923  27.126  29.514  1.00  0.00     0.031 C 
ATOM     21  C   UNL A   1      37.745  29.980  28.399  1.00  0.00     0.029 A 
ATOM     22  C   UNL A   1      38.720  30.821  29.084  1.00  0.00     0.049 A 
ATOM     23  H   UNL A   1      40.709  30.369  29.509  1.00  0.00     0.167 HD
ATOM     24  C   UNL A   1      44.772  29.191  30.595  1.00  0.00     0.031 A 
ATOM     25  C   UNL A   1      38.474  32.057  29.559  1.00  0.00     0.031 A 
ATOM     26  C   UNL A   1      44.635  30.548  31.053  1.00  0.00     0.049 A 
ATOM     27  C   UNL A   1      39.568  32.808  30.258  1.00  0.00     0.074 A 
ATOM     28  C   UNL A   1      45.586  31.354  31.654  1.00  0.00     0.029 A 
ATOM     29  N   UNL A   1      43.469  31.295  30.974  1.00  0.00    -0.354 N 
ATOM     30  N   UNL A   1      40.796  32.420  30.507  1.00  0.00    -0.248 NA
ATOM     31  C   UNL A   1      39.248  34.159  30.737  1.00  0.00     0.031 C 
ATOM     32  C   UNL A   1      44.983  32.574  31.977  1.00  0.00     0.029 A 
ATOM     33  C   UNL A   1      43.669  32.545  31.536  1.00  0.00     0.049 A 
ATOM     34  H   UNL A   1      42.624  30.984  30.576  1.00  0.00     0.167 HD
ATOM     35  C   UNL A   1      41.402  33.486  31.160  1.00  0.00     0.074 A 
ATOM     36  C   UNL A   1      40.410  34.536  31.261  1.00  0.00     0.031 C 
ATOM     37  C   UNL A   1      42.669  33.581  31.630  1.00  0.00     0.031 A 
BRANCH  24  38
ATOM     38  C   UNL A   1      46.071  28.473  30.848  1.00  0.00    -0.014 A 
ATOM     39  C   UNL A   1      47.115  28.496  29.904  1.00  0.00     0.010 A 
ATOM     40  C   UNL A   1      46.249  27.763  32.049  1.00  0.00     0.010 A 
ATOM     41  C   UNL A   1      48.289  27.772  30.132  1.00  0.00     0.020 A 
ATOM     42  C   UNL A   1      47.432  27.057  32.290  1.00  0.00     0.020 A 
ATOM     43  C   UNL A   1      48.432  27.044  31.317  1.00  0.00     0.054 A 
BRANCH  43  44
ATOM     44  S   UNL A   1      49.950  26.085  31.577  1.00  0.00     0.124 S 
ATOM     45  O   UNL A   1      50.826  27.076  32.200  1.00  0.00    -0.237 OA
ATOM     46  O   UNL A   1      49.505  25.005  32.455  1.00  0.00    -0.237 OA
ATOM     47  O   UNL A   1      50.334  25.671  30.231  1.00  0.00    -0.744 OA
ENDBRANCH  43  44
ENDBRANCH  24  38
BRANCH  25  48
ATOM     48  C   UNL A   1      37.113  32.630  29.391  1.00  0.00    -0.014 A 
ATOM     49  C   UNL A   1      36.182  32.581  30.440  1.00  0.00     0.010 A 
ATOM     50  C   UNL A   1      36.786  33.323  28.210  1.00  0.00     0.010 A 
ATOM     51  C   UNL A   1      34.950  33.231  30.318  1.00  0.00     0.020 A 
ATOM     52  C   UNL A   1      35.564  33.991  28.094  1.00  0.00     0.020 A 
ATOM     53  C   UNL A   1      34.654  33.941  29.151  1.00  0.00     0.054 A 
BRANCH  53  54
ATOM     54  S   UNL A   1      33.101  34.876  29.061  1.00  0.00     0.124 S 
ATOM     55  O   UNL A   1      32.607  34.776  30.430  1.00  0.00    -0.237 OA
ATOM     56  O   UNL A   1      33.553  36.203  28.646  1.00  0.00    -0.237 OA
ATOM     57  O   UNL A   1      32.324  34.152  28.057  1.00  0.00    -0.744 OA
ENDBRANCH  53  54
ENDBRANCH  25  48
BRANCH  37  58
ATOM     58  C   UNL A   1      43.075  34.875  32.279  1.00  0.00    -0.014 A 
ATOM     59  C   UNL A   1      43.726  35.881  31.544  1.00  0.00     0.010 A 
ATOM     60  C   UNL A   1      42.715  35.121  33.617  1.00  0.00     0.010 A 
ATOM     61  C   UNL A   1      44.014  37.112  32.139  1.00  0.00     0.020 A 
ATOM     62  C   UNL A   1      42.986  36.358  34.208  1.00  0.00     0.020 A 
ATOM     63  C   UNL A   1      43.638  37.344  33.466  1.00  0.00     0.054 A 
BRANCH  63  64
ATOM     64  S   UNL A   1      43.946  38.979  34.190  1.00  0.00     0.124 S 
ATOM     65  O   UNL A   1      44.009  38.672  35.616  1.00  0.00    -0.237 OA
ATOM     66  O   UNL A   1      45.212  39.372  33.575  1.00  0.00    -0.237 OA
ATOM     67  O   UNL A   1      42.787  39.765  33.772  1.00  0.00    -0.744 OA
ENDBRANCH  63  64
ENDBRANCH  37  58
ENDBRANCH  11  12
ENDBRANCH   4   6
ENDBRANCH   1   2
BRANCH   1  68
ATOM     68  C   UNL A   1      35.729  23.895  24.769  1.00  0.00     0.042 C 
BRANCH  68  69
ATOM     69  C   UNL A   1      34.899  25.171  24.802  1.00  0.00     0.118 C 
BRANCH  69  70
ATOM     70  N   UNL A   1      34.066  25.336  23.618  1.00  0.00    -0.352 N 
ATOM     71  C   UNL A   1      32.783  24.918  23.361  1.00  0.00     0.253 C 
ATOM     72  H   UNL A   1      34.493  25.828  22.881  1.00  0.00     0.163 HD
ATOM     73  O   UNL A   1      32.299  25.140  22.253  1.00  0.00    -0.269 OA
BRANCH  71  74
ATOM     74  C   UNL A   1      31.989  24.252  24.419  1.00  0.00     0.066 A 
ATOM     75  C   UNL A   1      32.030  22.849  24.472  1.00  0.00     0.055 A 
ATOM     76  C   UNL A   1      31.310  24.979  25.419  1.00  0.00     0.054 A 
ATOM     77  C   UNL A   1      31.317  22.170  25.450  1.00  0.00     0.124 A 
ATOM     78  C   UNL A   1      30.600  24.251  26.398  1.00  0.00     0.030 A 
ATOM     79  F   UNL A   1      31.341  20.831  25.471  1.00  0.00    -0.207 F 
ATOM     80  C   UNL A   1      30.588  22.856  26.405  1.00  0.00     0.041 A 
BRANCH  76  81
ATOM     81  N   UNL A   1      31.320  26.382  25.538  1.00  0.00    -0.341 N 
ATOM     82  C   UNL A   1      32.131  26.969  26.609  1.00  0.00     0.123 C 
ATOM     83  C   UNL A   1      30.615  27.289  24.715  1.00  0.00     0.044 A 
ATOM     84  C   UNL A   1      33.011  28.070  26.028  1.00  0.00     0.027 C 
ATOM     85  C   UNL A   1      30.997  28.642  24.626  1.00  0.00    -0.024 A 
ATOM     86  C   UNL A   1      29.509  26.864  23.957  1.00  0.00     0.026 A 
ATOM     87  C   UNL A   1      32.145  29.179  25.442  1.00  0.00     0.039 C 
ATOM     88  C   UNL A   1      30.282  29.524  23.796  1.00  0.00     0.006 A 
ATOM     89  C   UNL A   1      28.803  27.744  23.137  1.00  0.00     0.002 A 
ATOM     90  C   UNL A   1      29.193  29.075  23.052  1.00  0.00     0.000 A 
ENDBRANCH  76  81
ENDBRANCH  71  74
ENDBRANCH  69  70
ENDBRANCH  68  69
ENDBRANCH   1  68
TORSDOF 14
ENDMDL
MODEL 3
REMARK VINA RESULT:     -11.8      4.352     10.117
REMARK SMILES O=C(NCCCNC(=O)c1cc(F)ccc1N1CCCc2ccccc21)c1ccc(-c2c3nc(c(-c4ccc(S(=O)(=O)[O-])cc4)c4ccc([nH]4)c(-c4ccc(S(=O)(=O)[O-])cc4)c4nc(c(-c5ccc(S(=O)(=O)[O-])cc5)c5ccc2[nH]5)C=C4)C=C3)cc1
REMARK SMILES IDX 4 1 3 2 1 3 2 4 27 6 28 7 86 8 29 9 85 10 30 11 31 12 32 13
REMARK SMILES IDX 79 14 33 15 84 16 78 17 80 18 34 19 83 20 77 21 76 22 35 24
REMARK SMILES IDX 65 25 46 26 64 27 47 28 50 29 63 30 81 31 48 32 49 33 62 35
REMARK SMILES IDX 82 36 51 37 36 38 37 39 45 40 38 41 44 42 39 43 40 44 41 45
REMARK SMILES IDX 42 46 43 47 66 48 67 49 75 50 68 51 74 52 69 53 70 54 71 55
REMARK SMILES IDX 72 56 73 57 52 58 53 59 61 60 54 61 60 62 55 63 56 64 57 65
REMARK SMILES IDX 58 66 59 67 5 68 6 69 7 70 8 71 9 73 10 74 11 75 16 76 12 77
REMARK SMILES IDX 15 78 13 79 14 80 17 81 18 82 26 83 19 84 21 85 25 86 20 87
REMARK SMILES IDX 22 88 24 89 23 90
REMARK H PARENT 3 5 80 23 50 34 7 72
REMARK Flexibility Score: inf
ROOT
ATOM      1  C   UNL A   1      38.052  24.132  26.459  1.00  0.00     0.118 C 
ENDROOT
BRANCH   1   2
ATOM      2  N   UNL A   1      39.438  23.922  26.071  1.00  0.00    -0.352 N 
ATOM      3  O   UNL A   1      41.624  24.364  25.816  1.00  0.00    -0.269 OA
ATOM      4  C   UNL A   1      40.578  24.607  26.415  1.00  0.00     0.251 C 
ATOM      5  H   UNL A   1      39.584  23.164  25.461  1.00  0.00     0.163 HD
BRANCH   4   6
ATOM      6  C   UNL A   1      40.559  25.639  27.475  1.00  0.00     0.039 A 
ATOM      7  C   UNL A   1      41.423  26.736  27.442  1.00  0.00     0.014 A 
ATOM      8  C   UNL A   1      39.609  25.535  28.497  1.00  0.00     0.014 A 
ATOM      9  C   UNL A   1      41.432  27.651  28.493  1.00  0.00     0.010 A 
ATOM     10  C   UNL A   1      39.567  26.495  29.511  1.00  0.00     0.010 A 
ATOM     11  C   UNL A   1      40.497  27.545  29.534  1.00  0.00    -0.014 A 
BRANCH  11  12
ATOM     12  C   UNL A   1      40.457  28.566  30.610  1.00  0.00     0.031 A 
ATOM     13  C   UNL A   1      41.380  28.474  31.793  1.00  0.00     0.074 A 
ATOM     14  C   UNL A   1      39.561  29.568  30.531  1.00  0.00     0.049 A 
ATOM     15  N   UNL A   1      41.440  29.241  32.851  1.00  0.00    -0.248 NA
ATOM     16  C   UNL A   1      42.356  27.373  31.791  1.00  0.00     0.031 C 
ATOM     17  C   UNL A   1      38.605  29.760  29.438  1.00  0.00     0.029 A 
ATOM     18  N   UNL A   1      39.299  30.605  31.389  1.00  0.00    -0.354 N 
ATOM     19  C   UNL A   1      42.435  28.700  33.656  1.00  0.00     0.074 A 
ATOM     20  C   UNL A   1      42.943  27.532  32.969  1.00  0.00     0.031 C 
ATOM     21  C   UNL A   1      37.869  30.852  29.686  1.00  0.00     0.029 A 
ATOM     22  C   UNL A   1      38.260  31.406  30.978  1.00  0.00     0.049 A 
ATOM     23  H   UNL A   1      39.805  30.762  32.219  1.00  0.00     0.167 HD
ATOM     24  C   UNL A   1      42.882  29.137  34.859  1.00  0.00     0.031 A 
ATOM     25  C   UNL A   1      37.663  32.451  31.582  1.00  0.00     0.031 A 
ATOM     26  C   UNL A   1      42.372  30.298  35.539  1.00  0.00     0.049 A 
ATOM     27  C   UNL A   1      38.160  32.909  32.921  1.00  0.00     0.074 A 
ATOM     28  C   UNL A   1      42.789  30.845  36.740  1.00  0.00     0.029 A 
ATOM     29  N   UNL A   1      41.324  31.084  35.084  1.00  0.00    -0.354 N 
ATOM     30  N   UNL A   1      39.133  32.412  33.646  1.00  0.00    -0.248 NA
ATOM     31  C   UNL A   1      37.484  34.066  33.522  1.00  0.00     0.031 C 
ATOM     32  C   UNL A   1      41.964  31.936  37.033  1.00  0.00     0.029 A 
ATOM     33  C   UNL A   1      41.064  32.098  35.992  1.00  0.00     0.049 A 
ATOM     34  H   UNL A   1      40.837  30.943  34.240  1.00  0.00     0.167 HD
ATOM     35  C   UNL A   1      39.198  33.205  34.784  1.00  0.00     0.074 A 
ATOM     36  C   UNL A   1      38.171  34.218  34.649  1.00  0.00     0.031 C 
ATOM     37  C   UNL A   1      40.036  33.099  35.844  1.00  0.00     0.031 A 
BRANCH  24  38
ATOM     38  C   UNL A   1      43.953  28.321  35.531  1.00  0.00    -0.014 A 
ATOM     39  C   UNL A   1      43.631  27.290  36.432  1.00  0.00     0.010 A 
ATOM     40  C   UNL A   1      45.307  28.594  35.258  1.00  0.00     0.010 A 
ATOM     41  C   UNL A   1      44.642  26.587  37.092  1.00  0.00     0.020 A 
ATOM     42  C   UNL A   1      46.321  27.876  35.900  1.00  0.00     0.020 A 
ATOM     43  C   UNL A   1      45.981  26.896  36.833  1.00  0.00     0.054 A 
BRANCH  43  44
ATOM     44  S   UNL A   1      47.277  25.993  37.726  1.00  0.00     0.124 S 
ATOM     45  O   UNL A   1      47.962  25.301  36.636  1.00  0.00    -0.237 OA
ATOM     46  O   UNL A   1      48.039  27.065  38.364  1.00  0.00    -0.237 OA
ATOM     47  O   UNL A   1      46.533  25.133  38.642  1.00  0.00    -0.744 OA
ENDBRANCH  43  44
ENDBRANCH  24  38
BRANCH  25  48
ATOM     48  C   UNL A   1      36.513  33.106  30.906  1.00  0.00    -0.014 A 
ATOM     49  C   UNL A   1      35.236  33.090  31.489  1.00  0.00     0.010 A 
ATOM     50  C   UNL A   1      36.722  33.843  29.724  1.00  0.00     0.010 A 
ATOM     51  C   UNL A   1      34.189  33.813  30.911  1.00  0.00     0.020 A 
ATOM     52  C   UNL A   1      35.682  34.584  29.157  1.00  0.00     0.020 A 
ATOM     53  C   UNL A   1      34.422  34.564  29.755  1.00  0.00     0.054 A 
BRANCH  53  54
ATOM     54  S   UNL A   1      33.081  35.591  29.090  1.00  0.00     0.124 S 
ATOM     55  O   UNL A   1      32.374  34.648  28.231  1.00  0.00    -0.237 OA
ATOM     56  O   UNL A   1      32.369  36.005  30.298  1.00  0.00    -0.237 OA
ATOM     57  O   UNL A   1      33.787  36.666  28.396  1.00  0.00    -0.744 OA
ENDBRANCH  53  54
ENDBRANCH  25  48
BRANCH  37  58
ATOM     58  C   UNL A   1      39.903  34.119  36.940  1.00  0.00    -0.014 A 
ATOM     59  C   UNL A   1      40.404  35.423  36.779  1.00  0.00     0.010 A 
ATOM     60  C   UNL A   1      39.185  33.794  38.105  1.00  0.00     0.010 A 
ATOM     61  C   UNL A   1      40.192  36.384  37.772  1.00  0.00     0.020 A 
ATOM     62  C   UNL A   1      38.956  34.759  39.090  1.00  0.00     0.020 A 
ATOM     63  C   UNL A   1      39.465  36.048  38.918  1.00  0.00     0.054 A 
BRANCH  63  64
ATOM     64  S   UNL A   1      39.129  37.334  40.152  1.00  0.00     0.124 S 
ATOM     65  O   UNL A   1      40.474  37.678  40.606  1.00  0.00    -0.237 OA
ATOM     66  O   UNL A   1      38.447  38.362  39.370  1.00  0.00    -0.237 OA
ATOM     67  O   UNL A   1      38.293  36.655  41.139  1.00  0.00    -0.744 OA
ENDBRANCH  63  64
ENDBRANCH  37  58
ENDBRANCH  11  12
ENDBRANCH   4   6
ENDBRANCH   1   2
BRANCH   1  68
ATOM     68  C   UNL A   1      37.065  23.766  25.357  1.00  0.00     0.042 C 
BRANCH  68  69
ATOM     69  C   UNL A   1      36.497  22.356  25.454  1.00  0.00     0.118 C 
BRANCH  69  70
ATOM     70  N   UNL A   1      35.626  22.175  26.608  1.00  0.00    -0.352 N 
ATOM     71  C   UNL A   1      34.418  21.532  26.726  1.00  0.00     0.253 C 
ATOM     72  H   UNL A   1      35.959  22.580  27.441  1.00  0.00     0.163 HD
ATOM     73  O   UNL A   1      33.842  21.551  27.812  1.00  0.00    -0.269 OA
BRANCH  71  74
ATOM     74  C   UNL A   1      33.849  20.795  25.576  1.00  0.00     0.066 A 
ATOM     75  C   UNL A   1      34.301  19.482  25.361  1.00  0.00     0.055 A 
ATOM     76  C   UNL A   1      32.806  21.322  24.787  1.00  0.00     0.054 A 
ATOM     77  C   UNL A   1      33.795  18.737  24.306  1.00  0.00     0.124 A 
ATOM     78  C   UNL A   1      32.315  20.531  23.725  1.00  0.00     0.030 A 
ATOM     79  F   UNL A   1      34.256  17.498  24.095  1.00  0.00    -0.207 F 
ATOM     80  C   UNL A   1      32.816  19.253  23.474  1.00  0.00     0.041 A 
BRANCH  76  81
ATOM     81  N   UNL A   1      32.187  22.568  25.003  1.00  0.00    -0.341 N 
ATOM     82  C   UNL A   1      30.894  22.576  25.693  1.00  0.00     0.123 C 
ATOM     83  C   UNL A   1      32.698  23.827  24.614  1.00  0.00     0.044 A 
ATOM     84  C   UNL A   1      30.937  23.591  26.830  1.00  0.00     0.027 C 
ATOM     85  C   UNL A   1      32.250  25.017  25.220  1.00  0.00    -0.024 A 
ATOM     86  C   UNL A   1      33.676  23.927  23.607  1.00  0.00     0.026 A 
ATOM     87  C   UNL A   1      31.173  24.990  26.275  1.00  0.00     0.039 C 
ATOM     88  C   UNL A   1      32.778  26.257  24.818  1.00  0.00     0.006 A 
ATOM     89  C   UNL A   1      34.195  25.160  23.212  1.00  0.00     0.002 A 
ATOM     90  C   UNL A   1      33.749  26.326  23.822  1.00  0.00     0.000 A 
ENDBRANCH  76  81
ENDBRANCH  71  74
ENDBRANCH  69  70
ENDBRANCH  68  69
ENDBRANCH   1  68
TORSDOF 14
ENDMDL
