MODEL 1
REMARK VINA RESULT:     -10.3      0.000      0.000
REMARK SMILES C[C@H](CNS(=O)(=O)CCC(=O)NCCCNC(=O)c1ccc(-c2c3nc(c(-c4ccc(S(=O)(=O)[O-])cc4)c4ccc([nH]4)c(-c4ccc(S(=O)(=O)[O-])cc4)c4nc(c(-c5ccc(S(=O)(=O)[O-])cc5)c5ccc2[nH]5)C=C4)C=C3)cc1)c1ccccc1
REMARK SMILES IDX 10 1 11 2 12 3 9 5 8 6 5 7 6 8 7 9 4 10 3 12 2 13 1 14 79 15
REMARK SMILES IDX 80 16 84 17 81 18 83 19 82 20 13 21 14 22 15 23 16 24 17 25
REMARK SMILES IDX 18 27 19 28 20 29 78 30 21 31 77 32 22 33 23 34 24 35 71 36
REMARK SMILES IDX 25 37 76 38 70 39 72 40 26 41 75 42 69 43 68 44 27 46 57 47
REMARK SMILES IDX 38 48 56 49 39 50 42 51 55 52 73 53 40 54 41 55 54 57 74 58
REMARK SMILES IDX 43 59 28 60 29 61 37 62 30 63 36 64 31 65 32 66 33 67 34 68
REMARK SMILES IDX 35 69 58 70 59 71 67 72 60 73 66 74 61 75 62 76 63 77 64 78
REMARK SMILES IDX 65 79 44 80 45 81 53 82 46 83 52 84 47 85 48 86 49 87 50 88
REMARK SMILES IDX 51 89
REMARK H PARENT 12 4 4 11 16 26 72 45 42 56
REMARK Flexibility Score: inf
ROOT
ATOM      1  C   UNL A   1      33.758  29.139  27.066  1.00  0.00     0.221 C 
ATOM      2  O   UNL A   1      34.352  28.163  26.602  1.00  0.00    -0.275 OA
ATOM      3  N   UNL A   1      34.507  30.151  27.603  1.00  0.00    -0.356 N 
ATOM      4  H   UNL A   1      35.437  29.905  27.813  1.00  0.00     0.163 HD
ENDROOT
BRANCH   1   5
ATOM      5  C   UNL A   1      32.251  29.126  27.134  1.00  0.00     0.117 C 
BRANCH   5   6
ATOM      6  C   UNL A   1      31.647  28.860  25.761  1.00  0.00     0.164 C 
BRANCH   6   7
ATOM      7  S   UNL A   1      31.250  27.141  25.494  1.00  0.00     0.212 S 
ATOM      8  O   UNL A   1      30.245  27.073  24.456  1.00  0.00    -0.212 OA
ATOM      9  O   UNL A   1      31.025  26.559  26.795  1.00  0.00    -0.212 OA
BRANCH   7  10
ATOM     10  N   UNL A   1      32.683  26.504  24.881  1.00  0.00    -0.215 NA
ATOM     11  H   UNL A   1      33.243  27.285  24.541  1.00  0.00     0.141 HD
BRANCH  10  12
ATOM     12  C   UNL A   1      32.579  25.519  23.779  1.00  0.00     0.106 C 
BRANCH  12  13
ATOM     13  C   UNL A   1      32.903  24.059  24.190  1.00  0.00     0.031 C 
ATOM     14  C   UNL A   1      32.167  22.991  23.374  1.00  0.00     0.014 C 
BRANCH  13  15
ATOM     15  C   UNL A   1      34.397  23.808  24.267  1.00  0.00    -0.044 A 
ATOM     16  C   UNL A   1      35.106  24.090  25.438  1.00  0.00     0.004 A 
ATOM     17  C   UNL A   1      35.085  23.203  23.207  1.00  0.00     0.004 A 
ATOM     18  C   UNL A   1      36.435  23.715  25.583  1.00  0.00     0.000 A 
ATOM     19  C   UNL A   1      36.436  22.868  23.335  1.00  0.00     0.000 A 
ATOM     20  C   UNL A   1      37.108  23.114  24.528  1.00  0.00     0.000 A 
ENDBRANCH  13  15
ENDBRANCH  12  13
ENDBRANCH  10  12
ENDBRANCH   7  10
ENDBRANCH   6   7
ENDBRANCH   5   6
ENDBRANCH   1   5
BRANCH   3  21
ATOM     21  C   UNL A   1      34.157  31.537  27.919  1.00  0.00     0.117 C 
BRANCH  21  22
ATOM     22  C   UNL A   1      35.323  32.536  28.035  1.00  0.00     0.042 C 
BRANCH  22  23
ATOM     23  C   UNL A   1      36.072  32.664  29.370  1.00  0.00     0.118 C 
BRANCH  23  24
ATOM     24  N   UNL A   1      35.723  31.665  30.360  1.00  0.00    -0.352 N 
ATOM     25  C   UNL A   1      36.454  30.578  30.802  1.00  0.00     0.251 C 
ATOM     26  H   UNL A   1      34.838  31.776  30.779  1.00  0.00     0.163 HD
ATOM     27  O   UNL A   1      35.971  29.845  31.661  1.00  0.00    -0.269 OA
BRANCH  25  28
ATOM     28  C   UNL A   1      37.804  30.257  30.265  1.00  0.00     0.039 A 
ATOM     29  C   UNL A   1      38.924  30.360  31.092  1.00  0.00     0.014 A 
ATOM     30  C   UNL A   1      38.005  30.012  28.908  1.00  0.00     0.014 A 
ATOM     31  C   UNL A   1      40.225  30.160  30.572  1.00  0.00     0.010 A 
ATOM     32  C   UNL A   1      39.308  29.761  28.411  1.00  0.00     0.010 A 
ATOM     33  C   UNL A   1      40.457  29.787  29.230  1.00  0.00    -0.014 A 
BRANCH  33  34
ATOM     34  C   UNL A   1      41.847  29.363  28.747  1.00  0.00     0.031 A 
ATOM     35  C   UNL A   1      43.015  30.342  28.581  1.00  0.00     0.074 A 
ATOM     36  C   UNL A   1      42.089  28.087  28.341  1.00  0.00     0.049 A 
ATOM     37  N   UNL A   1      44.236  30.109  28.142  1.00  0.00    -0.248 NA
ATOM     38  C   UNL A   1      42.777  31.759  28.887  1.00  0.00     0.031 C 
ATOM     39  C   UNL A   1      41.096  27.012  28.257  1.00  0.00     0.029 A 
ATOM     40  N   UNL A   1      43.252  27.467  27.909  1.00  0.00    -0.354 N 
ATOM     41  C   UNL A   1      44.878  31.346  28.071  1.00  0.00     0.074 A 
ATOM     42  C   UNL A   1      43.893  32.333  28.453  1.00  0.00     0.031 C 
ATOM     43  C   UNL A   1      41.694  25.871  27.878  1.00  0.00     0.029 A 
ATOM     44  C   UNL A   1      43.109  26.121  27.628  1.00  0.00     0.049 A 
ATOM     45  H   UNL A   1      44.107  27.945  27.810  1.00  0.00     0.167 HD
ATOM     46  C   UNL A   1      46.166  31.653  27.761  1.00  0.00     0.031 A 
ATOM     47  C   UNL A   1      43.985  25.175  27.216  1.00  0.00     0.031 A 
ATOM     48  C   UNL A   1      47.206  30.697  27.465  1.00  0.00     0.049 A 
ATOM     49  C   UNL A   1      45.434  25.520  26.973  1.00  0.00     0.074 A 
ATOM     50  C   UNL A   1      48.565  30.934  27.306  1.00  0.00     0.029 A 
ATOM     51  N   UNL A   1      47.022  29.338  27.284  1.00  0.00    -0.354 N 
ATOM     52  N   UNL A   1      46.036  26.678  27.081  1.00  0.00    -0.248 NA
ATOM     53  C   UNL A   1      46.329  24.423  26.561  1.00  0.00     0.031 C 
ATOM     54  C   UNL A   1      49.190  29.731  26.969  1.00  0.00     0.029 A 
ATOM     55  C   UNL A   1      48.234  28.732  26.988  1.00  0.00     0.049 A 
ATOM     56  H   UNL A   1      46.158  28.872  27.355  1.00  0.00     0.167 HD
ATOM     57  C   UNL A   1      47.377  26.438  26.788  1.00  0.00     0.074 A 
ATOM     58  C   UNL A   1      47.508  25.026  26.520  1.00  0.00     0.031 C 
ATOM     59  C   UNL A   1      48.402  27.324  26.742  1.00  0.00     0.031 A 
BRANCH  46  60
ATOM     60  C   UNL A   1      46.580  33.110  27.770  1.00  0.00    -0.014 A 
ATOM     61  C   UNL A   1      46.225  33.968  26.715  1.00  0.00     0.010 A 
ATOM     62  C   UNL A   1      47.220  33.653  28.902  1.00  0.00     0.010 A 
ATOM     63  C   UNL A   1      46.538  35.329  26.770  1.00  0.00     0.020 A 
ATOM     64  C   UNL A   1      47.503  35.023  28.977  1.00  0.00     0.020 A 
ATOM     65  C   UNL A   1      47.172  35.849  27.902  1.00  0.00     0.054 A 
BRANCH  65  66
ATOM     66  S   UNL A   1      47.515  37.630  27.960  1.00  0.00     0.124 S 
ATOM     67  O   UNL A   1      47.763  37.842  29.385  1.00  0.00    -0.237 OA
ATOM     68  O   UNL A   1      48.686  37.757  27.096  1.00  0.00    -0.237 OA
ATOM     69  O   UNL A   1      46.292  38.238  27.444  1.00  0.00    -0.744 OA
ENDBRANCH  65  66
ENDBRANCH  46  60
BRANCH  47  70
ATOM     70  C   UNL A   1      43.536  23.763  27.005  1.00  0.00    -0.014 A 
ATOM     71  C   UNL A   1      43.177  23.310  25.720  1.00  0.00     0.010 A 
ATOM     72  C   UNL A   1      43.401  22.882  28.093  1.00  0.00     0.010 A 
ATOM     73  C   UNL A   1      42.646  22.029  25.537  1.00  0.00     0.020 A 
ATOM     74  C   UNL A   1      42.908  21.586  27.908  1.00  0.00     0.020 A 
ATOM     75  C   UNL A   1      42.512  21.175  26.634  1.00  0.00     0.054 A 
BRANCH  75  76
ATOM     76  S   UNL A   1      41.827  19.514  26.371  1.00  0.00     0.124 S 
ATOM     77  O   UNL A   1      42.404  19.148  25.081  1.00  0.00    -0.237 OA
ATOM     78  O   UNL A   1      42.338  18.776  27.524  1.00  0.00    -0.237 OA
ATOM     79  O   UNL A   1      40.383  19.735  26.372  1.00  0.00    -0.744 OA
ENDBRANCH  75  76
ENDBRANCH  47  70
BRANCH  59  80
ATOM     80  C   UNL A   1      49.790  26.806  26.452  1.00  0.00    -0.014 A 
ATOM     81  C   UNL A   1      50.590  26.227  27.453  1.00  0.00     0.010 A 
ATOM     82  C   UNL A   1      50.277  26.838  25.130  1.00  0.00     0.010 A 
ATOM     83  C   UNL A   1      51.856  25.715  27.145  1.00  0.00     0.020 A 
ATOM     84  C   UNL A   1      51.528  26.299  24.811  1.00  0.00     0.020 A 
ATOM     85  C   UNL A   1      52.315  25.752  25.824  1.00  0.00     0.054 A 
BRANCH  85  86
ATOM     86  S   UNL A   1      53.937  25.031  25.441  1.00  0.00     0.124 S 
ATOM     87  O   UNL A   1      54.754  25.505  26.555  1.00  0.00    -0.237 OA
ATOM     88  O   UNL A   1      53.657  23.598  25.434  1.00  0.00    -0.237 OA
ATOM     89  O   UNL A   1      54.272  25.601  24.138  1.00  0.00    -0.744 OA
ENDBRANCH  85  86
ENDBRANCH  59  80
ENDBRANCH  33  34
ENDBRANCH  25  28
ENDBRANCH  23  24
ENDBRANCH  22  23
ENDBRANCH  21  22
ENDBRANCH   3  21
TORSDOF 19
ENDMDL
MODEL 2
REMARK VINA RESULT:     -10.2      6.436     12.384
REMARK SMILES C[C@H](CNS(=O)(=O)CCC(=O)NCCCNC(=O)c1ccc(-c2c3nc(c(-c4ccc(S(=O)(=O)[O-])cc4)c4ccc([nH]4)c(-c4ccc(S(=O)(=O)[O-])cc4)c4nc(c(-c5ccc(S(=O)(=O)[O-])cc5)c5ccc2[nH]5)C=C4)C=C3)cc1)c1ccccc1
REMARK SMILES IDX 10 1 11 2 12 3 9 5 8 6 5 7 6 8 7 9 4 10 3 12 2 13 1 14 79 15
REMARK SMILES IDX 80 16 84 17 81 18 83 19 82 20 13 21 14 22 15 23 16 24 17 25
REMARK SMILES IDX 18 27 19 28 20 29 78 30 21 31 77 32 22 33 23 34 24 35 71 36
REMARK SMILES IDX 25 37 76 38 70 39 72 40 26 41 75 42 69 43 68 44 27 46 57 47
REMARK SMILES IDX 38 48 56 49 39 50 42 51 55 52 73 53 40 54 41 55 54 57 74 58
REMARK SMILES IDX 43 59 28 60 29 61 37 62 30 63 36 64 31 65 32 66 33 67 34 68
REMARK SMILES IDX 35 69 58 70 59 71 67 72 60 73 66 74 61 75 62 76 63 77 64 78
REMARK SMILES IDX 65 79 44 80 45 81 53 82 46 83 52 84 47 85 48 86 49 87 50 88
REMARK SMILES IDX 51 89
REMARK H PARENT 12 4 4 11 16 26 72 45 42 56
REMARK Flexibility Score: inf
ROOT
ATOM      1  C   UNL A   1      37.291  23.168  25.180  1.00  0.00     0.221 C 
ATOM      2  O   UNL A   1      36.993  22.877  24.019  1.00  0.00    -0.275 OA
ATOM      3  N   UNL A   1      38.467  22.681  25.681  1.00  0.00    -0.356 N 
ATOM      4  H   UNL A   1      38.850  21.930  25.171  1.00  0.00     0.163 HD
ENDROOT
BRANCH   1   5
ATOM      5  C   UNL A   1      36.307  23.934  26.029  1.00  0.00     0.117 C 
BRANCH   5   6
ATOM      6  C   UNL A   1      35.158  24.468  25.182  1.00  0.00     0.164 C 
BRANCH   6   7
ATOM      7  S   UNL A   1      33.630  23.587  25.444  1.00  0.00     0.212 S 
ATOM      8  O   UNL A   1      32.574  24.321  24.781  1.00  0.00    -0.212 OA
ATOM      9  O   UNL A   1      33.560  23.283  26.853  1.00  0.00    -0.212 OA
BRANCH   7  10
ATOM     10  N   UNL A   1      33.868  22.143  24.613  1.00  0.00    -0.215 NA
ATOM     11  H   UNL A   1      33.001  21.929  24.119  1.00  0.00     0.141 HD
BRANCH  10  12
ATOM     12  C   UNL A   1      34.234  20.946  25.407  1.00  0.00     0.106 C 
BRANCH  12  13
ATOM     13  C   UNL A   1      34.913  19.817  24.590  1.00  0.00     0.031 C 
ATOM     14  C   UNL A   1      36.399  19.612  24.903  1.00  0.00     0.014 C 
BRANCH  13  15
ATOM     15  C   UNL A   1      34.123  18.524  24.641  1.00  0.00    -0.044 A 
ATOM     16  C   UNL A   1      34.503  17.427  23.862  1.00  0.00     0.004 A 
ATOM     17  C   UNL A   1      33.055  18.363  25.534  1.00  0.00     0.004 A 
ATOM     18  C   UNL A   1      33.894  16.189  24.018  1.00  0.00     0.000 A 
ATOM     19  C   UNL A   1      32.411  17.129  25.656  1.00  0.00     0.000 A 
ATOM     20  C   UNL A   1      32.838  16.038  24.906  1.00  0.00     0.000 A 
ENDBRANCH  13  15
ENDBRANCH  12  13
ENDBRANCH  10  12
ENDBRANCH   7  10
ENDBRANCH   6   7
ENDBRANCH   5   6
ENDBRANCH   1   5
BRANCH   3  21
ATOM     21  C   UNL A   1      39.252  23.087  26.848  1.00  0.00     0.117 C 
BRANCH  21  22
ATOM     22  C   UNL A   1      40.647  22.452  27.001  1.00  0.00     0.042 C 
BRANCH  22  23
ATOM     23  C   UNL A   1      41.883  23.361  27.057  1.00  0.00     0.118 C 
BRANCH  23  24
ATOM     24  N   UNL A   1      42.090  24.177  25.877  1.00  0.00    -0.352 N 
ATOM     25  C   UNL A   1      42.056  25.553  25.748  1.00  0.00     0.251 C 
ATOM     26  H   UNL A   1      42.285  23.680  25.049  1.00  0.00     0.163 HD
ATOM     27  O   UNL A   1      42.265  26.053  24.646  1.00  0.00    -0.269 OA
BRANCH  25  28
ATOM     28  C   UNL A   1      41.765  26.452  26.898  1.00  0.00     0.039 A 
ATOM     29  C   UNL A   1      40.712  26.155  27.764  1.00  0.00     0.014 A 
ATOM     30  C   UNL A   1      42.415  27.676  27.042  1.00  0.00     0.014 A 
ATOM     31  C   UNL A   1      40.356  27.052  28.800  1.00  0.00     0.010 A 
ATOM     32  C   UNL A   1      42.084  28.540  28.116  1.00  0.00     0.010 A 
ATOM     33  C   UNL A   1      41.073  28.241  29.053  1.00  0.00    -0.014 A 
BRANCH  33  34
ATOM     34  C   UNL A   1      40.810  29.081  30.307  1.00  0.00     0.031 A 
ATOM     35  C   UNL A   1      41.606  28.924  31.607  1.00  0.00     0.074 A 
ATOM     36  C   UNL A   1      39.770  29.957  30.358  1.00  0.00     0.049 A 
ATOM     37  N   UNL A   1      41.452  29.554  32.755  1.00  0.00    -0.248 NA
ATOM     38  C   UNL A   1      42.663  27.905  31.651  1.00  0.00     0.031 C 
ATOM     39  C   UNL A   1      38.775  30.168  29.302  1.00  0.00     0.029 A 
ATOM     40  N   UNL A   1      39.362  30.839  31.347  1.00  0.00    -0.354 N 
ATOM     41  C   UNL A   1      42.345  28.972  33.654  1.00  0.00     0.074 A 
ATOM     42  C   UNL A   1      42.994  27.897  32.937  1.00  0.00     0.031 C 
ATOM     43  C   UNL A   1      37.931  31.147  29.664  1.00  0.00     0.029 A 
ATOM     44  C   UNL A   1      38.269  31.614  31.003  1.00  0.00     0.049 A 
ATOM     45  H   UNL A   1      39.810  30.907  32.221  1.00  0.00     0.167 HD
ATOM     46  C   UNL A   1      42.644  29.303  34.939  1.00  0.00     0.031 A 
ATOM     47  C   UNL A   1      37.597  32.588  31.660  1.00  0.00     0.031 A 
ATOM     48  C   UNL A   1      42.091  30.422  35.664  1.00  0.00     0.049 A 
ATOM     49  C   UNL A   1      38.009  33.006  33.051  1.00  0.00     0.074 A 
ATOM     50  C   UNL A   1      42.474  30.908  36.907  1.00  0.00     0.029 A 
ATOM     51  N   UNL A   1      41.054  31.228  35.231  1.00  0.00    -0.354 N 
ATOM     52  N   UNL A   1      38.973  32.537  33.801  1.00  0.00    -0.248 NA
ATOM     53  C   UNL A   1      37.245  34.100  33.680  1.00  0.00     0.031 C 
ATOM     54  C   UNL A   1      41.629  31.966  37.251  1.00  0.00     0.029 A 
ATOM     55  C   UNL A   1      40.766  32.185  36.193  1.00  0.00     0.049 A 
ATOM     56  H   UNL A   1      40.589  31.135  34.369  1.00  0.00     0.167 HD
ATOM     57  C   UNL A   1      38.952  33.300  34.968  1.00  0.00     0.074 A 
ATOM     58  C   UNL A   1      37.898  34.276  34.819  1.00  0.00     0.031 C 
ATOM     59  C   UNL A   1      39.741  33.187  36.064  1.00  0.00     0.031 A 
BRANCH  46  60
ATOM     60  C   UNL A   1      43.675  28.474  35.674  1.00  0.00    -0.014 A 
ATOM     61  C   UNL A   1      43.295  27.353  36.433  1.00  0.00     0.010 A 
ATOM     62  C   UNL A   1      45.049  28.743  35.502  1.00  0.00     0.010 A 
ATOM     63  C   UNL A   1      44.261  26.544  37.039  1.00  0.00     0.020 A 
ATOM     64  C   UNL A   1      46.020  27.915  36.077  1.00  0.00     0.020 A 
ATOM     65  C   UNL A   1      45.617  26.828  36.856  1.00  0.00     0.054 A 
BRANCH  65  66
ATOM     66  S   UNL A   1      46.842  25.725  37.614  1.00  0.00     0.124 S 
ATOM     67  O   UNL A   1      45.993  24.692  38.202  1.00  0.00    -0.237 OA
ATOM     68  O   UNL A   1      47.642  25.301  36.468  1.00  0.00    -0.237 OA
ATOM     69  O   UNL A   1      47.535  26.580  38.574  1.00  0.00    -0.744 OA
ENDBRANCH  65  66
ENDBRANCH  46  60
BRANCH  47  70
ATOM     70  C   UNL A   1      36.436  33.278  31.015  1.00  0.00    -0.014 A 
ATOM     71  C   UNL A   1      36.530  33.754  29.691  1.00  0.00     0.010 A 
ATOM     72  C   UNL A   1      35.254  33.524  31.737  1.00  0.00     0.010 A 
ATOM     73  C   UNL A   1      35.493  34.502  29.126  1.00  0.00     0.020 A 
ATOM     74  C   UNL A   1      34.198  34.237  31.161  1.00  0.00     0.020 A 
ATOM     75  C   UNL A   1      34.333  34.742  29.866  1.00  0.00     0.054 A 
BRANCH  75  76
ATOM     76  S   UNL A   1      32.996  35.709  29.108  1.00  0.00     0.124 S 
ATOM     77  O   UNL A   1      33.731  36.796  28.469  1.00  0.00    -0.237 OA
ATOM     78  O   UNL A   1      32.383  34.742  28.201  1.00  0.00    -0.237 OA
ATOM     79  O   UNL A   1      32.166  36.097  30.246  1.00  0.00    -0.744 OA
ENDBRANCH  75  76
ENDBRANCH  47  70
BRANCH  59  80
ATOM     80  C   UNL A   1      39.559  34.178  37.189  1.00  0.00    -0.014 A 
ATOM     81  C   UNL A   1      38.882  33.837  38.373  1.00  0.00     0.010 A 
ATOM     82  C   UNL A   1      40.138  35.457  37.084  1.00  0.00     0.010 A 
ATOM     83  C   UNL A   1      38.766  34.762  39.418  1.00  0.00     0.020 A 
ATOM     84  C   UNL A   1      40.053  36.374  38.137  1.00  0.00     0.020 A 
ATOM     85  C   UNL A   1      39.356  36.025  39.294  1.00  0.00     0.054 A 
BRANCH  85  86
ATOM     86  S   UNL A   1      39.240  37.186  40.684  1.00  0.00     0.124 S 
ATOM     87  O   UNL A   1      38.545  36.389  41.691  1.00  0.00    -0.237 OA
ATOM     88  O   UNL A   1      40.640  37.480  40.974  1.00  0.00    -0.237 OA
ATOM     89  O   UNL A   1      38.474  38.305  40.140  1.00  0.00    -0.744 OA
ENDBRANCH  85  86
ENDBRANCH  59  80
ENDBRANCH  33  34
ENDBRANCH  25  28
ENDBRANCH  23  24
ENDBRANCH  22  23
ENDBRANCH  21  22
ENDBRANCH   3  21
TORSDOF 19
ENDMDL
MODEL 3
REMARK VINA RESULT:     -10.2      2.587      8.653
REMARK SMILES C[C@H](CNS(=O)(=O)CCC(=O)NCCCNC(=O)c1ccc(-c2c3nc(c(-c4ccc(S(=O)(=O)[O-])cc4)c4ccc([nH]4)c(-c4ccc(S(=O)(=O)[O-])cc4)c4nc(c(-c5ccc(S(=O)(=O)[O-])cc5)c5ccc2[nH]5)C=C4)C=C3)cc1)c1ccccc1
REMARK SMILES IDX 10 1 11 2 12 3 9 5 8 6 5 7 6 8 7 9 4 10 3 12 2 13 1 14 79 15
REMARK SMILES IDX 80 16 84 17 81 18 83 19 82 20 13 21 14 22 15 23 16 24 17 25
REMARK SMILES IDX 18 27 19 28 20 29 78 30 21 31 77 32 22 33 23 34 24 35 71 36
REMARK SMILES IDX 25 37 76 38 70 39 72 40 26 41 75 42 69 43 68 44 27 46 57 47
REMARK SMILES IDX 38 48 56 49 39 50 42 51 55 52 73 53 40 54 41 55 54 57 74 58
REMARK SMILES IDX 43 59 28 60 29 61 37 62 30 63 36 64 31 65 32 66 33 67 34 68
REMARK SMILES IDX 35 69 58 70 59 71 67 72 60 73 66 74 61 75 62 76 63 77 64 78
REMARK SMILES IDX 65 79 44 80 45 81 53 82 46 83 52 84 47 85 48 86 49 87 50 88
REMARK SMILES IDX 51 89
REMARK H PARENT 12 4 4 11 16 26 72 45 42 56
REMARK Flexibility Score: inf
ROOT
ATOM      1  C   UNL A   1      30.676  27.318  24.156  1.00  0.00     0.221 C 
ATOM      2  O   UNL A   1      30.015  26.943  23.186  1.00  0.00    -0.275 OA
ATOM      3  N   UNL A   1      31.669  28.236  23.940  1.00  0.00    -0.356 N 
ATOM      4  H   UNL A   1      31.945  28.325  22.999  1.00  0.00     0.163 HD
ENDROOT
BRANCH   1   5
ATOM      5  C   UNL A   1      30.455  26.672  25.501  1.00  0.00     0.117 C 
BRANCH   5   6
ATOM      6  C   UNL A   1      31.445  25.536  25.729  1.00  0.00     0.164 C 
BRANCH   6   7
ATOM      7  S   UNL A   1      30.715  24.128  26.547  1.00  0.00     0.212 S 
ATOM      8  O   UNL A   1      29.364  24.483  26.922  1.00  0.00    -0.212 OA
ATOM      9  O   UNL A   1      31.671  23.676  27.529  1.00  0.00    -0.212 OA
BRANCH   7  10
ATOM     10  N   UNL A   1      30.636  22.970  25.327  1.00  0.00    -0.215 NA
ATOM     11  H   UNL A   1      30.548  22.059  25.777  1.00  0.00     0.141 HD
BRANCH  10  12
ATOM     12  C   UNL A   1      31.774  22.891  24.382  1.00  0.00     0.106 C 
BRANCH  12  13
ATOM     13  C   UNL A   1      32.835  21.819  24.742  1.00  0.00     0.031 C 
ATOM     14  C   UNL A   1      32.733  20.524  23.928  1.00  0.00     0.014 C 
BRANCH  13  15
ATOM     15  C   UNL A   1      34.240  22.391  24.756  1.00  0.00    -0.044 A 
ATOM     16  C   UNL A   1      35.065  22.276  23.633  1.00  0.00     0.004 A 
ATOM     17  C   UNL A   1      34.710  23.127  25.850  1.00  0.00     0.004 A 
ATOM     18  C   UNL A   1      36.286  22.934  23.568  1.00  0.00     0.000 A 
ATOM     19  C   UNL A   1      35.960  23.751  25.803  1.00  0.00     0.000 A 
ATOM     20  C   UNL A   1      36.743  23.663  24.656  1.00  0.00     0.000 A 
ENDBRANCH  13  15
ENDBRANCH  12  13
ENDBRANCH  10  12
ENDBRANCH   7  10
ENDBRANCH   6   7
ENDBRANCH   5   6
ENDBRANCH   1   5
BRANCH   3  21
ATOM     21  C   UNL A   1      32.387  29.106  24.871  1.00  0.00     0.117 C 
BRANCH  21  22
ATOM     22  C   UNL A   1      33.611  28.499  25.582  1.00  0.00     0.042 C 
BRANCH  22  23
ATOM     23  C   UNL A   1      33.681  28.532  27.116  1.00  0.00     0.118 C 
BRANCH  23  24
ATOM     24  N   UNL A   1      33.518  29.847  27.703  1.00  0.00    -0.352 N 
ATOM     25  C   UNL A   1      34.461  30.656  28.310  1.00  0.00     0.251 C 
ATOM     26  H   UNL A   1      32.606  30.218  27.664  1.00  0.00     0.163 HD
ATOM     27  O   UNL A   1      34.114  31.751  28.746  1.00  0.00    -0.269 OA
BRANCH  25  28
ATOM     28  C   UNL A   1      35.883  30.244  28.462  1.00  0.00     0.039 A 
ATOM     29  C   UNL A   1      36.734  30.259  27.356  1.00  0.00     0.014 A 
ATOM     30  C   UNL A   1      36.351  29.685  29.649  1.00  0.00     0.014 A 
ATOM     31  C   UNL A   1      38.059  29.772  27.459  1.00  0.00     0.010 A 
ATOM     32  C   UNL A   1      37.697  29.252  29.754  1.00  0.00     0.010 A 
ATOM     33  C   UNL A   1      38.607  29.316  28.678  1.00  0.00    -0.014 A 
BRANCH  33  34
ATOM     34  C   UNL A   1      40.100  29.003  28.815  1.00  0.00     0.031 A 
ATOM     35  C   UNL A   1      40.723  27.670  28.387  1.00  0.00     0.074 A 
ATOM     36  C   UNL A   1      40.945  29.876  29.428  1.00  0.00     0.049 A 
ATOM     37  N   UNL A   1      41.975  27.270  28.487  1.00  0.00    -0.248 NA
ATOM     38  C   UNL A   1      39.835  26.639  27.832  1.00  0.00     0.031 C 
ATOM     39  C   UNL A   1      40.560  31.142  30.059  1.00  0.00     0.029 A 
ATOM     40  N   UNL A   1      42.316  29.834  29.633  1.00  0.00    -0.354 N 
ATOM     41  C   UNL A   1      42.006  25.941  28.065  1.00  0.00     0.074 A 
ATOM     42  C   UNL A   1      40.637  25.583  27.764  1.00  0.00     0.031 C 
ATOM     43  C   UNL A   1      41.654  31.776  30.509  1.00  0.00     0.029 A 
ATOM     44  C   UNL A   1      42.832  30.953  30.260  1.00  0.00     0.049 A 
ATOM     45  H   UNL A   1      42.874  29.072  29.356  1.00  0.00     0.167 HD
ATOM     46  C   UNL A   1      43.056  25.094  27.895  1.00  0.00     0.031 A 
ATOM     47  C   UNL A   1      44.091  31.305  30.610  1.00  0.00     0.031 A 
ATOM     48  C   UNL A   1      44.445  25.434  28.093  1.00  0.00     0.049 A 
ATOM     49  C   UNL A   1      45.256  30.388  30.324  1.00  0.00     0.074 A 
ATOM     50  C   UNL A   1      45.564  24.674  27.780  1.00  0.00     0.029 A 
ATOM     51  N   UNL A   1      44.914  26.613  28.643  1.00  0.00    -0.354 N 
ATOM     52  N   UNL A   1      45.256  29.204  29.765  1.00  0.00    -0.248 NA
ATOM     53  C   UNL A   1      46.599  30.865  30.704  1.00  0.00     0.031 C 
ATOM     54  C   UNL A   1      46.704  25.366  28.197  1.00  0.00     0.029 A 
ATOM     55  C   UNL A   1      46.300  26.587  28.705  1.00  0.00     0.049 A 
ATOM     56  H   UNL A   1      44.348  27.359  28.946  1.00  0.00     0.167 HD
ATOM     57  C   UNL A   1      46.593  28.816  29.698  1.00  0.00     0.074 A 
ATOM     58  C   UNL A   1      47.378  29.895  30.248  1.00  0.00     0.031 C 
ATOM     59  C   UNL A   1      47.112  27.658  29.222  1.00  0.00     0.031 A 
BRANCH  46  60
ATOM     60  C   UNL A   1      42.775  23.687  27.413  1.00  0.00    -0.014 A 
ATOM     61  C   UNL A   1      42.977  23.328  26.069  1.00  0.00     0.010 A 
ATOM     62  C   UNL A   1      42.426  22.682  28.339  1.00  0.00     0.010 A 
ATOM     63  C   UNL A   1      42.795  22.007  25.650  1.00  0.00     0.020 A 
ATOM     64  C   UNL A   1      42.277  21.351  27.930  1.00  0.00     0.020 A 
ATOM     65  C   UNL A   1      42.449  21.026  26.583  1.00  0.00     0.054 A 
BRANCH  65  66
ATOM     66  S   UNL A   1      42.273  19.313  26.012  1.00  0.00     0.124 S 
ATOM     67  O   UNL A   1      40.841  19.233  25.737  1.00  0.00    -0.237 OA
ATOM     68  O   UNL A   1      43.140  19.278  24.837  1.00  0.00    -0.237 OA
ATOM     69  O   UNL A   1      42.734  18.517  27.147  1.00  0.00    -0.744 OA
ENDBRANCH  65  66
ENDBRANCH  46  60
BRANCH  47  70
ATOM     70  C   UNL A   1      44.356  32.617  31.279  1.00  0.00    -0.014 A 
ATOM     71  C   UNL A   1      44.569  32.682  32.672  1.00  0.00     0.010 A 
ATOM     72  C   UNL A   1      44.331  33.816  30.545  1.00  0.00     0.010 A 
ATOM     73  C   UNL A   1      44.699  33.915  33.317  1.00  0.00     0.020 A 
ATOM     74  C   UNL A   1      44.501  35.050  31.182  1.00  0.00     0.020 A 
ATOM     75  C   UNL A   1      44.662  35.094  32.568  1.00  0.00     0.054 A 
BRANCH  75  76
ATOM     76  S   UNL A   1      44.840  36.683  33.427  1.00  0.00     0.124 S 
ATOM     77  O   UNL A   1      43.801  37.489  32.795  1.00  0.00    -0.237 OA
ATOM     78  O   UNL A   1      44.596  36.317  34.821  1.00  0.00    -0.237 OA
ATOM     79  O   UNL A   1      46.213  37.082  33.128  1.00  0.00    -0.744 OA
ENDBRANCH  75  76
ENDBRANCH  47  70
BRANCH  59  80
ATOM     80  C   UNL A   1      48.613  27.493  29.206  1.00  0.00    -0.014 A 
ATOM     81  C   UNL A   1      49.427  28.216  28.316  1.00  0.00     0.010 A 
ATOM     82  C   UNL A   1      49.225  26.645  30.150  1.00  0.00     0.010 A 
ATOM     83  C   UNL A   1      50.820  28.076  28.354  1.00  0.00     0.020 A 
ATOM     84  C   UNL A   1      50.618  26.526  30.212  1.00  0.00     0.020 A 
ATOM     85  C   UNL A   1      51.406  27.233  29.304  1.00  0.00     0.054 A 
BRANCH  85  86
ATOM     86  S   UNL A   1      53.217  27.112  29.368  1.00  0.00     0.124 S 
ATOM     87  O   UNL A   1      53.466  27.011  30.804  1.00  0.00    -0.237 OA
ATOM     88  O   UNL A   1      53.484  25.901  28.598  1.00  0.00    -0.237 OA
ATOM     89  O   UNL A   1      53.671  28.353  28.745  1.00  0.00    -0.744 OA
ENDBRANCH  85  86
ENDBRANCH  59  80
ENDBRANCH  33  34
ENDBRANCH  25  28
ENDBRANCH  23  24
ENDBRANCH  22  23
ENDBRANCH  21  22
ENDBRANCH   3  21
TORSDOF 19
ENDMDL
