MODEL 1
REMARK VINA RESULT:     -12.7      0.000      0.000
REMARK SMILES O=C(NCCCNC(=O)[C@@H]1CC2(CCN(C(=O)C3(c4ccccc4F)CC3)CC2)C[NH2+]1)c1ccc(-c2c3nc(c(-c4ccc(S(=O)(=O)[O-])cc4)c4ccc([nH]4)c(-c4ccc(S(=O)(=O)[O-])cc4)c4nc(c(-c5ccc(S(=O)(=O)[O-])cc5)c5ccc2[nH]5)C=C4)C=C3)cc1
REMARK SMILES IDX 4 1 3 2 1 3 2 4 32 6 33 7 91 8 34 9 90 10 35 11 36 12 37 13
REMARK SMILES IDX 84 14 38 15 89 16 83 17 85 18 39 19 88 20 82 21 81 22 40 24
REMARK SMILES IDX 70 25 51 26 69 27 52 28 55 29 68 30 86 31 53 32 54 33 67 35
REMARK SMILES IDX 87 36 56 37 41 38 42 39 50 40 43 41 49 42 44 43 45 44 46 45
REMARK SMILES IDX 47 46 48 47 71 48 72 49 80 50 73 51 79 52 74 53 75 54 76 55
REMARK SMILES IDX 77 56 78 57 57 58 58 59 66 60 59 61 65 62 60 63 61 64 62 65
REMARK SMILES IDX 63 66 64 67 5 68 6 69 7 70 8 71 9 73 10 74 11 75 31 76 12 77
REMARK SMILES IDX 30 78 13 81 29 82 14 83 28 84 15 85 16 86 17 87 18 88 26 89
REMARK SMILES IDX 27 90 19 91 20 92 24 93 21 94 23 95 25 96 22 97
REMARK H PARENT 3 5 85 23 55 34 7 72 31 79 31 80
REMARK Flexibility Score: inf
ROOT
ATOM      1  C   UNL A   1      35.094  30.869  28.371  1.00  0.00     0.118 C 
ENDROOT
BRANCH   1   2
ATOM      2  N   UNL A   1      35.422  31.144  29.760  1.00  0.00    -0.352 N 
ATOM      3  O   UNL A   1      36.331  30.890  31.778  1.00  0.00    -0.269 OA
ATOM      4  C   UNL A   1      36.456  30.722  30.566  1.00  0.00     0.251 C 
ATOM      5  H   UNL A   1      34.786  31.748  30.209  1.00  0.00     0.163 HD
BRANCH   4   6
ATOM      6  C   UNL A   1      37.700  30.088  30.042  1.00  0.00     0.039 A 
ATOM      7  C   UNL A   1      38.095  30.200  28.712  1.00  0.00     0.014 A 
ATOM      8  C   UNL A   1      38.585  29.481  30.948  1.00  0.00     0.014 A 
ATOM      9  C   UNL A   1      39.289  29.629  28.270  1.00  0.00     0.010 A 
ATOM     10  C   UNL A   1      39.847  29.024  30.529  1.00  0.00     0.010 A 
ATOM     11  C   UNL A   1      40.217  29.102  29.182  1.00  0.00    -0.014 A 
BRANCH  11  12
ATOM     12  C   UNL A   1      41.596  28.798  28.693  1.00  0.00     0.031 A 
ATOM     13  C   UNL A   1      42.695  29.825  28.701  1.00  0.00     0.074 A 
ATOM     14  C   UNL A   1      41.865  27.538  28.284  1.00  0.00     0.049 A 
ATOM     15  N   UNL A   1      43.951  29.683  28.357  1.00  0.00    -0.248 NA
ATOM     16  C   UNL A   1      42.345  31.184  29.136  1.00  0.00     0.031 C 
ATOM     17  C   UNL A   1      40.880  26.452  28.195  1.00  0.00     0.029 A 
ATOM     18  N   UNL A   1      43.041  26.937  27.909  1.00  0.00    -0.354 N 
ATOM     19  C   UNL A   1      44.540  30.932  28.521  1.00  0.00     0.074 A 
ATOM     20  C   UNL A   1      43.494  31.827  28.968  1.00  0.00     0.031 C 
ATOM     21  C   UNL A   1      41.505  25.309  27.882  1.00  0.00     0.029 A 
ATOM     22  C   UNL A   1      42.917  25.589  27.656  1.00  0.00     0.049 A 
ATOM     23  H   UNL A   1      43.894  27.423  27.830  1.00  0.00     0.167 HD
ATOM     24  C   UNL A   1      45.833  31.295  28.329  1.00  0.00     0.031 A 
ATOM     25  C   UNL A   1      43.823  24.673  27.266  1.00  0.00     0.031 A 
ATOM     26  C   UNL A   1      46.876  30.394  27.903  1.00  0.00     0.049 A 
ATOM     27  C   UNL A   1      45.246  25.106  27.058  1.00  0.00     0.074 A 
ATOM     28  C   UNL A   1      48.220  30.665  27.702  1.00  0.00     0.029 A 
ATOM     29  N   UNL A   1      46.700  29.046  27.621  1.00  0.00    -0.354 N 
ATOM     30  N   UNL A   1      45.778  26.292  27.235  1.00  0.00    -0.248 NA
ATOM     31  C   UNL A   1      46.189  24.080  26.598  1.00  0.00     0.031 C 
ATOM     32  C   UNL A   1      48.845  29.498  27.253  1.00  0.00     0.029 A 
ATOM     33  C   UNL A   1      47.906  28.480  27.234  1.00  0.00     0.049 A 
ATOM     34  H   UNL A   1      45.845  28.563  27.687  1.00  0.00     0.167 HD
ATOM     35  C   UNL A   1      47.123  26.151  26.913  1.00  0.00     0.074 A 
ATOM     36  C   UNL A   1      47.328  24.758  26.575  1.00  0.00     0.031 C 
ATOM     37  C   UNL A   1      48.097  27.094  26.889  1.00  0.00     0.031 A 
BRANCH  24  38
ATOM     38  C   UNL A   1      46.207  32.737  28.576  1.00  0.00    -0.014 A 
ATOM     39  C   UNL A   1      46.689  33.160  29.827  1.00  0.00     0.010 A 
ATOM     40  C   UNL A   1      46.160  33.664  27.516  1.00  0.00     0.010 A 
ATOM     41  C   UNL A   1      47.094  34.484  30.022  1.00  0.00     0.020 A 
ATOM     42  C   UNL A   1      46.591  34.982  27.699  1.00  0.00     0.020 A 
ATOM     43  C   UNL A   1      47.048  35.387  28.955  1.00  0.00     0.054 A 
BRANCH  43  44
ATOM     44  S   UNL A   1      47.635  37.082  29.224  1.00  0.00     0.124 S 
ATOM     45  O   UNL A   1      48.345  36.961  30.494  1.00  0.00    -0.237 OA
ATOM     46  O   UNL A   1      48.478  37.318  28.055  1.00  0.00    -0.237 OA
ATOM     47  O   UNL A   1      46.408  37.873  29.272  1.00  0.00    -0.744 OA
ENDBRANCH  43  44
ENDBRANCH  24  38
BRANCH  25  48
ATOM     48  C   UNL A   1      43.404  23.267  27.003  1.00  0.00    -0.014 A 
ATOM     49  C   UNL A   1      42.984  22.424  28.047  1.00  0.00     0.010 A 
ATOM     50  C   UNL A   1      43.436  22.761  25.690  1.00  0.00     0.010 A 
ATOM     51  C   UNL A   1      42.639  21.093  27.787  1.00  0.00     0.020 A 
ATOM     52  C   UNL A   1      43.053  21.445  25.421  1.00  0.00     0.020 A 
ATOM     53  C   UNL A   1      42.678  20.613  26.475  1.00  0.00     0.054 A 
BRANCH  53  54
ATOM     54  S   UNL A   1      42.209  18.890  26.155  1.00  0.00     0.124 S 
ATOM     55  O   UNL A   1      40.817  19.028  25.739  1.00  0.00    -0.237 OA
ATOM     56  O   UNL A   1      43.147  18.496  25.109  1.00  0.00    -0.237 OA
ATOM     57  O   UNL A   1      42.416  18.235  27.446  1.00  0.00    -0.744 OA
ENDBRANCH  53  54
ENDBRANCH  25  48
BRANCH  37  58
ATOM     58  C   UNL A   1      49.478  26.635  26.502  1.00  0.00    -0.014 A 
ATOM     59  C   UNL A   1      49.936  26.740  25.176  1.00  0.00     0.010 A 
ATOM     60  C   UNL A   1      50.331  26.091  27.479  1.00  0.00     0.010 A 
ATOM     61  C   UNL A   1      51.201  26.260  24.825  1.00  0.00     0.020 A 
ATOM     62  C   UNL A   1      51.609  25.641  27.139  1.00  0.00     0.020 A 
ATOM     63  C   UNL A   1      52.028  25.709  25.809  1.00  0.00     0.054 A 
BRANCH  63  64
ATOM     64  S   UNL A   1      53.667  25.100  25.329  1.00  0.00     0.124 S 
ATOM     65  O   UNL A   1      54.498  25.557  26.439  1.00  0.00    -0.237 OA
ATOM     66  O   UNL A   1      53.462  23.656  25.249  1.00  0.00    -0.237 OA
ATOM     67  O   UNL A   1      53.919  25.759  24.049  1.00  0.00    -0.744 OA
ENDBRANCH  63  64
ENDBRANCH  37  58
ENDBRANCH  11  12
ENDBRANCH   4   6
ENDBRANCH   1   2
BRANCH   1  68
ATOM     68  C   UNL A   1      34.291  32.004  27.753  1.00  0.00     0.042 C 
BRANCH  68  69
ATOM     69  C   UNL A   1      33.051  31.527  26.994  1.00  0.00     0.118 C 
BRANCH  69  70
ATOM     70  N   UNL A   1      32.585  30.259  27.532  1.00  0.00    -0.351 N 
ATOM     71  C   UNL A   1      31.886  29.216  27.020  1.00  0.00     0.278 C 
ATOM     72  H   UNL A   1      32.834  30.127  28.475  1.00  0.00     0.163 HD
ATOM     73  O   UNL A   1      31.537  28.361  27.850  1.00  0.00    -0.268 OA
BRANCH  71  74
ATOM     74  C   UNL A   1      31.619  28.957  25.509  1.00  0.00     0.273 C 
ATOM     75  C   UNL A   1      31.708  27.592  24.858  1.00  0.00     0.088 C 
ATOM     76  N   UNL A   1      32.642  29.689  24.707  1.00  0.00    -0.336 N 
ATOM     77  C   UNL A   1      33.205  27.341  24.617  1.00  0.00     0.029 C 
ATOM     78  C   UNL A   1      33.762  28.766  24.461  1.00  0.00     0.268 C 
ATOM     79  H   UNL A   1      32.970  30.505  25.225  1.00  0.00     0.346 HD
ATOM     80  H   UNL A   1      32.243  30.009  23.826  1.00  0.00     0.346 HD
ATOM     81  C   UNL A   1      33.449  26.448  23.388  1.00  0.00     0.034 C 
ATOM     82  C   UNL A   1      33.898  26.639  25.791  1.00  0.00     0.034 C 
ATOM     83  C   UNL A   1      32.955  25.004  23.580  1.00  0.00     0.120 C 
ATOM     84  C   UNL A   1      33.346  25.243  26.014  1.00  0.00     0.120 C 
ATOM     85  N   UNL A   1      33.362  24.384  24.843  1.00  0.00    -0.342 N 
ATOM     86  C   UNL A   1      33.160  23.024  25.172  1.00  0.00     0.233 C 
ATOM     87  O   UNL A   1      32.799  22.741  26.324  1.00  0.00    -0.274 OA
BRANCH  86  88
ATOM     88  C   UNL A   1      33.412  21.856  24.226  1.00  0.00     0.077 C 
ATOM     89  C   UNL A   1      32.336  20.854  23.827  1.00  0.00     0.023 C 
ATOM     90  C   UNL A   1      32.801  21.873  22.829  1.00  0.00     0.023 C 
BRANCH  88  91
ATOM     91  C   UNL A   1      34.837  21.272  24.363  1.00  0.00     0.003 A 
ATOM     92  C   UNL A   1      35.046  19.939  24.772  1.00  0.00     0.008 A 
ATOM     93  C   UNL A   1      35.979  22.073  24.204  1.00  0.00     0.127 A 
ATOM     94  C   UNL A   1      36.331  19.444  25.018  1.00  0.00     0.001 A 
ATOM     95  C   UNL A   1      37.263  21.587  24.443  1.00  0.00     0.039 A 
ATOM     96  F   UNL A   1      35.836  23.360  23.851  1.00  0.00    -0.207 F 
ATOM     97  C   UNL A   1      37.440  20.270  24.859  1.00  0.00     0.003 A 
ENDBRANCH  88  91
ENDBRANCH  86  88
ENDBRANCH  71  74
ENDBRANCH  69  70
ENDBRANCH  68  69
ENDBRANCH   1  68
TORSDOF 15
ENDMDL
MODEL 2
REMARK VINA RESULT:     -12.5      2.017      8.295
REMARK SMILES O=C(NCCCNC(=O)[C@@H]1CC2(CCN(C(=O)C3(c4ccccc4F)CC3)CC2)C[NH2+]1)c1ccc(-c2c3nc(c(-c4ccc(S(=O)(=O)[O-])cc4)c4ccc([nH]4)c(-c4ccc(S(=O)(=O)[O-])cc4)c4nc(c(-c5ccc(S(=O)(=O)[O-])cc5)c5ccc2[nH]5)C=C4)C=C3)cc1
REMARK SMILES IDX 4 1 3 2 1 3 2 4 32 6 33 7 91 8 34 9 90 10 35 11 36 12 37 13
REMARK SMILES IDX 84 14 38 15 89 16 83 17 85 18 39 19 88 20 82 21 81 22 40 24
REMARK SMILES IDX 70 25 51 26 69 27 52 28 55 29 68 30 86 31 53 32 54 33 67 35
REMARK SMILES IDX 87 36 56 37 41 38 42 39 50 40 43 41 49 42 44 43 45 44 46 45
REMARK SMILES IDX 47 46 48 47 71 48 72 49 80 50 73 51 79 52 74 53 75 54 76 55
REMARK SMILES IDX 77 56 78 57 57 58 58 59 66 60 59 61 65 62 60 63 61 64 62 65
REMARK SMILES IDX 63 66 64 67 5 68 6 69 7 70 8 71 9 73 10 74 11 75 31 76 12 77
REMARK SMILES IDX 30 78 13 81 29 82 14 83 28 84 15 85 16 86 17 87 18 88 26 89
REMARK SMILES IDX 27 90 19 91 20 92 24 93 21 94 23 95 25 96 22 97
REMARK H PARENT 3 5 85 23 55 34 7 72 31 79 31 80
REMARK Flexibility Score: inf
ROOT
ATOM      1  C   UNL A   1      33.774  29.021  27.240  1.00  0.00     0.118 C 
ENDROOT
BRANCH   1   2
ATOM      2  N   UNL A   1      34.009  30.284  27.921  1.00  0.00    -0.352 N 
ATOM      3  O   UNL A   1      34.866  31.744  29.368  1.00  0.00    -0.269 OA
ATOM      4  C   UNL A   1      35.058  30.738  28.688  1.00  0.00     0.251 C 
ATOM      5  H   UNL A   1      33.280  30.938  27.812  1.00  0.00     0.163 HD
BRANCH   4   6
ATOM      6  C   UNL A   1      36.395  30.078  28.723  1.00  0.00     0.039 A 
ATOM      7  C   UNL A   1      37.292  30.143  27.661  1.00  0.00     0.014 A 
ATOM      8  C   UNL A   1      36.832  29.495  29.925  1.00  0.00     0.014 A 
ATOM      9  C   UNL A   1      38.550  29.549  27.750  1.00  0.00     0.010 A 
ATOM     10  C   UNL A   1      38.147  29.016  30.060  1.00  0.00     0.010 A 
ATOM     11  C   UNL A   1      39.027  29.046  28.971  1.00  0.00    -0.014 A 
BRANCH  11  12
ATOM     12  C   UNL A   1      40.479  28.716  29.084  1.00  0.00     0.031 A 
ATOM     13  C   UNL A   1      41.037  27.391  28.643  1.00  0.00     0.074 A 
ATOM     14  C   UNL A   1      41.317  29.669  29.550  1.00  0.00     0.049 A 
ATOM     15  N   UNL A   1      42.285  26.990  28.633  1.00  0.00    -0.248 NA
ATOM     16  C   UNL A   1      40.083  26.383  28.163  1.00  0.00     0.031 C 
ATOM     17  C   UNL A   1      40.900  30.988  30.044  1.00  0.00     0.029 A 
ATOM     18  N   UNL A   1      42.686  29.707  29.648  1.00  0.00    -0.354 N 
ATOM     19  C   UNL A   1      42.267  25.683  28.160  1.00  0.00     0.074 A 
ATOM     20  C   UNL A   1      40.879  25.348  27.921  1.00  0.00     0.031 C 
ATOM     21  C   UNL A   1      41.986  31.729  30.304  1.00  0.00     0.029 A 
ATOM     22  C   UNL A   1      43.175  30.916  30.087  1.00  0.00     0.049 A 
ATOM     23  H   UNL A   1      43.263  28.941  29.424  1.00  0.00     0.167 HD
ATOM     24  C   UNL A   1      43.309  24.845  27.933  1.00  0.00     0.031 A 
ATOM     25  C   UNL A   1      44.436  31.333  30.313  1.00  0.00     0.031 A 
ATOM     26  C   UNL A   1      44.693  25.191  28.154  1.00  0.00     0.049 A 
ATOM     27  C   UNL A   1      45.569  30.381  30.057  1.00  0.00     0.074 A 
ATOM     28  C   UNL A   1      45.820  24.415  27.933  1.00  0.00     0.029 A 
ATOM     29  N   UNL A   1      45.143  26.412  28.635  1.00  0.00    -0.354 N 
ATOM     30  N   UNL A   1      45.523  29.154  29.595  1.00  0.00    -0.248 NA
ATOM     31  C   UNL A   1      46.921  30.868  30.353  1.00  0.00     0.031 C 
ATOM     32  C   UNL A   1      46.945  25.148  28.326  1.00  0.00     0.029 A 
ATOM     33  C   UNL A   1      46.527  26.404  28.731  1.00  0.00     0.049 A 
ATOM     34  H   UNL A   1      44.565  27.173  28.872  1.00  0.00     0.167 HD
ATOM     35  C   UNL A   1      46.844  28.725  29.540  1.00  0.00     0.074 A 
ATOM     36  C   UNL A   1      47.664  29.838  29.972  1.00  0.00     0.031 C 
ATOM     37  C   UNL A   1      47.332  27.514  29.174  1.00  0.00     0.031 A 
BRANCH  24  38
ATOM     38  C   UNL A   1      43.004  23.459  27.419  1.00  0.00    -0.014 A 
ATOM     39  C   UNL A   1      43.307  23.090  26.096  1.00  0.00     0.010 A 
ATOM     40  C   UNL A   1      42.489  22.483  28.295  1.00  0.00     0.010 A 
ATOM     41  C   UNL A   1      43.081  21.783  25.653  1.00  0.00     0.020 A 
ATOM     42  C   UNL A   1      42.288  21.168  27.864  1.00  0.00     0.020 A 
ATOM     43  C   UNL A   1      42.576  20.828  26.541  1.00  0.00     0.054 A 
BRANCH  43  44
ATOM     44  S   UNL A   1      42.348  19.127  25.951  1.00  0.00     0.124 S 
ATOM     45  O   UNL A   1      40.912  19.088  25.684  1.00  0.00    -0.237 OA
ATOM     46  O   UNL A   1      43.207  19.081  24.771  1.00  0.00    -0.237 OA
ATOM     47  O   UNL A   1      42.793  18.306  27.075  1.00  0.00    -0.744 OA
ENDBRANCH  43  44
ENDBRANCH  24  38
BRANCH  25  48
ATOM     48  C   UNL A   1      44.689  32.699  30.852  1.00  0.00    -0.014 A 
ATOM     49  C   UNL A   1      44.736  32.940  32.236  1.00  0.00     0.010 A 
ATOM     50  C   UNL A   1      44.875  33.778  29.966  1.00  0.00     0.010 A 
ATOM     51  C   UNL A   1      44.928  34.238  32.723  1.00  0.00     0.020 A 
ATOM     52  C   UNL A   1      45.107  35.067  30.448  1.00  0.00     0.020 A 
ATOM     53  C   UNL A   1      45.111  35.293  31.824  1.00  0.00     0.054 A 
BRANCH  53  54
ATOM     54  S   UNL A   1      45.378  36.965  32.474  1.00  0.00     0.124 S 
ATOM     55  O   UNL A   1      44.496  37.762  31.628  1.00  0.00    -0.237 OA
ATOM     56  O   UNL A   1      44.968  36.832  33.869  1.00  0.00    -0.237 OA
ATOM     57  O   UNL A   1      46.809  37.185  32.272  1.00  0.00    -0.744 OA
ENDBRANCH  53  54
ENDBRANCH  25  48
BRANCH  37  58
ATOM     58  C   UNL A   1      48.829  27.346  29.208  1.00  0.00    -0.014 A 
ATOM     59  C   UNL A   1      49.632  27.740  28.123  1.00  0.00     0.010 A 
ATOM     60  C   UNL A   1      49.441  26.786  30.344  1.00  0.00     0.010 A 
ATOM     61  C   UNL A   1      51.013  27.528  28.152  1.00  0.00     0.020 A 
ATOM     62  C   UNL A   1      50.825  26.603  30.391  1.00  0.00     0.020 A 
ATOM     63  C   UNL A   1      51.600  26.955  29.284  1.00  0.00     0.054 A 
BRANCH  63  64
ATOM     64  S   UNL A   1      53.395  26.696  29.299  1.00  0.00     0.124 S 
ATOM     65  O   UNL A   1      53.900  28.066  29.263  1.00  0.00    -0.237 OA
ATOM     66  O   UNL A   1      53.605  25.981  30.555  1.00  0.00    -0.237 OA
ATOM     67  O   UNL A   1      53.640  25.909  28.093  1.00  0.00    -0.744 OA
ENDBRANCH  63  64
ENDBRANCH  37  58
ENDBRANCH  11  12
ENDBRANCH   4   6
ENDBRANCH   1   2
BRANCH   1  68
ATOM     68  C   UNL A   1      32.505  28.346  27.741  1.00  0.00     0.042 C 
BRANCH  68  69
ATOM     69  C   UNL A   1      31.466  28.115  26.642  1.00  0.00     0.118 C 
BRANCH  69  70
ATOM     70  N   UNL A   1      31.138  29.369  25.985  1.00  0.00    -0.351 N 
ATOM     71  C   UNL A   1      30.876  29.722  24.702  1.00  0.00     0.278 C 
ATOM     72  H   UNL A   1      31.094  30.130  26.608  1.00  0.00     0.163 HD
ATOM     73  O   UNL A   1      30.791  30.945  24.502  1.00  0.00    -0.268 OA
BRANCH  71  74
ATOM     74  C   UNL A   1      30.552  28.741  23.539  1.00  0.00     0.273 C 
ATOM     75  C   UNL A   1      31.172  27.366  23.398  1.00  0.00     0.088 C 
ATOM     76  N   UNL A   1      30.996  29.354  22.254  1.00  0.00    -0.336 N 
ATOM     77  C   UNL A   1      32.565  27.597  22.791  1.00  0.00     0.029 C 
ATOM     78  C   UNL A   1      32.370  28.896  21.990  1.00  0.00     0.268 C 
ATOM     79  H   UNL A   1      30.976  30.371  22.331  1.00  0.00     0.346 HD
ATOM     80  H   UNL A   1      30.375  29.078  21.494  1.00  0.00     0.346 HD
ATOM     81  C   UNL A   1      33.022  26.407  21.928  1.00  0.00     0.034 C 
ATOM     82  C   UNL A   1      33.660  27.797  23.844  1.00  0.00     0.034 C 
ATOM     83  C   UNL A   1      33.287  25.132  22.746  1.00  0.00     0.120 C 
ATOM     84  C   UNL A   1      33.856  26.553  24.692  1.00  0.00     0.120 C 
ATOM     85  N   UNL A   1      34.107  25.335  23.943  1.00  0.00    -0.342 N 
ATOM     86  C   UNL A   1      34.607  24.295  24.760  1.00  0.00     0.233 C 
ATOM     87  O   UNL A   1      34.583  24.446  25.990  1.00  0.00    -0.274 OA
BRANCH  86  88
ATOM     88  C   UNL A   1      35.238  23.009  24.237  1.00  0.00     0.077 C 
ATOM     89  C   UNL A   1      36.216  22.972  23.070  1.00  0.00     0.023 C 
ATOM     90  C   UNL A   1      36.724  22.755  24.465  1.00  0.00     0.023 C 
BRANCH  88  91
ATOM     91  C   UNL A   1      34.292  21.792  24.342  1.00  0.00     0.003 A 
ATOM     92  C   UNL A   1      33.351  21.505  23.332  1.00  0.00     0.008 A 
ATOM     93  C   UNL A   1      34.244  20.994  25.497  1.00  0.00     0.127 A 
ATOM     94  C   UNL A   1      32.410  20.481  23.479  1.00  0.00     0.001 A 
ATOM     95  C   UNL A   1      33.313  19.969  25.651  1.00  0.00     0.039 A 
ATOM     96  F   UNL A   1      35.093  21.246  26.506  1.00  0.00    -0.207 F 
ATOM     97  C   UNL A   1      32.387  19.716  24.642  1.00  0.00     0.003 A 
ENDBRANCH  88  91
ENDBRANCH  86  88
ENDBRANCH  71  74
ENDBRANCH  69  70
ENDBRANCH  68  69
ENDBRANCH   1  68
TORSDOF 15
ENDMDL
MODEL 3
REMARK VINA RESULT:     -12.3      6.183     11.889
REMARK SMILES O=C(NCCCNC(=O)[C@@H]1CC2(CCN(C(=O)C3(c4ccccc4F)CC3)CC2)C[NH2+]1)c1ccc(-c2c3nc(c(-c4ccc(S(=O)(=O)[O-])cc4)c4ccc([nH]4)c(-c4ccc(S(=O)(=O)[O-])cc4)c4nc(c(-c5ccc(S(=O)(=O)[O-])cc5)c5ccc2[nH]5)C=C4)C=C3)cc1
REMARK SMILES IDX 4 1 3 2 1 3 2 4 32 6 33 7 91 8 34 9 90 10 35 11 36 12 37 13
REMARK SMILES IDX 84 14 38 15 89 16 83 17 85 18 39 19 88 20 82 21 81 22 40 24
REMARK SMILES IDX 70 25 51 26 69 27 52 28 55 29 68 30 86 31 53 32 54 33 67 35
REMARK SMILES IDX 87 36 56 37 41 38 42 39 50 40 43 41 49 42 44 43 45 44 46 45
REMARK SMILES IDX 47 46 48 47 71 48 72 49 80 50 73 51 79 52 74 53 75 54 76 55
REMARK SMILES IDX 77 56 78 57 57 58 58 59 66 60 59 61 65 62 60 63 61 64 62 65
REMARK SMILES IDX 63 66 64 67 5 68 6 69 7 70 8 71 9 73 10 74 11 75 31 76 12 77
REMARK SMILES IDX 30 78 13 81 29 82 14 83 28 84 15 85 16 86 17 87 18 88 26 89
REMARK SMILES IDX 27 90 19 91 20 92 24 93 21 94 23 95 25 96 22 97
REMARK H PARENT 3 5 85 23 55 34 7 72 31 79 31 80
REMARK Flexibility Score: inf
ROOT
ATOM      1  C   UNL A   1      41.988  23.071  26.754  1.00  0.00     0.118 C 
ENDROOT
BRANCH   1   2
ATOM      2  N   UNL A   1      41.955  24.189  25.827  1.00  0.00    -0.352 N 
ATOM      3  O   UNL A   1      41.446  26.191  24.992  1.00  0.00    -0.269 OA
ATOM      4  C   UNL A   1      41.669  25.525  26.001  1.00  0.00     0.251 C 
ATOM      5  H   UNL A   1      42.180  23.946  24.899  1.00  0.00     0.163 HD
BRANCH   4   6
ATOM      6  C   UNL A   1      41.627  26.188  27.337  1.00  0.00     0.039 A 
ATOM      7  C   UNL A   1      42.509  27.202  27.699  1.00  0.00     0.014 A 
ATOM      8  C   UNL A   1      40.568  25.888  28.210  1.00  0.00     0.014 A 
ATOM      9  C   UNL A   1      42.409  27.827  28.942  1.00  0.00     0.010 A 
ATOM     10  C   UNL A   1      40.387  26.609  29.402  1.00  0.00     0.010 A 
ATOM     11  C   UNL A   1      41.305  27.597  29.778  1.00  0.00    -0.014 A 
BRANCH  11  12
ATOM     12  C   UNL A   1      41.089  28.517  30.935  1.00  0.00     0.031 A 
ATOM     13  C   UNL A   1      41.977  28.502  32.149  1.00  0.00     0.074 A 
ATOM     14  C   UNL A   1      40.091  29.425  30.852  1.00  0.00     0.049 A 
ATOM     15  N   UNL A   1      41.937  29.281  33.202  1.00  0.00    -0.248 NA
ATOM     16  C   UNL A   1      43.034  27.483  32.199  1.00  0.00     0.031 C 
ATOM     17  C   UNL A   1      39.134  29.525  29.742  1.00  0.00     0.029 A 
ATOM     18  N   UNL A   1      39.734  30.462  31.679  1.00  0.00    -0.354 N 
ATOM     19  C   UNL A   1      42.952  28.841  34.046  1.00  0.00     0.074 A 
ATOM     20  C   UNL A   1      43.571  27.707  33.393  1.00  0.00     0.031 C 
ATOM     21  C   UNL A   1      38.366  30.610  29.913  1.00  0.00     0.029 A 
ATOM     22  C   UNL A   1      38.707  31.234  31.185  1.00  0.00     0.049 A 
ATOM     23  H   UNL A   1      40.173  30.637  32.542  1.00  0.00     0.167 HD
ATOM     24  C   UNL A   1      43.339  29.343  35.245  1.00  0.00     0.031 A 
ATOM     25  C   UNL A   1      38.085  32.314  31.696  1.00  0.00     0.031 A 
ATOM     26  C   UNL A   1      42.732  30.487  35.882  1.00  0.00     0.049 A 
ATOM     27  C   UNL A   1      38.534  32.844  33.027  1.00  0.00     0.074 A 
ATOM     28  C   UNL A   1      43.071  31.082  37.087  1.00  0.00     0.029 A 
ATOM     29  N   UNL A   1      41.671  31.217  35.367  1.00  0.00    -0.354 N 
ATOM     30  N   UNL A   1      39.507  32.417  33.797  1.00  0.00    -0.248 NA
ATOM     31  C   UNL A   1      37.802  33.999  33.560  1.00  0.00     0.031 C 
ATOM     32  C   UNL A   1      42.184  32.138  37.323  1.00  0.00     0.029 A 
ATOM     33  C   UNL A   1      41.333  32.244  36.237  1.00  0.00     0.049 A 
ATOM     34  H   UNL A   1      41.222  31.033  34.510  1.00  0.00     0.167 HD
ATOM     35  C   UNL A   1      39.507  33.258  34.903  1.00  0.00     0.074 A 
ATOM     36  C   UNL A   1      38.468  34.242  34.680  1.00  0.00     0.031 C 
ATOM     37  C   UNL A   1      40.289  33.211  36.009  1.00  0.00     0.031 A 
BRANCH  24  38
ATOM     38  C   UNL A   1      44.479  28.661  35.962  1.00  0.00    -0.014 A 
ATOM     39  C   UNL A   1      45.808  29.090  35.791  1.00  0.00     0.010 A 
ATOM     40  C   UNL A   1      44.210  27.635  36.889  1.00  0.00     0.010 A 
ATOM     41  C   UNL A   1      46.846  28.492  36.513  1.00  0.00     0.020 A 
ATOM     42  C   UNL A   1      45.242  27.054  37.634  1.00  0.00     0.020 A 
ATOM     43  C   UNL A   1      46.556  27.481  37.434  1.00  0.00     0.054 A 
BRANCH  43  44
ATOM     44  S   UNL A   1      47.918  26.766  38.397  1.00  0.00     0.124 S 
ATOM     45  O   UNL A   1      47.497  27.039  39.769  1.00  0.00    -0.237 OA
ATOM     46  O   UNL A   1      47.886  25.361  38.001  1.00  0.00    -0.237 OA
ATOM     47  O   UNL A   1      49.091  27.511  37.948  1.00  0.00    -0.744 OA
ENDBRANCH  43  44
ENDBRANCH  24  38
BRANCH  25  48
ATOM     48  C   UNL A   1      36.943  32.936  30.968  1.00  0.00    -0.014 A 
ATOM     49  C   UNL A   1      37.154  33.760  29.849  1.00  0.00     0.010 A 
ATOM     50  C   UNL A   1      35.625  32.711  31.410  1.00  0.00     0.010 A 
ATOM     51  C   UNL A   1      36.072  34.373  29.207  1.00  0.00     0.020 A 
ATOM     52  C   UNL A   1      34.540  33.289  30.748  1.00  0.00     0.020 A 
ATOM     53  C   UNL A   1      34.772  34.134  29.663  1.00  0.00     0.054 A 
BRANCH  53  54
ATOM     54  S   UNL A   1      33.381  34.923  28.807  1.00  0.00     0.124 S 
ATOM     55  O   UNL A   1      33.033  33.920  27.807  1.00  0.00    -0.237 OA
ATOM     56  O   UNL A   1      32.412  35.109  29.883  1.00  0.00    -0.237 OA
ATOM     57  O   UNL A   1      33.961  36.158  28.282  1.00  0.00    -0.744 OA
ENDBRANCH  53  54
ENDBRANCH  25  48
BRANCH  37  58
ATOM     58  C   UNL A   1      40.059  34.275  37.050  1.00  0.00    -0.014 A 
ATOM     59  C   UNL A   1      39.177  34.063  38.126  1.00  0.00     0.010 A 
ATOM     60  C   UNL A   1      40.735  35.504  36.952  1.00  0.00     0.010 A 
ATOM     61  C   UNL A   1      38.935  35.081  39.053  1.00  0.00     0.020 A 
ATOM     62  C   UNL A   1      40.523  36.512  37.896  1.00  0.00     0.020 A 
ATOM     63  C   UNL A   1      39.607  36.301  38.929  1.00  0.00     0.054 A 
BRANCH  63  64
ATOM     64  S   UNL A   1      39.281  37.603  40.148  1.00  0.00     0.124 S 
ATOM     65  O   UNL A   1      38.928  36.827  41.334  1.00  0.00    -0.237 OA
ATOM     66  O   UNL A   1      40.558  38.307  40.215  1.00  0.00    -0.237 OA
ATOM     67  O   UNL A   1      38.186  38.367  39.554  1.00  0.00    -0.744 OA
ENDBRANCH  63  64
ENDBRANCH  37  58
ENDBRANCH  11  12
ENDBRANCH   4   6
ENDBRANCH   1   2
BRANCH   1  68
ATOM     68  C   UNL A   1      41.714  21.752  26.046  1.00  0.00     0.042 C 
BRANCH  68  69
ATOM     69  C   UNL A   1      40.318  21.192  26.324  1.00  0.00     0.118 C 
BRANCH  69  70
ATOM     70  N   UNL A   1      39.425  22.252  26.760  1.00  0.00    -0.351 N 
ATOM     71  C   UNL A   1      38.410  22.933  26.173  1.00  0.00     0.278 C 
ATOM     72  H   UNL A   1      39.593  22.539  27.687  1.00  0.00     0.163 HD
ATOM     73  O   UNL A   1      37.979  23.897  26.826  1.00  0.00    -0.268 OA
BRANCH  71  74
ATOM     74  C   UNL A   1      37.686  22.526  24.857  1.00  0.00     0.273 C 
ATOM     75  C   UNL A   1      36.372  23.123  24.398  1.00  0.00     0.088 C 
ATOM     76  N   UNL A   1      37.297  21.089  24.946  1.00  0.00    -0.336 N 
ATOM     77  C   UNL A   1      35.281  22.395  25.200  1.00  0.00     0.029 C 
ATOM     78  C   UNL A   1      35.928  21.028  25.481  1.00  0.00     0.268 C 
ATOM     79  H   UNL A   1      37.937  20.595  25.569  1.00  0.00     0.346 HD
ATOM     80  H   UNL A   1      37.342  20.650  24.027  1.00  0.00     0.346 HD
ATOM     81  C   UNL A   1      33.958  22.300  24.419  1.00  0.00     0.034 C 
ATOM     82  C   UNL A   1      34.939  23.089  26.524  1.00  0.00     0.034 C 
ATOM     83  C   UNL A   1      33.280  23.665  24.207  1.00  0.00     0.120 C 
ATOM     84  C   UNL A   1      34.340  24.465  26.297  1.00  0.00     0.120 C 
ATOM     85  N   UNL A   1      33.190  24.494  25.411  1.00  0.00    -0.342 N 
ATOM     86  C   UNL A   1      32.477  25.712  25.495  1.00  0.00     0.233 C 
ATOM     87  O   UNL A   1      32.989  26.655  26.116  1.00  0.00    -0.274 OA
BRANCH  86  88
ATOM     88  C   UNL A   1      31.081  25.941  24.926  1.00  0.00     0.077 C 
ATOM     89  C   UNL A   1      30.148  24.808  24.519  1.00  0.00     0.023 C 
ATOM     90  C   UNL A   1      29.860  25.590  25.767  1.00  0.00     0.023 C 
BRANCH  88  91
ATOM     91  C   UNL A   1      30.992  27.213  24.053  1.00  0.00     0.003 A 
ATOM     92  C   UNL A   1      30.422  28.404  24.548  1.00  0.00     0.008 A 
ATOM     93  C   UNL A   1      31.361  27.203  22.698  1.00  0.00     0.127 A 
ATOM     94  C   UNL A   1      30.225  29.517  23.724  1.00  0.00     0.001 A 
ATOM     95  C   UNL A   1      31.173  28.309  21.871  1.00  0.00     0.039 A 
ATOM     96  F   UNL A   1      31.876  26.084  22.165  1.00  0.00    -0.207 F 
ATOM     97  C   UNL A   1      30.596  29.468  22.383  1.00  0.00     0.003 A 
ENDBRANCH  88  91
ENDBRANCH  86  88
ENDBRANCH  71  74
ENDBRANCH  69  70
ENDBRANCH  68  69
ENDBRANCH   1  68
TORSDOF 15
ENDMDL
