MODEL 1
REMARK VINA RESULT:     -11.5      0.000      0.000
REMARK SMILES C#Cc1ccc2c(c1)C=C(C(=O)NCCCNC(=O)c1ccc(-c3c4nc(c(-c5ccc(S(=O)(=O)[O-])cc5)c5ccc([nH]5)c(-c5ccc(S(=O)(=O)[O-])cc5)c5nc(c(-c6ccc(S(=O)(=O)[O-])cc6)c6ccc3[nH]6)C=C5)C=C4)cc1)[C@@H](C(F)(F)F)O2
REMARK SMILES IDX 16 1 15 2 14 3 13 4 11 5 12 6 10 8 3 9 4 10 8 11 5 12 7 13
REMARK SMILES IDX 6 14 9 15 85 16 80 17 2 18 1 19 81 20 82 21 83 22 84 23
REMARK SMILES IDX 17 24 18 25 19 27 20 28 21 29 79 30 22 31 78 32 23 33 24 34
REMARK SMILES IDX 25 35 72 36 26 37 77 38 71 39 73 40 27 41 76 42 70 43 69 44
REMARK SMILES IDX 28 46 58 47 39 48 57 49 40 50 43 51 56 52 74 53 41 54 42 55
REMARK SMILES IDX 55 57 75 58 44 59 29 60 30 61 38 62 31 63 37 64 32 65 33 66
REMARK SMILES IDX 34 67 35 68 36 69 59 70 60 71 68 72 61 73 67 74 62 75 63 76
REMARK SMILES IDX 64 77 65 78 66 79 45 80 46 81 54 82 47 83 53 84 48 85 49 86
REMARK SMILES IDX 50 87 51 88 52 89
REMARK H PARENT 13 7 17 26 73 45 43 56
REMARK Flexibility Score: inf
ROOT
ATOM      1  C   UNL A   1      33.489  28.838  27.257  1.00  0.00     0.118 C 
ENDROOT
BRANCH   1   2
ATOM      2  C   UNL A   1      33.653  28.761  25.749  1.00  0.00     0.042 C 
BRANCH   2   3
ATOM      3  C   UNL A   1      32.319  28.863  25.038  1.00  0.00     0.118 C 
BRANCH   3   4
ATOM      4  N   UNL A   1      31.414  27.784  25.412  1.00  0.00    -0.352 N 
ATOM      5  C   UNL A   1      31.394  26.433  25.320  1.00  0.00     0.251 C 
ATOM      6  O   UNL A   1      30.412  25.881  25.824  1.00  0.00    -0.270 OA
ATOM      7  H   UNL A   1      30.603  28.128  25.848  1.00  0.00     0.163 HD
BRANCH   5   8
ATOM      8  C   UNL A   1      32.455  25.610  24.669  1.00  0.00     0.067 C 
ATOM      9  C   UNL A   1      36.692  23.306  24.982  1.00  0.00     0.025 A 
ATOM     10  C   UNL A   1      36.499  22.781  23.702  1.00  0.00     0.021 A 
ATOM     11  C   UNL A   1      35.715  24.123  25.565  1.00  0.00     0.029 A 
ATOM     12  C   UNL A   1      35.331  23.070  23.003  1.00  0.00     0.048 A 
ATOM     13  C   UNL A   1      34.544  24.419  24.863  1.00  0.00     0.018 A 
ATOM     14  C   UNL A   1      34.368  23.890  23.582  1.00  0.00     0.128 A 
ATOM     15  C   UNL A   1      33.481  25.226  25.451  1.00  0.00     0.025 C 
ATOM     16  O   UNL A   1      33.245  24.098  22.841  1.00  0.00    -0.475 OA
ATOM     17  C   UNL A   1      32.429  25.235  23.216  1.00  0.00     0.314 C 
BRANCH   9  18
ATOM     18  C   UNL A   1      37.888  22.986  25.694  1.00  0.00    -0.070 C 
ATOM     19  C   UNL A   1      38.880  22.725  26.322  1.00  0.00     0.010 C 
ENDBRANCH   9  18
BRANCH  17  20
ATOM     20  C   UNL A   1      32.774  26.425  22.298  1.00  0.00     0.429 C 
ATOM     21  F   UNL A   1      33.834  27.113  22.791  1.00  0.00    -0.167 F 
ATOM     22  F   UNL A   1      33.118  26.043  21.044  1.00  0.00    -0.167 F 
ATOM     23  F   UNL A   1      31.749  27.296  22.165  1.00  0.00    -0.167 F 
ENDBRANCH  17  20
ENDBRANCH   5   8
ENDBRANCH   3   4
ENDBRANCH   2   3
ENDBRANCH   1   2
BRANCH   1  24
ATOM     24  N   UNL A   1      33.615  30.209  27.759  1.00  0.00    -0.352 N 
ATOM     25  C   UNL A   1      34.658  30.830  28.407  1.00  0.00     0.251 C 
ATOM     26  H   UNL A   1      32.826  30.777  27.609  1.00  0.00     0.163 HD
ATOM     27  O   UNL A   1      34.485  31.918  28.946  1.00  0.00    -0.269 OA
BRANCH  25  28
ATOM     28  C   UNL A   1      35.968  30.157  28.471  1.00  0.00     0.039 A 
ATOM     29  C   UNL A   1      36.362  29.535  29.654  1.00  0.00     0.014 A 
ATOM     30  C   UNL A   1      36.833  30.205  27.378  1.00  0.00     0.014 A 
ATOM     31  C   UNL A   1      37.695  29.217  29.838  1.00  0.00     0.010 A 
ATOM     32  C   UNL A   1      38.140  29.730  27.518  1.00  0.00     0.010 A 
ATOM     33  C   UNL A   1      38.603  29.302  28.772  1.00  0.00    -0.014 A 
BRANCH  33  34
ATOM     34  C   UNL A   1      40.025  28.939  29.009  1.00  0.00     0.031 A 
ATOM     35  C   UNL A   1      40.950  29.876  29.739  1.00  0.00     0.074 A 
ATOM     36  C   UNL A   1      40.456  27.720  28.624  1.00  0.00     0.049 A 
ATOM     37  N   UNL A   1      42.207  29.699  30.057  1.00  0.00    -0.248 NA
ATOM     38  C   UNL A   1      40.408  31.177  30.165  1.00  0.00     0.031 C 
ATOM     39  C   UNL A   1      39.636  26.719  27.935  1.00  0.00     0.029 A 
ATOM     40  N   UNL A   1      41.666  27.095  28.788  1.00  0.00    -0.354 N 
ATOM     41  C   UNL A   1      42.609  30.867  30.696  1.00  0.00     0.074 A 
ATOM     42  C   UNL A   1      41.477  31.765  30.687  1.00  0.00     0.031 C 
ATOM     43  C   UNL A   1      40.337  25.586  27.808  1.00  0.00     0.029 A 
ATOM     44  C   UNL A   1      41.689  25.808  28.307  1.00  0.00     0.049 A 
ATOM     45  H   UNL A   1      42.444  27.528  29.210  1.00  0.00     0.167 HD
ATOM     46  C   UNL A   1      43.808  31.152  31.256  1.00  0.00     0.031 A 
ATOM     47  C   UNL A   1      42.685  24.902  28.249  1.00  0.00     0.031 A 
ATOM     48  C   UNL A   1      44.920  30.234  31.277  1.00  0.00     0.049 A 
ATOM     49  C   UNL A   1      44.022  25.265  28.827  1.00  0.00     0.074 A 
ATOM     50  C   UNL A   1      46.169  30.421  31.842  1.00  0.00     0.029 A 
ATOM     51  N   UNL A   1      44.921  28.962  30.720  1.00  0.00    -0.354 N 
ATOM     52  N   UNL A   1      44.374  26.366  29.447  1.00  0.00    -0.248 NA
ATOM     53  C   UNL A   1      45.092  24.268  28.709  1.00  0.00     0.031 C 
ATOM     54  C   UNL A   1      46.953  29.306  31.546  1.00  0.00     0.029 A 
ATOM     55  C   UNL A   1      46.164  28.372  30.893  1.00  0.00     0.049 A 
ATOM     56  H   UNL A   1      44.153  28.542  30.269  1.00  0.00     0.167 HD
ATOM     57  C   UNL A   1      45.702  26.186  29.816  1.00  0.00     0.074 A 
ATOM     58  C   UNL A   1      46.079  24.858  29.373  1.00  0.00     0.031 C 
ATOM     59  C   UNL A   1      46.531  27.045  30.457  1.00  0.00     0.031 A 
BRANCH  46  60
ATOM     60  C   UNL A   1      44.005  32.501  31.906  1.00  0.00    -0.014 A 
ATOM     61  C   UNL A   1      43.633  32.688  33.252  1.00  0.00     0.010 A 
ATOM     62  C   UNL A   1      44.415  33.619  31.156  1.00  0.00     0.010 A 
ATOM     63  C   UNL A   1      43.614  33.966  33.818  1.00  0.00     0.020 A 
ATOM     64  C   UNL A   1      44.437  34.894  31.730  1.00  0.00     0.020 A 
ATOM     65  C   UNL A   1      44.004  35.063  33.048  1.00  0.00     0.054 A 
BRANCH  65  66
ATOM     66  S   UNL A   1      43.908  36.721  33.779  1.00  0.00     0.124 S 
ATOM     67  O   UNL A   1      43.760  37.571  32.600  1.00  0.00    -0.237 OA
ATOM     68  O   UNL A   1      42.733  36.620  34.639  1.00  0.00    -0.237 OA
ATOM     69  O   UNL A   1      45.180  36.856  34.489  1.00  0.00    -0.744 OA
ENDBRANCH  65  66
ENDBRANCH  46  60
BRANCH  47  70
ATOM     70  C   UNL A   1      42.419  23.567  27.640  1.00  0.00    -0.014 A 
ATOM     71  C   UNL A   1      41.952  22.502  28.435  1.00  0.00     0.010 A 
ATOM     72  C   UNL A   1      42.731  23.321  26.292  1.00  0.00     0.010 A 
ATOM     73  C   UNL A   1      41.880  21.206  27.920  1.00  0.00     0.020 A 
ATOM     74  C   UNL A   1      42.615  22.032  25.759  1.00  0.00     0.020 A 
ATOM     75  C   UNL A   1      42.227  20.978  26.587  1.00  0.00     0.054 A 
BRANCH  75  76
ATOM     76  S   UNL A   1      42.201  19.274  25.967  1.00  0.00     0.124 S 
ATOM     77  O   UNL A   1      42.703  18.529  27.120  1.00  0.00    -0.237 OA
ATOM     78  O   UNL A   1      40.790  19.073  25.654  1.00  0.00    -0.237 OA
ATOM     79  O   UNL A   1      43.095  19.315  24.813  1.00  0.00    -0.744 OA
ENDBRANCH  75  76
ENDBRANCH  47  70
BRANCH  59  80
ATOM     80  C   UNL A   1      47.944  26.595  30.744  1.00  0.00    -0.014 A 
ATOM     81  C   UNL A   1      48.233  25.947  31.960  1.00  0.00     0.010 A 
ATOM     82  C   UNL A   1      49.003  26.933  29.885  1.00  0.00     0.010 A 
ATOM     83  C   UNL A   1      49.553  25.692  32.335  1.00  0.00     0.020 A 
ATOM     84  C   UNL A   1      50.324  26.638  30.235  1.00  0.00     0.020 A 
ATOM     85  C   UNL A   1      50.592  26.049  31.472  1.00  0.00     0.054 A 
BRANCH  85  86
ATOM     86  S   UNL A   1      52.302  25.755  32.001  1.00  0.00     0.124 S 
ATOM     87  O   UNL A   1      52.244  24.377  32.479  1.00  0.00    -0.237 OA
ATOM     88  O   UNL A   1      53.056  25.964  30.768  1.00  0.00    -0.237 OA
ATOM     89  O   UNL A   1      52.519  26.765  33.035  1.00  0.00    -0.744 OA
ENDBRANCH  85  86
ENDBRANCH  59  80
ENDBRANCH  33  34
ENDBRANCH  25  28
ENDBRANCH   1  24
TORSDOF 15
ENDMDL
MODEL 2
REMARK VINA RESULT:     -11.4      0.713      8.261
REMARK SMILES C#Cc1ccc2c(c1)C=C(C(=O)NCCCNC(=O)c1ccc(-c3c4nc(c(-c5ccc(S(=O)(=O)[O-])cc5)c5ccc([nH]5)c(-c5ccc(S(=O)(=O)[O-])cc5)c5nc(c(-c6ccc(S(=O)(=O)[O-])cc6)c6ccc3[nH]6)C=C5)C=C4)cc1)[C@@H](C(F)(F)F)O2
REMARK SMILES IDX 16 1 15 2 14 3 13 4 11 5 12 6 10 8 3 9 4 10 8 11 5 12 7 13
REMARK SMILES IDX 6 14 9 15 85 16 80 17 2 18 1 19 81 20 82 21 83 22 84 23
REMARK SMILES IDX 17 24 18 25 19 27 20 28 21 29 79 30 22 31 78 32 23 33 24 34
REMARK SMILES IDX 25 35 72 36 26 37 77 38 71 39 73 40 27 41 76 42 70 43 69 44
REMARK SMILES IDX 28 46 58 47 39 48 57 49 40 50 43 51 56 52 74 53 41 54 42 55
REMARK SMILES IDX 55 57 75 58 44 59 29 60 30 61 38 62 31 63 37 64 32 65 33 66
REMARK SMILES IDX 34 67 35 68 36 69 59 70 60 71 68 72 61 73 67 74 62 75 63 76
REMARK SMILES IDX 64 77 65 78 66 79 45 80 46 81 54 82 47 83 53 84 48 85 49 86
REMARK SMILES IDX 50 87 51 88 52 89
REMARK H PARENT 13 7 17 26 73 45 43 56
REMARK Flexibility Score: inf
ROOT
ATOM      1  C   UNL A   1      33.733  28.986  27.195  1.00  0.00     0.118 C 
ENDROOT
BRANCH   1   2
ATOM      2  C   UNL A   1      32.425  28.303  27.552  1.00  0.00     0.042 C 
BRANCH   2   3
ATOM      3  C   UNL A   1      31.634  27.932  26.314  1.00  0.00     0.118 C 
BRANCH   3   4
ATOM      4  N   UNL A   1      30.903  26.684  26.485  1.00  0.00    -0.352 N 
ATOM      5  C   UNL A   1      31.067  25.386  26.139  1.00  0.00     0.251 C 
ATOM      6  O   UNL A   1      30.189  24.614  26.538  1.00  0.00    -0.270 OA
ATOM      7  H   UNL A   1      30.068  26.822  26.986  1.00  0.00     0.163 HD
BRANCH   5   8
ATOM      8  C   UNL A   1      32.208  24.858  25.335  1.00  0.00     0.067 C 
ATOM      9  C   UNL A   1      36.728  23.158  25.168  1.00  0.00     0.025 A 
ATOM     10  C   UNL A   1      36.565  22.862  23.813  1.00  0.00     0.021 A 
ATOM     11  C   UNL A   1      35.670  23.704  25.905  1.00  0.00     0.029 A 
ATOM     12  C   UNL A   1      35.346  23.110  23.191  1.00  0.00     0.048 A 
ATOM     13  C   UNL A   1      34.445  23.959  25.281  1.00  0.00     0.018 A 
ATOM     14  C   UNL A   1      34.300  23.662  23.924  1.00  0.00     0.128 A 
ATOM     15  C   UNL A   1      33.302  24.481  26.021  1.00  0.00     0.025 C 
ATOM     16  O   UNL A   1      33.134  23.845  23.245  1.00  0.00    -0.475 OA
ATOM     17  C   UNL A   1      32.183  24.764  23.836  1.00  0.00     0.314 C 
BRANCH   9  18
ATOM     18  C   UNL A   1      37.981  22.881  25.797  1.00  0.00    -0.070 C 
ATOM     19  C   UNL A   1      39.051  22.671  26.305  1.00  0.00     0.010 C 
ENDBRANCH   9  18
BRANCH  17  20
ATOM     20  C   UNL A   1      32.331  26.143  23.162  1.00  0.00     0.429 C 
ATOM     21  F   UNL A   1      32.653  25.999  21.852  1.00  0.00    -0.167 F 
ATOM     22  F   UNL A   1      31.188  26.871  23.194  1.00  0.00    -0.167 F 
ATOM     23  F   UNL A   1      33.288  26.905  23.736  1.00  0.00    -0.167 F 
ENDBRANCH  17  20
ENDBRANCH   5   8
ENDBRANCH   3   4
ENDBRANCH   2   3
ENDBRANCH   1   2
BRANCH   1  24
ATOM     24  N   UNL A   1      33.856  30.309  27.811  1.00  0.00    -0.352 N 
ATOM     25  C   UNL A   1      34.876  30.857  28.554  1.00  0.00     0.251 C 
ATOM     26  H   UNL A   1      33.083  30.902  27.671  1.00  0.00     0.163 HD
ATOM     27  O   UNL A   1      34.693  31.902  29.171  1.00  0.00    -0.269 OA
BRANCH  25  28
ATOM     28  C   UNL A   1      36.171  30.157  28.625  1.00  0.00     0.039 A 
ATOM     29  C   UNL A   1      36.540  29.515  29.804  1.00  0.00     0.014 A 
ATOM     30  C   UNL A   1      37.049  30.200  27.541  1.00  0.00     0.014 A 
ATOM     31  C   UNL A   1      37.864  29.168  29.998  1.00  0.00     0.010 A 
ATOM     32  C   UNL A   1      38.344  29.698  27.689  1.00  0.00     0.010 A 
ATOM     33  C   UNL A   1      38.785  29.246  28.943  1.00  0.00    -0.014 A 
BRANCH  33  34
ATOM     34  C   UNL A   1      40.197  28.852  29.190  1.00  0.00     0.031 A 
ATOM     35  C   UNL A   1      40.712  27.507  28.752  1.00  0.00     0.074 A 
ATOM     36  C   UNL A   1      41.033  29.752  29.748  1.00  0.00     0.049 A 
ATOM     37  N   UNL A   1      41.922  27.020  28.861  1.00  0.00    -0.248 NA
ATOM     38  C   UNL A   1      39.757  26.583  28.115  1.00  0.00     0.031 C 
ATOM     39  C   UNL A   1      40.647  31.097  30.183  1.00  0.00     0.029 A 
ATOM     40  N   UNL A   1      42.379  29.696  30.008  1.00  0.00    -0.354 N 
ATOM     41  C   UNL A   1      41.869  25.736  28.331  1.00  0.00     0.074 A 
ATOM     42  C   UNL A   1      40.499  25.498  27.937  1.00  0.00     0.031 C 
ATOM     43  C   UNL A   1      41.739  31.762  30.580  1.00  0.00     0.029 A 
ATOM     44  C   UNL A   1      42.885  30.862  30.530  1.00  0.00     0.049 A 
ATOM     45  H   UNL A   1      42.928  28.896  29.838  1.00  0.00     0.167 HD
ATOM     46  C   UNL A   1      42.877  24.847  28.171  1.00  0.00     0.031 A 
ATOM     47  C   UNL A   1      44.128  31.179  30.945  1.00  0.00     0.031 A 
ATOM     48  C   UNL A   1      44.243  25.110  28.549  1.00  0.00     0.049 A 
ATOM     49  C   UNL A   1      45.215  30.154  30.809  1.00  0.00     0.074 A 
ATOM     50  C   UNL A   1      45.341  24.281  28.406  1.00  0.00     0.029 A 
ATOM     51  N   UNL A   1      44.702  26.282  29.136  1.00  0.00    -0.354 N 
ATOM     52  N   UNL A   1      45.148  28.954  30.284  1.00  0.00    -0.248 NA
ATOM     53  C   UNL A   1      46.545  30.523  31.308  1.00  0.00     0.031 C 
ATOM     54  C   UNL A   1      46.442  24.911  28.988  1.00  0.00     0.029 A 
ATOM     55  C   UNL A   1      46.059  26.179  29.396  1.00  0.00     0.049 A 
ATOM     56  H   UNL A   1      44.145  27.069  29.336  1.00  0.00     0.167 HD
ATOM     57  C   UNL A   1      46.433  28.431  30.368  1.00  0.00     0.074 A 
ATOM     58  C   UNL A   1      47.261  29.458  30.969  1.00  0.00     0.031 C 
ATOM     59  C   UNL A   1      46.881  27.209  29.987  1.00  0.00     0.031 A 
BRANCH  46  60
ATOM     60  C   UNL A   1      42.569  23.501  27.557  1.00  0.00    -0.014 A 
ATOM     61  C   UNL A   1      42.124  22.446  28.378  1.00  0.00     0.010 A 
ATOM     62  C   UNL A   1      42.856  23.233  26.207  1.00  0.00     0.010 A 
ATOM     63  C   UNL A   1      42.025  21.144  27.878  1.00  0.00     0.020 A 
ATOM     64  C   UNL A   1      42.721  21.940  25.691  1.00  0.00     0.020 A 
ATOM     65  C   UNL A   1      42.337  20.898  26.540  1.00  0.00     0.054 A 
BRANCH  65  66
ATOM     66  S   UNL A   1      42.268  19.191  25.928  1.00  0.00     0.124 S 
ATOM     67  O   UNL A   1      43.148  19.244  24.763  1.00  0.00    -0.237 OA
ATOM     68  O   UNL A   1      42.769  18.426  27.066  1.00  0.00    -0.237 OA
ATOM     69  O   UNL A   1      40.850  18.991  25.630  1.00  0.00    -0.744 OA
ENDBRANCH  65  66
ENDBRANCH  46  60
BRANCH  47  70
ATOM     70  C   UNL A   1      44.384  32.541  31.498  1.00  0.00    -0.014 A 
ATOM     71  C   UNL A   1      44.143  32.813  32.859  1.00  0.00     0.010 A 
ATOM     72  C   UNL A   1      44.765  33.597  30.652  1.00  0.00     0.010 A 
ATOM     73  C   UNL A   1      44.197  34.121  33.346  1.00  0.00     0.020 A 
ATOM     74  C   UNL A   1      44.866  34.902  31.146  1.00  0.00     0.020 A 
ATOM     75  C   UNL A   1      44.544  35.160  32.480  1.00  0.00     0.054 A 
BRANCH  75  76
ATOM     76  S   UNL A   1      44.528  36.857  33.117  1.00  0.00     0.124 S 
ATOM     77  O   UNL A   1      45.256  36.710  34.376  1.00  0.00    -0.237 OA
ATOM     78  O   UNL A   1      45.226  37.595  32.069  1.00  0.00    -0.237 OA
ATOM     79  O   UNL A   1      43.106  37.160  33.251  1.00  0.00    -0.744 OA
ENDBRANCH  75  76
ENDBRANCH  47  70
BRANCH  59  80
ATOM     80  C   UNL A   1      48.343  26.890  30.188  1.00  0.00    -0.014 A 
ATOM     81  C   UNL A   1      48.762  26.275  31.383  1.00  0.00     0.010 A 
ATOM     82  C   UNL A   1      49.315  27.321  29.268  1.00  0.00     0.010 A 
ATOM     83  C   UNL A   1      50.121  26.142  31.678  1.00  0.00     0.020 A 
ATOM     84  C   UNL A   1      50.676  27.149  29.537  1.00  0.00     0.020 A 
ATOM     85  C   UNL A   1      51.069  26.590  30.755  1.00  0.00     0.054 A 
BRANCH  85  86
ATOM     86  S   UNL A   1      52.827  26.455  31.181  1.00  0.00     0.124 S 
ATOM     87  O   UNL A   1      53.094  27.750  31.799  1.00  0.00    -0.237 OA
ATOM     88  O   UNL A   1      52.848  25.308  32.085  1.00  0.00    -0.237 OA
ATOM     89  O   UNL A   1      53.476  26.233  29.891  1.00  0.00    -0.744 OA
ENDBRANCH  85  86
ENDBRANCH  59  80
ENDBRANCH  33  34
ENDBRANCH  25  28
ENDBRANCH   1  24
TORSDOF 15
ENDMDL
MODEL 3
REMARK VINA RESULT:     -11.3      2.804      9.405
REMARK SMILES C#Cc1ccc2c(c1)C=C(C(=O)NCCCNC(=O)c1ccc(-c3c4nc(c(-c5ccc(S(=O)(=O)[O-])cc5)c5ccc([nH]5)c(-c5ccc(S(=O)(=O)[O-])cc5)c5nc(c(-c6ccc(S(=O)(=O)[O-])cc6)c6ccc3[nH]6)C=C5)C=C4)cc1)[C@@H](C(F)(F)F)O2
REMARK SMILES IDX 16 1 15 2 14 3 13 4 11 5 12 6 10 8 3 9 4 10 8 11 5 12 7 13
REMARK SMILES IDX 6 14 9 15 85 16 80 17 2 18 1 19 81 20 82 21 83 22 84 23
REMARK SMILES IDX 17 24 18 25 19 27 20 28 21 29 79 30 22 31 78 32 23 33 24 34
REMARK SMILES IDX 25 35 72 36 26 37 77 38 71 39 73 40 27 41 76 42 70 43 69 44
REMARK SMILES IDX 28 46 58 47 39 48 57 49 40 50 43 51 56 52 74 53 41 54 42 55
REMARK SMILES IDX 55 57 75 58 44 59 29 60 30 61 38 62 31 63 37 64 32 65 33 66
REMARK SMILES IDX 34 67 35 68 36 69 59 70 60 71 68 72 61 73 67 74 62 75 63 76
REMARK SMILES IDX 64 77 65 78 66 79 45 80 46 81 54 82 47 83 53 84 48 85 49 86
REMARK SMILES IDX 50 87 51 88 52 89
REMARK H PARENT 13 7 17 26 73 45 43 56
REMARK Flexibility Score: inf
ROOT
ATOM      1  C   UNL A   1      36.887  23.045  25.799  1.00  0.00     0.118 C 
ENDROOT
BRANCH   1   2
ATOM      2  C   UNL A   1      36.518  23.171  24.332  1.00  0.00     0.042 C 
BRANCH   2   3
ATOM      3  C   UNL A   1      35.274  22.372  24.000  1.00  0.00     0.118 C 
BRANCH   3   4
ATOM      4  N   UNL A   1      34.533  22.950  22.886  1.00  0.00    -0.352 N 
ATOM      5  C   UNL A   1      33.602  23.917  22.713  1.00  0.00     0.251 C 
ATOM      6  O   UNL A   1      33.260  24.122  21.544  1.00  0.00    -0.270 OA
ATOM      7  H   UNL A   1      34.775  22.524  22.033  1.00  0.00     0.163 HD
BRANCH   5   8
ATOM      8  C   UNL A   1      32.993  24.717  23.815  1.00  0.00     0.067 C 
ATOM      9  C   UNL A   1      33.161  28.572  26.724  1.00  0.00     0.025 A 
ATOM     10  C   UNL A   1      31.889  28.259  27.210  1.00  0.00     0.021 A 
ATOM     11  C   UNL A   1      33.750  27.785  25.727  1.00  0.00     0.029 A 
ATOM     12  C   UNL A   1      31.205  27.161  26.701  1.00  0.00     0.048 A 
ATOM     13  C   UNL A   1      33.066  26.678  25.218  1.00  0.00     0.018 A 
ATOM     14  C   UNL A   1      31.797  26.375  25.718  1.00  0.00     0.128 A 
ATOM     15  C   UNL A   1      33.622  25.859  24.147  1.00  0.00     0.025 C 
ATOM     16  O   UNL A   1      31.046  25.337  25.257  1.00  0.00    -0.475 OA
ATOM     17  C   UNL A   1      31.759  24.289  24.557  1.00  0.00     0.314 C 
BRANCH   9  18
ATOM     18  C   UNL A   1      33.844  29.714  27.244  1.00  0.00    -0.070 C 
ATOM     19  C   UNL A   1      34.395  30.696  27.669  1.00  0.00     0.010 C 
ENDBRANCH   9  18
BRANCH  17  20
ATOM     20  C   UNL A   1      32.039  23.131  25.537  1.00  0.00     0.429 C 
ATOM     21  F   UNL A   1      32.219  21.969  24.860  1.00  0.00    -0.167 F 
ATOM     22  F   UNL A   1      33.161  23.322  26.272  1.00  0.00    -0.167 F 
ATOM     23  F   UNL A   1      31.032  22.937  26.417  1.00  0.00    -0.167 F 
ENDBRANCH  17  20
ENDBRANCH   5   8
ENDBRANCH   3   4
ENDBRANCH   2   3
ENDBRANCH   1   2
BRANCH   1  24
ATOM     24  N   UNL A   1      38.150  22.330  25.995  1.00  0.00    -0.352 N 
ATOM     25  C   UNL A   1      39.382  22.788  26.401  1.00  0.00     0.251 C 
ATOM     26  H   UNL A   1      38.111  21.365  25.805  1.00  0.00     0.163 HD
ATOM     27  O   UNL A   1      40.371  22.072  26.288  1.00  0.00    -0.269 OA
BRANCH  25  28
ATOM     28  C   UNL A   1      39.499  24.156  26.939  1.00  0.00     0.039 A 
ATOM     29  C   UNL A   1      40.088  25.150  26.161  1.00  0.00     0.014 A 
ATOM     30  C   UNL A   1      39.089  24.432  28.243  1.00  0.00     0.014 A 
ATOM     31  C   UNL A   1      40.515  26.317  26.767  1.00  0.00     0.010 A 
ATOM     32  C   UNL A   1      39.380  25.678  28.803  1.00  0.00     0.010 A 
ATOM     33  C   UNL A   1      40.162  26.604  28.093  1.00  0.00    -0.014 A 
BRANCH  33  34
ATOM     34  C   UNL A   1      40.631  27.875  28.704  1.00  0.00     0.031 A 
ATOM     35  C   UNL A   1      42.081  28.071  29.062  1.00  0.00     0.074 A 
ATOM     36  C   UNL A   1      39.749  28.883  28.862  1.00  0.00     0.049 A 
ATOM     37  N   UNL A   1      42.661  29.129  29.570  1.00  0.00    -0.248 NA
ATOM     38  C   UNL A   1      43.001  26.945  28.830  1.00  0.00     0.031 C 
ATOM     39  C   UNL A   1      38.325  28.813  28.520  1.00  0.00     0.029 A 
ATOM     40  N   UNL A   1      39.916  30.170  29.309  1.00  0.00    -0.354 N 
ATOM     41  C   UNL A   1      43.999  28.789  29.737  1.00  0.00     0.074 A 
ATOM     42  C   UNL A   1      44.142  27.414  29.317  1.00  0.00     0.031 C 
ATOM     43  C   UNL A   1      37.771  30.019  28.693  1.00  0.00     0.029 A 
ATOM     44  C   UNL A   1      38.767  30.922  29.258  1.00  0.00     0.049 A 
ATOM     45  H   UNL A   1      40.777  30.520  29.634  1.00  0.00     0.167 HD
ATOM     46  C   UNL A   1      45.016  29.564  30.182  1.00  0.00     0.031 A 
ATOM     47  C   UNL A   1      38.523  32.191  29.638  1.00  0.00     0.031 A 
ATOM     48  C   UNL A   1      44.859  30.942  30.576  1.00  0.00     0.049 A 
ATOM     49  C   UNL A   1      39.657  33.010  30.182  1.00  0.00     0.074 A 
ATOM     50  C   UNL A   1      45.834  31.818  31.018  1.00  0.00     0.029 A 
ATOM     51  N   UNL A   1      43.663  31.647  30.571  1.00  0.00    -0.354 N 
ATOM     52  N   UNL A   1      40.919  32.677  30.310  1.00  0.00    -0.248 NA
ATOM     53  C   UNL A   1      39.342  34.374  30.623  1.00  0.00     0.031 C 
ATOM     54  C   UNL A   1      45.215  33.018  31.368  1.00  0.00     0.029 A 
ATOM     55  C   UNL A   1      43.871  32.934  31.041  1.00  0.00     0.049 A 
ATOM     56  H   UNL A   1      42.796  31.286  30.276  1.00  0.00     0.167 HD
ATOM     57  C   UNL A   1      41.557  33.800  30.825  1.00  0.00     0.074 A 
ATOM     58  C   UNL A   1      40.544  34.828  30.957  1.00  0.00     0.031 C 
ATOM     59  C   UNL A   1      42.861  33.958  31.162  1.00  0.00     0.031 A 
BRANCH  46  60
ATOM     60  C   UNL A   1      46.400  28.966  30.271  1.00  0.00    -0.014 A 
ATOM     61  C   UNL A   1      47.263  29.037  29.159  1.00  0.00     0.010 A 
ATOM     62  C   UNL A   1      46.798  28.209  31.388  1.00  0.00     0.010 A 
ATOM     63  C   UNL A   1      48.464  28.323  29.139  1.00  0.00     0.020 A 
ATOM     64  C   UNL A   1      48.018  27.525  31.389  1.00  0.00     0.020 A 
ATOM     65  C   UNL A   1      48.828  27.560  30.251  1.00  0.00     0.054 A 
BRANCH  65  66
ATOM     66  S   UNL A   1      50.357  26.587  30.180  1.00  0.00     0.124 S 
ATOM     67  O   UNL A   1      49.858  25.248  29.884  1.00  0.00    -0.237 OA
ATOM     68  O   UNL A   1      51.098  27.240  29.104  1.00  0.00    -0.237 OA
ATOM     69  O   UNL A   1      50.934  26.757  31.513  1.00  0.00    -0.744 OA
ENDBRANCH  65  66
ENDBRANCH  46  60
BRANCH  47  70
ATOM     70  C   UNL A   1      37.146  32.745  29.482  1.00  0.00    -0.014 A 
ATOM     71  C   UNL A   1      36.783  33.429  28.305  1.00  0.00     0.010 A 
ATOM     72  C   UNL A   1      36.227  32.688  30.544  1.00  0.00     0.010 A 
ATOM     73  C   UNL A   1      35.568  34.112  28.223  1.00  0.00     0.020 A 
ATOM     74  C   UNL A   1      34.989  33.331  30.448  1.00  0.00     0.020 A 
ATOM     75  C   UNL A   1      34.684  34.069  29.303  1.00  0.00     0.054 A 
BRANCH  75  76
ATOM     76  S   UNL A   1      33.150  35.030  29.201  1.00  0.00     0.124 S 
ATOM     77  O   UNL A   1      32.665  34.965  30.578  1.00  0.00    -0.237 OA
ATOM     78  O   UNL A   1      33.625  36.339  28.762  1.00  0.00    -0.237 OA
ATOM     79  O   UNL A   1      32.351  34.297  28.223  1.00  0.00    -0.744 OA
ENDBRANCH  75  76
ENDBRANCH  47  70
BRANCH  59  80
ATOM     80  C   UNL A   1      43.301  35.297  31.703  1.00  0.00    -0.014 A 
ATOM     81  C   UNL A   1      43.062  35.613  33.055  1.00  0.00     0.010 A 
ATOM     82  C   UNL A   1      43.818  36.290  30.854  1.00  0.00     0.010 A 
ATOM     83  C   UNL A   1      43.282  36.907  33.533  1.00  0.00     0.020 A 
ATOM     84  C   UNL A   1      44.084  37.574  31.339  1.00  0.00     0.020 A 
ATOM     85  C   UNL A   1      43.783  37.882  32.668  1.00  0.00     0.054 A 
BRANCH  85  86
ATOM     86  S   UNL A   1      44.013  39.567  33.297  1.00  0.00     0.124 S 
ATOM     87  O   UNL A   1      44.624  40.241  32.155  1.00  0.00    -0.237 OA
ATOM     88  O   UNL A   1      42.648  39.976  33.616  1.00  0.00    -0.237 OA
ATOM     89  O   UNL A   1      44.887  39.385  34.454  1.00  0.00    -0.744 OA
ENDBRANCH  85  86
ENDBRANCH  59  80
ENDBRANCH  33  34
ENDBRANCH  25  28
ENDBRANCH   1  24
TORSDOF 15
ENDMDL
