MODEL 1
REMARK VINA RESULT:     -12.5      0.000      0.000
REMARK SMILES C[C@H](C(=O)NCCCNC(=O)c1ccc(-c2c3nc(c(-c4ccc(S(=O)(=O)[O-])cc4)c4ccc([nH]4)c(-c4ccc(S(=O)(=O)[O-])cc4)c4nc(c(-c5ccc(S(=O)(=O)[O-])cc5)c5ccc2[nH]5)C=C4)C=C3)cc1)N1C(=O)C[C@@H](N2C(=O)/C(=C/c3ccccc3)SC2=S)C1=O
REMARK SMILES IDX 7 1 6 2 5 3 3 4 4 5 2 7 1 8 72 9 73 10 91 11 74 12 75 13
REMARK SMILES IDX 76 14 92 15 77 16 78 17 89 18 79 19 80 20 88 21 90 22 81 23
REMARK SMILES IDX 82 24 83 25 87 26 84 27 86 28 85 29 8 30 9 31 10 32 11 34
REMARK SMILES IDX 12 35 13 36 71 37 14 38 70 39 15 40 16 41 17 42 64 43 18 44
REMARK SMILES IDX 69 45 63 46 65 47 19 48 68 49 62 50 61 51 20 53 50 54 31 55
REMARK SMILES IDX 49 56 32 57 35 58 48 59 66 60 33 61 34 62 47 64 67 65 36 66
REMARK SMILES IDX 21 67 22 68 30 69 23 70 29 71 24 72 25 73 26 74 27 75 28 76
REMARK SMILES IDX 51 77 52 78 60 79 53 80 59 81 54 82 55 83 56 84 57 85 58 86
REMARK SMILES IDX 37 87 38 88 46 89 39 90 45 91 40 92 41 93 42 94 43 95 44 96
REMARK H PARENT 5 6 9 33 65 52 35 63
REMARK Flexibility Score: inf
ROOT
ATOM      1  C   UNL A   1      37.636  22.996  25.916  1.00  0.00     0.042 C 
ENDROOT
BRANCH   1   2
ATOM      2  C   UNL A   1      36.165  23.332  25.777  1.00  0.00     0.117 C 
BRANCH   2   3
ATOM      3  N   UNL A   1      35.304  22.531  26.631  1.00  0.00    -0.354 N 
ATOM      4  C   UNL A   1      34.446  21.522  26.302  1.00  0.00     0.243 C 
ATOM      5  O   UNL A   1      34.004  20.821  27.219  1.00  0.00    -0.273 OA
ATOM      6  H   UNL A   1      35.346  22.749  27.591  1.00  0.00     0.163 HD
BRANCH   4   7
ATOM      7  C   UNL A   1      33.979  21.295  24.854  1.00  0.00     0.179 C 
ATOM      8  C   UNL A   1      33.517  19.842  24.663  1.00  0.00     0.042 C 
BRANCH   7   9
ATOM      9  N   UNL A   1      33.052  22.270  24.265  1.00  0.00    -0.268 N 
ATOM     10  C   UNL A   1      31.769  22.395  24.727  1.00  0.00     0.232 C 
ATOM     11  C   UNL A   1      33.292  23.138  23.238  1.00  0.00     0.253 C 
ATOM     12  O   UNL A   1      31.204  21.662  25.526  1.00  0.00    -0.274 OA
ATOM     13  C   UNL A   1      31.087  23.535  24.029  1.00  0.00     0.136 C 
ATOM     14  C   UNL A   1      32.195  24.179  23.217  1.00  0.00     0.191 C 
ATOM     15  O   UNL A   1      34.237  23.158  22.466  1.00  0.00    -0.272 OA
BRANCH  14  16
ATOM     16  N   UNL A   1      32.708  25.474  23.716  1.00  0.00    -0.280 N 
ATOM     17  C   UNL A   1      32.988  25.641  25.062  1.00  0.00     0.266 C 
ATOM     18  C   UNL A   1      32.996  26.561  22.910  1.00  0.00     0.149 C 
ATOM     19  O   UNL A   1      32.946  24.760  25.908  1.00  0.00    -0.268 OA
ATOM     20  C   UNL A   1      33.341  27.051  25.361  1.00  0.00     0.081 C 
ATOM     21  S   UNL A   1      33.492  27.930  23.900  1.00  0.00    -0.054 SA
ATOM     22  S   UNL A   1      32.869  26.680  21.252  1.00  0.00    -0.052 S 
ATOM     23  C   UNL A   1      33.448  27.491  26.623  1.00  0.00     0.029 C 
BRANCH  23  24
ATOM     24  C   UNL A   1      33.633  28.882  27.055  1.00  0.00    -0.024 A 
ATOM     25  C   UNL A   1      32.560  29.779  27.012  1.00  0.00     0.008 A 
ATOM     26  C   UNL A   1      34.903  29.354  27.417  1.00  0.00     0.008 A 
ATOM     27  C   UNL A   1      32.751  31.122  27.351  1.00  0.00     0.001 A 
ATOM     28  C   UNL A   1      35.091  30.695  27.756  1.00  0.00     0.001 A 
ATOM     29  C   UNL A   1      34.014  31.578  27.723  1.00  0.00     0.000 A 
ENDBRANCH  23  24
ENDBRANCH  14  16
ENDBRANCH   7   9
ENDBRANCH   4   7
ENDBRANCH   2   3
ENDBRANCH   1   2
BRANCH   1  30
ATOM     30  C   UNL A   1      38.486  24.166  26.391  1.00  0.00     0.118 C 
BRANCH  30  31
ATOM     31  N   UNL A   1      39.920  23.927  26.263  1.00  0.00    -0.352 N 
ATOM     32  C   UNL A   1      40.987  24.631  26.771  1.00  0.00     0.251 C 
ATOM     33  H   UNL A   1      40.162  23.136  25.730  1.00  0.00     0.163 HD
ATOM     34  O   UNL A   1      42.128  24.345  26.422  1.00  0.00    -0.269 OA
BRANCH  32  35
ATOM     35  C   UNL A   1      40.756  25.753  27.706  1.00  0.00     0.039 A 
ATOM     36  C   UNL A   1      39.729  25.652  28.648  1.00  0.00     0.014 A 
ATOM     37  C   UNL A   1      41.560  26.893  27.666  1.00  0.00     0.014 A 
ATOM     38  C   UNL A   1      39.572  26.654  29.608  1.00  0.00     0.010 A 
ATOM     39  C   UNL A   1      41.472  27.834  28.684  1.00  0.00     0.010 A 
ATOM     40  C   UNL A   1      40.476  27.728  29.666  1.00  0.00    -0.014 A 
BRANCH  40  41
ATOM     41  C   UNL A   1      40.403  28.754  30.738  1.00  0.00     0.031 A 
ATOM     42  C   UNL A   1      41.288  28.640  31.950  1.00  0.00     0.074 A 
ATOM     43  C   UNL A   1      39.484  29.738  30.660  1.00  0.00     0.049 A 
ATOM     44  N   UNL A   1      41.302  29.374  33.032  1.00  0.00    -0.248 NA
ATOM     45  C   UNL A   1      42.262  27.534  31.964  1.00  0.00     0.031 C 
ATOM     46  C   UNL A   1      38.532  29.929  29.561  1.00  0.00     0.029 A 
ATOM     47  N   UNL A   1      39.192  30.759  31.529  1.00  0.00    -0.354 N 
ATOM     48  C   UNL A   1      42.262  28.806  33.863  1.00  0.00     0.074 A 
ATOM     49  C   UNL A   1      42.770  27.636  33.183  1.00  0.00     0.031 C 
ATOM     50  C   UNL A   1      37.785  31.017  29.809  1.00  0.00     0.029 A 
ATOM     51  C   UNL A   1      38.169  31.575  31.102  1.00  0.00     0.049 A 
ATOM     52  H   UNL A   1      39.668  30.894  32.380  1.00  0.00     0.167 HD
ATOM     53  C   UNL A   1      42.697  29.231  35.072  1.00  0.00     0.031 A 
ATOM     54  C   UNL A   1      37.601  32.647  31.685  1.00  0.00     0.031 A 
ATOM     55  C   UNL A   1      42.210  30.412  35.732  1.00  0.00     0.049 A 
ATOM     56  C   UNL A   1      38.111  33.108  33.024  1.00  0.00     0.074 A 
ATOM     57  C   UNL A   1      42.632  30.963  36.929  1.00  0.00     0.029 A 
ATOM     58  N   UNL A   1      41.196  31.226  35.251  1.00  0.00    -0.354 N 
ATOM     59  N   UNL A   1      39.063  32.592  33.763  1.00  0.00    -0.248 NA
ATOM     60  C   UNL A   1      37.480  34.304  33.598  1.00  0.00     0.031 C 
ATOM     61  C   UNL A   1      41.843  32.088  37.193  1.00  0.00     0.029 A 
ATOM     62  C   UNL A   1      40.967  32.266  36.134  1.00  0.00     0.049 A 
ATOM     63  H   UNL A   1      40.711  31.085  34.405  1.00  0.00     0.167 HD
ATOM     64  C   UNL A   1      39.163  33.417  34.878  1.00  0.00     0.074 A 
ATOM     65  C   UNL A   1      38.186  34.472  34.708  1.00  0.00     0.031 C 
ATOM     66  C   UNL A   1      39.993  33.311  35.946  1.00  0.00     0.031 A 
BRANCH  53  67
ATOM     67  C   UNL A   1      43.761  28.413  35.757  1.00  0.00    -0.014 A 
ATOM     68  C   UNL A   1      45.126  28.677  35.547  1.00  0.00     0.010 A 
ATOM     69  C   UNL A   1      43.390  27.392  36.652  1.00  0.00     0.010 A 
ATOM     70  C   UNL A   1      46.102  27.908  36.186  1.00  0.00     0.020 A 
ATOM     71  C   UNL A   1      44.363  26.641  37.316  1.00  0.00     0.020 A 
ATOM     72  C   UNL A   1      45.714  26.893  37.066  1.00  0.00     0.054 A 
BRANCH  72  73
ATOM     73  S   UNL A   1      47.002  25.930  37.904  1.00  0.00     0.124 S 
ATOM     74  O   UNL A   1      48.192  26.289  37.135  1.00  0.00    -0.237 OA
ATOM     75  O   UNL A   1      46.956  26.450  39.267  1.00  0.00    -0.237 OA
ATOM     76  O   UNL A   1      46.556  24.548  37.751  1.00  0.00    -0.744 OA
ENDBRANCH  72  73
ENDBRANCH  53  67
BRANCH  54  77
ATOM     77  C   UNL A   1      36.497  33.371  30.998  1.00  0.00    -0.014 A 
ATOM     78  C   UNL A   1      36.708  33.962  29.739  1.00  0.00     0.010 A 
ATOM     79  C   UNL A   1      35.225  33.463  31.592  1.00  0.00     0.010 A 
ATOM     80  C   UNL A   1      35.673  34.648  29.097  1.00  0.00     0.020 A 
ATOM     81  C   UNL A   1      34.181  34.124  30.940  1.00  0.00     0.020 A 
ATOM     82  C   UNL A   1      34.415  34.722  29.701  1.00  0.00     0.054 A 
BRANCH  82  83
ATOM     83  S   UNL A   1      33.070  35.570  28.823  1.00  0.00     0.124 S 
ATOM     84  O   UNL A   1      32.280  36.108  29.927  1.00  0.00    -0.237 OA
ATOM     85  O   UNL A   1      33.790  36.555  28.019  1.00  0.00    -0.237 OA
ATOM     86  O   UNL A   1      32.437  34.499  28.058  1.00  0.00    -0.744 OA
ENDBRANCH  82  83
ENDBRANCH  54  77
BRANCH  66  87
ATOM     87  C   UNL A   1      39.910  34.385  36.996  1.00  0.00    -0.014 A 
ATOM     88  C   UNL A   1      40.722  35.531  36.933  1.00  0.00     0.010 A 
ATOM     89  C   UNL A   1      38.960  34.271  38.026  1.00  0.00     0.010 A 
ATOM     90  C   UNL A   1      40.604  36.531  37.901  1.00  0.00     0.020 A 
ATOM     91  C   UNL A   1      38.820  35.282  38.981  1.00  0.00     0.020 A 
ATOM     92  C   UNL A   1      39.653  36.400  38.919  1.00  0.00     0.054 A 
BRANCH  92  93
ATOM     93  S   UNL A   1      39.486  37.734  40.136  1.00  0.00     0.124 S 
ATOM     94  O   UNL A   1      38.284  38.421  39.673  1.00  0.00    -0.237 OA
ATOM     95  O   UNL A   1      39.349  37.005  41.395  1.00  0.00    -0.237 OA
ATOM     96  O   UNL A   1      40.730  38.489  39.994  1.00  0.00    -0.744 OA
ENDBRANCH  92  93
ENDBRANCH  66  87
ENDBRANCH  40  41
ENDBRANCH  32  35
ENDBRANCH  30  31
ENDBRANCH   1  30
TORSDOF 16
ENDMDL
MODEL 2
REMARK VINA RESULT:     -12.4      6.259     11.882
REMARK SMILES C[C@H](C(=O)NCCCNC(=O)c1ccc(-c2c3nc(c(-c4ccc(S(=O)(=O)[O-])cc4)c4ccc([nH]4)c(-c4ccc(S(=O)(=O)[O-])cc4)c4nc(c(-c5ccc(S(=O)(=O)[O-])cc5)c5ccc2[nH]5)C=C4)C=C3)cc1)N1C(=O)C[C@@H](N2C(=O)/C(=C/c3ccccc3)SC2=S)C1=O
REMARK SMILES IDX 7 1 6 2 5 3 3 4 4 5 2 7 1 8 72 9 73 10 91 11 74 12 75 13
REMARK SMILES IDX 76 14 92 15 77 16 78 17 89 18 79 19 80 20 88 21 90 22 81 23
REMARK SMILES IDX 82 24 83 25 87 26 84 27 86 28 85 29 8 30 9 31 10 32 11 34
REMARK SMILES IDX 12 35 13 36 71 37 14 38 70 39 15 40 16 41 17 42 64 43 18 44
REMARK SMILES IDX 69 45 63 46 65 47 19 48 68 49 62 50 61 51 20 53 50 54 31 55
REMARK SMILES IDX 49 56 32 57 35 58 48 59 66 60 33 61 34 62 47 64 67 65 36 66
REMARK SMILES IDX 21 67 22 68 30 69 23 70 29 71 24 72 25 73 26 74 27 75 28 76
REMARK SMILES IDX 51 77 52 78 60 79 53 80 59 81 54 82 55 83 56 84 57 85 58 86
REMARK SMILES IDX 37 87 38 88 46 89 39 90 45 91 40 92 41 93 42 94 43 95 44 96
REMARK H PARENT 5 6 9 33 65 52 35 63
REMARK Flexibility Score: inf
ROOT
ATOM      1  C   UNL A   1      34.035  30.154  27.046  1.00  0.00     0.042 C 
ENDROOT
BRANCH   1   2
ATOM      2  C   UNL A   1      33.351  29.066  26.242  1.00  0.00     0.117 C 
BRANCH   2   3
ATOM      3  N   UNL A   1      33.660  29.113  24.823  1.00  0.00    -0.354 N 
ATOM      4  C   UNL A   1      32.823  29.040  23.747  1.00  0.00     0.243 C 
ATOM      5  O   UNL A   1      33.280  29.349  22.641  1.00  0.00    -0.273 OA
ATOM      6  H   UNL A   1      34.615  29.213  24.605  1.00  0.00     0.163 HD
BRANCH   4   7
ATOM      7  C   UNL A   1      31.379  28.524  23.876  1.00  0.00     0.179 C 
ATOM      8  C   UNL A   1      30.456  29.271  22.901  1.00  0.00     0.042 C 
BRANCH   7   9
ATOM      9  N   UNL A   1      31.160  27.072  23.870  1.00  0.00    -0.268 N 
ATOM     10  C   UNL A   1      31.227  26.352  22.707  1.00  0.00     0.232 C 
ATOM     11  C   UNL A   1      30.870  26.265  24.932  1.00  0.00     0.253 C 
ATOM     12  O   UNL A   1      31.315  26.799  21.573  1.00  0.00    -0.274 OA
ATOM     13  C   UNL A   1      31.079  24.888  23.006  1.00  0.00     0.136 C 
ATOM     14  C   UNL A   1      31.091  24.826  24.523  1.00  0.00     0.191 C 
ATOM     15  O   UNL A   1      30.536  26.586  26.061  1.00  0.00    -0.272 OA
BRANCH  14  16
ATOM     16  N   UNL A   1      32.322  24.297  25.149  1.00  0.00    -0.280 N 
ATOM     17  C   UNL A   1      33.565  24.731  24.719  1.00  0.00     0.266 C 
ATOM     18  C   UNL A   1      32.338  23.410  26.210  1.00  0.00     0.149 C 
ATOM     19  O   UNL A   1      33.760  25.620  23.902  1.00  0.00    -0.268 OA
ATOM     20  C   UNL A   1      34.653  23.964  25.374  1.00  0.00     0.081 C 
ATOM     21  S   UNL A   1      33.996  22.960  26.595  1.00  0.00    -0.054 SA
ATOM     22  S   UNL A   1      31.041  22.759  27.032  1.00  0.00    -0.052 S 
ATOM     23  C   UNL A   1      35.925  24.066  24.962  1.00  0.00     0.029 C 
BRANCH  23  24
ATOM     24  C   UNL A   1      37.061  23.253  25.412  1.00  0.00    -0.024 A 
ATOM     25  C   UNL A   1      38.038  23.813  26.243  1.00  0.00     0.008 A 
ATOM     26  C   UNL A   1      37.237  21.946  24.937  1.00  0.00     0.008 A 
ATOM     27  C   UNL A   1      39.160  23.065  26.613  1.00  0.00     0.001 A 
ATOM     28  C   UNL A   1      38.358  21.201  25.308  1.00  0.00     0.001 A 
ATOM     29  C   UNL A   1      39.319  21.761  26.146  1.00  0.00     0.000 A 
ENDBRANCH  23  24
ENDBRANCH  14  16
ENDBRANCH   7   9
ENDBRANCH   4   7
ENDBRANCH   2   3
ENDBRANCH   1   2
BRANCH   1  30
ATOM     30  C   UNL A   1      35.166  29.643  27.925  1.00  0.00     0.118 C 
BRANCH  30  31
ATOM     31  N   UNL A   1      35.321  30.395  29.165  1.00  0.00    -0.352 N 
ATOM     32  C   UNL A   1      36.401  30.508  30.008  1.00  0.00     0.251 C 
ATOM     33  H   UNL A   1      34.525  30.905  29.442  1.00  0.00     0.163 HD
ATOM     34  O   UNL A   1      36.276  31.079  31.086  1.00  0.00    -0.269 OA
BRANCH  32  35
ATOM     35  C   UNL A   1      37.700  29.910  29.630  1.00  0.00     0.039 A 
ATOM     36  C   UNL A   1      38.086  29.915  28.287  1.00  0.00     0.014 A 
ATOM     37  C   UNL A   1      38.543  29.364  30.599  1.00  0.00     0.014 A 
ATOM     38  C   UNL A   1      39.356  29.456  27.933  1.00  0.00     0.010 A 
ATOM     39  C   UNL A   1      39.842  29.007  30.260  1.00  0.00     0.010 A 
ATOM     40  C   UNL A   1      40.264  29.047  28.923  1.00  0.00    -0.014 A 
BRANCH  40  41
ATOM     41  C   UNL A   1      41.658  28.654  28.592  1.00  0.00     0.031 A 
ATOM     42  C   UNL A   1      42.747  29.694  28.563  1.00  0.00     0.074 A 
ATOM     43  C   UNL A   1      41.927  27.382  28.234  1.00  0.00     0.049 A 
ATOM     44  N   UNL A   1      43.997  29.568  28.202  1.00  0.00    -0.248 NA
ATOM     45  C   UNL A   1      42.373  31.063  28.960  1.00  0.00     0.031 C 
ATOM     46  C   UNL A   1      40.950  26.291  28.171  1.00  0.00     0.029 A 
ATOM     47  N   UNL A   1      43.103  26.792  27.844  1.00  0.00    -0.354 N 
ATOM     48  C   UNL A   1      44.550  30.840  28.302  1.00  0.00     0.074 A 
ATOM     49  C   UNL A   1      43.487  31.732  28.706  1.00  0.00     0.031 C 
ATOM     50  C   UNL A   1      41.572  25.162  27.797  1.00  0.00     0.029 A 
ATOM     51  C   UNL A   1      42.980  25.454  27.549  1.00  0.00     0.049 A 
ATOM     52  H   UNL A   1      43.955  27.281  27.781  1.00  0.00     0.167 HD
ATOM     53  C   UNL A   1      45.830  31.227  28.098  1.00  0.00     0.031 A 
ATOM     54  C   UNL A   1      43.895  24.563  27.122  1.00  0.00     0.031 A 
ATOM     55  C   UNL A   1      46.892  30.331  27.724  1.00  0.00     0.049 A 
ATOM     56  C   UNL A   1      45.315  25.014  26.914  1.00  0.00     0.074 A 
ATOM     57  C   UNL A   1      48.235  30.614  27.555  1.00  0.00     0.029 A 
ATOM     58  N   UNL A   1      46.731  28.979  27.465  1.00  0.00    -0.354 N 
ATOM     59  N   UNL A   1      45.830  26.210  27.075  1.00  0.00    -0.248 NA
ATOM     60  C   UNL A   1      46.280  23.994  26.482  1.00  0.00     0.031 C 
ATOM     61  C   UNL A   1      48.881  29.440  27.152  1.00  0.00     0.029 A 
ATOM     62  C   UNL A   1      47.947  28.415  27.122  1.00  0.00     0.049 A 
ATOM     63  H   UNL A   1      45.876  28.490  27.518  1.00  0.00     0.167 HD
ATOM     64  C   UNL A   1      47.184  26.079  26.790  1.00  0.00     0.074 A 
ATOM     65  C   UNL A   1      47.411  24.686  26.461  1.00  0.00     0.031 C 
ATOM     66  C   UNL A   1      48.154  27.027  26.803  1.00  0.00     0.031 A 
BRANCH  53  67
ATOM     67  C   UNL A   1      46.155  32.687  28.280  1.00  0.00    -0.014 A 
ATOM     68  C   UNL A   1      46.503  33.200  29.543  1.00  0.00     0.010 A 
ATOM     69  C   UNL A   1      46.149  33.549  27.169  1.00  0.00     0.010 A 
ATOM     70  C   UNL A   1      46.799  34.556  29.699  1.00  0.00     0.020 A 
ATOM     71  C   UNL A   1      46.473  34.901  27.315  1.00  0.00     0.020 A 
ATOM     72  C   UNL A   1      46.780  35.399  28.583  1.00  0.00     0.054 A 
BRANCH  72  73
ATOM     73  S   UNL A   1      47.195  37.150  28.810  1.00  0.00     0.124 S 
ATOM     74  O   UNL A   1      48.053  37.407  27.655  1.00  0.00    -0.237 OA
ATOM     75  O   UNL A   1      45.886  37.796  28.776  1.00  0.00    -0.237 OA
ATOM     76  O   UNL A   1      47.868  37.181  30.106  1.00  0.00    -0.744 OA
ENDBRANCH  72  73
ENDBRANCH  53  67
BRANCH  54  77
ATOM     77  C   UNL A   1      43.501  23.148  26.879  1.00  0.00    -0.014 A 
ATOM     78  C   UNL A   1      43.591  22.595  25.589  1.00  0.00     0.010 A 
ATOM     79  C   UNL A   1      43.044  22.342  27.937  1.00  0.00     0.010 A 
ATOM     80  C   UNL A   1      43.214  21.269  25.359  1.00  0.00     0.020 A 
ATOM     81  C   UNL A   1      42.693  21.008  27.716  1.00  0.00     0.020 A 
ATOM     82  C   UNL A   1      42.769  20.483  26.425  1.00  0.00     0.054 A 
BRANCH  82  83
ATOM     83  S   UNL A   1      42.338  18.747  26.114  1.00  0.00     0.124 S 
ATOM     84  O   UNL A   1      43.314  18.370  25.096  1.00  0.00    -0.237 OA
ATOM     85  O   UNL A   1      42.523  18.136  27.427  1.00  0.00    -0.237 OA
ATOM     86  O   UNL A   1      40.951  18.818  25.660  1.00  0.00    -0.744 OA
ENDBRANCH  82  83
ENDBRANCH  54  77
BRANCH  66  87
ATOM     87  C   UNL A   1      49.559  26.585  26.490  1.00  0.00    -0.014 A 
ATOM     88  C   UNL A   1      50.382  26.017  27.478  1.00  0.00     0.010 A 
ATOM     89  C   UNL A   1      50.035  26.682  25.170  1.00  0.00     0.010 A 
ATOM     90  C   UNL A   1      51.670  25.583  27.157  1.00  0.00     0.020 A 
ATOM     91  C   UNL A   1      51.313  26.223  24.839  1.00  0.00     0.020 A 
ATOM     92  C   UNL A   1      52.127  25.689  25.839  1.00  0.00     0.054 A 
BRANCH  92  93
ATOM     93  S   UNL A   1      53.786  25.074  25.438  1.00  0.00     0.124 S 
ATOM     94  O   UNL A   1      54.562  25.517  26.592  1.00  0.00    -0.237 OA
ATOM     95  O   UNL A   1      53.578  23.631  25.336  1.00  0.00    -0.237 OA
ATOM     96  O   UNL A   1      54.106  25.741  24.178  1.00  0.00    -0.744 OA
ENDBRANCH  92  93
ENDBRANCH  66  87
ENDBRANCH  40  41
ENDBRANCH  32  35
ENDBRANCH  30  31
ENDBRANCH   1  30
TORSDOF 16
ENDMDL
MODEL 3
REMARK VINA RESULT:     -12.1      4.522     10.587
REMARK SMILES C[C@H](C(=O)NCCCNC(=O)c1ccc(-c2c3nc(c(-c4ccc(S(=O)(=O)[O-])cc4)c4ccc([nH]4)c(-c4ccc(S(=O)(=O)[O-])cc4)c4nc(c(-c5ccc(S(=O)(=O)[O-])cc5)c5ccc2[nH]5)C=C4)C=C3)cc1)N1C(=O)C[C@@H](N2C(=O)/C(=C/c3ccccc3)SC2=S)C1=O
REMARK SMILES IDX 7 1 6 2 5 3 3 4 4 5 2 7 1 8 72 9 73 10 91 11 74 12 75 13
REMARK SMILES IDX 76 14 92 15 77 16 78 17 89 18 79 19 80 20 88 21 90 22 81 23
REMARK SMILES IDX 82 24 83 25 87 26 84 27 86 28 85 29 8 30 9 31 10 32 11 34
REMARK SMILES IDX 12 35 13 36 71 37 14 38 70 39 15 40 16 41 17 42 64 43 18 44
REMARK SMILES IDX 69 45 63 46 65 47 19 48 68 49 62 50 61 51 20 53 50 54 31 55
REMARK SMILES IDX 49 56 32 57 35 58 48 59 66 60 33 61 34 62 47 64 67 65 36 66
REMARK SMILES IDX 21 67 22 68 30 69 23 70 29 71 24 72 25 73 26 74 27 75 28 76
REMARK SMILES IDX 51 77 52 78 60 79 53 80 59 81 54 82 55 83 56 84 57 85 58 86
REMARK SMILES IDX 37 87 38 88 46 89 39 90 45 91 40 92 41 93 42 94 43 95 44 96
REMARK H PARENT 5 6 9 33 65 52 35 63
REMARK Flexibility Score: inf
ROOT
ATOM      1  C   UNL A   1      32.184  28.282  26.415  1.00  0.00     0.042 C 
ENDROOT
BRANCH   1   2
ATOM      2  C   UNL A   1      32.244  28.446  24.910  1.00  0.00     0.117 C 
BRANCH   2   3
ATOM      3  N   UNL A   1      30.942  28.378  24.267  1.00  0.00    -0.354 N 
ATOM      4  C   UNL A   1      30.228  27.290  23.858  1.00  0.00     0.243 C 
ATOM      5  O   UNL A   1      29.040  27.459  23.562  1.00  0.00    -0.273 OA
ATOM      6  H   UNL A   1      30.510  29.248  24.103  1.00  0.00     0.163 HD
BRANCH   4   7
ATOM      7  C   UNL A   1      30.881  25.905  23.696  1.00  0.00     0.179 C 
ATOM      8  C   UNL A   1      31.637  25.824  22.361  1.00  0.00     0.042 C 
BRANCH   7   9
ATOM      9  N   UNL A   1      31.654  25.369  24.823  1.00  0.00    -0.268 N 
ATOM     10  C   UNL A   1      31.041  25.012  25.994  1.00  0.00     0.232 C 
ATOM     11  C   UNL A   1      33.002  25.159  24.889  1.00  0.00     0.253 C 
ATOM     12  O   UNL A   1      29.877  25.219  26.305  1.00  0.00    -0.274 OA
ATOM     13  C   UNL A   1      32.044  24.392  26.924  1.00  0.00     0.136 C 
ATOM     14  C   UNL A   1      33.296  24.271  26.076  1.00  0.00     0.191 C 
ATOM     15  O   UNL A   1      33.869  25.550  24.125  1.00  0.00    -0.272 OA
BRANCH  14  16
ATOM     16  N   UNL A   1      33.653  22.909  25.622  1.00  0.00    -0.280 N 
ATOM     17  C   UNL A   1      32.662  22.020  25.240  1.00  0.00     0.266 C 
ATOM     18  C   UNL A   1      34.950  22.447  25.487  1.00  0.00     0.149 C 
ATOM     19  O   UNL A   1      31.473  22.285  25.142  1.00  0.00    -0.268 OA
ATOM     20  C   UNL A   1      33.229  20.675  24.968  1.00  0.00     0.081 C 
ATOM     21  S   UNL A   1      34.939  20.751  25.011  1.00  0.00    -0.054 SA
ATOM     22  S   UNL A   1      36.374  23.269  25.765  1.00  0.00    -0.052 S 
ATOM     23  C   UNL A   1      32.438  19.609  24.786  1.00  0.00     0.029 C 
BRANCH  23  24
ATOM     24  C   UNL A   1      32.866  18.209  24.669  1.00  0.00    -0.024 A 
ATOM     25  C   UNL A   1      32.627  17.312  25.717  1.00  0.00     0.008 A 
ATOM     26  C   UNL A   1      33.604  17.778  23.558  1.00  0.00     0.008 A 
ATOM     27  C   UNL A   1      33.098  15.999  25.641  1.00  0.00     0.001 A 
ATOM     28  C   UNL A   1      34.073  16.465  23.484  1.00  0.00     0.001 A 
ATOM     29  C   UNL A   1      33.820  15.576  24.525  1.00  0.00     0.000 A 
ENDBRANCH  23  24
ENDBRANCH  14  16
ENDBRANCH   7   9
ENDBRANCH   4   7
ENDBRANCH   2   3
ENDBRANCH   1   2
BRANCH   1  30
ATOM     30  C   UNL A   1      33.466  28.694  27.124  1.00  0.00     0.118 C 
BRANCH  30  31
ATOM     31  N   UNL A   1      33.456  30.080  27.577  1.00  0.00    -0.352 N 
ATOM     32  C   UNL A   1      34.427  30.813  28.219  1.00  0.00     0.251 C 
ATOM     33  H   UNL A   1      32.622  30.570  27.392  1.00  0.00     0.163 HD
ATOM     34  O   UNL A   1      34.163  31.932  28.648  1.00  0.00    -0.269 OA
BRANCH  32  35
ATOM     35  C   UNL A   1      35.774  30.238  28.423  1.00  0.00     0.039 A 
ATOM     36  C   UNL A   1      36.681  30.236  27.360  1.00  0.00     0.014 A 
ATOM     37  C   UNL A   1      36.148  29.720  29.664  1.00  0.00     0.014 A 
ATOM     38  C   UNL A   1      37.990  29.801  27.571  1.00  0.00     0.010 A 
ATOM     39  C   UNL A   1      37.476  29.386  29.899  1.00  0.00     0.010 A 
ATOM     40  C   UNL A   1      38.413  29.421  28.855  1.00  0.00    -0.014 A 
BRANCH  40  41
ATOM     41  C   UNL A   1      39.824  29.053  29.137  1.00  0.00     0.031 A 
ATOM     42  C   UNL A   1      40.766  30.073  29.719  1.00  0.00     0.074 A 
ATOM     43  C   UNL A   1      40.279  27.831  28.791  1.00  0.00     0.049 A 
ATOM     44  N   UNL A   1      42.051  29.976  29.942  1.00  0.00    -0.248 NA
ATOM     45  C   UNL A   1      40.196  31.387  30.065  1.00  0.00     0.031 C 
ATOM     46  C   UNL A   1      39.480  26.769  28.172  1.00  0.00     0.029 A 
ATOM     47  N   UNL A   1      41.530  27.278  28.901  1.00  0.00    -0.354 N 
ATOM     48  C   UNL A   1      42.446  31.218  30.427  1.00  0.00     0.074 A 
ATOM     49  C   UNL A   1      41.276  32.068  30.415  1.00  0.00     0.031 C 
ATOM     50  C   UNL A   1      40.252  25.687  27.986  1.00  0.00     0.029 A 
ATOM     51  C   UNL A   1      41.610  25.989  28.428  1.00  0.00     0.049 A 
ATOM     52  H   UNL A   1      42.299  27.760  29.282  1.00  0.00     0.167 HD
ATOM     53  C   UNL A   1      43.666  31.611  30.862  1.00  0.00     0.031 A 
ATOM     54  C   UNL A   1      42.657  25.146  28.353  1.00  0.00     0.031 A 
ATOM     55  C   UNL A   1      44.821  30.754  30.899  1.00  0.00     0.049 A 
ATOM     56  C   UNL A   1      44.000  25.600  28.856  1.00  0.00     0.074 A 
ATOM     57  C   UNL A   1      46.085  31.037  31.382  1.00  0.00     0.029 A 
ATOM     58  N   UNL A   1      44.850  29.446  30.440  1.00  0.00    -0.354 N 
ATOM     59  N   UNL A   1      44.337  26.759  29.368  1.00  0.00    -0.248 NA
ATOM     60  C   UNL A   1      45.099  24.629  28.783  1.00  0.00     0.031 C 
ATOM     61  C   UNL A   1      46.893  29.913  31.175  1.00  0.00     0.029 A 
ATOM     62  C   UNL A   1      46.116  28.913  30.612  1.00  0.00     0.049 A 
ATOM     63  H   UNL A   1      44.083  28.967  30.048  1.00  0.00     0.167 HD
ATOM     64  C   UNL A   1      45.682  26.646  29.704  1.00  0.00     0.074 A 
ATOM     65  C   UNL A   1      46.091  25.303  29.350  1.00  0.00     0.031 C 
ATOM     66  C   UNL A   1      46.503  27.572  30.259  1.00  0.00     0.031 A 
BRANCH  53  67
ATOM     67  C   UNL A   1      43.812  33.032  31.340  1.00  0.00    -0.014 A 
ATOM     68  C   UNL A   1      44.156  34.065  30.449  1.00  0.00     0.010 A 
ATOM     69  C   UNL A   1      43.563  33.346  32.688  1.00  0.00     0.010 A 
ATOM     70  C   UNL A   1      44.291  35.377  30.906  1.00  0.00     0.020 A 
ATOM     71  C   UNL A   1      43.669  34.663  33.143  1.00  0.00     0.020 A 
ATOM     72  C   UNL A   1      44.048  35.668  32.252  1.00  0.00     0.054 A 
BRANCH  72  73
ATOM     73  S   UNL A   1      44.204  37.387  32.811  1.00  0.00     0.124 S 
ATOM     74  O   UNL A   1      43.998  38.127  31.568  1.00  0.00    -0.237 OA
ATOM     75  O   UNL A   1      43.132  37.502  33.795  1.00  0.00    -0.237 OA
ATOM     76  O   UNL A   1      45.558  37.452  33.357  1.00  0.00    -0.744 OA
ENDBRANCH  72  73
ENDBRANCH  53  67
BRANCH  54  77
ATOM     77  C   UNL A   1      42.473  23.777  27.796  1.00  0.00    -0.014 A 
ATOM     78  C   UNL A   1      42.155  22.701  28.644  1.00  0.00     0.010 A 
ATOM     79  C   UNL A   1      42.603  23.545  26.415  1.00  0.00     0.010 A 
ATOM     80  C   UNL A   1      41.989  21.415  28.122  1.00  0.00     0.020 A 
ATOM     81  C   UNL A   1      42.410  22.265  25.887  1.00  0.00     0.020 A 
ATOM     82  C   UNL A   1      42.116  21.206  26.746  1.00  0.00     0.054 A 
BRANCH  82  83
ATOM     83  S   UNL A   1      41.841  19.538  26.084  1.00  0.00     0.124 S 
ATOM     84  O   UNL A   1      42.723  19.525  24.920  1.00  0.00    -0.237 OA
ATOM     85  O   UNL A   1      42.248  18.685  27.197  1.00  0.00    -0.237 OA
ATOM     86  O   UNL A   1      40.410  19.521  25.790  1.00  0.00    -0.744 OA
ENDBRANCH  82  83
ENDBRANCH  54  77
BRANCH  66  87
ATOM     87  C   UNL A   1      47.917  27.153  30.557  1.00  0.00    -0.014 A 
ATOM     88  C   UNL A   1      48.955  27.382  29.635  1.00  0.00     0.010 A 
ATOM     89  C   UNL A   1      48.220  26.580  31.804  1.00  0.00     0.010 A 
ATOM     90  C   UNL A   1      50.266  27.016  29.947  1.00  0.00     0.020 A 
ATOM     91  C   UNL A   1      49.535  26.237  32.130  1.00  0.00     0.020 A 
ATOM     92  C   UNL A   1      50.548  26.446  31.193  1.00  0.00     0.054 A 
BRANCH  92  93
ATOM     93  S   UNL A   1      52.265  26.022  31.591  1.00  0.00     0.124 S 
ATOM     94  O   UNL A   1      52.129  24.675  32.136  1.00  0.00    -0.237 OA
ATOM     95  O   UNL A   1      52.928  26.111  30.292  1.00  0.00    -0.237 OA
ATOM     96  O   UNL A   1      52.660  27.047  32.555  1.00  0.00    -0.744 OA
ENDBRANCH  92  93
ENDBRANCH  66  87
ENDBRANCH  40  41
ENDBRANCH  32  35
ENDBRANCH  30  31
ENDBRANCH   1  30
TORSDOF 16
ENDMDL
