MODEL 1
REMARK VINA RESULT:     -11.1      0.000      0.000
REMARK SMILES O=C(NCCCNC(=O)c1ccc(-c2c3nc(c(-c4ccc(S(=O)(=O)[O-])cc4)c4ccc([nH]4)c(-c4ccc(S(=O)(=O)[O-])cc4)c4nc(c(-c5ccc(S(=O)(=O)[O-])cc5)c5ccc2[nH]5)C=C4)C=C3)cc1)C1=Cc2cc(C(F)(F)F)ccc2O[C@@H]1C(F)(F)F
REMARK SMILES IDX 6 1 5 2 4 3 3 4 1 5 2 6 70 8 71 9 83 10 72 11 82 12 73 13
REMARK SMILES IDX 81 14 74 15 80 16 79 17 84 18 85 19 86 20 87 21 75 22 76 23
REMARK SMILES IDX 77 24 78 25 7 26 8 27 9 29 10 30 11 31 69 32 12 33 68 34
REMARK SMILES IDX 13 35 14 36 15 37 62 38 16 39 67 40 61 41 63 42 17 43 66 44
REMARK SMILES IDX 60 45 59 46 18 48 48 49 29 50 47 51 30 52 33 53 46 54 64 55
REMARK SMILES IDX 31 56 32 57 45 59 65 60 34 61 19 62 20 63 28 64 21 65 27 66
REMARK SMILES IDX 22 67 23 68 24 69 25 70 26 71 49 72 50 73 58 74 51 75 57 76
REMARK SMILES IDX 52 77 53 78 54 79 55 80 56 81 35 82 36 83 44 84 37 85 43 86
REMARK SMILES IDX 38 87 39 88 40 89 41 90 42 91
REMARK H PARENT 3 7 7 28 63 47 33 58
REMARK Flexibility Score: inf
ROOT
ATOM      1  C   UNL A   1      37.053  23.467  24.989  1.00  0.00     0.118 C 
ENDROOT
BRANCH   1   2
ATOM      2  C   UNL A   1      36.440  23.150  23.630  1.00  0.00     0.042 C 
BRANCH   2   3
ATOM      3  C   UNL A   1      34.917  23.193  23.653  1.00  0.00     0.118 C 
BRANCH   3   4
ATOM      4  N   UNL A   1      34.351  24.307  22.889  1.00  0.00    -0.352 N 
ATOM      5  O   UNL A   1      33.485  26.382  22.581  1.00  0.00    -0.270 OA
ATOM      6  C   UNL A   1      33.682  25.428  23.320  1.00  0.00     0.251 C 
ATOM      7  H   UNL A   1      34.468  24.244  21.913  1.00  0.00     0.163 HD
BRANCH   6   8
ATOM      8  C   UNL A   1      33.284  25.469  24.739  1.00  0.00     0.067 C 
ATOM      9  C   UNL A   1      34.106  26.096  25.590  1.00  0.00     0.025 C 
ATOM     10  C   UNL A   1      31.850  25.179  25.056  1.00  0.00     0.314 C 
ATOM     11  C   UNL A   1      33.404  27.079  26.426  1.00  0.00     0.018 A 
ATOM     12  O   UNL A   1      31.190  26.285  25.721  1.00  0.00    -0.475 OA
ATOM     13  C   UNL A   1      34.163  28.150  26.908  1.00  0.00     0.025 A 
ATOM     14  C   UNL A   1      32.005  27.202  26.342  1.00  0.00     0.128 A 
ATOM     15  C   UNL A   1      33.552  29.384  27.182  1.00  0.00     0.056 A 
ATOM     16  C   UNL A   1      31.383  28.399  26.694  1.00  0.00     0.048 A 
ATOM     17  C   UNL A   1      32.156  29.494  27.082  1.00  0.00     0.017 A 
BRANCH  10  18
ATOM     18  C   UNL A   1      31.710  23.894  25.886  1.00  0.00     0.429 C 
ATOM     19  F   UNL A   1      31.807  24.160  27.212  1.00  0.00    -0.167 F 
ATOM     20  F   UNL A   1      30.510  23.296  25.698  1.00  0.00    -0.167 F 
ATOM     21  F   UNL A   1      32.665  22.981  25.593  1.00  0.00    -0.167 F 
ENDBRANCH  10  18
BRANCH  15  22
ATOM     22  C   UNL A   1      34.409  30.587  27.497  1.00  0.00     0.416 C 
ATOM     23  F   UNL A   1      33.818  31.751  27.127  1.00  0.00    -0.166 F 
ATOM     24  F   UNL A   1      34.674  30.696  28.830  1.00  0.00    -0.166 F 
ATOM     25  F   UNL A   1      35.622  30.557  26.880  1.00  0.00    -0.166 F 
ENDBRANCH  15  22
ENDBRANCH   6   8
ENDBRANCH   3   4
ENDBRANCH   2   3
ENDBRANCH   1   2
BRANCH   1  26
ATOM     26  N   UNL A   1      38.179  22.608  25.345  1.00  0.00    -0.352 N 
ATOM     27  C   UNL A   1      39.307  22.863  26.104  1.00  0.00     0.251 C 
ATOM     28  H   UNL A   1      38.127  21.694  24.984  1.00  0.00     0.163 HD
ATOM     29  O   UNL A   1      40.170  22.008  26.200  1.00  0.00    -0.269 OA
BRANCH  27  30
ATOM     30  C   UNL A   1      39.487  24.184  26.759  1.00  0.00     0.039 A 
ATOM     31  C   UNL A   1      38.990  24.378  28.050  1.00  0.00     0.014 A 
ATOM     32  C   UNL A   1      40.170  25.216  26.120  1.00  0.00     0.014 A 
ATOM     33  C   UNL A   1      39.278  25.565  28.735  1.00  0.00     0.010 A 
ATOM     34  C   UNL A   1      40.568  26.332  26.846  1.00  0.00     0.010 A 
ATOM     35  C   UNL A   1      40.125  26.527  28.162  1.00  0.00    -0.014 A 
BRANCH  35  36
ATOM     36  C   UNL A   1      40.566  27.743  28.898  1.00  0.00     0.031 A 
ATOM     37  C   UNL A   1      41.919  27.767  29.566  1.00  0.00     0.074 A 
ATOM     38  C   UNL A   1      39.718  28.780  29.061  1.00  0.00     0.049 A 
ATOM     39  N   UNL A   1      42.425  28.660  30.379  1.00  0.00    -0.248 NA
ATOM     40  C   UNL A   1      42.798  26.608  29.331  1.00  0.00     0.031 C 
ATOM     41  C   UNL A   1      38.356  28.861  28.524  1.00  0.00     0.029 A 
ATOM     42  N   UNL A   1      39.872  29.964  29.739  1.00  0.00    -0.354 N 
ATOM     43  C   UNL A   1      43.653  28.147  30.784  1.00  0.00     0.074 A 
ATOM     44  C   UNL A   1      43.788  26.842  30.178  1.00  0.00     0.031 C 
ATOM     45  C   UNL A   1      37.820  30.047  28.855  1.00  0.00     0.029 A 
ATOM     46  C   UNL A   1      38.774  30.790  29.671  1.00  0.00     0.049 A 
ATOM     47  H   UNL A   1      40.693  30.199  30.229  1.00  0.00     0.167 HD
ATOM     48  C   UNL A   1      44.599  28.720  31.566  1.00  0.00     0.031 A 
ATOM     49  C   UNL A   1      38.555  32.006  30.208  1.00  0.00     0.031 A 
ATOM     50  C   UNL A   1      44.487  30.041  32.120  1.00  0.00     0.049 A 
ATOM     51  C   UNL A   1      39.635  32.644  31.035  1.00  0.00     0.074 A 
ATOM     52  C   UNL A   1      45.421  30.749  32.855  1.00  0.00     0.029 A 
ATOM     53  N   UNL A   1      43.375  30.861  31.987  1.00  0.00    -0.354 N 
ATOM     54  N   UNL A   1      40.815  32.166  31.359  1.00  0.00    -0.248 NA
ATOM     55  C   UNL A   1      39.362  33.987  31.563  1.00  0.00     0.031 C 
ATOM     56  C   UNL A   1      44.859  31.984  33.198  1.00  0.00     0.029 A 
ATOM     57  C   UNL A   1      43.594  32.063  32.637  1.00  0.00     0.049 A 
ATOM     58  H   UNL A   1      42.553  30.622  31.502  1.00  0.00     0.167 HD
ATOM     59  C   UNL A   1      41.431  33.160  32.110  1.00  0.00     0.074 A 
ATOM     60  C   UNL A   1      40.503  34.271  32.178  1.00  0.00     0.031 C 
ATOM     61  C   UNL A   1      42.656  33.154  32.692  1.00  0.00     0.031 A 
BRANCH  48  62
ATOM     62  C   UNL A   1      45.841  27.917  31.851  1.00  0.00    -0.014 A 
ATOM     63  C   UNL A   1      45.925  27.083  32.981  1.00  0.00     0.010 A 
ATOM     64  C   UNL A   1      46.939  27.988  30.974  1.00  0.00     0.010 A 
ATOM     65  C   UNL A   1      47.102  26.385  33.262  1.00  0.00     0.020 A 
ATOM     66  C   UNL A   1      48.107  27.264  31.234  1.00  0.00     0.020 A 
ATOM     67  C   UNL A   1      48.188  26.486  32.390  1.00  0.00     0.054 A 
BRANCH  67  68
ATOM     68  S   UNL A   1      49.702  25.566  32.778  1.00  0.00     0.124 S 
ATOM     69  O   UNL A   1      50.570  26.621  33.297  1.00  0.00    -0.237 OA
ATOM     70  O   UNL A   1      49.243  24.590  33.764  1.00  0.00    -0.237 OA
ATOM     71  O   UNL A   1      50.106  25.004  31.491  1.00  0.00    -0.744 OA
ENDBRANCH  67  68
ENDBRANCH  48  62
BRANCH  49  72
ATOM     72  C   UNL A   1      37.271  32.713  29.948  1.00  0.00    -0.014 A 
ATOM     73  C   UNL A   1      36.253  32.710  30.919  1.00  0.00     0.010 A 
ATOM     74  C   UNL A   1      37.064  33.412  28.745  1.00  0.00     0.010 A 
ATOM     75  C   UNL A   1      35.048  33.380  30.687  1.00  0.00     0.020 A 
ATOM     76  C   UNL A   1      35.871  34.105  28.521  1.00  0.00     0.020 A 
ATOM     77  C   UNL A   1      34.866  34.077  29.490  1.00  0.00     0.054 A 
BRANCH  77  78
ATOM     78  S   UNL A   1      33.318  34.989  29.237  1.00  0.00     0.124 S 
ATOM     79  O   UNL A   1      32.726  34.959  30.571  1.00  0.00    -0.237 OA
ATOM     80  O   UNL A   1      33.790  36.294  28.782  1.00  0.00    -0.237 OA
ATOM     81  O   UNL A   1      32.620  34.201  28.224  1.00  0.00    -0.744 OA
ENDBRANCH  77  78
ENDBRANCH  49  72
BRANCH  61  82
ATOM     82  C   UNL A   1      43.076  34.396  33.429  1.00  0.00    -0.014 A 
ATOM     83  C   UNL A   1      42.943  34.491  34.825  1.00  0.00     0.010 A 
ATOM     84  C   UNL A   1      43.667  35.457  32.719  1.00  0.00     0.010 A 
ATOM     85  C   UNL A   1      43.370  35.639  35.496  1.00  0.00     0.020 A 
ATOM     86  C   UNL A   1      44.119  36.595  33.390  1.00  0.00     0.020 A 
ATOM     87  C   UNL A   1      43.956  36.684  34.774  1.00  0.00     0.054 A 
BRANCH  87  88
ATOM     88  S   UNL A   1      44.548  38.143  35.674  1.00  0.00     0.124 S 
ATOM     89  O   UNL A   1      44.258  39.220  34.731  1.00  0.00    -0.237 OA
ATOM     90  O   UNL A   1      43.727  38.129  36.884  1.00  0.00    -0.237 OA
ATOM     91  O   UNL A   1      45.966  37.865  35.889  1.00  0.00    -0.744 OA
ENDBRANCH  87  88
ENDBRANCH  61  82
ENDBRANCH  35  36
ENDBRANCH  27  30
ENDBRANCH   1  26
TORSDOF 15
ENDMDL
MODEL 2
REMARK VINA RESULT:     -11.0      3.232      9.122
REMARK SMILES O=C(NCCCNC(=O)c1ccc(-c2c3nc(c(-c4ccc(S(=O)(=O)[O-])cc4)c4ccc([nH]4)c(-c4ccc(S(=O)(=O)[O-])cc4)c4nc(c(-c5ccc(S(=O)(=O)[O-])cc5)c5ccc2[nH]5)C=C4)C=C3)cc1)C1=Cc2cc(C(F)(F)F)ccc2O[C@@H]1C(F)(F)F
REMARK SMILES IDX 6 1 5 2 4 3 3 4 1 5 2 6 70 8 71 9 83 10 72 11 82 12 73 13
REMARK SMILES IDX 81 14 74 15 80 16 79 17 84 18 85 19 86 20 87 21 75 22 76 23
REMARK SMILES IDX 77 24 78 25 7 26 8 27 9 29 10 30 11 31 69 32 12 33 68 34
REMARK SMILES IDX 13 35 14 36 15 37 62 38 16 39 67 40 61 41 63 42 17 43 66 44
REMARK SMILES IDX 60 45 59 46 18 48 48 49 29 50 47 51 30 52 33 53 46 54 64 55
REMARK SMILES IDX 31 56 32 57 45 59 65 60 34 61 19 62 20 63 28 64 21 65 27 66
REMARK SMILES IDX 22 67 23 68 24 69 25 70 26 71 49 72 50 73 58 74 51 75 57 76
REMARK SMILES IDX 52 77 53 78 54 79 55 80 56 81 35 82 36 83 44 84 37 85 43 86
REMARK SMILES IDX 38 87 39 88 40 89 41 90 42 91
REMARK H PARENT 3 7 7 28 63 47 33 58
REMARK Flexibility Score: inf
ROOT
ATOM      1  C   UNL A   1      33.808  28.804  25.907  1.00  0.00     0.118 C 
ENDROOT
BRANCH   1   2
ATOM      2  C   UNL A   1      33.095  27.723  26.712  1.00  0.00     0.042 C 
BRANCH   2   3
ATOM      3  C   UNL A   1      32.357  26.727  25.826  1.00  0.00     0.118 C 
BRANCH   3   4
ATOM      4  N   UNL A   1      32.164  25.418  26.453  1.00  0.00    -0.352 N 
ATOM      5  O   UNL A   1      32.726  23.302  27.053  1.00  0.00    -0.270 OA
ATOM      6  C   UNL A   1      32.855  24.242  26.281  1.00  0.00     0.251 C 
ATOM      7  H   UNL A   1      31.422  25.372  27.099  1.00  0.00     0.163 HD
BRANCH   6   8
ATOM      8  C   UNL A   1      33.825  24.189  25.172  1.00  0.00     0.067 C 
ATOM      9  C   UNL A   1      35.034  24.724  25.387  1.00  0.00     0.025 C 
ATOM     10  C   UNL A   1      33.549  23.217  24.067  1.00  0.00     0.314 C 
ATOM     11  C   UNL A   1      36.124  23.809  25.026  1.00  0.00     0.018 A 
ATOM     12  O   UNL A   1      34.605  22.237  23.909  1.00  0.00    -0.475 OA
ATOM     13  C   UNL A   1      37.339  23.984  25.697  1.00  0.00     0.025 A 
ATOM     14  C   UNL A   1      35.833  22.567  24.431  1.00  0.00     0.128 A 
ATOM     15  C   UNL A   1      38.205  22.896  25.890  1.00  0.00     0.056 A 
ATOM     16  C   UNL A   1      36.728  21.506  24.548  1.00  0.00     0.048 A 
ATOM     17  C   UNL A   1      37.893  21.661  25.300  1.00  0.00     0.017 A 
BRANCH  10  18
ATOM     18  C   UNL A   1      33.287  23.942  22.738  1.00  0.00     0.429 C 
ATOM     19  F   UNL A   1      32.078  24.557  22.751  1.00  0.00    -0.167 F 
ATOM     20  F   UNL A   1      34.207  24.904  22.494  1.00  0.00    -0.167 F 
ATOM     21  F   UNL A   1      33.293  23.100  21.679  1.00  0.00    -0.167 F 
ENDBRANCH  10  18
BRANCH  15  22
ATOM     22  C   UNL A   1      39.405  23.048  26.794  1.00  0.00     0.416 C 
ATOM     23  F   UNL A   1      39.131  23.797  27.892  1.00  0.00    -0.166 F 
ATOM     24  F   UNL A   1      39.862  21.848  27.249  1.00  0.00    -0.166 F 
ATOM     25  F   UNL A   1      40.467  23.640  26.179  1.00  0.00    -0.166 F 
ENDBRANCH  15  22
ENDBRANCH   6   8
ENDBRANCH   3   4
ENDBRANCH   2   3
ENDBRANCH   1   2
BRANCH   1  26
ATOM     26  N   UNL A   1      33.663  30.148  26.460  1.00  0.00    -0.352 N 
ATOM     27  C   UNL A   1      34.422  30.828  27.395  1.00  0.00     0.251 C 
ATOM     28  H   UNL A   1      32.895  30.654  26.109  1.00  0.00     0.163 HD
ATOM     29  O   UNL A   1      34.059  31.928  27.774  1.00  0.00    -0.269 OA
BRANCH  27  30
ATOM     30  C   UNL A   1      35.644  30.205  27.965  1.00  0.00     0.039 A 
ATOM     31  C   UNL A   1      36.835  30.249  27.236  1.00  0.00     0.014 A 
ATOM     32  C   UNL A   1      35.628  29.611  29.225  1.00  0.00     0.014 A 
ATOM     33  C   UNL A   1      38.025  29.797  27.819  1.00  0.00     0.010 A 
ATOM     34  C   UNL A   1      36.826  29.289  29.850  1.00  0.00     0.010 A 
ATOM     35  C   UNL A   1      38.042  29.373  29.158  1.00  0.00    -0.014 A 
BRANCH  35  36
ATOM     36  C   UNL A   1      39.300  29.007  29.863  1.00  0.00     0.031 A 
ATOM     37  C   UNL A   1      39.733  29.788  31.079  1.00  0.00     0.074 A 
ATOM     38  C   UNL A   1      40.106  28.051  29.357  1.00  0.00     0.049 A 
ATOM     39  N   UNL A   1      40.861  29.732  31.741  1.00  0.00    -0.248 NA
ATOM     40  C   UNL A   1      38.795  30.805  31.586  1.00  0.00     0.031 C 
ATOM     41  C   UNL A   1      39.841  27.262  28.151  1.00  0.00     0.029 A 
ATOM     42  N   UNL A   1      41.325  27.588  29.788  1.00  0.00    -0.354 N 
ATOM     43  C   UNL A   1      40.784  30.733  32.704  1.00  0.00     0.074 A 
ATOM     44  C   UNL A   1      39.528  31.418  32.502  1.00  0.00     0.031 C 
ATOM     45  C   UNL A   1      40.842  26.385  27.966  1.00  0.00     0.029 A 
ATOM     46  C   UNL A   1      41.845  26.582  29.006  1.00  0.00     0.049 A 
ATOM     47  H   UNL A   1      41.784  27.942  30.584  1.00  0.00     0.167 HD
ATOM     48  C   UNL A   1      41.662  31.037  33.689  1.00  0.00     0.031 A 
ATOM     49  C   UNL A   1      43.001  25.899  29.109  1.00  0.00     0.031 A 
ATOM     50  C   UNL A   1      42.884  30.316  33.923  1.00  0.00     0.049 A 
ATOM     51  C   UNL A   1      43.942  26.221  30.235  1.00  0.00     0.074 A 
ATOM     52  C   UNL A   1      43.803  30.488  34.942  1.00  0.00     0.029 A 
ATOM     53  N   UNL A   1      43.348  29.275  33.133  1.00  0.00    -0.354 N 
ATOM     54  N   UNL A   1      43.823  27.133  31.172  1.00  0.00    -0.248 NA
ATOM     55  C   UNL A   1      45.169  25.419  30.327  1.00  0.00     0.031 C 
ATOM     56  C   UNL A   1      44.844  29.573  34.747  1.00  0.00     0.029 A 
ATOM     57  C   UNL A   1      44.548  28.801  33.634  1.00  0.00     0.049 A 
ATOM     58  H   UNL A   1      42.892  28.925  32.334  1.00  0.00     0.167 HD
ATOM     59  C   UNL A   1      44.949  26.999  31.976  1.00  0.00     0.074 A 
ATOM     60  C   UNL A   1      45.728  25.908  31.426  1.00  0.00     0.031 C 
ATOM     61  C   UNL A   1      45.307  27.714  33.071  1.00  0.00     0.031 A 
BRANCH  48  62
ATOM     62  C   UNL A   1      41.319  32.193  34.591  1.00  0.00    -0.014 A 
ATOM     63  C   UNL A   1      40.636  31.992  35.805  1.00  0.00     0.010 A 
ATOM     64  C   UNL A   1      41.692  33.500  34.228  1.00  0.00     0.010 A 
ATOM     65  C   UNL A   1      40.277  33.079  36.606  1.00  0.00     0.020 A 
ATOM     66  C   UNL A   1      41.364  34.588  35.044  1.00  0.00     0.020 A 
ATOM     67  C   UNL A   1      40.638  34.371  36.216  1.00  0.00     0.054 A 
BRANCH  67  68
ATOM     68  S   UNL A   1      40.162  35.763  37.277  1.00  0.00     0.124 S 
ATOM     69  O   UNL A   1      39.783  36.774  36.293  1.00  0.00    -0.237 OA
ATOM     70  O   UNL A   1      39.062  35.209  38.063  1.00  0.00    -0.237 OA
ATOM     71  O   UNL A   1      41.379  36.055  38.032  1.00  0.00    -0.744 OA
ENDBRANCH  67  68
ENDBRANCH  48  62
BRANCH  49  72
ATOM     72  C   UNL A   1      43.314  24.816  28.135  1.00  0.00    -0.014 A 
ATOM     73  C   UNL A   1      42.897  23.496  28.387  1.00  0.00     0.010 A 
ATOM     74  C   UNL A   1      44.008  25.098  26.945  1.00  0.00     0.010 A 
ATOM     75  C   UNL A   1      43.179  22.477  27.473  1.00  0.00     0.020 A 
ATOM     76  C   UNL A   1      44.269  24.085  26.017  1.00  0.00     0.020 A 
ATOM     77  C   UNL A   1      43.861  22.778  26.291  1.00  0.00     0.054 A 
BRANCH  77  78
ATOM     78  S   UNL A   1      44.162  21.450  25.092  1.00  0.00     0.124 S 
ATOM     79  O   UNL A   1      44.048  22.157  23.821  1.00  0.00    -0.237 OA
ATOM     80  O   UNL A   1      45.505  20.999  25.449  1.00  0.00    -0.237 OA
ATOM     81  O   UNL A   1      43.096  20.490  25.373  1.00  0.00    -0.744 OA
ENDBRANCH  77  78
ENDBRANCH  49  72
BRANCH  61  82
ATOM     82  C   UNL A   1      46.583  27.323  33.765  1.00  0.00    -0.014 A 
ATOM     83  C   UNL A   1      47.811  27.906  33.409  1.00  0.00     0.010 A 
ATOM     84  C   UNL A   1      46.539  26.403  34.828  1.00  0.00     0.010 A 
ATOM     85  C   UNL A   1      48.980  27.555  34.087  1.00  0.00     0.020 A 
ATOM     86  C   UNL A   1      47.702  26.070  35.526  1.00  0.00     0.020 A 
ATOM     87  C   UNL A   1      48.918  26.638  35.143  1.00  0.00     0.054 A 
BRANCH  87  88
ATOM     88  S   UNL A   1      50.441  26.237  36.041  1.00  0.00     0.124 S 
ATOM     89  O   UNL A   1      50.084  26.583  37.414  1.00  0.00    -0.237 OA
ATOM     90  O   UNL A   1      50.604  24.808  35.775  1.00  0.00    -0.237 OA
ATOM     91  O   UNL A   1      51.446  27.097  35.420  1.00  0.00    -0.744 OA
ENDBRANCH  87  88
ENDBRANCH  61  82
ENDBRANCH  35  36
ENDBRANCH  27  30
ENDBRANCH   1  26
TORSDOF 15
ENDMDL
MODEL 3
REMARK VINA RESULT:     -11.0      2.412      2.963
REMARK SMILES O=C(NCCCNC(=O)c1ccc(-c2c3nc(c(-c4ccc(S(=O)(=O)[O-])cc4)c4ccc([nH]4)c(-c4ccc(S(=O)(=O)[O-])cc4)c4nc(c(-c5ccc(S(=O)(=O)[O-])cc5)c5ccc2[nH]5)C=C4)C=C3)cc1)C1=Cc2cc(C(F)(F)F)ccc2O[C@@H]1C(F)(F)F
REMARK SMILES IDX 6 1 5 2 4 3 3 4 1 5 2 6 70 8 71 9 83 10 72 11 82 12 73 13
REMARK SMILES IDX 81 14 74 15 80 16 79 17 84 18 85 19 86 20 87 21 75 22 76 23
REMARK SMILES IDX 77 24 78 25 7 26 8 27 9 29 10 30 11 31 69 32 12 33 68 34
REMARK SMILES IDX 13 35 14 36 15 37 62 38 16 39 67 40 61 41 63 42 17 43 66 44
REMARK SMILES IDX 60 45 59 46 18 48 48 49 29 50 47 51 30 52 33 53 46 54 64 55
REMARK SMILES IDX 31 56 32 57 45 59 65 60 34 61 19 62 20 63 28 64 21 65 27 66
REMARK SMILES IDX 22 67 23 68 24 69 25 70 26 71 49 72 50 73 58 74 51 75 57 76
REMARK SMILES IDX 52 77 53 78 54 79 55 80 56 81 35 82 36 83 44 84 37 85 43 86
REMARK SMILES IDX 38 87 39 88 40 89 41 90 42 91
REMARK H PARENT 3 7 7 28 63 47 33 58
REMARK Flexibility Score: inf
ROOT
ATOM      1  C   UNL A   1      36.445  23.102  25.905  1.00  0.00     0.118 C 
ENDROOT
BRANCH   1   2
ATOM      2  C   UNL A   1      35.901  23.210  24.485  1.00  0.00     0.042 C 
BRANCH   2   3
ATOM      3  C   UNL A   1      34.455  23.686  24.450  1.00  0.00     0.118 C 
BRANCH   3   4
ATOM      4  N   UNL A   1      34.216  24.763  23.485  1.00  0.00    -0.352 N 
ATOM      5  O   UNL A   1      33.754  26.881  22.814  1.00  0.00    -0.270 OA
ATOM      6  C   UNL A   1      33.664  26.009  23.666  1.00  0.00     0.251 C 
ATOM      7  H   UNL A   1      34.494  24.562  22.562  1.00  0.00     0.163 HD
BRANCH   6   8
ATOM      8  C   UNL A   1      33.029  26.280  24.969  1.00  0.00     0.067 C 
ATOM      9  C   UNL A   1      33.822  26.700  25.963  1.00  0.00     0.025 C 
ATOM     10  C   UNL A   1      31.542  26.456  24.982  1.00  0.00     0.314 C 
ATOM     11  C   UNL A   1      33.307  27.911  26.617  1.00  0.00     0.018 A 
ATOM     12  O   UNL A   1      31.139  27.757  25.475  1.00  0.00    -0.475 OA
ATOM     13  C   UNL A   1      34.249  28.743  27.229  1.00  0.00     0.025 A 
ATOM     14  C   UNL A   1      32.058  28.437  26.238  1.00  0.00     0.128 A 
ATOM     15  C   UNL A   1      34.006  30.120  27.349  1.00  0.00     0.056 A 
ATOM     16  C   UNL A   1      31.778  29.789  26.431  1.00  0.00     0.048 A 
ATOM     17  C   UNL A   1      32.760  30.632  26.955  1.00  0.00     0.017 A 
BRANCH  10  18
ATOM     18  C   UNL A   1      30.855  25.341  25.786  1.00  0.00     0.429 C 
ATOM     19  F   UNL A   1      30.738  24.211  25.045  1.00  0.00    -0.167 F 
ATOM     20  F   UNL A   1      31.557  25.007  26.894  1.00  0.00    -0.167 F 
ATOM     21  F   UNL A   1      29.609  25.684  26.187  1.00  0.00    -0.167 F 
ENDBRANCH  10  18
BRANCH  15  22
ATOM     22  C   UNL A   1      35.113  31.036  27.816  1.00  0.00     0.416 C 
ATOM     23  F   UNL A   1      35.322  30.948  29.155  1.00  0.00    -0.166 F 
ATOM     24  F   UNL A   1      36.304  30.748  27.220  1.00  0.00    -0.166 F 
ATOM     25  F   UNL A   1      34.872  32.348  27.548  1.00  0.00    -0.166 F 
ENDBRANCH  15  22
ENDBRANCH   6   8
ENDBRANCH   3   4
ENDBRANCH   2   3
ENDBRANCH   1   2
BRANCH   1  26
ATOM     26  N   UNL A   1      37.619  22.242  26.026  1.00  0.00    -0.352 N 
ATOM     27  C   UNL A   1      38.924  22.535  26.380  1.00  0.00     0.251 C 
ATOM     28  H   UNL A   1      37.454  21.293  25.820  1.00  0.00     0.163 HD
ATOM     29  O   UNL A   1      39.768  21.658  26.331  1.00  0.00    -0.269 OA
BRANCH  27  30
ATOM     30  C   UNL A   1      39.301  23.917  26.773  1.00  0.00     0.039 A 
ATOM     31  C   UNL A   1      39.171  24.305  28.109  1.00  0.00     0.014 A 
ATOM     32  C   UNL A   1      39.812  24.816  25.840  1.00  0.00     0.014 A 
ATOM     33  C   UNL A   1      39.656  25.552  28.522  1.00  0.00     0.010 A 
ATOM     34  C   UNL A   1      40.413  25.992  26.273  1.00  0.00     0.010 A 
ATOM     35  C   UNL A   1      40.342  26.380  27.618  1.00  0.00    -0.014 A 
BRANCH  35  36
ATOM     36  C   UNL A   1      40.989  27.654  28.036  1.00  0.00     0.031 A 
ATOM     37  C   UNL A   1      42.488  27.801  27.938  1.00  0.00     0.074 A 
ATOM     38  C   UNL A   1      40.253  28.634  28.599  1.00  0.00     0.049 A 
ATOM     39  N   UNL A   1      43.256  28.760  28.389  1.00  0.00    -0.248 NA
ATOM     40  C   UNL A   1      43.224  26.698  27.296  1.00  0.00     0.031 C 
ATOM     41  C   UNL A   1      38.803  28.597  28.814  1.00  0.00     0.029 A 
ATOM     42  N   UNL A   1      40.628  29.853  29.109  1.00  0.00    -0.354 N 
ATOM     43  C   UNL A   1      44.561  28.352  28.128  1.00  0.00     0.074 A 
ATOM     44  C   UNL A   1      44.482  27.035  27.536  1.00  0.00     0.031 C 
ATOM     45  C   UNL A   1      38.409  29.755  29.368  1.00  0.00     0.029 A 
ATOM     46  C   UNL A   1      39.578  30.596  29.598  1.00  0.00     0.049 A 
ATOM     47  H   UNL A   1      41.561  30.166  29.124  1.00  0.00     0.167 HD
ATOM     48  C   UNL A   1      45.719  29.021  28.332  1.00  0.00     0.031 A 
ATOM     49  C   UNL A   1      39.557  31.815  30.172  1.00  0.00     0.031 A 
ATOM     50  C   UNL A   1      45.791  30.353  28.868  1.00  0.00     0.049 A 
ATOM     51  C   UNL A   1      40.849  32.560  30.349  1.00  0.00     0.074 A 
ATOM     52  C   UNL A   1      46.906  31.154  29.038  1.00  0.00     0.029 A 
ATOM     53  N   UNL A   1      44.698  31.086  29.307  1.00  0.00    -0.354 N 
ATOM     54  N   UNL A   1      42.068  32.181  30.041  1.00  0.00    -0.248 NA
ATOM     55  C   UNL A   1      40.767  33.902  30.942  1.00  0.00     0.031 C 
ATOM     56  C   UNL A   1      46.490  32.360  29.615  1.00  0.00     0.029 A 
ATOM     57  C   UNL A   1      45.112  32.326  29.760  1.00  0.00     0.049 A 
ATOM     58  H   UNL A   1      43.766  30.770  29.298  1.00  0.00     0.167 HD
ATOM     59  C   UNL A   1      42.893  33.246  30.384  1.00  0.00     0.074 A 
ATOM     60  C   UNL A   1      42.035  34.290  30.905  1.00  0.00     0.031 C 
ATOM     61  C   UNL A   1      44.241  33.350  30.276  1.00  0.00     0.031 A 
BRANCH  48  62
ATOM     62  C   UNL A   1      47.000  28.320  27.960  1.00  0.00    -0.014 A 
ATOM     63  C   UNL A   1      47.569  28.474  26.682  1.00  0.00     0.010 A 
ATOM     64  C   UNL A   1      47.651  27.503  28.902  1.00  0.00     0.010 A 
ATOM     65  C   UNL A   1      48.728  27.777  26.333  1.00  0.00     0.020 A 
ATOM     66  C   UNL A   1      48.831  26.829  28.566  1.00  0.00     0.020 A 
ATOM     67  C   UNL A   1      49.347  26.953  27.275  1.00  0.00     0.054 A 
BRANCH  67  68
ATOM     68  S   UNL A   1      50.853  26.062  26.795  1.00  0.00     0.124 S 
ATOM     69  O   UNL A   1      50.779  26.114  25.337  1.00  0.00    -0.237 OA
ATOM     70  O   UNL A   1      51.911  26.868  27.400  1.00  0.00    -0.237 OA
ATOM     71  O   UNL A   1      50.672  24.735  27.381  1.00  0.00    -0.744 OA
ENDBRANCH  67  68
ENDBRANCH  48  62
BRANCH  49  72
ATOM     72  C   UNL A   1      38.261  32.419  30.588  1.00  0.00    -0.014 A 
ATOM     73  C   UNL A   1      37.733  32.149  31.864  1.00  0.00     0.010 A 
ATOM     74  C   UNL A   1      37.559  33.282  29.727  1.00  0.00     0.010 A 
ATOM     75  C   UNL A   1      36.522  32.721  32.265  1.00  0.00     0.020 A 
ATOM     76  C   UNL A   1      36.361  33.875  30.135  1.00  0.00     0.020 A 
ATOM     77  C   UNL A   1      35.844  33.583  31.399  1.00  0.00     0.054 A 
BRANCH  77  78
ATOM     78  S   UNL A   1      34.305  34.360  31.966  1.00  0.00     0.124 S 
ATOM     79  O   UNL A   1      34.792  35.606  32.551  1.00  0.00    -0.237 OA
ATOM     80  O   UNL A   1      33.545  34.497  30.727  1.00  0.00    -0.237 OA
ATOM     81  O   UNL A   1      33.764  33.391  32.916  1.00  0.00    -0.744 OA
ENDBRANCH  77  78
ENDBRANCH  49  72
BRANCH  61  82
ATOM     82  C   UNL A   1      44.869  34.648  30.704  1.00  0.00    -0.014 A 
ATOM     83  C   UNL A   1      45.331  34.831  32.019  1.00  0.00     0.010 A 
ATOM     84  C   UNL A   1      45.052  35.674  29.760  1.00  0.00     0.010 A 
ATOM     85  C   UNL A   1      45.943  36.030  32.390  1.00  0.00     0.020 A 
ATOM     86  C   UNL A   1      45.688  36.864  30.120  1.00  0.00     0.020 A 
ATOM     87  C   UNL A   1      46.117  37.040  31.437  1.00  0.00     0.054 A 
BRANCH  87  88
ATOM     88  S   UNL A   1      46.959  38.569  31.930  1.00  0.00     0.124 S 
ATOM     89  O   UNL A   1      45.872  39.544  31.878  1.00  0.00    -0.237 OA
ATOM     90  O   UNL A   1      47.451  38.248  33.268  1.00  0.00    -0.237 OA
ATOM     91  O   UNL A   1      47.997  38.735  30.915  1.00  0.00    -0.744 OA
ENDBRANCH  87  88
ENDBRANCH  61  82
ENDBRANCH  35  36
ENDBRANCH  27  30
ENDBRANCH   1  26
TORSDOF 15
ENDMDL
