MODEL 1
REMARK VINA RESULT:     -11.9      0.000      0.000
REMARK SMILES C[C@@H](C(=O)NCCCNC(=O)c1ccc(-c2c3nc(c(-c4ccc(S(=O)(=O)[O-])cc4)c4ccc([nH]4)c(-c4ccc(S(=O)(=O)[O-])cc4)c4nc(c(-c5ccc(S(=O)(=O)[O-])cc5)c5ccc2[nH]5)C=C4)C=C3)cc1)c1ccccc1-c1ccn(C(F)F)c(=O)c1
REMARK SMILES IDX 7 1 6 2 5 3 3 4 4 5 2 7 1 8 72 9 73 10 77 11 74 12 76 13
REMARK SMILES IDX 75 14 78 15 79 16 87 17 80 18 85 19 81 20 86 21 82 22 83 23
REMARK SMILES IDX 84 24 8 25 9 26 10 27 11 29 12 30 13 31 71 32 14 33 70 34
REMARK SMILES IDX 15 35 16 36 17 37 64 38 18 39 69 40 63 41 65 42 19 43 68 44
REMARK SMILES IDX 62 45 61 46 20 48 50 49 31 50 49 51 32 52 35 53 48 54 66 55
REMARK SMILES IDX 33 56 34 57 47 59 67 60 36 61 21 62 22 63 30 64 23 65 29 66
REMARK SMILES IDX 24 67 25 68 26 69 27 70 28 71 51 72 52 73 60 74 53 75 59 76
REMARK SMILES IDX 54 77 55 78 56 79 57 80 58 81 37 82 38 83 46 84 39 85 45 86
REMARK SMILES IDX 40 87 41 88 42 89 43 90 44 91
REMARK H PARENT 5 6 9 28 65 47 35 58
REMARK Flexibility Score: inf
ROOT
ATOM      1  C   UNL A   1      33.437  27.741  26.709  1.00  0.00     0.042 C 
ENDROOT
BRANCH   1   2
ATOM      2  C   UNL A   1      31.958  27.886  27.047  1.00  0.00     0.117 C 
BRANCH   2   3
ATOM      3  N   UNL A   1      31.284  26.604  27.121  1.00  0.00    -0.356 N 
ATOM      4  C   UNL A   1      30.482  25.958  26.224  1.00  0.00     0.227 C 
ATOM      5  O   UNL A   1      30.011  24.882  26.598  1.00  0.00    -0.274 OA
ATOM      6  H   UNL A   1      31.428  26.116  27.964  1.00  0.00     0.163 HD
BRANCH   4   7
ATOM      7  C   UNL A   1      30.230  26.568  24.833  1.00  0.00     0.106 C 
ATOM      8  C   UNL A   1      29.142  25.813  24.070  1.00  0.00     0.023 C 
BRANCH   7   9
ATOM      9  C   UNL A   1      31.490  26.682  23.966  1.00  0.00    -0.028 A 
ATOM     10  C   UNL A   1      32.364  25.580  23.866  1.00  0.00     0.005 A 
ATOM     11  C   UNL A   1      31.782  27.835  23.201  1.00  0.00    -0.014 A 
ATOM     12  C   UNL A   1      33.512  25.629  23.077  1.00  0.00     0.000 A 
ATOM     13  C   UNL A   1      32.949  27.874  22.416  1.00  0.00     0.009 A 
ATOM     14  C   UNL A   1      33.809  26.778  22.357  1.00  0.00     0.001 A 
BRANCH  11  15
ATOM     15  C   UNL A   1      30.870  28.997  23.140  1.00  0.00    -0.011 A 
ATOM     16  C   UNL A   1      30.805  30.019  24.168  1.00  0.00     0.027 A 
ATOM     17  C   UNL A   1      30.022  29.062  22.098  1.00  0.00     0.080 A 
ATOM     18  C   UNL A   1      29.853  30.958  24.128  1.00  0.00     0.095 A 
ATOM     19  C   UNL A   1      29.005  30.144  22.004  1.00  0.00     0.255 A 
ATOM     20  N   UNL A   1      28.948  31.012  23.084  1.00  0.00    -0.258 N 
ATOM     21  O   UNL A   1      28.289  30.192  21.010  1.00  0.00    -0.269 OA
BRANCH  20  22
ATOM     22  C   UNL A   1      27.909  32.007  23.062  1.00  0.00     0.451 C 
ATOM     23  F   UNL A   1      26.943  31.726  23.969  1.00  0.00    -0.185 F 
ATOM     24  F   UNL A   1      28.403  33.238  23.341  1.00  0.00    -0.185 F 
ENDBRANCH  20  22
ENDBRANCH  11  15
ENDBRANCH   7   9
ENDBRANCH   4   7
ENDBRANCH   2   3
ENDBRANCH   1   2
BRANCH   1  25
ATOM     25  C   UNL A   1      34.062  28.977  26.069  1.00  0.00     0.118 C 
BRANCH  25  26
ATOM     26  N   UNL A   1      33.856  30.188  26.852  1.00  0.00    -0.352 N 
ATOM     27  C   UNL A   1      34.636  30.716  27.854  1.00  0.00     0.251 C 
ATOM     28  H   UNL A   1      33.044  30.700  26.633  1.00  0.00     0.163 HD
ATOM     29  O   UNL A   1      34.221  31.664  28.517  1.00  0.00    -0.269 OA
BRANCH  27  30
ATOM     30  C   UNL A   1      35.958  30.123  28.148  1.00  0.00     0.039 A 
ATOM     31  C   UNL A   1      36.960  30.172  27.175  1.00  0.00     0.014 A 
ATOM     32  C   UNL A   1      36.211  29.535  29.390  1.00  0.00     0.014 A 
ATOM     33  C   UNL A   1      38.242  29.703  27.476  1.00  0.00     0.010 A 
ATOM     34  C   UNL A   1      37.503  29.133  29.712  1.00  0.00     0.010 A 
ATOM     35  C   UNL A   1      38.533  29.218  28.761  1.00  0.00    -0.014 A 
BRANCH  35  36
ATOM     36  C   UNL A   1      39.899  28.789  29.155  1.00  0.00     0.031 A 
ATOM     37  C   UNL A   1      40.845  29.784  29.765  1.00  0.00     0.074 A 
ATOM     38  C   UNL A   1      40.330  27.549  28.850  1.00  0.00     0.049 A 
ATOM     39  N   UNL A   1      42.127  29.669  30.000  1.00  0.00    -0.248 NA
ATOM     40  C   UNL A   1      40.278  31.093  30.125  1.00  0.00     0.031 C 
ATOM     41  C   UNL A   1      39.521  26.500  28.226  1.00  0.00     0.029 A 
ATOM     42  N   UNL A   1      41.568  26.974  28.992  1.00  0.00    -0.354 N 
ATOM     43  C   UNL A   1      42.528  30.904  30.496  1.00  0.00     0.074 A 
ATOM     44  C   UNL A   1      41.361  31.759  30.497  1.00  0.00     0.031 C 
ATOM     45  C   UNL A   1      40.285  25.412  28.034  1.00  0.00     0.029 A 
ATOM     46  C   UNL A   1      41.646  25.702  28.477  1.00  0.00     0.049 A 
ATOM     47  H   UNL A   1      42.328  27.429  29.421  1.00  0.00     0.167 HD
ATOM     48  C   UNL A   1      43.757  31.291  30.918  1.00  0.00     0.031 A 
ATOM     49  C   UNL A   1      42.698  24.868  28.347  1.00  0.00     0.031 A 
ATOM     50  C   UNL A   1      44.912  30.434  30.926  1.00  0.00     0.049 A 
ATOM     51  C   UNL A   1      44.050  25.306  28.831  1.00  0.00     0.074 A 
ATOM     52  C   UNL A   1      46.186  30.710  31.387  1.00  0.00     0.029 A 
ATOM     53  N   UNL A   1      44.931  29.132  30.449  1.00  0.00    -0.354 N 
ATOM     54  N   UNL A   1      44.403  26.460  29.347  1.00  0.00    -0.248 NA
ATOM     55  C   UNL A   1      45.145  24.331  28.727  1.00  0.00     0.031 C 
ATOM     56  C   UNL A   1      46.988  29.589  31.152  1.00  0.00     0.029 A 
ATOM     57  C   UNL A   1      46.200  28.596  30.590  1.00  0.00     0.049 A 
ATOM     58  H   UNL A   1      44.157  28.658  30.066  1.00  0.00     0.167 HD
ATOM     59  C   UNL A   1      45.754  26.342  29.652  1.00  0.00     0.074 A 
ATOM     60  C   UNL A   1      46.155  25.004  29.266  1.00  0.00     0.031 C 
ATOM     61  C   UNL A   1      46.582  27.259  30.209  1.00  0.00     0.031 A 
BRANCH  48  62
ATOM     62  C   UNL A   1      43.906  32.717  31.376  1.00  0.00    -0.014 A 
ATOM     63  C   UNL A   1      43.652  33.084  32.710  1.00  0.00     0.010 A 
ATOM     64  C   UNL A   1      44.287  33.709  30.455  1.00  0.00     0.010 A 
ATOM     65  C   UNL A   1      43.704  34.426  33.097  1.00  0.00     0.020 A 
ATOM     66  C   UNL A   1      44.370  35.048  30.845  1.00  0.00     0.020 A 
ATOM     67  C   UNL A   1      44.048  35.402  32.157  1.00  0.00     0.054 A 
BRANCH  67  68
ATOM     68  S   UNL A   1      44.072  37.140  32.671  1.00  0.00     0.124 S 
ATOM     69  O   UNL A   1      42.979  37.181  33.639  1.00  0.00    -0.237 OA
ATOM     70  O   UNL A   1      45.411  37.294  33.231  1.00  0.00    -0.237 OA
ATOM     71  O   UNL A   1      43.832  37.871  31.429  1.00  0.00    -0.744 OA
ENDBRANCH  67  68
ENDBRANCH  48  62
BRANCH  49  72
ATOM     72  C   UNL A   1      42.491  23.532  27.729  1.00  0.00    -0.014 A 
ATOM     73  C   UNL A   1      43.011  23.250  26.455  1.00  0.00     0.010 A 
ATOM     74  C   UNL A   1      41.838  22.511  28.445  1.00  0.00     0.010 A 
ATOM     75  C   UNL A   1      42.893  21.968  25.911  1.00  0.00     0.020 A 
ATOM     76  C   UNL A   1      41.738  21.222  27.914  1.00  0.00     0.020 A 
ATOM     77  C   UNL A   1      42.265  20.959  26.648  1.00  0.00     0.054 A 
BRANCH  77  78
ATOM     78  S   UNL A   1      42.217  19.276  25.967  1.00  0.00     0.124 S 
ATOM     79  O   UNL A   1      42.768  18.489  27.066  1.00  0.00    -0.237 OA
ATOM     80  O   UNL A   1      40.794  19.084  25.702  1.00  0.00    -0.237 OA
ATOM     81  O   UNL A   1      43.059  19.367  24.776  1.00  0.00    -0.744 OA
ENDBRANCH  77  78
ENDBRANCH  49  72
BRANCH  61  82
ATOM     82  C   UNL A   1      48.005  26.848  30.477  1.00  0.00    -0.014 A 
ATOM     83  C   UNL A   1      49.031  27.135  29.562  1.00  0.00     0.010 A 
ATOM     84  C   UNL A   1      48.329  26.264  31.716  1.00  0.00     0.010 A 
ATOM     85  C   UNL A   1      50.360  26.843  29.881  1.00  0.00     0.020 A 
ATOM     86  C   UNL A   1      49.658  25.990  32.046  1.00  0.00     0.020 A 
ATOM     87  C   UNL A   1      50.666  26.277  31.123  1.00  0.00     0.054 A 
BRANCH  87  88
ATOM     88  S   UNL A   1      52.406  25.992  31.552  1.00  0.00     0.124 S 
ATOM     89  O   UNL A   1      52.689  27.118  32.438  1.00  0.00    -0.237 OA
ATOM     90  O   UNL A   1      52.368  24.680  32.195  1.00  0.00    -0.237 OA
ATOM     91  O   UNL A   1      53.090  26.027  30.261  1.00  0.00    -0.744 OA
ENDBRANCH  87  88
ENDBRANCH  61  82
ENDBRANCH  35  36
ENDBRANCH  27  30
ENDBRANCH  25  26
ENDBRANCH   1  25
TORSDOF 16
ENDMDL
MODEL 2
REMARK VINA RESULT:     -11.2      3.665      9.553
REMARK SMILES C[C@@H](C(=O)NCCCNC(=O)c1ccc(-c2c3nc(c(-c4ccc(S(=O)(=O)[O-])cc4)c4ccc([nH]4)c(-c4ccc(S(=O)(=O)[O-])cc4)c4nc(c(-c5ccc(S(=O)(=O)[O-])cc5)c5ccc2[nH]5)C=C4)C=C3)cc1)c1ccccc1-c1ccn(C(F)F)c(=O)c1
REMARK SMILES IDX 7 1 6 2 5 3 3 4 4 5 2 7 1 8 72 9 73 10 77 11 74 12 76 13
REMARK SMILES IDX 75 14 78 15 79 16 87 17 80 18 85 19 81 20 86 21 82 22 83 23
REMARK SMILES IDX 84 24 8 25 9 26 10 27 11 29 12 30 13 31 71 32 14 33 70 34
REMARK SMILES IDX 15 35 16 36 17 37 64 38 18 39 69 40 63 41 65 42 19 43 68 44
REMARK SMILES IDX 62 45 61 46 20 48 50 49 31 50 49 51 32 52 35 53 48 54 66 55
REMARK SMILES IDX 33 56 34 57 47 59 67 60 36 61 21 62 22 63 30 64 23 65 29 66
REMARK SMILES IDX 24 67 25 68 26 69 27 70 28 71 51 72 52 73 60 74 53 75 59 76
REMARK SMILES IDX 54 77 55 78 56 79 57 80 58 81 37 82 38 83 46 84 39 85 45 86
REMARK SMILES IDX 40 87 41 88 42 89 43 90 44 91
REMARK H PARENT 5 6 9 28 65 47 35 58
REMARK Flexibility Score: inf
ROOT
ATOM      1  C   UNL A   1      35.921  23.033  24.351  1.00  0.00     0.042 C 
ENDROOT
BRANCH   1   2
ATOM      2  C   UNL A   1      34.968  24.035  23.708  1.00  0.00     0.117 C 
BRANCH   2   3
ATOM      3  N   UNL A   1      34.636  25.128  24.602  1.00  0.00    -0.356 N 
ATOM      4  C   UNL A   1      33.822  26.210  24.432  1.00  0.00     0.227 C 
ATOM      5  O   UNL A   1      33.776  27.005  25.374  1.00  0.00    -0.274 OA
ATOM      6  H   UNL A   1      35.074  25.082  25.482  1.00  0.00     0.163 HD
BRANCH   4   7
ATOM      7  C   UNL A   1      33.011  26.373  23.133  1.00  0.00     0.106 C 
ATOM      8  C   UNL A   1      33.571  27.485  22.248  1.00  0.00     0.023 C 
BRANCH   7   9
ATOM      9  C   UNL A   1      31.511  26.595  23.361  1.00  0.00    -0.028 A 
ATOM     10  C   UNL A   1      30.938  27.844  23.041  1.00  0.00     0.005 A 
ATOM     11  C   UNL A   1      30.654  25.568  23.821  1.00  0.00    -0.014 A 
ATOM     12  C   UNL A   1      29.576  28.087  23.213  1.00  0.00     0.000 A 
ATOM     13  C   UNL A   1      29.283  25.831  23.998  1.00  0.00     0.009 A 
ATOM     14  C   UNL A   1      28.749  27.084  23.699  1.00  0.00     0.001 A 
BRANCH  11  15
ATOM     15  C   UNL A   1      31.130  24.190  24.069  1.00  0.00    -0.011 A 
ATOM     16  C   UNL A   1      31.423  23.671  25.391  1.00  0.00     0.027 A 
ATOM     17  C   UNL A   1      31.353  23.412  22.995  1.00  0.00     0.080 A 
ATOM     18  C   UNL A   1      31.996  22.470  25.534  1.00  0.00     0.095 A 
ATOM     19  C   UNL A   1      31.922  22.045  23.145  1.00  0.00     0.255 A 
ATOM     20  N   UNL A   1      32.269  21.675  24.435  1.00  0.00    -0.258 N 
ATOM     21  O   UNL A   1      32.059  21.354  22.142  1.00  0.00    -0.269 OA
BRANCH  20  22
ATOM     22  C   UNL A   1      32.911  20.397  24.593  1.00  0.00     0.451 C 
ATOM     23  F   UNL A   1      34.022  20.500  25.363  1.00  0.00    -0.185 F 
ATOM     24  F   UNL A   1      32.078  19.499  25.172  1.00  0.00    -0.185 F 
ENDBRANCH  20  22
ENDBRANCH  11  15
ENDBRANCH   7   9
ENDBRANCH   4   7
ENDBRANCH   2   3
ENDBRANCH   1   2
BRANCH   1  25
ATOM     25  C   UNL A   1      37.040  23.665  25.173  1.00  0.00     0.118 C 
BRANCH  25  26
ATOM     26  N   UNL A   1      38.101  22.724  25.506  1.00  0.00    -0.352 N 
ATOM     27  C   UNL A   1      39.282  22.948  26.173  1.00  0.00     0.251 C 
ATOM     28  H   UNL A   1      37.950  21.796  25.213  1.00  0.00     0.163 HD
ATOM     29  O   UNL A   1      40.135  22.065  26.222  1.00  0.00    -0.269 OA
BRANCH  27  30
ATOM     30  C   UNL A   1      39.533  24.262  26.803  1.00  0.00     0.039 A 
ATOM     31  C   UNL A   1      39.095  24.487  28.111  1.00  0.00     0.014 A 
ATOM     32  C   UNL A   1      40.215  25.264  26.108  1.00  0.00     0.014 A 
ATOM     33  C   UNL A   1      39.412  25.689  28.752  1.00  0.00     0.010 A 
ATOM     34  C   UNL A   1      40.590  26.428  26.768  1.00  0.00     0.010 A 
ATOM     35  C   UNL A   1      40.197  26.651  28.099  1.00  0.00    -0.014 A 
BRANCH  35  36
ATOM     36  C   UNL A   1      40.632  27.905  28.766  1.00  0.00     0.031 A 
ATOM     37  C   UNL A   1      41.961  27.953  29.466  1.00  0.00     0.074 A 
ATOM     38  C   UNL A   1      39.785  28.949  28.853  1.00  0.00     0.049 A 
ATOM     39  N   UNL A   1      42.442  28.872  30.263  1.00  0.00    -0.248 NA
ATOM     40  C   UNL A   1      42.849  26.797  29.267  1.00  0.00     0.031 C 
ATOM     41  C   UNL A   1      38.454  29.016  28.247  1.00  0.00     0.029 A 
ATOM     42  N   UNL A   1      39.908  30.144  29.519  1.00  0.00    -0.354 N 
ATOM     43  C   UNL A   1      43.671  28.386  30.695  1.00  0.00     0.074 A 
ATOM     44  C   UNL A   1      43.843  27.080  30.096  1.00  0.00     0.031 C 
ATOM     45  C   UNL A   1      37.882  30.186  28.573  1.00  0.00     0.029 A 
ATOM     46  C   UNL A   1      38.783  30.931  29.447  1.00  0.00     0.049 A 
ATOM     47  H   UNL A   1      40.723  30.411  30.000  1.00  0.00     0.167 HD
ATOM     48  C   UNL A   1      44.576  28.975  31.514  1.00  0.00     0.031 A 
ATOM     49  C   UNL A   1      38.493  32.106  30.039  1.00  0.00     0.031 A 
ATOM     50  C   UNL A   1      44.405  30.278  32.097  1.00  0.00     0.049 A 
ATOM     51  C   UNL A   1      39.512  32.754  30.933  1.00  0.00     0.074 A 
ATOM     52  C   UNL A   1      45.287  30.988  32.891  1.00  0.00     0.029 A 
ATOM     53  N   UNL A   1      43.273  31.066  31.951  1.00  0.00    -0.354 N 
ATOM     54  N   UNL A   1      40.692  32.306  31.289  1.00  0.00    -0.248 NA
ATOM     55  C   UNL A   1      39.169  34.067  31.496  1.00  0.00     0.031 C 
ATOM     56  C   UNL A   1      44.672  32.190  33.259  1.00  0.00     0.029 A 
ATOM     57  C   UNL A   1      43.427  32.250  32.652  1.00  0.00     0.049 A 
ATOM     58  H   UNL A   1      42.477  30.820  31.425  1.00  0.00     0.167 HD
ATOM     59  C   UNL A   1      41.244  33.292  32.099  1.00  0.00     0.074 A 
ATOM     60  C   UNL A   1      40.269  34.362  32.178  1.00  0.00     0.031 C 
ATOM     61  C   UNL A   1      42.452  33.310  32.714  1.00  0.00     0.031 A 
BRANCH  48  62
ATOM     62  C   UNL A   1      45.818  28.189  31.839  1.00  0.00    -0.014 A 
ATOM     63  C   UNL A   1      46.970  28.282  31.037  1.00  0.00     0.010 A 
ATOM     64  C   UNL A   1      45.827  27.330  32.952  1.00  0.00     0.010 A 
ATOM     65  C   UNL A   1      48.081  27.476  31.299  1.00  0.00     0.020 A 
ATOM     66  C   UNL A   1      46.947  26.544  33.236  1.00  0.00     0.020 A 
ATOM     67  C   UNL A   1      48.056  26.600  32.389  1.00  0.00     0.054 A 
BRANCH  67  68
ATOM     68  S   UNL A   1      49.493  25.536  32.687  1.00  0.00     0.124 S 
ATOM     69  O   UNL A   1      49.791  25.052  31.342  1.00  0.00    -0.237 OA
ATOM     70  O   UNL A   1      50.471  26.462  33.251  1.00  0.00    -0.237 OA
ATOM     71  O   UNL A   1      48.988  24.527  33.616  1.00  0.00    -0.744 OA
ENDBRANCH  67  68
ENDBRANCH  48  62
BRANCH  49  72
ATOM     72  C   UNL A   1      37.169  32.736  29.790  1.00  0.00    -0.014 A 
ATOM     73  C   UNL A   1      36.123  32.582  30.714  1.00  0.00     0.010 A 
ATOM     74  C   UNL A   1      36.974  33.558  28.664  1.00  0.00     0.010 A 
ATOM     75  C   UNL A   1      34.907  33.245  30.524  1.00  0.00     0.020 A 
ATOM     76  C   UNL A   1      35.768  34.240  28.482  1.00  0.00     0.020 A 
ATOM     77  C   UNL A   1      34.741  34.078  29.413  1.00  0.00     0.054 A 
BRANCH  77  78
ATOM     78  S   UNL A   1      33.193  35.012  29.243  1.00  0.00     0.124 S 
ATOM     79  O   UNL A   1      32.462  34.213  28.264  1.00  0.00    -0.237 OA
ATOM     80  O   UNL A   1      32.660  34.990  30.602  1.00  0.00    -0.237 OA
ATOM     81  O   UNL A   1      33.637  36.324  28.777  1.00  0.00    -0.744 OA
ENDBRANCH  77  78
ENDBRANCH  49  72
BRANCH  61  82
ATOM     82  C   UNL A   1      42.821  34.538  33.501  1.00  0.00    -0.014 A 
ATOM     83  C   UNL A   1      42.681  34.576  34.898  1.00  0.00     0.010 A 
ATOM     84  C   UNL A   1      43.418  35.626  32.837  1.00  0.00     0.010 A 
ATOM     85  C   UNL A   1      43.132  35.686  35.620  1.00  0.00     0.020 A 
ATOM     86  C   UNL A   1      43.888  36.726  33.557  1.00  0.00     0.020 A 
ATOM     87  C   UNL A   1      43.738  36.751  34.945  1.00  0.00     0.054 A 
BRANCH  87  88
ATOM     88  S   UNL A   1      44.399  38.137  35.911  1.00  0.00     0.124 S 
ATOM     89  O   UNL A   1      43.970  39.289  35.124  1.00  0.00    -0.237 OA
ATOM     90  O   UNL A   1      43.733  37.976  37.203  1.00  0.00    -0.237 OA
ATOM     91  O   UNL A   1      45.840  37.893  35.926  1.00  0.00    -0.744 OA
ENDBRANCH  87  88
ENDBRANCH  61  82
ENDBRANCH  35  36
ENDBRANCH  27  30
ENDBRANCH  25  26
ENDBRANCH   1  25
TORSDOF 16
ENDMDL
MODEL 3
REMARK VINA RESULT:     -11.2      2.431      3.010
REMARK SMILES C[C@@H](C(=O)NCCCNC(=O)c1ccc(-c2c3nc(c(-c4ccc(S(=O)(=O)[O-])cc4)c4ccc([nH]4)c(-c4ccc(S(=O)(=O)[O-])cc4)c4nc(c(-c5ccc(S(=O)(=O)[O-])cc5)c5ccc2[nH]5)C=C4)C=C3)cc1)c1ccccc1-c1ccn(C(F)F)c(=O)c1
REMARK SMILES IDX 7 1 6 2 5 3 3 4 4 5 2 7 1 8 72 9 73 10 77 11 74 12 76 13
REMARK SMILES IDX 75 14 78 15 79 16 87 17 80 18 85 19 81 20 86 21 82 22 83 23
REMARK SMILES IDX 84 24 8 25 9 26 10 27 11 29 12 30 13 31 71 32 14 33 70 34
REMARK SMILES IDX 15 35 16 36 17 37 64 38 18 39 69 40 63 41 65 42 19 43 68 44
REMARK SMILES IDX 62 45 61 46 20 48 50 49 31 50 49 51 32 52 35 53 48 54 66 55
REMARK SMILES IDX 33 56 34 57 47 59 67 60 36 61 21 62 22 63 30 64 23 65 29 66
REMARK SMILES IDX 24 67 25 68 26 69 27 70 28 71 51 72 52 73 60 74 53 75 59 76
REMARK SMILES IDX 54 77 55 78 56 79 57 80 58 81 37 82 38 83 46 84 39 85 45 86
REMARK SMILES IDX 40 87 41 88 42 89 43 90 44 91
REMARK H PARENT 5 6 9 28 65 47 35 58
REMARK Flexibility Score: inf
ROOT
ATOM      1  C   UNL A   1      33.116  28.044  27.198  1.00  0.00     0.042 C 
ENDROOT
BRANCH   1   2
ATOM      2  C   UNL A   1      31.601  28.032  27.027  1.00  0.00     0.117 C 
BRANCH   2   3
ATOM      3  N   UNL A   1      31.055  26.688  27.060  1.00  0.00    -0.356 N 
ATOM      4  C   UNL A   1      30.402  25.961  26.107  1.00  0.00     0.227 C 
ATOM      5  O   UNL A   1      30.011  24.844  26.453  1.00  0.00    -0.274 OA
ATOM      6  H   UNL A   1      31.176  26.221  27.918  1.00  0.00     0.163 HD
BRANCH   4   7
ATOM      7  C   UNL A   1      30.208  26.536  24.692  1.00  0.00     0.106 C 
ATOM      8  C   UNL A   1      29.209  25.716  23.876  1.00  0.00     0.023 C 
BRANCH   7   9
ATOM      9  C   UNL A   1      31.513  26.700  23.904  1.00  0.00    -0.028 A 
ATOM     10  C   UNL A   1      32.409  25.614  23.812  1.00  0.00     0.005 A 
ATOM     11  C   UNL A   1      31.831  27.886  23.201  1.00  0.00    -0.014 A 
ATOM     12  C   UNL A   1      33.599  25.709  23.091  1.00  0.00     0.000 A 
ATOM     13  C   UNL A   1      33.040  27.970  22.486  1.00  0.00     0.009 A 
ATOM     14  C   UNL A   1      33.919  26.889  22.435  1.00  0.00     0.001 A 
BRANCH  11  15
ATOM     15  C   UNL A   1      30.907  29.038  23.132  1.00  0.00    -0.011 A 
ATOM     16  C   UNL A   1      30.779  30.025  24.188  1.00  0.00     0.027 A 
ATOM     17  C   UNL A   1      30.108  29.125  22.054  1.00  0.00     0.080 A 
ATOM     18  C   UNL A   1      29.817  30.954  24.132  1.00  0.00     0.095 A 
ATOM     19  C   UNL A   1      29.082  30.197  21.945  1.00  0.00     0.255 A 
ATOM     20  N   UNL A   1      28.962  31.029  23.047  1.00  0.00    -0.258 N 
ATOM     21  O   UNL A   1      28.414  30.267  20.920  1.00  0.00    -0.269 OA
BRANCH  20  22
ATOM     22  C   UNL A   1      27.911  32.011  23.007  1.00  0.00     0.451 C 
ATOM     23  F   UNL A   1      26.948  31.736  23.920  1.00  0.00    -0.185 F 
ATOM     24  F   UNL A   1      28.391  33.253  23.262  1.00  0.00    -0.185 F 
ENDBRANCH  20  22
ENDBRANCH  11  15
ENDBRANCH   7   9
ENDBRANCH   4   7
ENDBRANCH   2   3
ENDBRANCH   1   2
BRANCH   1  25
ATOM     25  C   UNL A   1      33.851  28.982  26.247  1.00  0.00     0.118 C 
BRANCH  25  26
ATOM     26  N   UNL A   1      33.729  30.384  26.626  1.00  0.00    -0.352 N 
ATOM     27  C   UNL A   1      34.484  31.110  27.518  1.00  0.00     0.251 C 
ATOM     28  H   UNL A   1      33.006  30.881  26.181  1.00  0.00     0.163 HD
ATOM     29  O   UNL A   1      34.134  32.245  27.834  1.00  0.00    -0.269 OA
BRANCH  27  30
ATOM     30  C   UNL A   1      35.697  30.511  28.115  1.00  0.00     0.039 A 
ATOM     31  C   UNL A   1      36.926  30.672  27.470  1.00  0.00     0.014 A 
ATOM     32  C   UNL A   1      35.621  29.807  29.319  1.00  0.00     0.014 A 
ATOM     33  C   UNL A   1      38.093  30.195  28.074  1.00  0.00     0.010 A 
ATOM     34  C   UNL A   1      36.788  29.396  29.951  1.00  0.00     0.010 A 
ATOM     35  C   UNL A   1      38.038  29.590  29.338  1.00  0.00    -0.014 A 
BRANCH  35  36
ATOM     36  C   UNL A   1      39.258  29.145  30.058  1.00  0.00     0.031 A 
ATOM     37  C   UNL A   1      39.734  29.911  31.260  1.00  0.00     0.074 A 
ATOM     38  C   UNL A   1      40.003  28.138  29.561  1.00  0.00     0.049 A 
ATOM     39  N   UNL A   1      40.865  29.810  31.910  1.00  0.00    -0.248 NA
ATOM     40  C   UNL A   1      38.831  30.951  31.775  1.00  0.00     0.031 C 
ATOM     41  C   UNL A   1      39.669  27.337  28.382  1.00  0.00     0.029 A 
ATOM     42  N   UNL A   1      41.217  27.642  29.968  1.00  0.00    -0.354 N 
ATOM     43  C   UNL A   1      40.827  30.801  32.883  1.00  0.00     0.074 A 
ATOM     44  C   UNL A   1      39.577  31.510  32.716  1.00  0.00     0.031 C 
ATOM     45  C   UNL A   1      40.656  26.454  28.158  1.00  0.00     0.029 A 
ATOM     46  C   UNL A   1      41.711  26.657  29.146  1.00  0.00     0.049 A 
ATOM     47  H   UNL A   1      41.688  27.960  30.771  1.00  0.00     0.167 HD
ATOM     48  C   UNL A   1      41.748  31.093  33.834  1.00  0.00     0.031 A 
ATOM     49  C   UNL A   1      42.893  26.008  29.162  1.00  0.00     0.031 A 
ATOM     50  C   UNL A   1      42.984  30.378  34.003  1.00  0.00     0.049 A 
ATOM     51  C   UNL A   1      43.897  26.333  30.231  1.00  0.00     0.074 A 
ATOM     52  C   UNL A   1      43.957  30.555  34.970  1.00  0.00     0.029 A 
ATOM     53  N   UNL A   1      43.419  29.347  33.183  1.00  0.00    -0.354 N 
ATOM     54  N   UNL A   1      43.824  27.237  31.178  1.00  0.00    -0.248 NA
ATOM     55  C   UNL A   1      45.138  25.546  30.242  1.00  0.00     0.031 C 
ATOM     56  C   UNL A   1      44.999  29.660  34.711  1.00  0.00     0.029 A 
ATOM     57  C   UNL A   1      44.653  28.889  33.611  1.00  0.00     0.049 A 
ATOM     58  H   UNL A   1      42.922  28.993  32.408  1.00  0.00     0.167 HD
ATOM     59  C   UNL A   1      44.997  27.113  31.913  1.00  0.00     0.074 A 
ATOM     60  C   UNL A   1      45.762  26.043  31.303  1.00  0.00     0.031 C 
ATOM     61  C   UNL A   1      45.398  27.818  32.999  1.00  0.00     0.031 A 
BRANCH  48  62
ATOM     62  C   UNL A   1      41.451  32.257  34.741  1.00  0.00    -0.014 A 
ATOM     63  C   UNL A   1      41.865  33.560  34.413  1.00  0.00     0.010 A 
ATOM     64  C   UNL A   1      40.765  32.040  35.949  1.00  0.00     0.010 A 
ATOM     65  C   UNL A   1      41.664  34.613  35.310  1.00  0.00     0.020 A 
ATOM     66  C   UNL A   1      40.535  33.096  36.836  1.00  0.00     0.020 A 
ATOM     67  C   UNL A   1      41.013  34.371  36.523  1.00  0.00     0.054 A 
BRANCH  67  68
ATOM     68  S   UNL A   1      40.797  35.743  37.688  1.00  0.00     0.124 S 
ATOM     69  O   UNL A   1      39.863  36.603  36.966  1.00  0.00    -0.237 OA
ATOM     70  O   UNL A   1      40.252  35.081  38.870  1.00  0.00    -0.237 OA
ATOM     71  O   UNL A   1      42.146  36.279  37.844  1.00  0.00    -0.744 OA
ENDBRANCH  67  68
ENDBRANCH  48  62
BRANCH  49  72
ATOM     72  C   UNL A   1      43.170  24.981  28.123  1.00  0.00    -0.014 A 
ATOM     73  C   UNL A   1      43.915  25.312  26.979  1.00  0.00     0.010 A 
ATOM     74  C   UNL A   1      42.757  23.649  28.312  1.00  0.00     0.010 A 
ATOM     75  C   UNL A   1      44.250  24.327  26.045  1.00  0.00     0.020 A 
ATOM     76  C   UNL A   1      43.109  22.658  27.391  1.00  0.00     0.020 A 
ATOM     77  C   UNL A   1      43.854  23.004  26.262  1.00  0.00     0.054 A 
BRANCH  77  78
ATOM     78  S   UNL A   1      44.392  21.725  25.092  1.00  0.00     0.124 S 
ATOM     79  O   UNL A   1      44.177  22.381  23.805  1.00  0.00    -0.237 OA
ATOM     80  O   UNL A   1      45.787  21.517  25.471  1.00  0.00    -0.237 OA
ATOM     81  O   UNL A   1      43.502  20.603  25.381  1.00  0.00    -0.744 OA
ENDBRANCH  77  78
ENDBRANCH  49  72
BRANCH  61  82
ATOM     82  C   UNL A   1      46.708  27.440  33.637  1.00  0.00    -0.014 A 
ATOM     83  C   UNL A   1      47.903  28.088  33.284  1.00  0.00     0.010 A 
ATOM     84  C   UNL A   1      46.717  26.497  34.682  1.00  0.00     0.010 A 
ATOM     85  C   UNL A   1      49.088  27.798  33.967  1.00  0.00     0.020 A 
ATOM     86  C   UNL A   1      47.895  26.221  35.380  1.00  0.00     0.020 A 
ATOM     87  C   UNL A   1      49.075  26.870  35.014  1.00  0.00     0.054 A 
BRANCH  87  88
ATOM     88  S   UNL A   1      50.605  26.580  35.945  1.00  0.00     0.124 S 
ATOM     89  O   UNL A   1      51.602  27.237  35.105  1.00  0.00    -0.237 OA
ATOM     90  O   UNL A   1      50.332  27.233  37.224  1.00  0.00    -0.237 OA
ATOM     91  O   UNL A   1      50.702  25.123  36.005  1.00  0.00    -0.744 OA
ENDBRANCH  87  88
ENDBRANCH  61  82
ENDBRANCH  35  36
ENDBRANCH  27  30
ENDBRANCH  25  26
ENDBRANCH   1  25
TORSDOF 16
ENDMDL
