MODEL 1
REMARK VINA RESULT:     -12.5      0.000      0.000
REMARK SMILES O=C(NCCCNC(=O)C1CCN(C(=O)c2cc(S(=O)(=O)N3CCOCC3)c(Cl)cc2Cl)CC1)c1ccc(-c2c3nc(c(-c4ccc(S(=O)(=O)[O-])cc4)c4ccc([nH]4)c(-c4ccc(S(=O)(=O)[O-])cc4)c4nc(c(-c5ccc(S(=O)(=O)[O-])cc5)c5ccc2[nH]5)C=C4)C=C3)cc1
REMARK SMILES IDX 5 1 4 2 3 3 1 4 2 5 35 7 36 8 94 9 37 10 93 11 38 12 39 13
REMARK SMILES IDX 40 14 87 15 41 16 92 17 86 18 88 19 42 20 91 21 85 22 84 23
REMARK SMILES IDX 43 25 73 26 54 27 72 28 55 29 58 30 71 31 89 32 56 33 57 34
REMARK SMILES IDX 70 36 90 37 59 38 44 39 45 40 53 41 46 42 52 43 47 44 48 45
REMARK SMILES IDX 49 46 50 47 51 48 74 49 75 50 83 51 76 52 82 53 77 54 78 55
REMARK SMILES IDX 79 56 80 57 81 58 60 59 61 60 69 61 62 62 68 63 63 64 64 65
REMARK SMILES IDX 65 66 66 67 67 68 6 69 7 70 8 71 9 73 10 74 11 75 34 76
REMARK SMILES IDX 12 77 33 78 13 79 14 80 15 81 16 82 17 83 31 84 18 85 30 86
REMARK SMILES IDX 32 87 28 88 29 89 19 90 20 91 21 92 22 93 23 94 27 95 24 96
REMARK SMILES IDX 26 97 25 98
REMARK H PARENT 3 6 88 24 58 35 7 72
REMARK Flexibility Score: inf
ROOT
ATOM      1  C   UNL A   1      41.329  21.647  27.245  1.00  0.00     0.042 C 
ENDROOT
BRANCH   1   2
ATOM      2  C   UNL A   1      42.211  22.871  27.453  1.00  0.00     0.118 C 
BRANCH   2   3
ATOM      3  N   UNL A   1      42.304  23.710  26.267  1.00  0.00    -0.352 N 
ATOM      4  O   UNL A   1      42.042  25.555  25.009  1.00  0.00    -0.269 OA
ATOM      5  C   UNL A   1      42.091  25.060  26.131  1.00  0.00     0.251 C 
ATOM      6  H   UNL A   1      42.556  23.240  25.440  1.00  0.00     0.163 HD
BRANCH   5   7
ATOM      7  C   UNL A   1      41.904  25.908  27.328  1.00  0.00     0.039 A 
ATOM      8  C   UNL A   1      42.876  26.839  27.701  1.00  0.00     0.014 A 
ATOM      9  C   UNL A   1      40.724  25.794  28.069  1.00  0.00     0.014 A 
ATOM     10  C   UNL A   1      42.731  27.560  28.880  1.00  0.00     0.010 A 
ATOM     11  C   UNL A   1      40.537  26.588  29.205  1.00  0.00     0.010 A 
ATOM     12  C   UNL A   1      41.547  27.466  29.627  1.00  0.00    -0.014 A 
BRANCH  12  13
ATOM     13  C   UNL A   1      41.338  28.395  30.766  1.00  0.00     0.031 A 
ATOM     14  C   UNL A   1      42.178  28.316  32.010  1.00  0.00     0.074 A 
ATOM     15  C   UNL A   1      40.371  29.327  30.651  1.00  0.00     0.049 A 
ATOM     16  N   UNL A   1      42.118  29.063  33.082  1.00  0.00    -0.248 NA
ATOM     17  C   UNL A   1      43.209  27.268  32.067  1.00  0.00     0.031 C 
ATOM     18  C   UNL A   1      39.482  29.480  29.494  1.00  0.00     0.029 A 
ATOM     19  N   UNL A   1      39.976  30.325  31.503  1.00  0.00    -0.354 N 
ATOM     20  C   UNL A   1      43.083  28.567  33.949  1.00  0.00     0.074 A 
ATOM     21  C   UNL A   1      43.710  27.445  33.283  1.00  0.00     0.031 C 
ATOM     22  C   UNL A   1      38.674  30.530  29.692  1.00  0.00     0.029 A 
ATOM     23  C   UNL A   1      38.937  31.082  31.014  1.00  0.00     0.049 A 
ATOM     24  H   UNL A   1      40.396  30.485  32.378  1.00  0.00     0.167 HD
ATOM     25  C   UNL A   1      43.410  29.010  35.188  1.00  0.00     0.031 A 
ATOM     26  C   UNL A   1      38.248  32.092  31.576  1.00  0.00     0.031 A 
ATOM     27  C   UNL A   1      42.784  30.135  35.834  1.00  0.00     0.049 A 
ATOM     28  C   UNL A   1      38.618  32.538  32.961  1.00  0.00     0.074 A 
ATOM     29  C   UNL A   1      43.095  30.700  37.061  1.00  0.00     0.029 A 
ATOM     30  N   UNL A   1      41.718  30.857  35.322  1.00  0.00    -0.354 N 
ATOM     31  N   UNL A   1      39.581  32.099  33.733  1.00  0.00    -0.248 NA
ATOM     32  C   UNL A   1      37.806  33.609  33.550  1.00  0.00     0.031 C 
ATOM     33  C   UNL A   1      42.178  31.724  37.315  1.00  0.00     0.029 A 
ATOM     34  C   UNL A   1      41.330  31.833  36.224  1.00  0.00     0.049 A 
ATOM     35  H   UNL A   1      41.299  30.699  34.445  1.00  0.00     0.167 HD
ATOM     36  C   UNL A   1      39.493  32.843  34.903  1.00  0.00     0.074 A 
ATOM     37  C   UNL A   1      38.404  33.782  34.721  1.00  0.00     0.031 C 
ATOM     38  C   UNL A   1      40.238  32.750  36.030  1.00  0.00     0.031 A 
BRANCH  25  39
ATOM     39  C   UNL A   1      44.478  28.273  35.951  1.00  0.00    -0.014 A 
ATOM     40  C   UNL A   1      44.163  27.175  36.770  1.00  0.00     0.010 A 
ATOM     41  C   UNL A   1      45.829  28.614  35.752  1.00  0.00     0.010 A 
ATOM     42  C   UNL A   1      45.181  26.437  37.383  1.00  0.00     0.020 A 
ATOM     43  C   UNL A   1      46.850  27.866  36.347  1.00  0.00     0.020 A 
ATOM     44  C   UNL A   1      46.518  26.784  37.164  1.00  0.00     0.054 A 
BRANCH  44  45
ATOM     45  S   UNL A   1      47.817  25.764  37.916  1.00  0.00     0.124 S 
ATOM     46  O   UNL A   1      47.857  24.616  37.013  1.00  0.00    -0.237 OA
ATOM     47  O   UNL A   1      48.983  26.641  37.867  1.00  0.00    -0.237 OA
ATOM     48  O   UNL A   1      47.306  25.483  39.256  1.00  0.00    -0.744 OA
ENDBRANCH  44  45
ENDBRANCH  25  39
BRANCH  26  49
ATOM     49  C   UNL A   1      37.102  32.704  30.852  1.00  0.00    -0.014 A 
ATOM     50  C   UNL A   1      37.305  33.735  29.920  1.00  0.00     0.010 A 
ATOM     51  C   UNL A   1      35.793  32.251  31.099  1.00  0.00     0.010 A 
ATOM     52  C   UNL A   1      36.216  34.324  29.272  1.00  0.00     0.020 A 
ATOM     53  C   UNL A   1      34.705  32.814  30.430  1.00  0.00     0.020 A 
ATOM     54  C   UNL A   1      34.922  33.861  29.534  1.00  0.00     0.054 A 
BRANCH  54  55
ATOM     55  S   UNL A   1      33.522  34.621  28.668  1.00  0.00     0.124 S 
ATOM     56  O   UNL A   1      33.103  33.547  27.773  1.00  0.00    -0.237 OA
ATOM     57  O   UNL A   1      32.602  34.932  29.759  1.00  0.00    -0.237 OA
ATOM     58  O   UNL A   1      34.118  35.785  28.015  1.00  0.00    -0.744 OA
ENDBRANCH  54  55
ENDBRANCH  26  49
BRANCH  38  59
ATOM     59  C   UNL A   1      39.899  33.692  37.151  1.00  0.00    -0.014 A 
ATOM     60  C   UNL A   1      39.041  33.294  38.192  1.00  0.00     0.010 A 
ATOM     61  C   UNL A   1      40.473  34.976  37.185  1.00  0.00     0.010 A 
ATOM     62  C   UNL A   1      38.738  34.175  39.232  1.00  0.00     0.020 A 
ATOM     63  C   UNL A   1      40.195  35.849  38.239  1.00  0.00     0.020 A 
ATOM     64  C   UNL A   1      39.317  35.447  39.249  1.00  0.00     0.054 A 
BRANCH  64  65
ATOM     65  S   UNL A   1      38.944  36.557  40.633  1.00  0.00     0.124 S 
ATOM     66  O   UNL A   1      40.233  36.637  41.313  1.00  0.00    -0.237 OA
ATOM     67  O   UNL A   1      38.512  37.779  39.958  1.00  0.00    -0.237 OA
ATOM     68  O   UNL A   1      37.894  35.854  41.366  1.00  0.00    -0.744 OA
ENDBRANCH  64  65
ENDBRANCH  38  59
ENDBRANCH  12  13
ENDBRANCH   5   7
ENDBRANCH   2   3
ENDBRANCH   1   2
BRANCH   1  69
ATOM     69  C   UNL A   1      40.273  21.816  26.164  1.00  0.00     0.117 C 
BRANCH  69  70
ATOM     70  N   UNL A   1      39.530  23.055  26.313  1.00  0.00    -0.356 N 
ATOM     71  C   UNL A   1      38.223  23.339  26.070  1.00  0.00     0.223 C 
ATOM     72  H   UNL A   1      40.060  23.815  26.645  1.00  0.00     0.163 HD
ATOM     73  O   UNL A   1      37.881  24.520  26.124  1.00  0.00    -0.275 OA
BRANCH  71  74
ATOM     74  C   UNL A   1      37.240  22.212  25.765  1.00  0.00     0.082 C 
ATOM     75  C   UNL A   1      37.204  21.893  24.257  1.00  0.00     0.035 C 
ATOM     76  C   UNL A   1      35.822  22.553  26.239  1.00  0.00     0.035 C 
ATOM     77  C   UNL A   1      36.518  22.986  23.422  1.00  0.00     0.120 C 
ATOM     78  C   UNL A   1      35.212  23.664  25.402  1.00  0.00     0.120 C 
ATOM     79  N   UNL A   1      35.213  23.329  23.979  1.00  0.00    -0.339 N 
ATOM     80  C   UNL A   1      34.114  23.426  23.125  1.00  0.00     0.255 C 
ATOM     81  O   UNL A   1      34.163  23.459  21.902  1.00  0.00    -0.269 OA
BRANCH  80  82
ATOM     82  C   UNL A   1      32.787  23.356  23.760  1.00  0.00     0.060 A 
ATOM     83  C   UNL A   1      32.065  24.534  23.998  1.00  0.00     0.038 A 
ATOM     84  C   UNL A   1      32.379  22.141  24.314  1.00  0.00     0.055 A 
ATOM     85  C   UNL A   1      31.035  24.521  24.950  1.00  0.00     0.102 A 
ATOM     86  C   UNL A   1      31.324  22.128  25.217  1.00  0.00     0.043 A 
ATOM     87  Cl  UNL A   1      33.198  20.651  24.020  1.00  0.00    -0.083 Cl
ATOM     88  C   UNL A   1      30.703  23.324  25.598  1.00  0.00     0.062 A 
ATOM     89  Cl  UNL A   1      29.680  23.186  26.975  1.00  0.00    -0.083 Cl
BRANCH  85  90
ATOM     90  S   UNL A   1      30.337  26.094  25.404  1.00  0.00     0.244 S 
ATOM     91  O   UNL A   1      29.041  26.138  24.768  1.00  0.00    -0.207 OA
ATOM     92  O   UNL A   1      30.481  26.223  26.839  1.00  0.00    -0.207 OA
BRANCH  90  93
ATOM     93  N   UNL A   1      31.349  27.221  24.707  1.00  0.00    -0.193 NA
ATOM     94  C   UNL A   1      30.799  28.231  23.772  1.00  0.00     0.131 C 
ATOM     95  C   UNL A   1      32.519  27.737  25.446  1.00  0.00     0.131 C 
ATOM     96  C   UNL A   1      31.918  28.645  22.801  1.00  0.00     0.177 C 
ATOM     97  C   UNL A   1      33.585  28.112  24.411  1.00  0.00     0.177 C 
ATOM     98  O   UNL A   1      33.090  29.107  23.497  1.00  0.00    -0.379 OA
ENDBRANCH  90  93
ENDBRANCH  85  90
ENDBRANCH  80  82
ENDBRANCH  71  74
ENDBRANCH  69  70
ENDBRANCH   1  69
TORSDOF 16
ENDMDL
MODEL 2
REMARK VINA RESULT:     -12.5      1.510      2.354
REMARK SMILES O=C(NCCCNC(=O)C1CCN(C(=O)c2cc(S(=O)(=O)N3CCOCC3)c(Cl)cc2Cl)CC1)c1ccc(-c2c3nc(c(-c4ccc(S(=O)(=O)[O-])cc4)c4ccc([nH]4)c(-c4ccc(S(=O)(=O)[O-])cc4)c4nc(c(-c5ccc(S(=O)(=O)[O-])cc5)c5ccc2[nH]5)C=C4)C=C3)cc1
REMARK SMILES IDX 5 1 4 2 3 3 1 4 2 5 35 7 36 8 94 9 37 10 93 11 38 12 39 13
REMARK SMILES IDX 40 14 87 15 41 16 92 17 86 18 88 19 42 20 91 21 85 22 84 23
REMARK SMILES IDX 43 25 73 26 54 27 72 28 55 29 58 30 71 31 89 32 56 33 57 34
REMARK SMILES IDX 70 36 90 37 59 38 44 39 45 40 53 41 46 42 52 43 47 44 48 45
REMARK SMILES IDX 49 46 50 47 51 48 74 49 75 50 83 51 76 52 82 53 77 54 78 55
REMARK SMILES IDX 79 56 80 57 81 58 60 59 61 60 69 61 62 62 68 63 63 64 64 65
REMARK SMILES IDX 65 66 66 67 67 68 6 69 7 70 8 71 9 73 10 74 11 75 34 76
REMARK SMILES IDX 12 77 33 78 13 79 14 80 15 81 16 82 17 83 31 84 18 85 30 86
REMARK SMILES IDX 32 87 28 88 29 89 19 90 20 91 21 92 22 93 23 94 27 95 24 96
REMARK SMILES IDX 26 97 25 98
REMARK H PARENT 3 6 88 24 58 35 7 72
REMARK Flexibility Score: inf
ROOT
ATOM      1  C   UNL A   1      40.383  22.050  26.459  1.00  0.00     0.042 C 
ENDROOT
BRANCH   1   2
ATOM      2  C   UNL A   1      40.566  23.528  26.775  1.00  0.00     0.118 C 
BRANCH   2   3
ATOM      3  N   UNL A   1      41.421  24.211  25.815  1.00  0.00    -0.352 N 
ATOM      4  O   UNL A   1      42.430  25.950  24.808  1.00  0.00    -0.269 OA
ATOM      5  C   UNL A   1      41.861  25.512  25.803  1.00  0.00     0.251 C 
ATOM      6  H   UNL A   1      41.729  23.658  25.061  1.00  0.00     0.163 HD
BRANCH   5   7
ATOM      7  C   UNL A   1      41.635  26.383  26.977  1.00  0.00     0.039 A 
ATOM      8  C   UNL A   1      40.777  25.986  28.005  1.00  0.00     0.014 A 
ATOM      9  C   UNL A   1      42.318  27.600  27.067  1.00  0.00     0.014 A 
ATOM     10  C   UNL A   1      40.500  26.855  29.053  1.00  0.00     0.010 A 
ATOM     11  C   UNL A   1      42.110  28.434  28.170  1.00  0.00     0.010 A 
ATOM     12  C   UNL A   1      41.188  28.074  29.164  1.00  0.00    -0.014 A 
BRANCH  12  13
ATOM     13  C   UNL A   1      41.020  28.884  30.396  1.00  0.00     0.031 A 
ATOM     14  C   UNL A   1      41.905  28.687  31.594  1.00  0.00     0.074 A 
ATOM     15  C   UNL A   1      40.049  29.819  30.409  1.00  0.00     0.049 A 
ATOM     16  N   UNL A   1      41.884  29.325  32.737  1.00  0.00    -0.248 NA
ATOM     17  C   UNL A   1      42.939  27.643  31.510  1.00  0.00     0.031 C 
ATOM     18  C   UNL A   1      39.117  30.081  29.305  1.00  0.00     0.029 A 
ATOM     19  N   UNL A   1      39.684  30.726  31.369  1.00  0.00    -0.354 N 
ATOM     20  C   UNL A   1      42.881  28.750  33.515  1.00  0.00     0.074 A 
ATOM     21  C   UNL A   1      43.485  27.702  32.719  1.00  0.00     0.031 C 
ATOM     22  C   UNL A   1      38.316  31.103  29.636  1.00  0.00     0.029 A 
ATOM     23  C   UNL A   1      38.628  31.523  30.996  1.00  0.00     0.049 A 
ATOM     24  H   UNL A   1      40.136  30.801  32.240  1.00  0.00     0.167 HD
ATOM     25  C   UNL A   1      43.253  29.070  34.778  1.00  0.00     0.031 A 
ATOM     26  C   UNL A   1      37.959  32.470  31.679  1.00  0.00     0.031 A 
ATOM     27  C   UNL A   1      42.650  30.122  35.555  1.00  0.00     0.049 A 
ATOM     28  C   UNL A   1      38.378  32.778  33.087  1.00  0.00     0.074 A 
ATOM     29  C   UNL A   1      43.005  30.565  36.819  1.00  0.00     0.029 A 
ATOM     30  N   UNL A   1      41.565  30.887  35.155  1.00  0.00    -0.354 N 
ATOM     31  N   UNL A   1      39.370  32.270  33.777  1.00  0.00    -0.248 NA
ATOM     32  C   UNL A   1      37.588  33.782  33.808  1.00  0.00     0.031 C 
ATOM     33  C   UNL A   1      42.097  31.555  37.207  1.00  0.00     0.029 A 
ATOM     34  C   UNL A   1      41.210  31.767  36.163  1.00  0.00     0.049 A 
ATOM     35  H   UNL A   1      41.115  30.815  34.283  1.00  0.00     0.167 HD
ATOM     36  C   UNL A   1      39.324  32.894  35.017  1.00  0.00     0.074 A 
ATOM     37  C   UNL A   1      38.228  33.841  34.968  1.00  0.00     0.031 C 
ATOM     38  C   UNL A   1      40.110  32.694  36.101  1.00  0.00     0.031 A 
BRANCH  25  39
ATOM     39  C   UNL A   1      44.349  28.267  35.426  1.00  0.00    -0.014 A 
ATOM     40  C   UNL A   1      45.703  28.576  35.211  1.00  0.00     0.010 A 
ATOM     41  C   UNL A   1      44.014  27.264  36.356  1.00  0.00     0.010 A 
ATOM     42  C   UNL A   1      46.702  27.889  35.908  1.00  0.00     0.020 A 
ATOM     43  C   UNL A   1      45.010  26.590  37.068  1.00  0.00     0.020 A 
ATOM     44  C   UNL A   1      46.349  26.903  36.836  1.00  0.00     0.054 A 
BRANCH  44  45
ATOM     45  S   UNL A   1      47.666  26.081  37.776  1.00  0.00     0.124 S 
ATOM     46  O   UNL A   1      48.296  25.253  36.750  1.00  0.00    -0.237 OA
ATOM     47  O   UNL A   1      48.467  27.203  38.256  1.00  0.00    -0.237 OA
ATOM     48  O   UNL A   1      46.945  25.344  38.811  1.00  0.00    -0.744 OA
ENDBRANCH  44  45
ENDBRANCH  25  39
BRANCH  26  49
ATOM     49  C   UNL A   1      36.786  33.144  31.061  1.00  0.00    -0.014 A 
ATOM     50  C   UNL A   1      35.505  33.027  31.626  1.00  0.00     0.010 A 
ATOM     51  C   UNL A   1      36.952  33.911  29.894  1.00  0.00     0.010 A 
ATOM     52  C   UNL A   1      34.407  33.639  31.016  1.00  0.00     0.020 A 
ATOM     53  C   UNL A   1      35.864  34.551  29.299  1.00  0.00     0.020 A 
ATOM     54  C   UNL A   1      34.593  34.394  29.854  1.00  0.00     0.054 A 
BRANCH  54  55
ATOM     55  S   UNL A   1      33.160  35.199  29.087  1.00  0.00     0.124 S 
ATOM     56  O   UNL A   1      32.276  35.392  30.232  1.00  0.00    -0.237 OA
ATOM     57  O   UNL A   1      33.742  36.415  28.524  1.00  0.00    -0.237 OA
ATOM     58  O   UNL A   1      32.707  34.220  28.102  1.00  0.00    -0.744 OA
ENDBRANCH  54  55
ENDBRANCH  26  49
BRANCH  38  59
ATOM     59  C   UNL A   1      39.812  33.520  37.321  1.00  0.00    -0.014 A 
ATOM     60  C   UNL A   1      40.327  34.821  37.453  1.00  0.00     0.010 A 
ATOM     61  C   UNL A   1      38.977  33.003  38.329  1.00  0.00     0.010 A 
ATOM     62  C   UNL A   1      40.038  35.582  38.588  1.00  0.00     0.020 A 
ATOM     63  C   UNL A   1      38.663  33.772  39.452  1.00  0.00     0.020 A 
ATOM     64  C   UNL A   1      39.208  35.052  39.580  1.00  0.00     0.054 A 
BRANCH  64  65
ATOM     65  S   UNL A   1      38.811  36.076  41.024  1.00  0.00     0.124 S 
ATOM     66  O   UNL A   1      38.523  37.368  40.409  1.00  0.00    -0.237 OA
ATOM     67  O   UNL A   1      37.662  35.384  41.602  1.00  0.00    -0.237 OA
ATOM     68  O   UNL A   1      40.030  36.026  41.828  1.00  0.00    -0.744 OA
ENDBRANCH  64  65
ENDBRANCH  38  59
ENDBRANCH  12  13
ENDBRANCH   5   7
ENDBRANCH   2   3
ENDBRANCH   1   2
BRANCH   1  69
ATOM     69  C   UNL A   1      38.935  21.628  26.271  1.00  0.00     0.117 C 
BRANCH  69  70
ATOM     70  N   UNL A   1      38.383  22.105  25.015  1.00  0.00    -0.356 N 
ATOM     71  C   UNL A   1      37.109  22.440  24.678  1.00  0.00     0.223 C 
ATOM     72  H   UNL A   1      39.039  22.201  24.289  1.00  0.00     0.163 HD
ATOM     73  O   UNL A   1      36.879  22.660  23.490  1.00  0.00    -0.275 OA
BRANCH  71  74
ATOM     74  C   UNL A   1      36.036  22.550  25.758  1.00  0.00     0.082 C 
ATOM     75  C   UNL A   1      34.952  21.468  25.582  1.00  0.00     0.035 C 
ATOM     76  C   UNL A   1      35.370  23.931  25.757  1.00  0.00     0.035 C 
ATOM     77  C   UNL A   1      34.039  21.715  24.369  1.00  0.00     0.120 C 
ATOM     78  C   UNL A   1      34.515  24.131  24.518  1.00  0.00     0.120 C 
ATOM     79  N   UNL A   1      33.512  23.076  24.380  1.00  0.00    -0.339 N 
ATOM     80  C   UNL A   1      32.152  23.279  24.147  1.00  0.00     0.255 C 
ATOM     81  O   UNL A   1      31.369  22.440  23.720  1.00  0.00    -0.269 OA
BRANCH  80  82
ATOM     82  C   UNL A   1      31.604  24.579  24.573  1.00  0.00     0.060 A 
ATOM     83  C   UNL A   1      31.307  25.557  23.614  1.00  0.00     0.038 A 
ATOM     84  C   UNL A   1      31.608  24.886  25.935  1.00  0.00     0.055 A 
ATOM     85  C   UNL A   1      31.196  26.896  24.020  1.00  0.00     0.102 A 
ATOM     86  C   UNL A   1      31.445  26.208  26.331  1.00  0.00     0.043 A 
ATOM     87  Cl  UNL A   1      31.919  23.715  27.163  1.00  0.00    -0.083 Cl
ATOM     88  C   UNL A   1      31.320  27.224  25.376  1.00  0.00     0.062 A 
ATOM     89  Cl  UNL A   1      31.494  28.816  26.005  1.00  0.00    -0.083 Cl
BRANCH  85  90
ATOM     90  S   UNL A   1      31.086  28.121  22.733  1.00  0.00     0.244 S 
ATOM     91  O   UNL A   1      32.188  29.025  22.967  1.00  0.00    -0.207 OA
ATOM     92  O   UNL A   1      30.944  27.408  21.480  1.00  0.00    -0.207 OA
BRANCH  90  93
ATOM     93  N   UNL A   1      29.641  28.903  23.018  1.00  0.00    -0.193 NA
ATOM     94  C   UNL A   1      28.427  28.117  23.341  1.00  0.00     0.131 C 
ATOM     95  C   UNL A   1      29.621  30.233  23.658  1.00  0.00     0.131 C 
ATOM     96  C   UNL A   1      27.198  28.923  22.885  1.00  0.00     0.177 C 
ATOM     97  C   UNL A   1      28.380  30.971  23.142  1.00  0.00     0.177 C 
ATOM     98  O   UNL A   1      27.179  30.244  23.457  1.00  0.00    -0.379 OA
ENDBRANCH  90  93
ENDBRANCH  85  90
ENDBRANCH  80  82
ENDBRANCH  71  74
ENDBRANCH  69  70
ENDBRANCH   1  69
TORSDOF 16
ENDMDL
MODEL 3
REMARK VINA RESULT:     -12.5      5.976     11.675
REMARK SMILES O=C(NCCCNC(=O)C1CCN(C(=O)c2cc(S(=O)(=O)N3CCOCC3)c(Cl)cc2Cl)CC1)c1ccc(-c2c3nc(c(-c4ccc(S(=O)(=O)[O-])cc4)c4ccc([nH]4)c(-c4ccc(S(=O)(=O)[O-])cc4)c4nc(c(-c5ccc(S(=O)(=O)[O-])cc5)c5ccc2[nH]5)C=C4)C=C3)cc1
REMARK SMILES IDX 5 1 4 2 3 3 1 4 2 5 35 7 36 8 94 9 37 10 93 11 38 12 39 13
REMARK SMILES IDX 40 14 87 15 41 16 92 17 86 18 88 19 42 20 91 21 85 22 84 23
REMARK SMILES IDX 43 25 73 26 54 27 72 28 55 29 58 30 71 31 89 32 56 33 57 34
REMARK SMILES IDX 70 36 90 37 59 38 44 39 45 40 53 41 46 42 52 43 47 44 48 45
REMARK SMILES IDX 49 46 50 47 51 48 74 49 75 50 83 51 76 52 82 53 77 54 78 55
REMARK SMILES IDX 79 56 80 57 81 58 60 59 61 60 69 61 62 62 68 63 63 64 64 65
REMARK SMILES IDX 65 66 66 67 67 68 6 69 7 70 8 71 9 73 10 74 11 75 34 76
REMARK SMILES IDX 12 77 33 78 13 79 14 80 15 81 16 82 17 83 31 84 18 85 30 86
REMARK SMILES IDX 32 87 28 88 29 89 19 90 20 91 21 92 22 93 23 94 27 95 24 96
REMARK SMILES IDX 26 97 25 98
REMARK H PARENT 3 6 88 24 58 35 7 72
REMARK Flexibility Score: inf
ROOT
ATOM      1  C   UNL A   1      35.207  33.362  29.082  1.00  0.00     0.042 C 
ENDROOT
BRANCH   1   2
ATOM      2  C   UNL A   1      36.430  32.686  29.687  1.00  0.00     0.118 C 
BRANCH   2   3
ATOM      3  N   UNL A   1      36.088  31.707  30.708  1.00  0.00    -0.352 N 
ATOM      4  O   UNL A   1      36.206  29.769  31.842  1.00  0.00    -0.269 OA
ATOM      5  C   UNL A   1      36.750  30.562  31.080  1.00  0.00     0.251 C 
ATOM      6  H   UNL A   1      35.260  31.893  31.206  1.00  0.00     0.163 HD
BRANCH   5   7
ATOM      7  C   UNL A   1      38.102  30.279  30.550  1.00  0.00     0.039 A 
ATOM      8  C   UNL A   1      39.203  30.211  31.407  1.00  0.00     0.014 A 
ATOM      9  C   UNL A   1      38.264  30.044  29.182  1.00  0.00     0.014 A 
ATOM     10  C   UNL A   1      40.479  30.040  30.884  1.00  0.00     0.010 A 
ATOM     11  C   UNL A   1      39.537  29.778  28.668  1.00  0.00     0.010 A 
ATOM     12  C   UNL A   1      40.656  29.789  29.514  1.00  0.00    -0.014 A 
BRANCH  12  13
ATOM     13  C   UNL A   1      42.004  29.411  29.020  1.00  0.00     0.031 A 
ATOM     14  C   UNL A   1      43.119  30.415  28.926  1.00  0.00     0.074 A 
ATOM     15  C   UNL A   1      42.206  28.127  28.662  1.00  0.00     0.049 A 
ATOM     16  N   UNL A   1      44.349  30.230  28.521  1.00  0.00    -0.248 NA
ATOM     17  C   UNL A   1      42.821  31.799  29.327  1.00  0.00     0.031 C 
ATOM     18  C   UNL A   1      41.187  27.072  28.694  1.00  0.00     0.029 A 
ATOM     19  N   UNL A   1      43.330  27.484  28.212  1.00  0.00    -0.354 N 
ATOM     20  C   UNL A   1      44.967  31.472  28.597  1.00  0.00     0.074 A 
ATOM     21  C   UNL A   1      43.973  32.409  29.077  1.00  0.00     0.031 C 
ATOM     22  C   UNL A   1      41.739  25.911  28.318  1.00  0.00     0.029 A 
ATOM     23  C   UNL A   1      43.130  26.149  27.953  1.00  0.00     0.049 A 
ATOM     24  H   UNL A   1      44.196  27.934  28.088  1.00  0.00     0.167 HD
ATOM     25  C   UNL A   1      46.247  31.795  28.291  1.00  0.00     0.031 A 
ATOM     26  C   UNL A   1      43.961  25.218  27.449  1.00  0.00     0.031 A 
ATOM     27  C   UNL A   1      47.229  30.850  27.824  1.00  0.00     0.049 A 
ATOM     28  C   UNL A   1      45.363  25.618  27.093  1.00  0.00     0.074 A 
ATOM     29  C   UNL A   1      48.570  31.071  27.553  1.00  0.00     0.029 A 
ATOM     30  N   UNL A   1      46.981  29.515  27.547  1.00  0.00    -0.354 N 
ATOM     31  N   UNL A   1      45.945  26.783  27.240  1.00  0.00    -0.248 NA
ATOM     32  C   UNL A   1      46.217  24.581  26.500  1.00  0.00     0.031 C 
ATOM     33  C   UNL A   1      49.117  29.885  27.054  1.00  0.00     0.029 A 
ATOM     34  C   UNL A   1      48.131  28.911  27.067  1.00  0.00     0.049 A 
ATOM     35  H   UNL A   1      46.116  29.063  27.674  1.00  0.00     0.167 HD
ATOM     36  C   UNL A   1      47.238  26.619  26.758  1.00  0.00     0.074 A 
ATOM     37  C   UNL A   1      47.360  25.235  26.348  1.00  0.00     0.031 C 
ATOM     38  C   UNL A   1      48.231  27.535  26.653  1.00  0.00     0.031 A 
BRANCH  25  39
ATOM     39  C   UNL A   1      46.673  33.233  28.423  1.00  0.00    -0.014 A 
ATOM     40  C   UNL A   1      46.580  34.123  27.339  1.00  0.00     0.010 A 
ATOM     41  C   UNL A   1      47.058  33.726  29.684  1.00  0.00     0.010 A 
ATOM     42  C   UNL A   1      46.876  35.479  27.513  1.00  0.00     0.020 A 
ATOM     43  C   UNL A   1      47.335  35.085  29.865  1.00  0.00     0.020 A 
ATOM     44  C   UNL A   1      47.247  35.952  28.776  1.00  0.00     0.054 A 
BRANCH  44  45
ATOM     45  S   UNL A   1      47.555  37.728  28.985  1.00  0.00     0.124 S 
ATOM     46  O   UNL A   1      48.770  37.730  29.795  1.00  0.00    -0.237 OA
ATOM     47  O   UNL A   1      47.718  38.190  27.609  1.00  0.00    -0.237 OA
ATOM     48  O   UNL A   1      46.355  38.212  29.664  1.00  0.00    -0.744 OA
ENDBRANCH  44  45
ENDBRANCH  25  39
BRANCH  26  49
ATOM     49  C   UNL A   1      43.466  23.839  27.194  1.00  0.00    -0.014 A 
ATOM     50  C   UNL A   1      43.187  23.402  25.888  1.00  0.00     0.010 A 
ATOM     51  C   UNL A   1      43.271  22.954  28.269  1.00  0.00     0.010 A 
ATOM     52  C   UNL A   1      42.691  22.114  25.667  1.00  0.00     0.020 A 
ATOM     53  C   UNL A   1      42.806  21.656  28.050  1.00  0.00     0.020 A 
ATOM     54  C   UNL A   1      42.501  21.251  26.750  1.00  0.00     0.054 A 
BRANCH  54  55
ATOM     55  S   UNL A   1      41.877  19.576  26.442  1.00  0.00     0.124 S 
ATOM     56  O   UNL A   1      40.434  19.791  26.424  1.00  0.00    -0.237 OA
ATOM     57  O   UNL A   1      42.484  19.241  25.157  1.00  0.00    -0.237 OA
ATOM     58  O   UNL A   1      42.383  18.811  27.580  1.00  0.00    -0.744 OA
ENDBRANCH  54  55
ENDBRANCH  26  49
BRANCH  38  59
ATOM     59  C   UNL A   1      49.535  27.063  26.075  1.00  0.00    -0.014 A 
ATOM     60  C   UNL A   1      50.534  26.519  26.902  1.00  0.00     0.010 A 
ATOM     61  C   UNL A   1      49.751  27.131  24.687  1.00  0.00     0.010 A 
ATOM     62  C   UNL A   1      51.740  26.077  26.354  1.00  0.00     0.020 A 
ATOM     63  C   UNL A   1      50.945  26.664  24.132  1.00  0.00     0.020 A 
ATOM     64  C   UNL A   1      51.938  26.153  24.972  1.00  0.00     0.054 A 
BRANCH  64  65
ATOM     65  S   UNL A   1      53.495  25.533  24.278  1.00  0.00     0.124 S 
ATOM     66  O   UNL A   1      54.483  26.346  24.980  1.00  0.00    -0.237 OA
ATOM     67  O   UNL A   1      53.468  24.119  24.644  1.00  0.00    -0.237 OA
ATOM     68  O   UNL A   1      53.367  25.803  22.848  1.00  0.00    -0.744 OA
ENDBRANCH  64  65
ENDBRANCH  38  59
ENDBRANCH  12  13
ENDBRANCH   5   7
ENDBRANCH   2   3
ENDBRANCH   1   2
BRANCH   1  69
ATOM     69  C   UNL A   1      34.496  32.533  28.024  1.00  0.00     0.117 C 
BRANCH  69  70
ATOM     70  N   UNL A   1      34.987  31.167  27.977  1.00  0.00    -0.356 N 
ATOM     71  C   UNL A   1      34.471  30.060  27.378  1.00  0.00     0.223 C 
ATOM     72  H   UNL A   1      35.833  31.018  28.456  1.00  0.00     0.163 HD
ATOM     73  O   UNL A   1      35.005  28.981  27.631  1.00  0.00    -0.275 OA
BRANCH  71  74
ATOM     74  C   UNL A   1      33.289  30.190  26.422  1.00  0.00     0.082 C 
ATOM     75  C   UNL A   1      31.961  29.842  27.123  1.00  0.00     0.035 C 
ATOM     76  C   UNL A   1      33.455  29.291  25.191  1.00  0.00     0.035 C 
ATOM     77  C   UNL A   1      31.809  28.342  27.425  1.00  0.00     0.120 C 
ATOM     78  C   UNL A   1      33.335  27.823  25.558  1.00  0.00     0.120 C 
ATOM     79  N   UNL A   1      32.070  27.539  26.235  1.00  0.00    -0.339 N 
ATOM     80  C   UNL A   1      31.187  26.512  25.901  1.00  0.00     0.255 C 
ATOM     81  O   UNL A   1      30.308  26.064  26.626  1.00  0.00    -0.269 OA
BRANCH  80  82
ATOM     82  C   UNL A   1      31.250  26.023  24.513  1.00  0.00     0.060 A 
ATOM     83  C   UNL A   1      31.959  24.850  24.219  1.00  0.00     0.038 A 
ATOM     84  C   UNL A   1      30.795  26.861  23.492  1.00  0.00     0.055 A 
ATOM     85  C   UNL A   1      32.372  24.616  22.898  1.00  0.00     0.102 A 
ATOM     86  C   UNL A   1      31.166  26.594  22.180  1.00  0.00     0.043 A 
ATOM     87  Cl  UNL A   1      29.879  28.293  23.789  1.00  0.00    -0.083 Cl
ATOM     88  C   UNL A   1      32.018  25.521  21.890  1.00  0.00     0.062 A 
ATOM     89  Cl  UNL A   1      32.669  25.543  20.297  1.00  0.00    -0.083 Cl
BRANCH  85  90
ATOM     90  S   UNL A   1      33.490  23.258  22.632  1.00  0.00     0.244 S 
ATOM     91  O   UNL A   1      32.960  22.539  21.497  1.00  0.00    -0.207 OA
ATOM     92  O   UNL A   1      34.831  23.808  22.621  1.00  0.00    -0.207 OA
BRANCH  90  93
ATOM     93  N   UNL A   1      33.356  22.325  24.008  1.00  0.00    -0.193 NA
ATOM     94  C   UNL A   1      32.473  21.134  24.010  1.00  0.00     0.131 C 
ATOM     95  C   UNL A   1      34.508  22.156  24.915  1.00  0.00     0.131 C 
ATOM     96  C   UNL A   1      31.999  20.892  25.454  1.00  0.00     0.177 C 
ATOM     97  C   UNL A   1      33.951  21.933  26.326  1.00  0.00     0.177 C 
ATOM     98  O   UNL A   1      33.103  20.772  26.369  1.00  0.00    -0.379 OA
ENDBRANCH  90  93
ENDBRANCH  85  90
ENDBRANCH  80  82
ENDBRANCH  71  74
ENDBRANCH  69  70
ENDBRANCH   1  69
TORSDOF 16
ENDMDL
