MODEL 1
REMARK VINA RESULT:     -11.7      0.000      0.000
REMARK SMILES O=C(NCCCNC(=O)c1cccc(Nc2ccc([N+](=O)[O-])cc2)c1)c1ccc(-c2c3nc(c(-c4ccc(S(=O)(=O)[O-])cc4)c4ccc([nH]4)c(-c4ccc(S(=O)(=O)[O-])cc4)c4nc(c(-c5ccc(S(=O)(=O)[O-])cc5)c5ccc2[nH]5)C=C4)C=C3)cc1
REMARK SMILES IDX 5 1 4 2 3 3 1 4 2 5 26 7 27 8 85 9 28 10 84 11 29 12 30 13
REMARK SMILES IDX 31 14 78 15 32 16 83 17 77 18 79 19 33 20 82 21 76 22 75 23
REMARK SMILES IDX 34 25 64 26 45 27 63 28 46 29 49 30 62 31 80 32 47 33 48 34
REMARK SMILES IDX 61 36 81 37 50 38 35 39 36 40 44 41 37 42 43 43 38 44 39 45
REMARK SMILES IDX 40 46 41 47 42 48 65 49 66 50 74 51 67 52 73 53 68 54 69 55
REMARK SMILES IDX 70 56 71 57 72 58 51 59 52 60 60 61 53 62 59 63 54 64 55 65
REMARK SMILES IDX 56 66 57 67 58 68 6 69 7 70 8 71 9 73 10 74 11 75 25 76
REMARK SMILES IDX 12 77 14 78 13 79 15 80 16 82 17 83 24 84 18 85 23 86 19 87
REMARK SMILES IDX 20 88 21 89 22 90
REMARK H PARENT 3 6 79 24 49 35 7 72 15 81
REMARK Flexibility Score: inf
ROOT
ATOM      1  C   UNL A   1      33.547  27.357  26.227  1.00  0.00     0.042 C 
ENDROOT
BRANCH   1   2
ATOM      2  C   UNL A   1      34.110  28.610  25.569  1.00  0.00     0.118 C 
BRANCH   2   3
ATOM      3  N   UNL A   1      33.772  29.827  26.294  1.00  0.00    -0.352 N 
ATOM      4  O   UNL A   1      33.822  31.351  27.943  1.00  0.00    -0.269 OA
ATOM      5  C   UNL A   1      34.392  30.428  27.361  1.00  0.00     0.251 C 
ATOM      6  H   UNL A   1      32.971  30.295  25.967  1.00  0.00     0.163 HD
BRANCH   5   7
ATOM      7  C   UNL A   1      35.718  29.967  27.828  1.00  0.00     0.039 A 
ATOM      8  C   UNL A   1      35.891  29.427  29.105  1.00  0.00     0.014 A 
ATOM      9  C   UNL A   1      36.804  30.038  26.950  1.00  0.00     0.014 A 
ATOM     10  C   UNL A   1      37.166  29.088  29.552  1.00  0.00     0.010 A 
ATOM     11  C   UNL A   1      38.069  29.624  27.373  1.00  0.00     0.010 A 
ATOM     12  C   UNL A   1      38.266  29.176  28.688  1.00  0.00    -0.014 A 
BRANCH  12  13
ATOM     13  C   UNL A   1      39.615  28.758  29.147  1.00  0.00     0.031 A 
ATOM     14  C   UNL A   1      40.491  29.707  29.916  1.00  0.00     0.074 A 
ATOM     15  C   UNL A   1      40.060  27.523  28.844  1.00  0.00     0.049 A 
ATOM     16  N   UNL A   1      41.723  29.540  30.327  1.00  0.00    -0.248 NA
ATOM     17  C   UNL A   1      39.914  31.015  30.258  1.00  0.00     0.031 C 
ATOM     18  C   UNL A   1      39.300  26.510  28.107  1.00  0.00     0.029 A 
ATOM     19  N   UNL A   1      41.259  26.913  29.110  1.00  0.00    -0.354 N 
ATOM     20  C   UNL A   1      42.079  30.730  30.950  1.00  0.00     0.074 A 
ATOM     21  C   UNL A   1      40.939  31.616  30.848  1.00  0.00     0.031 C 
ATOM     22  C   UNL A   1      40.046  25.401  27.992  1.00  0.00     0.029 A 
ATOM     23  C   UNL A   1      41.354  25.645  28.591  1.00  0.00     0.049 A 
ATOM     24  H   UNL A   1      41.981  27.342  29.624  1.00  0.00     0.167 HD
ATOM     25  C   UNL A   1      43.250  31.054  31.552  1.00  0.00     0.031 A 
ATOM     26  C   UNL A   1      42.386  24.779  28.567  1.00  0.00     0.031 A 
ATOM     27  C   UNL A   1      44.382  30.170  31.644  1.00  0.00     0.049 A 
ATOM     28  C   UNL A   1      43.684  25.168  29.210  1.00  0.00     0.074 A 
ATOM     29  C   UNL A   1      45.602  30.396  32.257  1.00  0.00     0.029 A 
ATOM     30  N   UNL A   1      44.436  28.894  31.104  1.00  0.00    -0.354 N 
ATOM     31  N   UNL A   1      43.994  26.289  29.817  1.00  0.00    -0.248 NA
ATOM     32  C   UNL A   1      44.769  24.180  29.170  1.00  0.00     0.031 C 
ATOM     33  C   UNL A   1      46.411  29.274  32.046  1.00  0.00     0.029 A 
ATOM     34  C   UNL A   1      45.676  28.327  31.349  1.00  0.00     0.049 A 
ATOM     35  H   UNL A   1      43.701  28.455  30.617  1.00  0.00     0.167 HD
ATOM     36  C   UNL A   1      45.304  26.131  30.254  1.00  0.00     0.074 A 
ATOM     37  C   UNL A   1      45.726  24.807  29.843  1.00  0.00     0.031 C 
ATOM     38  C   UNL A   1      46.081  27.006  30.939  1.00  0.00     0.031 A 
BRANCH  25  39
ATOM     39  C   UNL A   1      43.375  32.446  32.114  1.00  0.00    -0.014 A 
ATOM     40  C   UNL A   1      42.983  32.741  33.433  1.00  0.00     0.010 A 
ATOM     41  C   UNL A   1      43.895  33.476  31.309  1.00  0.00     0.010 A 
ATOM     42  C   UNL A   1      43.051  34.051  33.915  1.00  0.00     0.020 A 
ATOM     43  C   UNL A   1      43.989  34.783  31.796  1.00  0.00     0.020 A 
ATOM     44  C   UNL A   1      43.541  35.067  33.087  1.00  0.00     0.054 A 
BRANCH  44  45
ATOM     45  S   UNL A   1      43.591  36.765  33.724  1.00  0.00     0.124 S 
ATOM     46  O   UNL A   1      42.327  36.848  34.451  1.00  0.00    -0.237 OA
ATOM     47  O   UNL A   1      44.793  36.765  34.553  1.00  0.00    -0.237 OA
ATOM     48  O   UNL A   1      43.672  37.585  32.517  1.00  0.00    -0.744 OA
ENDBRANCH  44  45
ENDBRANCH  25  39
BRANCH  26  49
ATOM     49  C   UNL A   1      42.210  23.467  27.891  1.00  0.00    -0.014 A 
ATOM     50  C   UNL A   1      42.506  23.321  26.527  1.00  0.00     0.010 A 
ATOM     51  C   UNL A   1      41.831  22.334  28.637  1.00  0.00     0.010 A 
ATOM     52  C   UNL A   1      42.437  22.063  25.922  1.00  0.00     0.020 A 
ATOM     53  C   UNL A   1      41.785  21.072  28.042  1.00  0.00     0.020 A 
ATOM     54  C   UNL A   1      42.087  20.945  26.685  1.00  0.00     0.054 A 
BRANCH  54  55
ATOM     55  S   UNL A   1      42.108  19.308  25.902  1.00  0.00     0.124 S 
ATOM     56  O   UNL A   1      42.958  19.538  24.740  1.00  0.00    -0.237 OA
ATOM     57  O   UNL A   1      42.680  18.465  26.949  1.00  0.00    -0.237 OA
ATOM     58  O   UNL A   1      40.700  19.052  25.609  1.00  0.00    -0.744 OA
ENDBRANCH  54  55
ENDBRANCH  26  49
BRANCH  38  59
ATOM     59  C   UNL A   1      47.460  26.552  31.330  1.00  0.00    -0.014 A 
ATOM     60  C   UNL A   1      47.721  26.032  32.610  1.00  0.00     0.010 A 
ATOM     61  C   UNL A   1      48.487  26.563  30.368  1.00  0.00     0.010 A 
ATOM     62  C   UNL A   1      48.992  25.539  32.924  1.00  0.00     0.020 A 
ATOM     63  C   UNL A   1      49.751  26.052  30.672  1.00  0.00     0.020 A 
ATOM     64  C   UNL A   1      49.997  25.548  31.950  1.00  0.00     0.054 A 
BRANCH  64  65
ATOM     65  S   UNL A   1      51.613  24.828  32.355  1.00  0.00     0.124 S 
ATOM     66  O   UNL A   1      51.397  23.413  32.065  1.00  0.00    -0.237 OA
ATOM     67  O   UNL A   1      52.513  25.527  31.441  1.00  0.00    -0.237 OA
ATOM     68  O   UNL A   1      51.793  25.156  33.767  1.00  0.00    -0.744 OA
ENDBRANCH  64  65
ENDBRANCH  38  59
ENDBRANCH  12  13
ENDBRANCH   5   7
ENDBRANCH   2   3
ENDBRANCH   1   2
BRANCH   1  69
ATOM     69  C   UNL A   1      32.515  26.614  25.389  1.00  0.00     0.118 C 
BRANCH  69  70
ATOM     70  N   UNL A   1      32.831  26.635  23.967  1.00  0.00    -0.352 N 
ATOM     71  C   UNL A   1      33.522  25.733  23.204  1.00  0.00     0.251 C 
ATOM     72  H   UNL A   1      32.495  27.421  23.479  1.00  0.00     0.163 HD
ATOM     73  O   UNL A   1      33.850  26.029  22.053  1.00  0.00    -0.269 OA
BRANCH  71  74
ATOM     74  C   UNL A   1      33.876  24.404  23.737  1.00  0.00     0.041 A 
ATOM     75  C   UNL A   1      35.044  24.272  24.490  1.00  0.00     0.014 A 
ATOM     76  C   UNL A   1      33.101  23.278  23.433  1.00  0.00     0.039 A 
ATOM     77  C   UNL A   1      35.403  23.020  24.980  1.00  0.00     0.003 A 
ATOM     78  C   UNL A   1      33.442  22.016  23.930  1.00  0.00     0.039 A 
ATOM     79  C   UNL A   1      34.601  21.907  24.710  1.00  0.00     0.026 A 
BRANCH  78  80
ATOM     80  N   UNL A   1      32.600  20.928  23.640  1.00  0.00    -0.356 N 
ATOM     81  H   UNL A   1      31.834  21.146  23.061  1.00  0.00     0.167 HD
BRANCH  80  82
ATOM     82  C   UNL A   1      32.665  19.582  24.034  1.00  0.00     0.039 A 
ATOM     83  C   UNL A   1      32.963  18.615  23.065  1.00  0.00     0.033 A 
ATOM     84  C   UNL A   1      32.542  19.182  25.371  1.00  0.00     0.033 A 
ATOM     85  C   UNL A   1      33.171  17.280  23.422  1.00  0.00     0.088 A 
ATOM     86  C   UNL A   1      32.738  17.849  25.744  1.00  0.00     0.088 A 
ATOM     87  C   UNL A   1      33.072  16.904  24.767  1.00  0.00     0.269 A 
BRANCH  87  88
ATOM     88  N   UNL A   1      33.350  15.517  25.154  1.00  0.00     0.062 N 
ATOM     89  O   UNL A   1      34.536  15.159  25.202  1.00  0.00    -0.258 OA
ATOM     90  O   UNL A   1      32.386  14.788  25.427  1.00  0.00    -0.258 OA
ENDBRANCH  87  88
ENDBRANCH  80  82
ENDBRANCH  78  80
ENDBRANCH  71  74
ENDBRANCH  69  70
ENDBRANCH   1  69
TORSDOF 16
ENDMDL
MODEL 2
REMARK VINA RESULT:     -11.6      3.843      8.076
REMARK SMILES O=C(NCCCNC(=O)c1cccc(Nc2ccc([N+](=O)[O-])cc2)c1)c1ccc(-c2c3nc(c(-c4ccc(S(=O)(=O)[O-])cc4)c4ccc([nH]4)c(-c4ccc(S(=O)(=O)[O-])cc4)c4nc(c(-c5ccc(S(=O)(=O)[O-])cc5)c5ccc2[nH]5)C=C4)C=C3)cc1
REMARK SMILES IDX 5 1 4 2 3 3 1 4 2 5 26 7 27 8 85 9 28 10 84 11 29 12 30 13
REMARK SMILES IDX 31 14 78 15 32 16 83 17 77 18 79 19 33 20 82 21 76 22 75 23
REMARK SMILES IDX 34 25 64 26 45 27 63 28 46 29 49 30 62 31 80 32 47 33 48 34
REMARK SMILES IDX 61 36 81 37 50 38 35 39 36 40 44 41 37 42 43 43 38 44 39 45
REMARK SMILES IDX 40 46 41 47 42 48 65 49 66 50 74 51 67 52 73 53 68 54 69 55
REMARK SMILES IDX 70 56 71 57 72 58 51 59 52 60 60 61 53 62 59 63 54 64 55 65
REMARK SMILES IDX 56 66 57 67 58 68 6 69 7 70 8 71 9 73 10 74 11 75 25 76
REMARK SMILES IDX 12 77 14 78 13 79 15 80 16 82 17 83 24 84 18 85 23 86 19 87
REMARK SMILES IDX 20 88 21 89 22 90
REMARK H PARENT 3 6 79 24 49 35 7 72 15 81
REMARK Flexibility Score: inf
ROOT
ATOM      1  C   UNL A   1      38.205  19.737  25.090  1.00  0.00     0.042 C 
ENDROOT
BRANCH   1   2
ATOM      2  C   UNL A   1      39.356  20.189  25.982  1.00  0.00     0.118 C 
BRANCH   2   3
ATOM      3  N   UNL A   1      40.427  19.207  26.060  1.00  0.00    -0.352 N 
ATOM      4  O   UNL A   1      42.525  18.405  26.029  1.00  0.00    -0.269 OA
ATOM      5  C   UNL A   1      41.783  19.377  26.177  1.00  0.00     0.251 C 
ATOM      6  H   UNL A   1      40.131  18.269  26.025  1.00  0.00     0.163 HD
BRANCH   5   7
ATOM      7  C   UNL A   1      42.361  20.710  26.455  1.00  0.00     0.039 A 
ATOM      8  C   UNL A   1      42.577  21.151  27.763  1.00  0.00     0.014 A 
ATOM      9  C   UNL A   1      42.735  21.520  25.378  1.00  0.00     0.014 A 
ATOM     10  C   UNL A   1      43.033  22.447  27.996  1.00  0.00     0.010 A 
ATOM     11  C   UNL A   1      43.268  22.790  25.613  1.00  0.00     0.010 A 
ATOM     12  C   UNL A   1      43.391  23.276  26.923  1.00  0.00    -0.014 A 
BRANCH  12  13
ATOM     13  C   UNL A   1      43.934  24.634  27.175  1.00  0.00     0.031 A 
ATOM     14  C   UNL A   1      43.030  25.753  27.609  1.00  0.00     0.074 A 
ATOM     15  C   UNL A   1      45.248  24.863  26.984  1.00  0.00     0.049 A 
ATOM     16  N   UNL A   1      43.316  27.017  27.798  1.00  0.00    -0.248 NA
ATOM     17  C   UNL A   1      41.621  25.412  27.852  1.00  0.00     0.031 C 
ATOM     18  C   UNL A   1      46.228  23.857  26.569  1.00  0.00     0.029 A 
ATOM     19  N   UNL A   1      45.984  26.014  27.107  1.00  0.00    -0.354 N 
ATOM     20  C   UNL A   1      42.119  27.628  28.154  1.00  0.00     0.074 A 
ATOM     21  C   UNL A   1      41.101  26.600  28.137  1.00  0.00     0.031 C 
ATOM     22  C   UNL A   1      47.437  24.431  26.484  1.00  0.00     0.029 A 
ATOM     23  C   UNL A   1      47.308  25.855  26.778  1.00  0.00     0.049 A 
ATOM     24  H   UNL A   1      45.600  26.871  27.401  1.00  0.00     0.167 HD
ATOM     25  C   UNL A   1      41.891  28.927  28.464  1.00  0.00     0.031 A 
ATOM     26  C   UNL A   1      48.307  26.754  26.690  1.00  0.00     0.031 A 
ATOM     27  C   UNL A   1      42.908  29.946  28.473  1.00  0.00     0.049 A 
ATOM     28  C   UNL A   1      48.028  28.193  27.007  1.00  0.00     0.074 A 
ATOM     29  C   UNL A   1      42.782  31.285  28.800  1.00  0.00     0.029 A 
ATOM     30  N   UNL A   1      44.237  29.741  28.132  1.00  0.00    -0.354 N 
ATOM     31  N   UNL A   1      46.894  28.748  27.366  1.00  0.00    -0.248 NA
ATOM     32  C   UNL A   1      49.157  29.127  26.911  1.00  0.00     0.031 C 
ATOM     33  C   UNL A   1      44.025  31.899  28.611  1.00  0.00     0.029 A 
ATOM     34  C   UNL A   1      44.938  30.933  28.220  1.00  0.00     0.049 A 
ATOM     35  H   UNL A   1      44.625  28.876  27.867  1.00  0.00     0.167 HD
ATOM     36  C   UNL A   1      47.180  30.094  27.563  1.00  0.00     0.074 A 
ATOM     37  C   UNL A   1      48.592  30.268  27.286  1.00  0.00     0.031 C 
ATOM     38  C   UNL A   1      46.344  31.090  27.946  1.00  0.00     0.031 A 
BRANCH  25  39
ATOM     39  C   UNL A   1      40.472  29.324  28.773  1.00  0.00    -0.014 A 
ATOM     40  C   UNL A   1      40.048  29.557  30.095  1.00  0.00     0.010 A 
ATOM     41  C   UNL A   1      39.546  29.467  27.724  1.00  0.00     0.010 A 
ATOM     42  C   UNL A   1      38.711  29.865  30.366  1.00  0.00     0.020 A 
ATOM     43  C   UNL A   1      38.214  29.800  27.988  1.00  0.00     0.020 A 
ATOM     44  C   UNL A   1      37.800  29.971  29.310  1.00  0.00     0.054 A 
BRANCH  44  45
ATOM     45  S   UNL A   1      36.065  30.341  29.688  1.00  0.00     0.124 S 
ATOM     46  O   UNL A   1      35.899  29.698  30.988  1.00  0.00    -0.237 OA
ATOM     47  O   UNL A   1      36.040  31.801  29.703  1.00  0.00    -0.237 OA
ATOM     48  O   UNL A   1      35.331  29.721  28.587  1.00  0.00    -0.744 OA
ENDBRANCH  44  45
ENDBRANCH  25  39
BRANCH  26  49
ATOM     49  C   UNL A   1      49.656  26.293  26.268  1.00  0.00    -0.014 A 
ATOM     50  C   UNL A   1      50.072  26.431  24.934  1.00  0.00     0.010 A 
ATOM     51  C   UNL A   1      50.563  25.798  27.224  1.00  0.00     0.010 A 
ATOM     52  C   UNL A   1      51.376  26.090  24.565  1.00  0.00     0.020 A 
ATOM     53  C   UNL A   1      51.875  25.481  26.863  1.00  0.00     0.020 A 
ATOM     54  C   UNL A   1      52.272  25.627  25.534  1.00  0.00     0.054 A 
BRANCH  54  55
ATOM     55  S   UNL A   1      53.990  25.294  25.051  1.00  0.00     0.124 S 
ATOM     56  O   UNL A   1      54.075  25.960  23.756  1.00  0.00    -0.237 OA
ATOM     57  O   UNL A   1      54.748  25.915  26.134  1.00  0.00    -0.237 OA
ATOM     58  O   UNL A   1      54.056  23.835  25.012  1.00  0.00    -0.744 OA
ENDBRANCH  54  55
ENDBRANCH  26  49
BRANCH  38  59
ATOM     59  C   UNL A   1      46.936  32.461  28.131  1.00  0.00    -0.014 A 
ATOM     60  C   UNL A   1      46.956  33.395  27.081  1.00  0.00     0.010 A 
ATOM     61  C   UNL A   1      47.394  32.846  29.405  1.00  0.00     0.010 A 
ATOM     62  C   UNL A   1      47.435  34.690  27.300  1.00  0.00     0.020 A 
ATOM     63  C   UNL A   1      47.853  34.145  29.632  1.00  0.00     0.020 A 
ATOM     64  C   UNL A   1      47.875  35.058  28.576  1.00  0.00     0.054 A 
BRANCH  64  65
ATOM     65  S   UNL A   1      48.416  36.768  28.856  1.00  0.00     0.124 S 
ATOM     66  O   UNL A   1      49.753  36.764  28.269  1.00  0.00    -0.237 OA
ATOM     67  O   UNL A   1      47.413  37.544  28.131  1.00  0.00    -0.237 OA
ATOM     68  O   UNL A   1      48.372  36.910  30.310  1.00  0.00    -0.744 OA
ENDBRANCH  64  65
ENDBRANCH  38  59
ENDBRANCH  12  13
ENDBRANCH   5   7
ENDBRANCH   2   3
ENDBRANCH   1   2
BRANCH   1  69
ATOM     69  C   UNL A   1      37.399  20.873  24.476  1.00  0.00     0.118 C 
BRANCH  69  70
ATOM     70  N   UNL A   1      37.100  21.928  25.436  1.00  0.00    -0.352 N 
ATOM     71  C   UNL A   1      36.099  22.861  25.437  1.00  0.00     0.251 C 
ATOM     72  H   UNL A   1      37.715  21.977  26.203  1.00  0.00     0.163 HD
ATOM     73  O   UNL A   1      36.133  23.795  26.241  1.00  0.00    -0.269 OA
BRANCH  71  74
ATOM     74  C   UNL A   1      34.972  22.763  24.491  1.00  0.00     0.041 A 
ATOM     75  C   UNL A   1      34.717  23.838  23.637  1.00  0.00     0.014 A 
ATOM     76  C   UNL A   1      34.124  21.649  24.497  1.00  0.00     0.039 A 
ATOM     77  C   UNL A   1      33.642  23.769  22.755  1.00  0.00     0.003 A 
ATOM     78  C   UNL A   1      33.048  21.560  23.607  1.00  0.00     0.039 A 
ATOM     79  C   UNL A   1      32.825  22.634  22.735  1.00  0.00     0.026 A 
BRANCH  78  80
ATOM     80  N   UNL A   1      32.259  20.396  23.618  1.00  0.00    -0.356 N 
ATOM     81  H   UNL A   1      31.342  20.520  23.281  1.00  0.00     0.167 HD
BRANCH  80  82
ATOM     82  C   UNL A   1      32.556  19.086  24.025  1.00  0.00     0.039 A 
ATOM     83  C   UNL A   1      33.018  18.175  23.067  1.00  0.00     0.033 A 
ATOM     84  C   UNL A   1      32.503  18.684  25.367  1.00  0.00     0.033 A 
ATOM     85  C   UNL A   1      33.454  16.900  23.437  1.00  0.00     0.088 A 
ATOM     86  C   UNL A   1      32.927  17.409  25.753  1.00  0.00     0.088 A 
ATOM     87  C   UNL A   1      33.420  16.527  24.786  1.00  0.00     0.269 A 
BRANCH  87  88
ATOM     88  N   UNL A   1      33.934  15.212  25.187  1.00  0.00     0.062 N 
ATOM     89  O   UNL A   1      33.110  14.308  25.383  1.00  0.00    -0.258 OA
ATOM     90  O   UNL A   1      35.161  15.078  25.290  1.00  0.00    -0.258 OA
ENDBRANCH  87  88
ENDBRANCH  80  82
ENDBRANCH  78  80
ENDBRANCH  71  74
ENDBRANCH  69  70
ENDBRANCH   1  69
TORSDOF 16
ENDMDL
MODEL 3
REMARK VINA RESULT:     -11.3      3.421      4.490
REMARK SMILES O=C(NCCCNC(=O)c1cccc(Nc2ccc([N+](=O)[O-])cc2)c1)c1ccc(-c2c3nc(c(-c4ccc(S(=O)(=O)[O-])cc4)c4ccc([nH]4)c(-c4ccc(S(=O)(=O)[O-])cc4)c4nc(c(-c5ccc(S(=O)(=O)[O-])cc5)c5ccc2[nH]5)C=C4)C=C3)cc1
REMARK SMILES IDX 5 1 4 2 3 3 1 4 2 5 26 7 27 8 85 9 28 10 84 11 29 12 30 13
REMARK SMILES IDX 31 14 78 15 32 16 83 17 77 18 79 19 33 20 82 21 76 22 75 23
REMARK SMILES IDX 34 25 64 26 45 27 63 28 46 29 49 30 62 31 80 32 47 33 48 34
REMARK SMILES IDX 61 36 81 37 50 38 35 39 36 40 44 41 37 42 43 43 38 44 39 45
REMARK SMILES IDX 40 46 41 47 42 48 65 49 66 50 74 51 67 52 73 53 68 54 69 55
REMARK SMILES IDX 70 56 71 57 72 58 51 59 52 60 60 61 53 62 59 63 54 64 55 65
REMARK SMILES IDX 56 66 57 67 58 68 6 69 7 70 8 71 9 73 10 74 11 75 25 76
REMARK SMILES IDX 12 77 14 78 13 79 15 80 16 82 17 83 24 84 18 85 23 86 19 87
REMARK SMILES IDX 20 88 21 89 22 90
REMARK H PARENT 3 6 79 24 49 35 7 72 15 81
REMARK Flexibility Score: inf
ROOT
ATOM      1  C   UNL A   1      33.817  28.661  27.097  1.00  0.00     0.042 C 
ENDROOT
BRANCH   1   2
ATOM      2  C   UNL A   1      35.169  29.270  27.448  1.00  0.00     0.118 C 
BRANCH   2   3
ATOM      3  N   UNL A   1      35.137  30.031  28.690  1.00  0.00    -0.352 N 
ATOM      4  O   UNL A   1      35.830  30.787  30.688  1.00  0.00    -0.269 OA
ATOM      5  C   UNL A   1      36.128  30.281  29.605  1.00  0.00     0.251 C 
ATOM      6  H   UNL A   1      34.265  30.432  28.907  1.00  0.00     0.163 HD
BRANCH   5   7
ATOM      7  C   UNL A   1      37.535  29.929  29.317  1.00  0.00     0.039 A 
ATOM      8  C   UNL A   1      38.053  30.006  28.021  1.00  0.00     0.014 A 
ATOM      9  C   UNL A   1      38.367  29.555  30.377  1.00  0.00     0.014 A 
ATOM     10  C   UNL A   1      39.354  29.580  27.764  1.00  0.00     0.010 A 
ATOM     11  C   UNL A   1      39.696  29.203  30.129  1.00  0.00     0.010 A 
ATOM     12  C   UNL A   1      40.191  29.181  28.815  1.00  0.00    -0.014 A 
BRANCH  12  13
ATOM     13  C   UNL A   1      41.596  28.785  28.546  1.00  0.00     0.031 A 
ATOM     14  C   UNL A   1      42.702  29.801  28.595  1.00  0.00     0.074 A 
ATOM     15  C   UNL A   1      41.870  27.504  28.230  1.00  0.00     0.049 A 
ATOM     16  N   UNL A   1      43.971  29.651  28.313  1.00  0.00    -0.248 NA
ATOM     17  C   UNL A   1      42.333  31.165  29.005  1.00  0.00     0.031 C 
ATOM     18  C   UNL A   1      40.883  26.424  28.155  1.00  0.00     0.029 A 
ATOM     19  N   UNL A   1      43.055  26.896  27.905  1.00  0.00    -0.354 N 
ATOM     20  C   UNL A   1      44.548  30.905  28.481  1.00  0.00     0.074 A 
ATOM     21  C   UNL A   1      43.486  31.807  28.873  1.00  0.00     0.031 C 
ATOM     22  C   UNL A   1      41.505  25.284  27.820  1.00  0.00     0.029 A 
ATOM     23  C   UNL A   1      42.920  25.564  27.596  1.00  0.00     0.049 A 
ATOM     24  H   UNL A   1      43.919  27.368  27.894  1.00  0.00     0.167 HD
ATOM     25  C   UNL A   1      45.844  31.270  28.321  1.00  0.00     0.031 A 
ATOM     26  C   UNL A   1      43.822  24.668  27.152  1.00  0.00     0.031 A 
ATOM     27  C   UNL A   1      46.893  30.368  27.924  1.00  0.00     0.049 A 
ATOM     28  C   UNL A   1      45.245  25.098  26.951  1.00  0.00     0.074 A 
ATOM     29  C   UNL A   1      48.242  30.635  27.761  1.00  0.00     0.029 A 
ATOM     30  N   UNL A   1      46.712  29.027  27.621  1.00  0.00    -0.354 N 
ATOM     31  N   UNL A   1      45.777  26.283  27.139  1.00  0.00    -0.248 NA
ATOM     32  C   UNL A   1      46.190  24.076  26.483  1.00  0.00     0.031 C 
ATOM     33  C   UNL A   1      48.867  29.467  27.314  1.00  0.00     0.029 A 
ATOM     34  C   UNL A   1      47.919  28.457  27.251  1.00  0.00     0.049 A 
ATOM     35  H   UNL A   1      45.852  28.550  27.662  1.00  0.00     0.167 HD
ATOM     36  C   UNL A   1      47.126  26.142  26.836  1.00  0.00     0.074 A 
ATOM     37  C   UNL A   1      47.328  24.759  26.454  1.00  0.00     0.031 C 
ATOM     38  C   UNL A   1      48.106  27.078  26.877  1.00  0.00     0.031 A 
BRANCH  25  39
ATOM     39  C   UNL A   1      46.183  32.722  28.531  1.00  0.00    -0.014 A 
ATOM     40  C   UNL A   1      46.127  33.648  27.473  1.00  0.00     0.010 A 
ATOM     41  C   UNL A   1      46.562  33.168  29.811  1.00  0.00     0.010 A 
ATOM     42  C   UNL A   1      46.503  34.979  27.677  1.00  0.00     0.020 A 
ATOM     43  C   UNL A   1      46.915  34.504  30.025  1.00  0.00     0.020 A 
ATOM     44  C   UNL A   1      46.908  35.394  28.950  1.00  0.00     0.054 A 
BRANCH  44  45
ATOM     45  S   UNL A   1      47.422  37.118  29.183  1.00  0.00     0.124 S 
ATOM     46  O   UNL A   1      48.218  37.030  30.404  1.00  0.00    -0.237 OA
ATOM     47  O   UNL A   1      48.174  37.401  27.963  1.00  0.00    -0.237 OA
ATOM     48  O   UNL A   1      46.159  37.841  29.313  1.00  0.00    -0.744 OA
ENDBRANCH  44  45
ENDBRANCH  25  39
BRANCH  26  49
ATOM     49  C   UNL A   1      43.376  23.280  26.862  1.00  0.00    -0.014 A 
ATOM     50  C   UNL A   1      43.494  22.748  25.568  1.00  0.00     0.010 A 
ATOM     51  C   UNL A   1      42.916  22.454  27.905  1.00  0.00     0.010 A 
ATOM     52  C   UNL A   1      43.169  21.411  25.324  1.00  0.00     0.020 A 
ATOM     53  C   UNL A   1      42.614  21.111  27.670  1.00  0.00     0.020 A 
ATOM     54  C   UNL A   1      42.741  20.598  26.378  1.00  0.00     0.054 A 
BRANCH  54  55
ATOM     55  S   UNL A   1      42.428  18.840  26.057  1.00  0.00     0.124 S 
ATOM     56  O   UNL A   1      43.386  18.549  24.998  1.00  0.00    -0.237 OA
ATOM     57  O   UNL A   1      42.710  18.227  27.353  1.00  0.00    -0.237 OA
ATOM     58  O   UNL A   1      41.022  18.811  25.658  1.00  0.00    -0.744 OA
ENDBRANCH  54  55
ENDBRANCH  26  49
BRANCH  38  59
ATOM     59  C   UNL A   1      49.504  26.635  26.540  1.00  0.00    -0.014 A 
ATOM     60  C   UNL A   1      50.321  26.008  27.496  1.00  0.00     0.010 A 
ATOM     61  C   UNL A   1      49.968  26.770  25.218  1.00  0.00     0.010 A 
ATOM     62  C   UNL A   1      51.585  25.531  27.137  1.00  0.00     0.020 A 
ATOM     63  C   UNL A   1      51.222  26.275  24.851  1.00  0.00     0.020 A 
ATOM     64  C   UNL A   1      52.025  25.662  25.815  1.00  0.00     0.054 A 
BRANCH  64  65
ATOM     65  S   UNL A   1      53.635  24.963  25.354  1.00  0.00     0.124 S 
ATOM     66  O   UNL A   1      53.353  23.530  25.351  1.00  0.00    -0.237 OA
ATOM     67  O   UNL A   1      53.879  25.558  24.043  1.00  0.00    -0.237 OA
ATOM     68  O   UNL A   1      54.528  25.422  26.415  1.00  0.00    -0.744 OA
ENDBRANCH  64  65
ENDBRANCH  38  59
ENDBRANCH  12  13
ENDBRANCH   5   7
ENDBRANCH   2   3
ENDBRANCH   1   2
BRANCH   1  69
ATOM     69  C   UNL A   1      33.000  29.471  26.100  1.00  0.00     0.118 C 
BRANCH  69  70
ATOM     70  N   UNL A   1      33.565  29.438  24.757  1.00  0.00    -0.352 N 
ATOM     71  C   UNL A   1      33.072  28.883  23.607  1.00  0.00     0.251 C 
ATOM     72  H   UNL A   1      34.437  29.885  24.662  1.00  0.00     0.163 HD
ATOM     73  O   UNL A   1      33.795  28.793  22.612  1.00  0.00    -0.269 OA
BRANCH  71  74
ATOM     74  C   UNL A   1      31.682  28.394  23.537  1.00  0.00     0.041 A 
ATOM     75  C   UNL A   1      30.674  29.286  23.167  1.00  0.00     0.014 A 
ATOM     76  C   UNL A   1      31.363  27.082  23.907  1.00  0.00     0.039 A 
ATOM     77  C   UNL A   1      29.356  28.845  23.119  1.00  0.00     0.003 A 
ATOM     78  C   UNL A   1      30.044  26.620  23.851  1.00  0.00     0.039 A 
ATOM     79  C   UNL A   1      29.049  27.520  23.447  1.00  0.00     0.026 A 
BRANCH  78  80
ATOM     80  N   UNL A   1      29.785  25.278  24.182  1.00  0.00    -0.356 N 
ATOM     81  H   UNL A   1      28.830  25.056  24.272  1.00  0.00     0.167 HD
BRANCH  80  82
ATOM     82  C   UNL A   1      30.656  24.200  24.404  1.00  0.00     0.039 A 
ATOM     83  C   UNL A   1      30.964  23.851  25.725  1.00  0.00     0.033 A 
ATOM     84  C   UNL A   1      31.148  23.402  23.363  1.00  0.00     0.033 A 
ATOM     85  C   UNL A   1      31.717  22.708  26.010  1.00  0.00     0.088 A 
ATOM     86  C   UNL A   1      31.910  22.261  23.631  1.00  0.00     0.088 A 
ATOM     87  C   UNL A   1      32.176  21.907  24.958  1.00  0.00     0.269 A 
BRANCH  87  88
ATOM     88  N   UNL A   1      32.913  20.674  25.255  1.00  0.00     0.062 N 
ATOM     89  O   UNL A   1      32.298  19.601  25.173  1.00  0.00    -0.258 OA
ATOM     90  O   UNL A   1      34.112  20.774  25.553  1.00  0.00    -0.258 OA
ENDBRANCH  87  88
ENDBRANCH  80  82
ENDBRANCH  78  80
ENDBRANCH  71  74
ENDBRANCH  69  70
ENDBRANCH   1  69
TORSDOF 16
ENDMDL
