MODEL 1
REMARK VINA RESULT:     -10.8      0.000      0.000
REMARK SMILES CSCC[C@@H](CO)n1ccnc1-c1ccccc1C(=O)NCCCNC(=O)c1ccc(-c2c3nc(c(-c4ccc(S(=O)(=O)[O-])cc4)c4ccc([nH]4)c(-c4ccc(S(=O)(=O)[O-])cc4)c4nc(c(-c5ccc(S(=O)(=O)[O-])cc5)c5ccc2[nH]5)C=C4)C=C3)cc1
REMARK SMILES IDX 22 1 21 2 19 3 20 4 18 6 13 7 14 8 15 9 17 10 16 11 12 12
REMARK SMILES IDX 8 13 9 14 10 15 11 16 5 17 4 18 3 19 2 20 1 21 6 22 7 23
REMARK SMILES IDX 23 25 24 26 25 27 26 28 27 30 28 31 29 32 87 33 30 34 86 35
REMARK SMILES IDX 31 36 32 37 33 38 80 39 34 40 85 41 79 42 81 43 35 44 84 45
REMARK SMILES IDX 78 46 77 47 36 49 66 50 47 51 65 52 48 53 51 54 64 55 82 56
REMARK SMILES IDX 49 57 50 58 63 60 83 61 52 62 37 63 38 64 46 65 39 66 45 67
REMARK SMILES IDX 40 68 41 69 42 70 43 71 44 72 67 73 68 74 76 75 69 76 75 77
REMARK SMILES IDX 70 78 71 79 72 80 73 81 74 82 53 83 54 84 62 85 55 86 61 87
REMARK SMILES IDX 56 88 57 89 58 90 59 91 60 92
REMARK H PARENT 21 5 7 24 25 29 81 48 51 59
REMARK Flexibility Score: inf
ROOT
ATOM      1  C   UNL A   1      37.145  23.134  25.792  1.00  0.00     0.118 C 
ENDROOT
BRANCH   1   2
ATOM      2  N   UNL A   1      36.992  23.053  24.361  1.00  0.00    -0.352 N 
ATOM      3  C   UNL A   1      35.825  22.947  23.639  1.00  0.00     0.252 C 
ATOM      4  O   UNL A   1      35.909  23.054  22.414  1.00  0.00    -0.269 OA
ATOM      5  H   UNL A   1      37.825  23.078  23.835  1.00  0.00     0.163 HD
BRANCH   3   6
ATOM      6  C   UNL A   1      34.479  22.649  24.236  1.00  0.00     0.050 A 
ATOM      7  C   UNL A   1      33.485  23.541  24.693  1.00  0.00     0.030 A 
ATOM      8  C   UNL A   1      32.328  23.002  25.305  1.00  0.00     0.013 A 
ATOM      9  C   UNL A   1      32.113  21.630  25.413  1.00  0.00     0.001 A 
ATOM     10  C   UNL A   1      34.217  21.258  24.316  1.00  0.00     0.014 A 
ATOM     11  C   UNL A   1      33.051  20.754  24.896  1.00  0.00     0.001 A 
BRANCH   7  12
ATOM     12  C   UNL A   1      33.521  25.010  24.698  1.00  0.00     0.141 A 
ATOM     13  N   UNL A   1      32.883  25.898  23.841  1.00  0.00    -0.326 N 
ATOM     14  C   UNL A   1      33.218  27.169  24.247  1.00  0.00     0.108 A 
ATOM     15  C   UNL A   1      34.065  27.012  25.312  1.00  0.00     0.131 A 
ATOM     16  N   UNL A   1      34.215  25.689  25.603  1.00  0.00    -0.237 NA
BRANCH  13  17
ATOM     17  C   UNL A   1      32.077  25.553  22.667  1.00  0.00     0.115 C 
BRANCH  17  18
ATOM     18  C   UNL A   1      31.075  26.673  22.358  1.00  0.00     0.039 C 
BRANCH  18  19
ATOM     19  C   UNL A   1      29.946  26.828  23.380  1.00  0.00     0.071 C 
BRANCH  19  20
ATOM     20  S   UNL A   1      28.977  28.363  23.184  1.00  0.00    -0.165 SA
ATOM     21  C   UNL A   1      30.179  29.421  22.325  1.00  0.00     0.085 C 
ENDBRANCH  19  20
ENDBRANCH  18  19
ENDBRANCH  17  18
BRANCH  17  22
ATOM     22  C   UNL A   1      32.912  25.094  21.447  1.00  0.00     0.181 C 
BRANCH  22  23
ATOM     23  O   UNL A   1      33.267  26.145  20.557  1.00  0.00    -0.394 OA
ATOM     24  H   UNL A   1      32.494  26.711  20.400  1.00  0.00     0.210 HD
ENDBRANCH  22  23
ENDBRANCH  17  22
ENDBRANCH  13  17
ENDBRANCH   7  12
ENDBRANCH   3   6
ENDBRANCH   1   2
BRANCH   1  25
ATOM     25  C   UNL A   1      37.850  24.337  26.385  1.00  0.00     0.042 C 
BRANCH  25  26
ATOM     26  C   UNL A   1      38.981  23.950  27.330  1.00  0.00     0.118 C 
BRANCH  26  27
ATOM     27  N   UNL A   1      39.826  22.823  26.914  1.00  0.00    -0.352 N 
ATOM     28  C   UNL A   1      41.166  22.897  26.518  1.00  0.00     0.251 C 
ATOM     29  H   UNL A   1      39.409  21.931  26.912  1.00  0.00     0.163 HD
ATOM     30  O   UNL A   1      41.762  21.936  26.041  1.00  0.00    -0.269 OA
BRANCH  28  31
ATOM     31  C   UNL A   1      41.824  24.205  26.675  1.00  0.00     0.039 A 
ATOM     32  C   UNL A   1      41.449  25.278  25.866  1.00  0.00     0.014 A 
ATOM     33  C   UNL A   1      42.492  24.404  27.873  1.00  0.00     0.014 A 
ATOM     34  C   UNL A   1      41.569  26.573  26.376  1.00  0.00     0.010 A 
ATOM     35  C   UNL A   1      42.422  25.657  28.442  1.00  0.00     0.010 A 
ATOM     36  C   UNL A   1      41.967  26.758  27.712  1.00  0.00    -0.014 A 
BRANCH  36  37
ATOM     37  C   UNL A   1      41.755  28.055  28.377  1.00  0.00     0.031 A 
ATOM     38  C   UNL A   1      42.779  29.126  28.132  1.00  0.00     0.074 A 
ATOM     39  C   UNL A   1      40.619  28.420  29.013  1.00  0.00     0.049 A 
ATOM     40  N   UNL A   1      43.626  29.615  28.979  1.00  0.00    -0.248 NA
ATOM     41  C   UNL A   1      42.925  29.676  26.774  1.00  0.00     0.031 C 
ATOM     42  C   UNL A   1      39.345  27.700  29.137  1.00  0.00     0.029 A 
ATOM     43  N   UNL A   1      40.335  29.616  29.597  1.00  0.00    -0.354 N 
ATOM     44  C   UNL A   1      44.292  30.654  28.329  1.00  0.00     0.074 A 
ATOM     45  C   UNL A   1      43.917  30.555  26.940  1.00  0.00     0.031 C 
ATOM     46  C   UNL A   1      38.369  28.558  29.497  1.00  0.00     0.029 A 
ATOM     47  C   UNL A   1      38.987  29.819  29.851  1.00  0.00     0.049 A 
ATOM     48  H   UNL A   1      41.026  30.281  29.821  1.00  0.00     0.167 HD
ATOM     49  C   UNL A   1      44.961  31.634  29.008  1.00  0.00     0.031 A 
ATOM     50  C   UNL A   1      38.401  30.937  30.335  1.00  0.00     0.031 A 
ATOM     51  C   UNL A   1      45.117  31.311  30.403  1.00  0.00     0.049 A 
ATOM     52  C   UNL A   1      39.449  31.691  31.061  1.00  0.00     0.074 A 
ATOM     53  C   UNL A   1      45.697  30.272  31.104  1.00  0.00     0.029 A 
ATOM     54  N   UNL A   1      44.272  31.931  31.295  1.00  0.00    -0.354 N 
ATOM     55  N   UNL A   1      40.040  31.240  32.134  1.00  0.00    -0.248 NA
ATOM     56  C   UNL A   1      40.160  32.746  30.358  1.00  0.00     0.031 C 
ATOM     57  C   UNL A   1      44.784  30.003  32.167  1.00  0.00     0.029 A 
ATOM     58  C   UNL A   1      43.752  30.942  32.092  1.00  0.00     0.049 A 
ATOM     59  H   UNL A   1      44.078  32.894  31.351  1.00  0.00     0.167 HD
ATOM     60  C   UNL A   1      41.365  31.631  32.005  1.00  0.00     0.074 A 
ATOM     61  C   UNL A   1      41.354  32.644  30.952  1.00  0.00     0.031 C 
ATOM     62  C   UNL A   1      42.383  30.911  32.569  1.00  0.00     0.031 A 
BRANCH  49  63
ATOM     63  C   UNL A   1      45.189  33.038  28.499  1.00  0.00    -0.014 A 
ATOM     64  C   UNL A   1      46.488  33.593  28.550  1.00  0.00     0.010 A 
ATOM     65  C   UNL A   1      44.131  33.924  28.217  1.00  0.00     0.010 A 
ATOM     66  C   UNL A   1      46.704  34.970  28.385  1.00  0.00     0.020 A 
ATOM     67  C   UNL A   1      44.340  35.291  28.009  1.00  0.00     0.020 A 
ATOM     68  C   UNL A   1      45.622  35.812  28.130  1.00  0.00     0.054 A 
BRANCH  68  69
ATOM     69  S   UNL A   1      45.891  37.601  28.025  1.00  0.00     0.124 S 
ATOM     70  O   UNL A   1      46.793  37.702  26.881  1.00  0.00    -0.237 OA
ATOM     71  O   UNL A   1      44.538  38.108  27.812  1.00  0.00    -0.237 OA
ATOM     72  O   UNL A   1      46.478  37.934  29.320  1.00  0.00    -0.744 OA
ENDBRANCH  68  69
ENDBRANCH  49  63
BRANCH  50  73
ATOM     73  C   UNL A   1      37.085  31.490  29.940  1.00  0.00    -0.014 A 
ATOM     74  C   UNL A   1      36.166  31.942  30.900  1.00  0.00     0.010 A 
ATOM     75  C   UNL A   1      36.839  31.815  28.588  1.00  0.00     0.010 A 
ATOM     76  C   UNL A   1      35.078  32.747  30.530  1.00  0.00     0.020 A 
ATOM     77  C   UNL A   1      35.753  32.609  28.209  1.00  0.00     0.020 A 
ATOM     78  C   UNL A   1      34.891  33.095  29.188  1.00  0.00     0.054 A 
BRANCH  78  79
ATOM     79  S   UNL A   1      33.598  34.293  28.746  1.00  0.00     0.124 S 
ATOM     80  O   UNL A   1      34.367  35.358  28.111  1.00  0.00    -0.237 OA
ATOM     81  O   UNL A   1      32.738  33.516  27.857  1.00  0.00    -0.237 OA
ATOM     82  O   UNL A   1      32.998  34.642  30.033  1.00  0.00    -0.744 OA
ENDBRANCH  78  79
ENDBRANCH  50  73
BRANCH  62  83
ATOM     83  C   UNL A   1      42.051  29.821  33.567  1.00  0.00    -0.014 A 
ATOM     84  C   UNL A   1      41.694  28.508  33.200  1.00  0.00     0.010 A 
ATOM     85  C   UNL A   1      42.280  30.088  34.929  1.00  0.00     0.010 A 
ATOM     86  C   UNL A   1      41.547  27.502  34.169  1.00  0.00     0.020 A 
ATOM     87  C   UNL A   1      42.155  29.088  35.898  1.00  0.00     0.020 A 
ATOM     88  C   UNL A   1      41.780  27.800  35.515  1.00  0.00     0.054 A 
BRANCH  88  89
ATOM     89  S   UNL A   1      41.641  26.485  36.758  1.00  0.00     0.124 S 
ATOM     90  O   UNL A   1      42.924  26.565  37.451  1.00  0.00    -0.237 OA
ATOM     91  O   UNL A   1      40.478  26.896  37.540  1.00  0.00    -0.237 OA
ATOM     92  O   UNL A   1      41.445  25.273  35.964  1.00  0.00    -0.744 OA
ENDBRANCH  88  89
ENDBRANCH  62  83
ENDBRANCH  36  37
ENDBRANCH  28  31
ENDBRANCH  26  27
ENDBRANCH  25  26
ENDBRANCH   1  25
TORSDOF 20
ENDMDL
MODEL 2
REMARK VINA RESULT:     -10.7      3.025      9.178
REMARK SMILES CSCC[C@@H](CO)n1ccnc1-c1ccccc1C(=O)NCCCNC(=O)c1ccc(-c2c3nc(c(-c4ccc(S(=O)(=O)[O-])cc4)c4ccc([nH]4)c(-c4ccc(S(=O)(=O)[O-])cc4)c4nc(c(-c5ccc(S(=O)(=O)[O-])cc5)c5ccc2[nH]5)C=C4)C=C3)cc1
REMARK SMILES IDX 22 1 21 2 19 3 20 4 18 6 13 7 14 8 15 9 17 10 16 11 12 12
REMARK SMILES IDX 8 13 9 14 10 15 11 16 5 17 4 18 3 19 2 20 1 21 6 22 7 23
REMARK SMILES IDX 23 25 24 26 25 27 26 28 27 30 28 31 29 32 87 33 30 34 86 35
REMARK SMILES IDX 31 36 32 37 33 38 80 39 34 40 85 41 79 42 81 43 35 44 84 45
REMARK SMILES IDX 78 46 77 47 36 49 66 50 47 51 65 52 48 53 51 54 64 55 82 56
REMARK SMILES IDX 49 57 50 58 63 60 83 61 52 62 37 63 38 64 46 65 39 66 45 67
REMARK SMILES IDX 40 68 41 69 42 70 43 71 44 72 67 73 68 74 76 75 69 76 75 77
REMARK SMILES IDX 70 78 71 79 72 80 73 81 74 82 53 83 54 84 62 85 55 86 61 87
REMARK SMILES IDX 56 88 57 89 58 90 59 91 60 92
REMARK H PARENT 21 5 7 24 25 29 81 48 51 59
REMARK Flexibility Score: inf
ROOT
ATOM      1  C   UNL A   1      34.406  28.726  26.774  1.00  0.00     0.118 C 
ENDROOT
BRANCH   1   2
ATOM      2  N   UNL A   1      33.275  28.567  27.654  1.00  0.00    -0.352 N 
ATOM      3  C   UNL A   1      31.995  28.183  27.326  1.00  0.00     0.252 C 
ATOM      4  O   UNL A   1      31.220  27.954  28.258  1.00  0.00    -0.269 OA
ATOM      5  H   UNL A   1      33.439  28.757  28.606  1.00  0.00     0.163 HD
BRANCH   3   6
ATOM      6  C   UNL A   1      31.468  28.084  25.923  1.00  0.00     0.050 A 
ATOM      7  C   UNL A   1      31.083  26.942  25.189  1.00  0.00     0.030 A 
ATOM      8  C   UNL A   1      30.702  27.109  23.836  1.00  0.00     0.013 A 
ATOM      9  C   UNL A   1      30.636  28.361  23.230  1.00  0.00     0.001 A 
ATOM     10  C   UNL A   1      31.349  29.352  25.298  1.00  0.00     0.014 A 
ATOM     11  C   UNL A   1      30.941  29.490  23.971  1.00  0.00     0.001 A 
BRANCH   7  12
ATOM     12  C   UNL A   1      31.101  25.538  25.625  1.00  0.00     0.141 A 
ATOM     13  N   UNL A   1      32.021  24.544  25.312  1.00  0.00    -0.326 N 
ATOM     14  C   UNL A   1      31.617  23.399  25.958  1.00  0.00     0.108 A 
ATOM     15  C   UNL A   1      30.461  23.725  26.614  1.00  0.00     0.131 A 
ATOM     16  N   UNL A   1      30.174  25.045  26.434  1.00  0.00    -0.237 NA
BRANCH  13  17
ATOM     17  C   UNL A   1      33.156  24.661  24.393  1.00  0.00     0.115 C 
BRANCH  17  18
ATOM     18  C   UNL A   1      34.413  24.037  25.014  1.00  0.00     0.039 C 
BRANCH  18  19
ATOM     19  C   UNL A   1      34.823  22.687  24.419  1.00  0.00     0.071 C 
BRANCH  19  20
ATOM     20  S   UNL A   1      34.942  21.343  25.649  1.00  0.00    -0.165 SA
ATOM     21  C   UNL A   1      36.337  20.388  24.981  1.00  0.00     0.085 C 
ENDBRANCH  19  20
ENDBRANCH  18  19
ENDBRANCH  17  18
BRANCH  17  22
ATOM     22  C   UNL A   1      32.851  24.176  22.956  1.00  0.00     0.181 C 
BRANCH  22  23
ATOM     23  O   UNL A   1      31.497  23.797  22.744  1.00  0.00    -0.394 OA
ATOM     24  H   UNL A   1      31.295  23.011  23.276  1.00  0.00     0.210 HD
ENDBRANCH  22  23
ENDBRANCH  17  22
ENDBRANCH  13  17
ENDBRANCH   7  12
ENDBRANCH   3   6
ENDBRANCH   1   2
BRANCH   1  25
ATOM     25  C   UNL A   1      35.459  29.760  27.116  1.00  0.00     0.042 C 
BRANCH  25  26
ATOM     26  C   UNL A   1      35.583  30.002  28.615  1.00  0.00     0.118 C 
BRANCH  26  27
ATOM     27  N   UNL A   1      34.878  31.174  29.150  1.00  0.00    -0.352 N 
ATOM     28  C   UNL A   1      35.195  31.864  30.325  1.00  0.00     0.251 C 
ATOM     29  H   UNL A   1      34.109  31.505  28.632  1.00  0.00     0.163 HD
ATOM     30  O   UNL A   1      34.471  32.741  30.786  1.00  0.00    -0.269 OA
BRANCH  28  31
ATOM     31  C   UNL A   1      36.438  31.462  31.005  1.00  0.00     0.039 A 
ATOM     32  C   UNL A   1      36.517  30.224  31.643  1.00  0.00     0.014 A 
ATOM     33  C   UNL A   1      37.579  32.157  30.637  1.00  0.00     0.014 A 
ATOM     34  C   UNL A   1      37.760  29.591  31.722  1.00  0.00     0.010 A 
ATOM     35  C   UNL A   1      38.756  31.448  30.540  1.00  0.00     0.010 A 
ATOM     36  C   UNL A   1      38.873  30.164  31.078  1.00  0.00    -0.014 A 
BRANCH  36  37
ATOM     37  C   UNL A   1      40.083  29.362  30.834  1.00  0.00     0.031 A 
ATOM     38  C   UNL A   1      40.962  29.070  32.017  1.00  0.00     0.074 A 
ATOM     39  C   UNL A   1      40.353  28.700  29.687  1.00  0.00     0.049 A 
ATOM     40  N   UNL A   1      42.151  29.526  32.247  1.00  0.00    -0.248 NA
ATOM     41  C   UNL A   1      40.439  28.225  33.103  1.00  0.00     0.031 C 
ATOM     42  C   UNL A   1      39.529  28.548  28.480  1.00  0.00     0.029 A 
ATOM     43  N   UNL A   1      41.419  27.898  29.413  1.00  0.00    -0.354 N 
ATOM     44  C   UNL A   1      42.607  28.897  33.405  1.00  0.00     0.074 A 
ATOM     45  C   UNL A   1      41.464  28.215  33.960  1.00  0.00     0.031 C 
ATOM     46  C   UNL A   1      39.982  27.511  27.745  1.00  0.00     0.029 A 
ATOM     47  C   UNL A   1      41.249  27.085  28.302  1.00  0.00     0.049 A 
ATOM     48  H   UNL A   1      42.240  27.896  29.956  1.00  0.00     0.167 HD
ATOM     49  C   UNL A   1      43.933  28.831  33.729  1.00  0.00     0.031 A 
ATOM     50  C   UNL A   1      42.091  26.131  27.847  1.00  0.00     0.031 A 
ATOM     51  C   UNL A   1      44.733  29.697  32.902  1.00  0.00     0.049 A 
ATOM     52  C   UNL A   1      43.438  26.461  28.368  1.00  0.00     0.074 A 
ATOM     53  C   UNL A   1      44.749  31.053  32.640  1.00  0.00     0.029 A 
ATOM     54  N   UNL A   1      45.443  29.115  31.876  1.00  0.00    -0.354 N 
ATOM     55  N   UNL A   1      44.087  27.542  28.031  1.00  0.00    -0.248 NA
ATOM     56  C   UNL A   1      43.883  25.826  29.597  1.00  0.00     0.031 C 
ATOM     57  C   UNL A   1      44.982  31.144  31.235  1.00  0.00     0.029 A 
ATOM     58  C   UNL A   1      45.170  29.848  30.748  1.00  0.00     0.049 A 
ATOM     59  H   UNL A   1      46.030  28.328  31.938  1.00  0.00     0.167 HD
ATOM     60  C   UNL A   1      44.715  27.960  29.196  1.00  0.00     0.074 A 
ATOM     61  C   UNL A   1      44.642  26.808  30.093  1.00  0.00     0.031 C 
ATOM     62  C   UNL A   1      44.996  29.279  29.426  1.00  0.00     0.031 A 
BRANCH  49  63
ATOM     63  C   UNL A   1      44.567  27.743  34.565  1.00  0.00    -0.014 A 
ATOM     64  C   UNL A   1      44.704  26.443  34.027  1.00  0.00     0.010 A 
ATOM     65  C   UNL A   1      44.792  27.885  35.949  1.00  0.00     0.010 A 
ATOM     66  C   UNL A   1      44.993  25.339  34.843  1.00  0.00     0.020 A 
ATOM     67  C   UNL A   1      45.123  26.798  36.764  1.00  0.00     0.020 A 
ATOM     68  C   UNL A   1      45.187  25.525  36.212  1.00  0.00     0.054 A 
BRANCH  68  69
ATOM     69  S   UNL A   1      45.453  24.083  37.277  1.00  0.00     0.124 S 
ATOM     70  O   UNL A   1      44.911  23.002  36.460  1.00  0.00    -0.237 OA
ATOM     71  O   UNL A   1      46.904  24.084  37.447  1.00  0.00    -0.237 OA
ATOM     72  O   UNL A   1      44.690  24.404  38.481  1.00  0.00    -0.744 OA
ENDBRANCH  68  69
ENDBRANCH  49  63
BRANCH  50  73
ATOM     73  C   UNL A   1      41.713  24.829  27.250  1.00  0.00    -0.014 A 
ATOM     74  C   UNL A   1      42.635  24.073  26.508  1.00  0.00     0.010 A 
ATOM     75  C   UNL A   1      40.507  24.204  27.636  1.00  0.00     0.010 A 
ATOM     76  C   UNL A   1      42.389  22.721  26.221  1.00  0.00     0.020 A 
ATOM     77  C   UNL A   1      40.251  22.861  27.347  1.00  0.00     0.020 A 
ATOM     78  C   UNL A   1      41.208  22.117  26.663  1.00  0.00     0.054 A 
BRANCH  78  79
ATOM     79  S   UNL A   1      40.988  20.324  26.458  1.00  0.00     0.124 S 
ATOM     80  O   UNL A   1      41.064  19.844  27.834  1.00  0.00    -0.237 OA
ATOM     81  O   UNL A   1      39.674  20.237  25.828  1.00  0.00    -0.237 OA
ATOM     82  O   UNL A   1      42.108  19.936  25.602  1.00  0.00    -0.744 OA
ENDBRANCH  78  79
ENDBRANCH  50  73
BRANCH  62  83
ATOM     83  C   UNL A   1      44.862  30.271  28.288  1.00  0.00    -0.014 A 
ATOM     84  C   UNL A   1      43.624  30.725  27.789  1.00  0.00     0.010 A 
ATOM     85  C   UNL A   1      46.032  30.899  27.825  1.00  0.00     0.010 A 
ATOM     86  C   UNL A   1      43.564  31.757  26.839  1.00  0.00     0.020 A 
ATOM     87  C   UNL A   1      45.980  31.941  26.894  1.00  0.00     0.020 A 
ATOM     88  C   UNL A   1      44.746  32.359  26.397  1.00  0.00     0.054 A 
BRANCH  88  89
ATOM     89  S   UNL A   1      44.660  33.729  25.210  1.00  0.00     0.124 S 
ATOM     90  O   UNL A   1      43.626  34.585  25.785  1.00  0.00    -0.237 OA
ATOM     91  O   UNL A   1      46.016  34.274  25.241  1.00  0.00    -0.237 OA
ATOM     92  O   UNL A   1      44.293  33.080  23.952  1.00  0.00    -0.744 OA
ENDBRANCH  88  89
ENDBRANCH  62  83
ENDBRANCH  36  37
ENDBRANCH  28  31
ENDBRANCH  26  27
ENDBRANCH  25  26
ENDBRANCH   1  25
TORSDOF 20
ENDMDL
MODEL 3
REMARK VINA RESULT:     -10.6      3.651      7.950
REMARK SMILES CSCC[C@@H](CO)n1ccnc1-c1ccccc1C(=O)NCCCNC(=O)c1ccc(-c2c3nc(c(-c4ccc(S(=O)(=O)[O-])cc4)c4ccc([nH]4)c(-c4ccc(S(=O)(=O)[O-])cc4)c4nc(c(-c5ccc(S(=O)(=O)[O-])cc5)c5ccc2[nH]5)C=C4)C=C3)cc1
REMARK SMILES IDX 22 1 21 2 19 3 20 4 18 6 13 7 14 8 15 9 17 10 16 11 12 12
REMARK SMILES IDX 8 13 9 14 10 15 11 16 5 17 4 18 3 19 2 20 1 21 6 22 7 23
REMARK SMILES IDX 23 25 24 26 25 27 26 28 27 30 28 31 29 32 87 33 30 34 86 35
REMARK SMILES IDX 31 36 32 37 33 38 80 39 34 40 85 41 79 42 81 43 35 44 84 45
REMARK SMILES IDX 78 46 77 47 36 49 66 50 47 51 65 52 48 53 51 54 64 55 82 56
REMARK SMILES IDX 49 57 50 58 63 60 83 61 52 62 37 63 38 64 46 65 39 66 45 67
REMARK SMILES IDX 40 68 41 69 42 70 43 71 44 72 67 73 68 74 76 75 69 76 75 77
REMARK SMILES IDX 70 78 71 79 72 80 73 81 74 82 53 83 54 84 62 85 55 86 61 87
REMARK SMILES IDX 56 88 57 89 58 90 59 91 60 92
REMARK H PARENT 21 5 7 24 25 29 81 48 51 59
REMARK Flexibility Score: inf
ROOT
ATOM      1  C   UNL A   1      36.459  23.587  25.941  1.00  0.00     0.118 C 
ENDROOT
BRANCH   1   2
ATOM      2  N   UNL A   1      35.529  22.989  26.864  1.00  0.00    -0.352 N 
ATOM      3  C   UNL A   1      34.325  22.385  26.581  1.00  0.00     0.252 C 
ATOM      4  O   UNL A   1      33.761  21.794  27.505  1.00  0.00    -0.269 OA
ATOM      5  H   UNL A   1      35.787  23.015  27.814  1.00  0.00     0.163 HD
BRANCH   3   6
ATOM      6  C   UNL A   1      33.632  22.451  25.251  1.00  0.00     0.050 A 
ATOM      7  C   UNL A   1      33.111  23.570  24.566  1.00  0.00     0.030 A 
ATOM      8  C   UNL A   1      32.414  23.352  23.354  1.00  0.00     0.013 A 
ATOM      9  C   UNL A   1      32.282  22.086  22.787  1.00  0.00     0.001 A 
ATOM     10  C   UNL A   1      33.525  21.179  24.632  1.00  0.00     0.014 A 
ATOM     11  C   UNL A   1      32.859  20.997  23.418  1.00  0.00     0.001 A 
BRANCH   7  12
ATOM     12  C   UNL A   1      33.118  24.976  24.994  1.00  0.00     0.141 A 
ATOM     13  N   UNL A   1      32.093  25.711  25.578  1.00  0.00    -0.326 N 
ATOM     14  C   UNL A   1      32.577  26.979  25.800  1.00  0.00     0.108 A 
ATOM     15  C   UNL A   1      33.861  26.980  25.324  1.00  0.00     0.131 A 
ATOM     16  N   UNL A   1      34.194  25.740  24.866  1.00  0.00    -0.237 NA
BRANCH  13  17
ATOM     17  C   UNL A   1      30.722  25.256  25.827  1.00  0.00     0.115 C 
BRANCH  17  18
ATOM     18  C   UNL A   1      29.912  25.263  24.524  1.00  0.00     0.039 C 
BRANCH  18  19
ATOM     19  C   UNL A   1      29.269  26.609  24.173  1.00  0.00     0.071 C 
BRANCH  19  20
ATOM     20  S   UNL A   1      30.212  27.580  22.948  1.00  0.00    -0.165 SA
ATOM     21  C   UNL A   1      29.364  29.183  23.053  1.00  0.00     0.085 C 
ENDBRANCH  19  20
ENDBRANCH  18  19
ENDBRANCH  17  18
BRANCH  17  22
ATOM     22  C   UNL A   1      30.637  23.929  26.618  1.00  0.00     0.181 C 
BRANCH  22  23
ATOM     23  O   UNL A   1      29.368  23.685  27.211  1.00  0.00    -0.394 OA
ATOM     24  H   UNL A   1      28.963  22.906  26.799  1.00  0.00     0.210 HD
ENDBRANCH  22  23
ENDBRANCH  17  22
ENDBRANCH  13  17
ENDBRANCH   7  12
ENDBRANCH   3   6
ENDBRANCH   1   2
BRANCH   1  25
ATOM     25  C   UNL A   1      37.319  22.684  25.079  1.00  0.00     0.042 C 
BRANCH  25  26
ATOM     26  C   UNL A   1      38.489  22.079  25.846  1.00  0.00     0.118 C 
BRANCH  26  27
ATOM     27  N   UNL A   1      38.716  20.639  25.663  1.00  0.00    -0.352 N 
ATOM     28  C   UNL A   1      39.925  19.962  25.861  1.00  0.00     0.251 C 
ATOM     29  H   UNL A   1      37.945  20.100  25.375  1.00  0.00     0.163 HD
ATOM     30  O   UNL A   1      40.076  18.786  25.545  1.00  0.00    -0.269 OA
BRANCH  28  31
ATOM     31  C   UNL A   1      41.027  20.746  26.443  1.00  0.00     0.039 A 
ATOM     32  C   UNL A   1      41.666  21.727  25.683  1.00  0.00     0.014 A 
ATOM     33  C   UNL A   1      41.104  20.743  27.827  1.00  0.00     0.014 A 
ATOM     34  C   UNL A   1      42.214  22.830  26.341  1.00  0.00     0.010 A 
ATOM     35  C   UNL A   1      41.466  21.918  28.449  1.00  0.00     0.010 A 
ATOM     36  C   UNL A   1      42.026  22.975  27.728  1.00  0.00    -0.014 A 
BRANCH  36  37
ATOM     37  C   UNL A   1      42.265  24.275  28.378  1.00  0.00     0.031 A 
ATOM     38  C   UNL A   1      41.241  25.351  28.155  1.00  0.00     0.074 A 
ATOM     39  C   UNL A   1      43.211  24.507  29.316  1.00  0.00     0.049 A 
ATOM     40  N   UNL A   1      41.382  26.445  27.481  1.00  0.00    -0.248 NA
ATOM     41  C   UNL A   1      39.882  25.163  28.690  1.00  0.00     0.031 C 
ATOM     42  C   UNL A   1      44.144  23.570  29.954  1.00  0.00     0.029 A 
ATOM     43  N   UNL A   1      43.450  25.662  29.996  1.00  0.00    -0.354 N 
ATOM     44  C   UNL A   1      40.205  27.175  27.644  1.00  0.00     0.074 A 
ATOM     45  C   UNL A   1      39.271  26.279  28.283  1.00  0.00     0.031 C 
ATOM     46  C   UNL A   1      44.632  24.112  31.088  1.00  0.00     0.029 A 
ATOM     47  C   UNL A   1      44.234  25.504  31.128  1.00  0.00     0.049 A 
ATOM     48  H   UNL A   1      43.097  26.535  29.708  1.00  0.00     0.167 HD
ATOM     49  C   UNL A   1      40.138  28.520  27.411  1.00  0.00     0.031 A 
ATOM     50  C   UNL A   1      44.557  26.446  32.042  1.00  0.00     0.031 A 
ATOM     51  C   UNL A   1      41.312  29.009  26.736  1.00  0.00     0.049 A 
ATOM     52  C   UNL A   1      44.420  27.760  31.371  1.00  0.00     0.074 A 
ATOM     53  C   UNL A   1      41.941  28.717  25.541  1.00  0.00     0.029 A 
ATOM     54  N   UNL A   1      42.251  29.669  27.495  1.00  0.00    -0.354 N 
ATOM     55  N   UNL A   1      45.164  28.128  30.365  1.00  0.00    -0.248 NA
ATOM     56  C   UNL A   1      43.172  28.490  31.521  1.00  0.00     0.031 C 
ATOM     57  C   UNL A   1      43.333  28.728  25.856  1.00  0.00     0.029 A 
ATOM     58  C   UNL A   1      43.464  29.101  27.196  1.00  0.00     0.049 A 
ATOM     59  H   UNL A   1      42.085  30.404  28.128  1.00  0.00     0.167 HD
ATOM     60  C   UNL A   1      44.308  28.817  29.518  1.00  0.00     0.074 A 
ATOM     61  C   UNL A   1      43.127  29.100  30.333  1.00  0.00     0.031 C 
ATOM     62  C   UNL A   1      44.515  28.860  28.166  1.00  0.00     0.031 A 
BRANCH  49  63
ATOM     63  C   UNL A   1      39.169  29.468  28.079  1.00  0.00    -0.014 A 
ATOM     64  C   UNL A   1      39.615  30.280  29.146  1.00  0.00     0.010 A 
ATOM     65  C   UNL A   1      37.777  29.400  27.872  1.00  0.00     0.010 A 
ATOM     66  C   UNL A   1      38.712  30.939  29.993  1.00  0.00     0.020 A 
ATOM     67  C   UNL A   1      36.869  30.088  28.684  1.00  0.00     0.020 A 
ATOM     68  C   UNL A   1      37.341  30.825  29.763  1.00  0.00     0.054 A 
BRANCH  68  69
ATOM     69  S   UNL A   1      36.176  31.589  30.921  1.00  0.00     0.124 S 
ATOM     70  O   UNL A   1      35.102  32.015  30.030  1.00  0.00    -0.237 OA
ATOM     71  O   UNL A   1      35.855  30.481  31.818  1.00  0.00    -0.237 OA
ATOM     72  O   UNL A   1      36.955  32.667  31.527  1.00  0.00    -0.744 OA
ENDBRANCH  68  69
ENDBRANCH  49  63
BRANCH  50  73
ATOM     73  C   UNL A   1      44.681  26.255  33.505  1.00  0.00    -0.014 A 
ATOM     74  C   UNL A   1      45.829  26.670  34.200  1.00  0.00     0.010 A 
ATOM     75  C   UNL A   1      43.546  25.894  34.264  1.00  0.00     0.010 A 
ATOM     76  C   UNL A   1      45.819  26.786  35.599  1.00  0.00     0.020 A 
ATOM     77  C   UNL A   1      43.532  25.998  35.658  1.00  0.00     0.020 A 
ATOM     78  C   UNL A   1      44.662  26.471  36.317  1.00  0.00     0.054 A 
BRANCH  78  79
ATOM     79  S   UNL A   1      44.597  26.810  38.102  1.00  0.00     0.124 S 
ATOM     80  O   UNL A   1      43.277  26.306  38.465  1.00  0.00    -0.237 OA
ATOM     81  O   UNL A   1      45.731  26.042  38.610  1.00  0.00    -0.237 OA
ATOM     82  O   UNL A   1      44.752  28.261  38.182  1.00  0.00    -0.744 OA
ENDBRANCH  78  79
ENDBRANCH  50  73
BRANCH  62  83
ATOM     83  C   UNL A   1      45.836  28.373  27.607  1.00  0.00    -0.014 A 
ATOM     84  C   UNL A   1      46.076  27.041  27.215  1.00  0.00     0.010 A 
ATOM     85  C   UNL A   1      46.814  29.338  27.305  1.00  0.00     0.010 A 
ATOM     86  C   UNL A   1      47.267  26.683  26.564  1.00  0.00     0.020 A 
ATOM     87  C   UNL A   1      47.995  28.994  26.639  1.00  0.00     0.020 A 
ATOM     88  C   UNL A   1      48.221  27.665  26.279  1.00  0.00     0.054 A 
BRANCH  88  89
ATOM     89  S   UNL A   1      49.735  27.209  25.388  1.00  0.00     0.124 S 
ATOM     90  O   UNL A   1      49.491  25.812  25.040  1.00  0.00    -0.237 OA
ATOM     91  O   UNL A   1      49.748  28.143  24.265  1.00  0.00    -0.237 OA
ATOM     92  O   UNL A   1      50.797  27.423  26.371  1.00  0.00    -0.744 OA
ENDBRANCH  88  89
ENDBRANCH  62  83
ENDBRANCH  36  37
ENDBRANCH  28  31
ENDBRANCH  26  27
ENDBRANCH  25  26
ENDBRANCH   1  25
TORSDOF 20
ENDMDL
