MODEL 1
REMARK VINA RESULT:     -12.2      0.000      0.000
REMARK SMILES CC[N@@H+](C)Cc1cc2c(cc1Cl)C=C(C(=O)NCCCNC(=O)c1ccc(-c3c4nc(c(-c5ccc(S(=O)(=O)[O-])cc5)c5ccc([nH]5)c(-c5ccc(S(=O)(=O)[O-])cc5)c5nc(c(-c6ccc(S(=O)(=O)[O-])cc6)c6ccc3[nH]6)C=C5)C=C4)cc1)[C@@H](C(F)(F)F)O2
REMARK SMILES IDX 19 1 18 2 17 3 15 4 16 5 14 7 6 8 7 9 11 10 8 11 10 12 12 13
REMARK SMILES IDX 9 14 89 15 13 16 84 17 5 18 3 19 4 20 2 22 1 23 85 24 86 25
REMARK SMILES IDX 87 26 88 27 20 28 21 29 22 30 23 32 24 33 25 34 83 35 26 36
REMARK SMILES IDX 82 37 27 38 28 39 29 40 76 41 30 42 81 43 75 44 77 45 31 46
REMARK SMILES IDX 80 47 74 48 73 49 32 51 62 52 43 53 61 54 44 55 47 56 60 57
REMARK SMILES IDX 78 58 45 59 46 60 59 62 79 63 48 64 33 65 34 66 42 67 35 68
REMARK SMILES IDX 41 69 36 70 37 71 38 72 39 73 40 74 63 75 64 76 72 77 65 78
REMARK SMILES IDX 71 79 66 80 67 81 68 82 69 83 70 84 49 85 50 86 58 87 51 88
REMARK SMILES IDX 57 89 52 90 53 91 54 92 55 93 56 94
REMARK H PARENT 17 6 3 21 21 31 77 50 47 61
REMARK Flexibility Score: inf
ROOT
ATOM      1  C   UNL A   1      39.234  22.236  26.420  1.00  0.00     0.042 C 
ENDROOT
BRANCH   1   2
ATOM      2  C   UNL A   1      38.022  22.818  25.710  1.00  0.00     0.118 C 
BRANCH   2   3
ATOM      3  N   UNL A   1      36.813  22.052  25.970  1.00  0.00    -0.352 N 
ATOM      4  C   UNL A   1      35.487  22.185  25.735  1.00  0.00     0.251 C 
ATOM      5  O   UNL A   1      34.784  21.251  26.133  1.00  0.00    -0.270 OA
ATOM      6  H   UNL A   1      37.013  21.213  26.444  1.00  0.00     0.163 HD
BRANCH   4   7
ATOM      7  C   UNL A   1      34.850  23.341  25.045  1.00  0.00     0.067 C 
ATOM      8  C   UNL A   1      32.528  27.639  23.878  1.00  0.00     0.029 A 
ATOM      9  C   UNL A   1      33.211  26.659  23.142  1.00  0.00     0.058 A 
ATOM     10  C   UNL A   1      32.662  27.619  25.279  1.00  0.00     0.050 A 
ATOM     11  C   UNL A   1      33.874  25.622  23.784  1.00  0.00     0.128 A 
ATOM     12  C   UNL A   1      33.386  26.603  25.920  1.00  0.00     0.033 A 
ATOM     13  Cl  UNL A   1      31.943  28.822  26.291  1.00  0.00    -0.084 Cl
ATOM     14  C   UNL A   1      33.963  25.577  25.173  1.00  0.00     0.019 A 
ATOM     15  O   UNL A   1      34.401  24.644  22.989  1.00  0.00    -0.475 OA
ATOM     16  C   UNL A   1      34.644  24.443  25.792  1.00  0.00     0.025 C 
ATOM     17  C   UNL A   1      34.408  23.326  23.607  1.00  0.00     0.314 C 
BRANCH   8  18
ATOM     18  C   UNL A   1      31.646  28.616  23.124  1.00  0.00     0.300 C 
BRANCH  18  19
ATOM     19  N   UNL A   1      30.213  28.636  23.495  1.00  0.00    -0.334 N 
ATOM     20  C   UNL A   1      29.604  27.308  23.416  1.00  0.00     0.333 C 
ATOM     21  H   UNL A   1      30.235  28.947  24.466  1.00  0.00     0.348 HD
BRANCH  19  22
ATOM     22  C   UNL A   1      29.377  29.623  22.799  1.00  0.00     0.258 C 
ATOM     23  C   UNL A   1      29.153  30.911  23.584  1.00  0.00     0.071 C 
ENDBRANCH  19  22
ENDBRANCH  18  19
ENDBRANCH   8  18
BRANCH  17  24
ATOM     24  C   UNL A   1      33.034  22.647  23.415  1.00  0.00     0.429 C 
ATOM     25  F   UNL A   1      32.479  23.015  22.233  1.00  0.00    -0.167 F 
ATOM     26  F   UNL A   1      33.123  21.294  23.393  1.00  0.00    -0.167 F 
ATOM     27  F   UNL A   1      32.146  22.956  24.388  1.00  0.00    -0.167 F 
ENDBRANCH  17  24
ENDBRANCH   4   7
ENDBRANCH   2   3
ENDBRANCH   1   2
BRANCH   1  28
ATOM     28  C   UNL A   1      40.106  23.308  27.060  1.00  0.00     0.118 C 
BRANCH  28  29
ATOM     29  N   UNL A   1      40.781  24.140  26.064  1.00  0.00    -0.352 N 
ATOM     30  C   UNL A   1      41.145  25.464  26.110  1.00  0.00     0.251 C 
ATOM     31  H   UNL A   1      41.013  23.676  25.227  1.00  0.00     0.163 HD
ATOM     32  O   UNL A   1      41.510  26.029  25.082  1.00  0.00    -0.269 OA
BRANCH  30  33
ATOM     33  C   UNL A   1      41.073  26.207  27.385  1.00  0.00     0.039 A 
ATOM     34  C   UNL A   1      40.057  25.933  28.299  1.00  0.00     0.014 A 
ATOM     35  C   UNL A   1      42.021  27.195  27.664  1.00  0.00     0.014 A 
ATOM     36  C   UNL A   1      39.864  26.778  29.381  1.00  0.00     0.010 A 
ATOM     37  C   UNL A   1      41.889  27.974  28.818  1.00  0.00     0.010 A 
ATOM     38  C   UNL A   1      40.776  27.809  29.657  1.00  0.00    -0.014 A 
BRANCH  38  39
ATOM     39  C   UNL A   1      40.530  28.695  30.824  1.00  0.00     0.031 A 
ATOM     40  C   UNL A   1      41.457  28.684  32.011  1.00  0.00     0.074 A 
ATOM     41  C   UNL A   1      39.512  29.578  30.768  1.00  0.00     0.049 A 
ATOM     42  N   UNL A   1      41.422  29.434  33.082  1.00  0.00    -0.248 NA
ATOM     43  C   UNL A   1      42.563  27.712  31.999  1.00  0.00     0.031 C 
ATOM     44  C   UNL A   1      38.565  29.696  29.656  1.00  0.00     0.029 A 
ATOM     45  N   UNL A   1      39.133  30.575  31.631  1.00  0.00    -0.354 N 
ATOM     46  C   UNL A   1      42.481  29.012  33.879  1.00  0.00     0.074 A 
ATOM     47  C   UNL A   1      43.125  27.921  33.182  1.00  0.00     0.031 C 
ATOM     48  C   UNL A   1      37.776  30.758  29.862  1.00  0.00     0.029 A 
ATOM     49  C   UNL A   1      38.100  31.348  31.156  1.00  0.00     0.049 A 
ATOM     50  H   UNL A   1      39.559  30.722  32.507  1.00  0.00     0.167 HD
ATOM     51  C   UNL A   1      42.884  29.497  35.076  1.00  0.00     0.031 A 
ATOM     52  C   UNL A   1      37.473  32.412  31.696  1.00  0.00     0.031 A 
ATOM     53  C   UNL A   1      42.248  30.598  35.752  1.00  0.00     0.049 A 
ATOM     54  C   UNL A   1      37.917  32.913  33.038  1.00  0.00     0.074 A 
ATOM     55  C   UNL A   1      42.587  31.166  36.968  1.00  0.00     0.029 A 
ATOM     56  N   UNL A   1      41.154  31.304  35.272  1.00  0.00    -0.354 N 
ATOM     57  N   UNL A   1      38.909  32.485  33.782  1.00  0.00    -0.248 NA
ATOM     58  C   UNL A   1      37.159  34.028  33.618  1.00  0.00     0.031 C 
ATOM     59  C   UNL A   1      41.665  32.178  37.249  1.00  0.00     0.029 A 
ATOM     60  C   UNL A   1      40.792  32.286  36.177  1.00  0.00     0.049 A 
ATOM     61  H   UNL A   1      40.703  31.131  34.414  1.00  0.00     0.167 HD
ATOM     62  C   UNL A   1      38.896  33.281  34.921  1.00  0.00     0.074 A 
ATOM     63  C   UNL A   1      37.814  34.230  34.756  1.00  0.00     0.031 C 
ATOM     64  C   UNL A   1      39.706  33.221  36.005  1.00  0.00     0.031 A 
BRANCH  51  65
ATOM     65  C   UNL A   1      44.062  28.845  35.752  1.00  0.00    -0.014 A 
ATOM     66  C   UNL A   1      43.845  27.898  36.769  1.00  0.00     0.010 A 
ATOM     67  C   UNL A   1      45.380  29.238  35.454  1.00  0.00     0.010 A 
ATOM     68  C   UNL A   1      44.918  27.370  37.492  1.00  0.00     0.020 A 
ATOM     69  C   UNL A   1      46.459  28.692  36.158  1.00  0.00     0.020 A 
ATOM     70  C   UNL A   1      46.220  27.777  37.186  1.00  0.00     0.054 A 
BRANCH  70  71
ATOM     71  S   UNL A   1      47.603  27.084  38.134  1.00  0.00     0.124 S 
ATOM     72  O   UNL A   1      48.040  28.232  38.924  1.00  0.00    -0.237 OA
ATOM     73  O   UNL A   1      46.969  26.004  38.885  1.00  0.00    -0.237 OA
ATOM     74  O   UNL A   1      48.536  26.643  37.099  1.00  0.00    -0.744 OA
ENDBRANCH  70  71
ENDBRANCH  51  65
BRANCH  52  75
ATOM     75  C   UNL A   1      36.376  33.064  30.929  1.00  0.00    -0.014 A 
ATOM     76  C   UNL A   1      36.663  33.778  29.750  1.00  0.00     0.010 A 
ATOM     77  C   UNL A   1      35.067  33.082  31.437  1.00  0.00     0.010 A 
ATOM     78  C   UNL A   1      35.681  34.559  29.137  1.00  0.00     0.020 A 
ATOM     79  C   UNL A   1      34.072  33.838  30.808  1.00  0.00     0.020 A 
ATOM     80  C   UNL A   1      34.396  34.601  29.683  1.00  0.00     0.054 A 
BRANCH  80  81
ATOM     81  S   UNL A   1      33.159  35.686  28.921  1.00  0.00     0.124 S 
ATOM     82  O   UNL A   1      32.410  36.148  30.087  1.00  0.00    -0.237 OA
ATOM     83  O   UNL A   1      33.982  36.696  28.260  1.00  0.00    -0.237 OA
ATOM     84  O   UNL A   1      32.431  34.795  28.022  1.00  0.00    -0.744 OA
ENDBRANCH  80  81
ENDBRANCH  52  75
BRANCH  64  85
ATOM     85  C   UNL A   1      39.465  34.199  37.122  1.00  0.00    -0.014 A 
ATOM     86  C   UNL A   1      40.040  35.482  37.061  1.00  0.00     0.010 A 
ATOM     87  C   UNL A   1      38.789  33.803  38.289  1.00  0.00     0.010 A 
ATOM     88  C   UNL A   1      39.976  36.339  38.161  1.00  0.00     0.020 A 
ATOM     89  C   UNL A   1      38.700  34.670  39.382  1.00  0.00     0.020 A 
ATOM     90  C   UNL A   1      39.317  35.922  39.320  1.00  0.00     0.054 A 
BRANCH  90  91
ATOM     91  S   UNL A   1      39.277  37.032  40.753  1.00  0.00     0.124 S 
ATOM     92  O   UNL A   1      38.458  38.136  40.263  1.00  0.00    -0.237 OA
ATOM     93  O   UNL A   1      38.661  36.202  41.787  1.00  0.00    -0.237 OA
ATOM     94  O   UNL A   1      40.684  37.350  40.980  1.00  0.00    -0.744 OA
ENDBRANCH  90  91
ENDBRANCH  64  85
ENDBRANCH  38  39
ENDBRANCH  30  33
ENDBRANCH  28  29
ENDBRANCH   1  28
TORSDOF 17
ENDMDL
MODEL 2
REMARK VINA RESULT:     -12.0      5.845      8.087
REMARK SMILES CC[N@@H+](C)Cc1cc2c(cc1Cl)C=C(C(=O)NCCCNC(=O)c1ccc(-c3c4nc(c(-c5ccc(S(=O)(=O)[O-])cc5)c5ccc([nH]5)c(-c5ccc(S(=O)(=O)[O-])cc5)c5nc(c(-c6ccc(S(=O)(=O)[O-])cc6)c6ccc3[nH]6)C=C5)C=C4)cc1)[C@@H](C(F)(F)F)O2
REMARK SMILES IDX 19 1 18 2 17 3 15 4 16 5 14 7 6 8 7 9 11 10 8 11 10 12 12 13
REMARK SMILES IDX 9 14 89 15 13 16 84 17 5 18 3 19 4 20 2 22 1 23 85 24 86 25
REMARK SMILES IDX 87 26 88 27 20 28 21 29 22 30 23 32 24 33 25 34 83 35 26 36
REMARK SMILES IDX 82 37 27 38 28 39 29 40 76 41 30 42 81 43 75 44 77 45 31 46
REMARK SMILES IDX 80 47 74 48 73 49 32 51 62 52 43 53 61 54 44 55 47 56 60 57
REMARK SMILES IDX 78 58 45 59 46 60 59 62 79 63 48 64 33 65 34 66 42 67 35 68
REMARK SMILES IDX 41 69 36 70 37 71 38 72 39 73 40 74 63 75 64 76 72 77 65 78
REMARK SMILES IDX 71 79 66 80 67 81 68 82 69 83 70 84 49 85 50 86 58 87 51 88
REMARK SMILES IDX 57 89 52 90 53 91 54 92 55 93 56 94
REMARK H PARENT 17 6 3 21 21 31 77 50 47 61
REMARK Flexibility Score: inf
ROOT
ATOM      1  C   UNL A   1      37.903  19.669  24.845  1.00  0.00     0.042 C 
ENDROOT
BRANCH   1   2
ATOM      2  C   UNL A   1      36.552  20.344  25.025  1.00  0.00     0.118 C 
BRANCH   2   3
ATOM      3  N   UNL A   1      35.448  19.407  24.892  1.00  0.00    -0.352 N 
ATOM      4  C   UNL A   1      34.102  19.474  24.766  1.00  0.00     0.251 C 
ATOM      5  O   UNL A   1      33.526  18.387  24.664  1.00  0.00    -0.270 OA
ATOM      6  H   UNL A   1      35.763  18.475  24.893  1.00  0.00     0.163 HD
BRANCH   4   7
ATOM      7  C   UNL A   1      33.306  20.733  24.734  1.00  0.00     0.067 C 
ATOM      8  C   UNL A   1      31.246  25.163  23.568  1.00  0.00     0.029 A 
ATOM      9  C   UNL A   1      30.982  24.179  24.534  1.00  0.00     0.058 A 
ATOM     10  C   UNL A   1      32.110  24.828  22.509  1.00  0.00     0.050 A 
ATOM     11  C   UNL A   1      31.665  22.971  24.520  1.00  0.00     0.128 A 
ATOM     12  C   UNL A   1      32.750  23.580  22.468  1.00  0.00     0.033 A 
ATOM     13  Cl  UNL A   1      32.446  25.920  21.212  1.00  0.00    -0.084 Cl
ATOM     14  C   UNL A   1      32.558  22.660  23.498  1.00  0.00     0.019 A 
ATOM     15  O   UNL A   1      31.439  22.126  25.570  1.00  0.00    -0.475 OA
ATOM     16  C   UNL A   1      33.271  21.388  23.557  1.00  0.00     0.025 C 
ATOM     17  C   UNL A   1      32.591  21.311  25.925  1.00  0.00     0.314 C 
BRANCH   8  18
ATOM     18  C   UNL A   1      30.632  26.537  23.760  1.00  0.00     0.300 C 
BRANCH  18  19
ATOM     19  N   UNL A   1      31.537  27.604  24.244  1.00  0.00    -0.334 N 
ATOM     20  C   UNL A   1      31.481  27.757  25.698  1.00  0.00     0.333 C 
ATOM     21  H   UNL A   1      32.458  27.262  23.970  1.00  0.00     0.348 HD
BRANCH  19  22
ATOM     22  C   UNL A   1      31.407  28.912  23.588  1.00  0.00     0.258 C 
ATOM     23  C   UNL A   1      30.392  28.936  22.450  1.00  0.00     0.071 C 
ENDBRANCH  19  22
ENDBRANCH  18  19
ENDBRANCH   8  18
BRANCH  17  24
ATOM     24  C   UNL A   1      33.533  22.105  26.856  1.00  0.00     0.429 C 
ATOM     25  F   UNL A   1      34.278  21.262  27.614  1.00  0.00    -0.167 F 
ATOM     26  F   UNL A   1      34.408  22.880  26.170  1.00  0.00    -0.167 F 
ATOM     27  F   UNL A   1      32.875  22.930  27.703  1.00  0.00    -0.167 F 
ENDBRANCH  17  24
ENDBRANCH   4   7
ENDBRANCH   2   3
ENDBRANCH   1   2
BRANCH   1  28
ATOM     28  C   UNL A   1      38.989  20.298  25.708  1.00  0.00     0.118 C 
BRANCH  28  29
ATOM     29  N   UNL A   1      40.150  19.422  25.863  1.00  0.00    -0.352 N 
ATOM     30  C   UNL A   1      41.461  19.723  26.141  1.00  0.00     0.251 C 
ATOM     31  H   UNL A   1      39.961  18.462  25.751  1.00  0.00     0.163 HD
ATOM     32  O   UNL A   1      42.323  18.857  26.016  1.00  0.00    -0.269 OA
BRANCH  30  33
ATOM     33  C   UNL A   1      41.832  21.089  26.564  1.00  0.00     0.039 A 
ATOM     34  C   UNL A   1      41.860  22.127  25.635  1.00  0.00     0.014 A 
ATOM     35  C   UNL A   1      42.167  21.333  27.899  1.00  0.00     0.014 A 
ATOM     36  C   UNL A   1      42.419  23.347  25.987  1.00  0.00     0.010 A 
ATOM     37  C   UNL A   1      42.624  22.598  28.278  1.00  0.00     0.010 A 
ATOM     38  C   UNL A   1      42.809  23.600  27.312  1.00  0.00    -0.014 A 
BRANCH  38  39
ATOM     39  C   UNL A   1      43.408  24.918  27.647  1.00  0.00     0.031 A 
ATOM     40  C   UNL A   1      44.852  25.210  27.335  1.00  0.00     0.074 A 
ATOM     41  C   UNL A   1      42.615  25.885  28.152  1.00  0.00     0.049 A 
ATOM     42  N   UNL A   1      45.516  26.325  27.505  1.00  0.00    -0.248 NA
ATOM     43  C   UNL A   1      45.657  24.118  26.762  1.00  0.00     0.031 C 
ATOM     44  C   UNL A   1      41.194  25.722  28.469  1.00  0.00     0.029 A 
ATOM     45  N   UNL A   1      42.869  27.202  28.439  1.00  0.00    -0.354 N 
ATOM     46  C   UNL A   1      46.815  26.064  27.084  1.00  0.00     0.074 A 
ATOM     47  C   UNL A   1      46.857  24.678  26.675  1.00  0.00     0.031 C 
ATOM     48  C   UNL A   1      40.684  26.911  28.819  1.00  0.00     0.029 A 
ATOM     49  C   UNL A   1      41.753  27.902  28.834  1.00  0.00     0.049 A 
ATOM     50  H   UNL A   1      43.764  27.608  28.368  1.00  0.00     0.167 HD
ATOM     51  C   UNL A   1      47.872  26.907  27.033  1.00  0.00     0.031 A 
ATOM     52  C   UNL A   1      41.598  29.197  29.176  1.00  0.00     0.031 A 
ATOM     53  C   UNL A   1      47.815  28.292  27.423  1.00  0.00     0.049 A 
ATOM     54  C   UNL A   1      42.791  30.105  29.142  1.00  0.00     0.074 A 
ATOM     55  C   UNL A   1      48.834  29.229  27.403  1.00  0.00     0.029 A 
ATOM     56  N   UNL A   1      46.683  28.942  27.892  1.00  0.00    -0.354 N 
ATOM     57  N   UNL A   1      44.016  29.831  28.758  1.00  0.00    -0.248 NA
ATOM     58  C   UNL A   1      42.591  31.488  29.591  1.00  0.00     0.031 C 
ATOM     59  C   UNL A   1      48.332  30.429  27.912  1.00  0.00     0.029 A 
ATOM     60  C   UNL A   1      46.983  30.260  28.185  1.00  0.00     0.049 A 
ATOM     61  H   UNL A   1      45.797  28.526  28.000  1.00  0.00     0.167 HD
ATOM     62  C   UNL A   1      44.734  31.009  28.918  1.00  0.00     0.074 A 
ATOM     63  C   UNL A   1      43.802  32.004  29.411  1.00  0.00     0.031 C 
ATOM     64  C   UNL A   1      46.048  31.239  28.684  1.00  0.00     0.031 A 
BRANCH  51  65
ATOM     65  C   UNL A   1      49.194  26.368  26.549  1.00  0.00    -0.014 A 
ATOM     66  C   UNL A   1      50.105  25.826  27.474  1.00  0.00     0.010 A 
ATOM     67  C   UNL A   1      49.577  26.486  25.201  1.00  0.00     0.010 A 
ATOM     68  C   UNL A   1      51.383  25.432  27.067  1.00  0.00     0.020 A 
ATOM     69  C   UNL A   1      50.846  26.067  24.785  1.00  0.00     0.020 A 
ATOM     70  C   UNL A   1      51.747  25.562  25.724  1.00  0.00     0.054 A 
BRANCH  70  71
ATOM     71  S   UNL A   1      53.410  25.047  25.211  1.00  0.00     0.124 S 
ATOM     72  O   UNL A   1      53.300  23.591  25.224  1.00  0.00    -0.237 OA
ATOM     73  O   UNL A   1      53.543  25.660  23.891  1.00  0.00    -0.237 OA
ATOM     74  O   UNL A   1      54.275  25.620  26.240  1.00  0.00    -0.744 OA
ENDBRANCH  70  71
ENDBRANCH  51  65
BRANCH  52  75
ATOM     75  C   UNL A   1      40.243  29.682  29.556  1.00  0.00    -0.014 A 
ATOM     76  C   UNL A   1      39.295  29.986  28.561  1.00  0.00     0.010 A 
ATOM     77  C   UNL A   1      39.938  29.960  30.898  1.00  0.00     0.010 A 
ATOM     78  C   UNL A   1      38.101  30.630  28.892  1.00  0.00     0.020 A 
ATOM     79  C   UNL A   1      38.729  30.576  31.238  1.00  0.00     0.020 A 
ATOM     80  C   UNL A   1      37.835  30.940  30.227  1.00  0.00     0.054 A 
BRANCH  80  81
ATOM     81  S   UNL A   1      36.318  31.851  30.626  1.00  0.00     0.124 S 
ATOM     82  O   UNL A   1      36.838  33.188  30.904  1.00  0.00    -0.237 OA
ATOM     83  O   UNL A   1      35.535  31.722  29.400  1.00  0.00    -0.237 OA
ATOM     84  O   UNL A   1      35.784  31.134  31.781  1.00  0.00    -0.744 OA
ENDBRANCH  80  81
ENDBRANCH  52  75
BRANCH  64  85
ATOM     85  C   UNL A   1      46.585  32.617  28.960  1.00  0.00    -0.014 A 
ATOM     86  C   UNL A   1      47.027  32.947  30.254  1.00  0.00     0.010 A 
ATOM     87  C   UNL A   1      46.522  33.621  27.978  1.00  0.00     0.010 A 
ATOM     88  C   UNL A   1      47.363  34.264  30.573  1.00  0.00     0.020 A 
ATOM     89  C   UNL A   1      46.883  34.936  28.288  1.00  0.00     0.020 A 
ATOM     90  C   UNL A   1      47.275  35.253  29.590  1.00  0.00     0.054 A 
BRANCH  90  91
ATOM     91  S   UNL A   1      47.677  36.965  30.032  1.00  0.00     0.124 S 
ATOM     92  O   UNL A   1      46.418  37.439  30.599  1.00  0.00    -0.237 OA
ATOM     93  O   UNL A   1      48.774  36.804  30.985  1.00  0.00    -0.237 OA
ATOM     94  O   UNL A   1      48.055  37.568  28.757  1.00  0.00    -0.744 OA
ENDBRANCH  90  91
ENDBRANCH  64  85
ENDBRANCH  38  39
ENDBRANCH  30  33
ENDBRANCH  28  29
ENDBRANCH   1  28
TORSDOF 17
ENDMDL
MODEL 3
REMARK VINA RESULT:     -11.8      3.517      4.349
REMARK SMILES CC[N@@H+](C)Cc1cc2c(cc1Cl)C=C(C(=O)NCCCNC(=O)c1ccc(-c3c4nc(c(-c5ccc(S(=O)(=O)[O-])cc5)c5ccc([nH]5)c(-c5ccc(S(=O)(=O)[O-])cc5)c5nc(c(-c6ccc(S(=O)(=O)[O-])cc6)c6ccc3[nH]6)C=C5)C=C4)cc1)[C@@H](C(F)(F)F)O2
REMARK SMILES IDX 19 1 18 2 17 3 15 4 16 5 14 7 6 8 7 9 11 10 8 11 10 12 12 13
REMARK SMILES IDX 9 14 89 15 13 16 84 17 5 18 3 19 4 20 2 22 1 23 85 24 86 25
REMARK SMILES IDX 87 26 88 27 20 28 21 29 22 30 23 32 24 33 25 34 83 35 26 36
REMARK SMILES IDX 82 37 27 38 28 39 29 40 76 41 30 42 81 43 75 44 77 45 31 46
REMARK SMILES IDX 80 47 74 48 73 49 32 51 62 52 43 53 61 54 44 55 47 56 60 57
REMARK SMILES IDX 78 58 45 59 46 60 59 62 79 63 48 64 33 65 34 66 42 67 35 68
REMARK SMILES IDX 41 69 36 70 37 71 38 72 39 73 40 74 63 75 64 76 72 77 65 78
REMARK SMILES IDX 71 79 66 80 67 81 68 82 69 83 70 84 49 85 50 86 58 87 51 88
REMARK SMILES IDX 57 89 52 90 53 91 54 92 55 93 56 94
REMARK H PARENT 17 6 3 21 21 31 77 50 47 61
REMARK Flexibility Score: inf
ROOT
ATOM      1  C   UNL A   1      36.025  22.522  24.977  1.00  0.00     0.042 C 
ENDROOT
BRANCH   1   2
ATOM      2  C   UNL A   1      35.795  21.536  26.112  1.00  0.00     0.118 C 
BRANCH   2   3
ATOM      3  N   UNL A   1      34.792  20.537  25.777  1.00  0.00    -0.352 N 
ATOM      4  C   UNL A   1      33.528  20.525  25.294  1.00  0.00     0.251 C 
ATOM      5  O   UNL A   1      33.030  19.405  25.144  1.00  0.00    -0.270 OA
ATOM      6  H   UNL A   1      35.121  19.625  25.947  1.00  0.00     0.163 HD
BRANCH   4   7
ATOM      7  C   UNL A   1      32.736  21.735  24.937  1.00  0.00     0.067 C 
ATOM      8  C   UNL A   1      30.933  25.934  22.853  1.00  0.00     0.029 A 
ATOM      9  C   UNL A   1      30.455  25.030  23.815  1.00  0.00     0.058 A 
ATOM     10  C   UNL A   1      32.046  25.548  22.084  1.00  0.00     0.050 A 
ATOM     11  C   UNL A   1      31.149  23.861  24.095  1.00  0.00     0.128 A 
ATOM     12  C   UNL A   1      32.706  24.334  22.331  1.00  0.00     0.033 A 
ATOM     13  Cl  UNL A   1      32.675  26.533  20.811  1.00  0.00    -0.084 Cl
ATOM     14  C   UNL A   1      32.280  23.503  23.366  1.00  0.00     0.019 A 
ATOM     15  O   UNL A   1      30.683  23.104  25.133  1.00  0.00    -0.475 OA
ATOM     16  C   UNL A   1      32.986  22.278  23.729  1.00  0.00     0.025 C 
ATOM     17  C   UNL A   1      31.726  22.382  25.846  1.00  0.00     0.314 C 
BRANCH   8  18
ATOM     18  C   UNL A   1      30.257  27.288  22.745  1.00  0.00     0.300 C 
BRANCH  18  19
ATOM     19  N   UNL A   1      30.460  28.221  23.878  1.00  0.00    -0.334 N 
ATOM     20  C   UNL A   1      29.974  29.568  23.577  1.00  0.00     0.333 C 
ATOM     21  H   UNL A   1      29.892  27.807  24.616  1.00  0.00     0.348 HD
BRANCH  19  22
ATOM     22  C   UNL A   1      31.819  28.281  24.431  1.00  0.00     0.258 C 
ATOM     23  C   UNL A   1      31.870  28.639  25.913  1.00  0.00     0.071 C 
ENDBRANCH  19  22
ENDBRANCH  18  19
ENDBRANCH   8  18
BRANCH  17  24
ATOM     24  C   UNL A   1      32.380  23.303  26.900  1.00  0.00     0.429 C 
ATOM     25  F   UNL A   1      32.725  22.595  28.004  1.00  0.00    -0.167 F 
ATOM     26  F   UNL A   1      33.516  23.887  26.446  1.00  0.00    -0.167 F 
ATOM     27  F   UNL A   1      31.570  24.308  27.305  1.00  0.00    -0.167 F 
ENDBRANCH  17  24
ENDBRANCH   4   7
ENDBRANCH   2   3
ENDBRANCH   1   2
BRANCH   1  28
ATOM     28  C   UNL A   1      37.274  23.369  25.185  1.00  0.00     0.118 C 
BRANCH  28  29
ATOM     29  N   UNL A   1      38.456  22.553  25.462  1.00  0.00    -0.352 N 
ATOM     30  C   UNL A   1      39.639  22.882  26.080  1.00  0.00     0.251 C 
ATOM     31  H   UNL A   1      38.394  21.619  25.158  1.00  0.00     0.163 HD
ATOM     32  O   UNL A   1      40.590  22.107  26.020  1.00  0.00    -0.269 OA
BRANCH  30  33
ATOM     33  C   UNL A   1      39.769  24.170  26.790  1.00  0.00     0.039 A 
ATOM     34  C   UNL A   1      40.409  25.246  26.178  1.00  0.00     0.014 A 
ATOM     35  C   UNL A   1      39.257  24.303  28.084  1.00  0.00     0.014 A 
ATOM     36  C   UNL A   1      40.724  26.372  26.925  1.00  0.00     0.010 A 
ATOM     37  C   UNL A   1      39.476  25.484  28.798  1.00  0.00     0.010 A 
ATOM     38  C   UNL A   1      40.261  26.507  28.244  1.00  0.00    -0.014 A 
BRANCH  38  39
ATOM     39  C   UNL A   1      40.624  27.727  29.012  1.00  0.00     0.031 A 
ATOM     40  C   UNL A   1      42.024  27.923  29.531  1.00  0.00     0.074 A 
ATOM     41  C   UNL A   1      39.703  28.700  29.161  1.00  0.00     0.049 A 
ATOM     42  N   UNL A   1      42.524  28.953  30.165  1.00  0.00    -0.248 NA
ATOM     43  C   UNL A   1      42.988  26.832  29.314  1.00  0.00     0.031 C 
ATOM     44  C   UNL A   1      38.322  28.629  28.677  1.00  0.00     0.029 A 
ATOM     45  N   UNL A   1      39.796  29.954  29.710  1.00  0.00    -0.354 N 
ATOM     46  C   UNL A   1      43.847  28.626  30.443  1.00  0.00     0.074 A 
ATOM     47  C   UNL A   1      44.068  27.292  29.932  1.00  0.00     0.031 C 
ATOM     48  C   UNL A   1      37.728  29.815  28.868  1.00  0.00     0.029 A 
ATOM     49  C   UNL A   1      38.652  30.703  29.564  1.00  0.00     0.049 A 
ATOM     50  H   UNL A   1      40.604  30.286  30.166  1.00  0.00     0.167 HD
ATOM     51  C   UNL A   1      44.791  29.375  31.056  1.00  0.00     0.031 A 
ATOM     52  C   UNL A   1      38.367  31.964  29.947  1.00  0.00     0.031 A 
ATOM     53  C   UNL A   1      44.567  30.712  31.542  1.00  0.00     0.049 A 
ATOM     54  C   UNL A   1      39.420  32.764  30.654  1.00  0.00     0.074 A 
ATOM     55  C   UNL A   1      45.465  31.554  32.174  1.00  0.00     0.029 A 
ATOM     56  N   UNL A   1      43.369  31.405  31.443  1.00  0.00    -0.354 N 
ATOM     57  N   UNL A   1      40.660  32.427  30.922  1.00  0.00    -0.248 NA
ATOM     58  C   UNL A   1      39.042  34.105  31.116  1.00  0.00     0.031 C 
ATOM     59  C   UNL A   1      44.795  32.735  32.507  1.00  0.00     0.029 A 
ATOM     60  C   UNL A   1      43.498  32.655  32.022  1.00  0.00     0.049 A 
ATOM     61  H   UNL A   1      42.549  31.059  31.023  1.00  0.00     0.167 HD
ATOM     62  C   UNL A   1      41.212  33.516  31.585  1.00  0.00     0.074 A 
ATOM     63  C   UNL A   1      40.180  34.530  31.655  1.00  0.00     0.031 C 
ATOM     64  C   UNL A   1      42.459  33.654  32.094  1.00  0.00     0.031 A 
BRANCH  51  65
ATOM     65  C   UNL A   1      46.160  28.778  31.254  1.00  0.00    -0.014 A 
ATOM     66  C   UNL A   1      47.123  28.890  30.234  1.00  0.00     0.010 A 
ATOM     67  C   UNL A   1      46.465  28.022  32.401  1.00  0.00     0.010 A 
ATOM     68  C   UNL A   1      48.356  28.242  30.344  1.00  0.00     0.020 A 
ATOM     69  C   UNL A   1      47.709  27.394  32.526  1.00  0.00     0.020 A 
ATOM     70  C   UNL A   1      48.639  27.491  31.488  1.00  0.00     0.054 A 
BRANCH  70  71
ATOM     71  S   UNL A   1      50.243  26.653  31.616  1.00  0.00     0.124 S 
ATOM     72  O   UNL A   1      50.434  26.571  33.061  1.00  0.00    -0.237 OA
ATOM     73  O   UNL A   1      49.998  25.383  30.937  1.00  0.00    -0.237 OA
ATOM     74  O   UNL A   1      51.153  27.556  30.914  1.00  0.00    -0.744 OA
ENDBRANCH  70  71
ENDBRANCH  51  65
BRANCH  52  75
ATOM     75  C   UNL A   1      37.023  32.522  29.636  1.00  0.00    -0.014 A 
ATOM     76  C   UNL A   1      36.794  33.179  28.412  1.00  0.00     0.010 A 
ATOM     77  C   UNL A   1      36.007  32.512  30.606  1.00  0.00     0.010 A 
ATOM     78  C   UNL A   1      35.606  33.879  28.194  1.00  0.00     0.020 A 
ATOM     79  C   UNL A   1      34.802  33.186  30.379  1.00  0.00     0.020 A 
ATOM     80  C   UNL A   1      34.626  33.896  29.188  1.00  0.00     0.054 A 
BRANCH  80  81
ATOM     81  S   UNL A   1      33.127  34.881  28.919  1.00  0.00     0.124 S 
ATOM     82  O   UNL A   1      32.424  34.084  27.917  1.00  0.00    -0.237 OA
ATOM     83  O   UNL A   1      32.516  34.905  30.245  1.00  0.00    -0.237 OA
ATOM     84  O   UNL A   1      33.641  36.164  28.450  1.00  0.00    -0.744 OA
ENDBRANCH  80  81
ENDBRANCH  52  75
BRANCH  64  85
ATOM     85  C   UNL A   1      42.801  34.945  32.788  1.00  0.00    -0.014 A 
ATOM     86  C   UNL A   1      43.441  35.973  32.072  1.00  0.00     0.010 A 
ATOM     87  C   UNL A   1      42.613  35.085  34.174  1.00  0.00     0.010 A 
ATOM     88  C   UNL A   1      43.922  37.103  32.735  1.00  0.00     0.020 A 
ATOM     89  C   UNL A   1      43.070  36.228  34.836  1.00  0.00     0.020 A 
ATOM     90  C   UNL A   1      43.745  37.217  34.116  1.00  0.00     0.054 A 
BRANCH  90  91
ATOM     91  S   UNL A   1      44.411  38.673  34.968  1.00  0.00     0.124 S 
ATOM     92  O   UNL A   1      44.080  38.391  36.362  1.00  0.00    -0.237 OA
ATOM     93  O   UNL A   1      45.834  38.619  34.636  1.00  0.00    -0.237 OA
ATOM     94  O   UNL A   1      43.682  39.786  34.365  1.00  0.00    -0.744 OA
ENDBRANCH  90  91
ENDBRANCH  64  85
ENDBRANCH  38  39
ENDBRANCH  30  33
ENDBRANCH  28  29
ENDBRANCH   1  28
TORSDOF 17
ENDMDL
