MODEL 1
REMARK VINA RESULT:     -11.9      0.000      0.000
REMARK SMILES COc1cccc(Cn2c(=O)c(=O)n(CC(=O)NCCCNC(=O)c3ccc(-c4c5nc(c(-c6ccc(S(=O)(=O)[O-])cc6)c6ccc([nH]6)c(-c6ccc(S(=O)(=O)[O-])cc6)c6nc(c(-c7ccc(S(=O)(=O)[O-])cc7)c7ccc4[nH]7)C=C6)C=C5)cc3)c3ccccc32)c1
REMARK SMILES IDX 19 1 18 2 16 3 17 4 15 6 14 7 9 8 10 9 90 10 11 11 12 12
REMARK SMILES IDX 85 13 89 14 13 15 86 16 88 17 87 18 8 19 7 20 3 21 4 22
REMARK SMILES IDX 91 23 5 24 6 25 2 26 1 27 20 28 21 29 22 30 23 31 24 33
REMARK SMILES IDX 25 34 26 35 84 36 27 37 83 38 28 39 29 40 30 41 77 42 31 43
REMARK SMILES IDX 82 44 76 45 78 46 32 47 81 48 75 49 74 50 33 52 63 53 44 54
REMARK SMILES IDX 62 55 45 56 48 57 61 58 79 59 46 60 47 61 60 63 80 64 49 65
REMARK SMILES IDX 34 66 35 67 43 68 36 69 42 70 37 71 38 72 39 73 40 74 41 75
REMARK SMILES IDX 64 76 65 77 73 78 66 79 72 80 67 81 68 82 69 83 70 84 71 85
REMARK SMILES IDX 50 86 51 87 59 88 52 89 58 90 53 91 54 92 55 93 56 94 57 95
REMARK H PARENT 18 5 22 32 78 51 48 62
REMARK Flexibility Score: inf
ROOT
ATOM      1  C   UNL A   1      31.798  28.925  25.082  1.00  0.00     0.117 C 
ENDROOT
BRANCH   1   2
ATOM      2  N   UNL A   1      31.422  29.451  23.787  1.00  0.00    -0.354 N 
ATOM      3  C   UNL A   1      30.717  28.903  22.767  1.00  0.00     0.240 C 
ATOM      4  O   UNL A   1      30.492  29.648  21.802  1.00  0.00    -0.273 OA
ATOM      5  H   UNL A   1      31.732  30.370  23.617  1.00  0.00     0.163 HD
BRANCH   3   6
ATOM      6  C   UNL A   1      30.001  27.548  22.828  1.00  0.00     0.226 C 
BRANCH   6   7
ATOM      7  N   UNL A   1      30.630  26.241  22.930  1.00  0.00    -0.293 N 
ATOM      8  N   UNL A   1      32.220  23.928  23.083  1.00  0.00    -0.298 N 
ATOM      9  C   UNL A   1      32.671  25.014  22.363  1.00  0.00     0.317 A 
ATOM     10  C   UNL A   1      31.355  24.227  24.169  1.00  0.00     0.068 A 
ATOM     11  O   UNL A   1      33.831  25.221  22.023  1.00  0.00    -0.263 OA
ATOM     12  C   UNL A   1      31.549  25.944  21.932  1.00  0.00     0.317 A 
ATOM     13  C   UNL A   1      30.593  25.434  24.119  1.00  0.00     0.069 A 
ATOM     14  C   UNL A   1      31.388  23.469  25.348  1.00  0.00     0.028 A 
ATOM     15  O   UNL A   1      31.568  26.428  20.805  1.00  0.00    -0.263 OA
ATOM     16  C   UNL A   1      29.844  25.810  25.240  1.00  0.00     0.028 A 
ATOM     17  C   UNL A   1      30.695  23.909  26.479  1.00  0.00     0.002 A 
ATOM     18  C   UNL A   1      29.917  25.065  26.421  1.00  0.00     0.002 A 
BRANCH   8  19
ATOM     19  C   UNL A   1      32.688  22.606  22.677  1.00  0.00     0.162 C 
BRANCH  19  20
ATOM     20  C   UNL A   1      33.610  22.052  23.781  1.00  0.00    -0.024 A 
ATOM     21  C   UNL A   1      35.858  22.049  24.733  1.00  0.00     0.119 A 
ATOM     22  C   UNL A   1      35.664  20.748  25.180  1.00  0.00     0.046 A 
ATOM     23  C   UNL A   1      34.807  22.730  24.121  1.00  0.00     0.052 A 
ATOM     24  C   UNL A   1      34.430  20.124  25.005  1.00  0.00     0.004 A 
ATOM     25  C   UNL A   1      33.418  20.757  24.278  1.00  0.00     0.006 A 
BRANCH  21  26
ATOM     26  O   UNL A   1      37.157  22.477  24.713  1.00  0.00    -0.497 OA
ATOM     27  C   UNL A   1      37.434  23.654  25.456  1.00  0.00     0.278 C 
ENDBRANCH  21  26
ENDBRANCH  19  20
ENDBRANCH   8  19
ENDBRANCH   6   7
ENDBRANCH   3   6
ENDBRANCH   1   2
BRANCH   1  28
ATOM     28  C   UNL A   1      33.184  28.291  25.055  1.00  0.00     0.042 C 
BRANCH  28  29
ATOM     29  C   UNL A   1      33.945  28.452  26.370  1.00  0.00     0.118 C 
BRANCH  29  30
ATOM     30  N   UNL A   1      33.745  29.767  26.962  1.00  0.00    -0.352 N 
ATOM     31  C   UNL A   1      34.549  30.477  27.817  1.00  0.00     0.251 C 
ATOM     32  H   UNL A   1      32.903  30.213  26.713  1.00  0.00     0.163 HD
ATOM     33  O   UNL A   1      34.103  31.489  28.352  1.00  0.00    -0.269 OA
BRANCH  31  34
ATOM     34  C   UNL A   1      35.932  30.038  28.112  1.00  0.00     0.039 A 
ATOM     35  C   UNL A   1      36.218  29.559  29.396  1.00  0.00     0.014 A 
ATOM     36  C   UNL A   1      36.960  30.156  27.171  1.00  0.00     0.014 A 
ATOM     37  C   UNL A   1      37.521  29.182  29.729  1.00  0.00     0.010 A 
ATOM     38  C   UNL A   1      38.245  29.717  27.483  1.00  0.00     0.010 A 
ATOM     39  C   UNL A   1      38.543  29.250  28.770  1.00  0.00    -0.014 A 
BRANCH  39  40
ATOM     40  C   UNL A   1      39.940  28.883  29.113  1.00  0.00     0.031 A 
ATOM     41  C   UNL A   1      40.833  29.889  29.788  1.00  0.00     0.074 A 
ATOM     42  C   UNL A   1      40.414  27.669  28.776  1.00  0.00     0.049 A 
ATOM     43  N   UNL A   1      42.097  29.786  30.112  1.00  0.00    -0.248 NA
ATOM     44  C   UNL A   1      40.235  31.194  30.120  1.00  0.00     0.031 C 
ATOM     45  C   UNL A   1      39.652  26.622  28.089  1.00  0.00     0.029 A 
ATOM     46  N   UNL A   1      41.652  27.110  28.960  1.00  0.00    -0.354 N 
ATOM     47  C   UNL A   1      42.448  31.015  30.660  1.00  0.00     0.074 A 
ATOM     48  C   UNL A   1      41.280  31.863  30.585  1.00  0.00     0.031 C 
ATOM     49  C   UNL A   1      40.433  25.541  27.932  1.00  0.00     0.029 A 
ATOM     50  C   UNL A   1      41.757  25.828  28.474  1.00  0.00     0.049 A 
ATOM     51  H   UNL A   1      42.397  27.581  29.401  1.00  0.00     0.167 HD
ATOM     52  C   UNL A   1      43.633  31.397  31.195  1.00  0.00     0.031 A 
ATOM     53  C   UNL A   1      42.805  24.982  28.461  1.00  0.00     0.031 A 
ATOM     54  C   UNL A   1      44.782  30.538  31.289  1.00  0.00     0.049 A 
ATOM     55  C   UNL A   1      44.105  25.421  29.075  1.00  0.00     0.074 A 
ATOM     56  C   UNL A   1      46.013  30.807  31.863  1.00  0.00     0.029 A 
ATOM     57  N   UNL A   1      44.840  29.241  30.804  1.00  0.00    -0.354 N 
ATOM     58  N   UNL A   1      44.403  26.571  29.634  1.00  0.00    -0.248 NA
ATOM     59  C   UNL A   1      45.206  24.450  29.067  1.00  0.00     0.031 C 
ATOM     60  C   UNL A   1      46.828  29.683  31.690  1.00  0.00     0.029 A 
ATOM     61  C   UNL A   1      46.089  28.698  31.052  1.00  0.00     0.049 A 
ATOM     62  H   UNL A   1      44.101  28.774  30.352  1.00  0.00     0.167 HD
ATOM     63  C   UNL A   1      45.719  26.451  30.065  1.00  0.00     0.074 A 
ATOM     64  C   UNL A   1      46.153  25.113  29.715  1.00  0.00     0.031 C 
ATOM     65  C   UNL A   1      46.498  27.364  30.695  1.00  0.00     0.031 A 
BRANCH  52  66
ATOM     66  C   UNL A   1      43.740  32.807  31.715  1.00  0.00    -0.014 A 
ATOM     67  C   UNL A   1      43.616  33.085  33.088  1.00  0.00     0.010 A 
ATOM     68  C   UNL A   1      43.996  33.864  30.824  1.00  0.00     0.010 A 
ATOM     69  C   UNL A   1      43.702  34.399  33.555  1.00  0.00     0.020 A 
ATOM     70  C   UNL A   1      44.109  35.177  31.290  1.00  0.00     0.020 A 
ATOM     71  C   UNL A   1      43.943  35.439  32.653  1.00  0.00     0.054 A 
BRANCH  71  72
ATOM     72  S   UNL A   1      44.067  37.133  33.287  1.00  0.00     0.124 S 
ATOM     73  O   UNL A   1      42.746  37.329  33.879  1.00  0.00    -0.237 OA
ATOM     74  O   UNL A   1      45.172  37.041  34.238  1.00  0.00    -0.237 OA
ATOM     75  O   UNL A   1      44.340  37.932  32.095  1.00  0.00    -0.744 OA
ENDBRANCH  71  72
ENDBRANCH  52  66
BRANCH  53  76
ATOM     76  C   UNL A   1      42.657  23.627  27.865  1.00  0.00    -0.014 A 
ATOM     77  C   UNL A   1      42.225  22.545  28.652  1.00  0.00     0.010 A 
ATOM     78  C   UNL A   1      42.923  23.417  26.500  1.00  0.00     0.010 A 
ATOM     79  C   UNL A   1      42.080  21.273  28.091  1.00  0.00     0.020 A 
ATOM     80  C   UNL A   1      42.755  22.152  25.928  1.00  0.00     0.020 A 
ATOM     81  C   UNL A   1      42.345  21.086  26.731  1.00  0.00     0.054 A 
BRANCH  81  82
ATOM     82  S   UNL A   1      42.094  19.440  26.007  1.00  0.00     0.124 S 
ATOM     83  O   UNL A   1      42.573  18.565  27.072  1.00  0.00    -0.237 OA
ATOM     84  O   UNL A   1      40.654  19.415  25.764  1.00  0.00    -0.237 OA
ATOM     85  O   UNL A   1      42.919  19.470  24.801  1.00  0.00    -0.744 OA
ENDBRANCH  81  82
ENDBRANCH  53  76
BRANCH  65  86
ATOM     86  C   UNL A   1      47.889  26.939  31.074  1.00  0.00    -0.014 A 
ATOM     87  C   UNL A   1      48.142  26.293  32.297  1.00  0.00     0.010 A 
ATOM     88  C   UNL A   1      48.945  27.135  30.166  1.00  0.00     0.010 A 
ATOM     89  C   UNL A   1      49.435  25.874  32.617  1.00  0.00     0.020 A 
ATOM     90  C   UNL A   1      50.234  26.694  30.473  1.00  0.00     0.020 A 
ATOM     91  C   UNL A   1      50.474  26.078  31.703  1.00  0.00     0.054 A 
BRANCH  91  92
ATOM     92  S   UNL A   1      52.134  25.479  32.119  1.00  0.00     0.124 S 
ATOM     93  O   UNL A   1      52.900  25.868  30.938  1.00  0.00    -0.237 OA
ATOM     94  O   UNL A   1      52.445  26.217  33.342  1.00  0.00    -0.237 OA
ATOM     95  O   UNL A   1      51.948  24.041  32.297  1.00  0.00    -0.744 OA
ENDBRANCH  91  92
ENDBRANCH  65  86
ENDBRANCH  39  40
ENDBRANCH  31  34
ENDBRANCH  29  30
ENDBRANCH  28  29
ENDBRANCH   1  28
TORSDOF 17
ENDMDL
MODEL 2
REMARK VINA RESULT:     -11.5      1.358      2.219
REMARK SMILES COc1cccc(Cn2c(=O)c(=O)n(CC(=O)NCCCNC(=O)c3ccc(-c4c5nc(c(-c6ccc(S(=O)(=O)[O-])cc6)c6ccc([nH]6)c(-c6ccc(S(=O)(=O)[O-])cc6)c6nc(c(-c7ccc(S(=O)(=O)[O-])cc7)c7ccc4[nH]7)C=C6)C=C5)cc3)c3ccccc32)c1
REMARK SMILES IDX 19 1 18 2 16 3 17 4 15 6 14 7 9 8 10 9 90 10 11 11 12 12
REMARK SMILES IDX 85 13 89 14 13 15 86 16 88 17 87 18 8 19 7 20 3 21 4 22
REMARK SMILES IDX 91 23 5 24 6 25 2 26 1 27 20 28 21 29 22 30 23 31 24 33
REMARK SMILES IDX 25 34 26 35 84 36 27 37 83 38 28 39 29 40 30 41 77 42 31 43
REMARK SMILES IDX 82 44 76 45 78 46 32 47 81 48 75 49 74 50 33 52 63 53 44 54
REMARK SMILES IDX 62 55 45 56 48 57 61 58 79 59 46 60 47 61 60 63 80 64 49 65
REMARK SMILES IDX 34 66 35 67 43 68 36 69 42 70 37 71 38 72 39 73 40 74 41 75
REMARK SMILES IDX 64 76 65 77 73 78 66 79 72 80 67 81 68 82 69 83 70 84 71 85
REMARK SMILES IDX 50 86 51 87 59 88 52 89 58 90 53 91 54 92 55 93 56 94 57 95
REMARK H PARENT 18 5 22 32 78 51 48 62
REMARK Flexibility Score: inf
ROOT
ATOM      1  C   UNL A   1      31.956  29.348  24.981  1.00  0.00     0.117 C 
ENDROOT
BRANCH   1   2
ATOM      2  N   UNL A   1      31.247  29.254  23.722  1.00  0.00    -0.354 N 
ATOM      3  C   UNL A   1      30.481  28.266  23.196  1.00  0.00     0.240 C 
ATOM      4  O   UNL A   1      29.938  28.522  22.112  1.00  0.00    -0.273 OA
ATOM      5  H   UNL A   1      31.336  30.047  23.147  1.00  0.00     0.163 HD
BRANCH   3   6
ATOM      6  C   UNL A   1      30.066  26.992  23.941  1.00  0.00     0.226 C 
BRANCH   6   7
ATOM      7  N   UNL A   1      30.939  25.902  24.346  1.00  0.00    -0.293 N 
ATOM      8  N   UNL A   1      32.260  23.573  25.203  1.00  0.00    -0.298 N 
ATOM      9  C   UNL A   1      31.003  23.859  25.694  1.00  0.00     0.317 A 
ATOM     10  C   UNL A   1      32.539  24.069  23.902  1.00  0.00     0.068 A 
ATOM     11  O   UNL A   1      30.243  23.062  26.233  1.00  0.00    -0.263 OA
ATOM     12  C   UNL A   1      30.644  25.331  25.578  1.00  0.00     0.317 A 
ATOM     13  C   UNL A   1      31.822  25.217  23.444  1.00  0.00     0.069 A 
ATOM     14  C   UNL A   1      33.346  23.348  23.012  1.00  0.00     0.028 A 
ATOM     15  O   UNL A   1      30.060  25.884  26.504  1.00  0.00    -0.263 OA
ATOM     16  C   UNL A   1      31.986  25.632  22.117  1.00  0.00     0.028 A 
ATOM     17  C   UNL A   1      33.429  23.737  21.673  1.00  0.00     0.002 A 
ATOM     18  C   UNL A   1      32.763  24.880  21.231  1.00  0.00     0.002 A 
BRANCH   8  19
ATOM     19  C   UNL A   1      33.151  22.784  26.047  1.00  0.00     0.162 C 
BRANCH  19  20
ATOM     20  C   UNL A   1      33.493  21.474  25.310  1.00  0.00    -0.024 A 
ATOM     21  C   UNL A   1      32.829  19.169  24.858  1.00  0.00     0.119 A 
ATOM     22  C   UNL A   1      34.163  18.820  24.693  1.00  0.00     0.046 A 
ATOM     23  C   UNL A   1      32.488  20.504  25.072  1.00  0.00     0.052 A 
ATOM     24  C   UNL A   1      35.155  19.797  24.754  1.00  0.00     0.004 A 
ATOM     25  C   UNL A   1      34.829  21.112  25.096  1.00  0.00     0.006 A 
BRANCH  21  26
ATOM     26  O   UNL A   1      31.965  18.125  25.041  1.00  0.00    -0.497 OA
ATOM     27  C   UNL A   1      32.530  16.938  25.575  1.00  0.00     0.278 C 
ENDBRANCH  21  26
ENDBRANCH  19  20
ENDBRANCH   8  19
ENDBRANCH   6   7
ENDBRANCH   3   6
ENDBRANCH   1   2
BRANCH   1  28
ATOM     28  C   UNL A   1      33.249  28.540  24.964  1.00  0.00     0.042 C 
BRANCH  28  29
ATOM     29  C   UNL A   1      34.031  28.631  26.274  1.00  0.00     0.118 C 
BRANCH  29  30
ATOM     30  N   UNL A   1      33.812  29.897  26.957  1.00  0.00    -0.352 N 
ATOM     31  C   UNL A   1      34.590  30.541  27.885  1.00  0.00     0.251 C 
ATOM     32  H   UNL A   1      32.977  30.361  26.719  1.00  0.00     0.163 HD
ATOM     33  O   UNL A   1      34.128  31.510  28.483  1.00  0.00    -0.269 OA
BRANCH  31  34
ATOM     34  C   UNL A   1      35.966  30.081  28.185  1.00  0.00     0.039 A 
ATOM     35  C   UNL A   1      36.238  29.590  29.468  1.00  0.00     0.014 A 
ATOM     36  C   UNL A   1      37.000  30.190  27.251  1.00  0.00     0.014 A 
ATOM     37  C   UNL A   1      37.534  29.194  29.805  1.00  0.00     0.010 A 
ATOM     38  C   UNL A   1      38.278  29.731  27.566  1.00  0.00     0.010 A 
ATOM     39  C   UNL A   1      38.562  29.253  28.853  1.00  0.00    -0.014 A 
BRANCH  39  40
ATOM     40  C   UNL A   1      39.952  28.864  29.201  1.00  0.00     0.031 A 
ATOM     41  C   UNL A   1      40.849  29.848  29.903  1.00  0.00     0.074 A 
ATOM     42  C   UNL A   1      40.415  27.651  28.844  1.00  0.00     0.049 A 
ATOM     43  N   UNL A   1      42.109  29.725  30.236  1.00  0.00    -0.248 NA
ATOM     44  C   UNL A   1      40.262  31.152  30.254  1.00  0.00     0.031 C 
ATOM     45  C   UNL A   1      39.649  26.627  28.131  1.00  0.00     0.029 A 
ATOM     46  N   UNL A   1      41.646  27.076  29.029  1.00  0.00    -0.354 N 
ATOM     47  C   UNL A   1      42.468  30.939  30.810  1.00  0.00     0.074 A 
ATOM     48  C   UNL A   1      41.310  31.801  30.740  1.00  0.00     0.031 C 
ATOM     49  C   UNL A   1      40.419  25.540  27.960  1.00  0.00     0.029 A 
ATOM     50  C   UNL A   1      41.742  25.802  28.519  1.00  0.00     0.049 A 
ATOM     51  H   UNL A   1      42.391  27.530  29.485  1.00  0.00     0.167 HD
ATOM     52  C   UNL A   1      43.652  31.298  31.362  1.00  0.00     0.031 A 
ATOM     53  C   UNL A   1      42.781  24.945  28.499  1.00  0.00     0.031 A 
ATOM     54  C   UNL A   1      44.792  30.425  31.451  1.00  0.00     0.049 A 
ATOM     55  C   UNL A   1      44.080  25.359  29.133  1.00  0.00     0.074 A 
ATOM     56  C   UNL A   1      46.020  30.670  32.040  1.00  0.00     0.029 A 
ATOM     57  N   UNL A   1      44.840  29.137  30.941  1.00  0.00    -0.354 N 
ATOM     58  N   UNL A   1      44.385  26.495  29.716  1.00  0.00    -0.248 NA
ATOM     59  C   UNL A   1      45.170  24.376  29.116  1.00  0.00     0.031 C 
ATOM     60  C   UNL A   1      46.824  29.540  31.853  1.00  0.00     0.029 A 
ATOM     61  C   UNL A   1      46.080  28.576  31.190  1.00  0.00     0.049 A 
ATOM     62  H   UNL A   1      44.100  28.686  30.473  1.00  0.00     0.167 HD
ATOM     63  C   UNL A   1      45.695  26.352  30.157  1.00  0.00     0.074 A 
ATOM     64  C   UNL A   1      46.118  25.016  29.785  1.00  0.00     0.031 C 
ATOM     65  C   UNL A   1      46.478  27.245  30.811  1.00  0.00     0.031 A 
BRANCH  52  66
ATOM     66  C   UNL A   1      43.769  32.697  31.910  1.00  0.00    -0.014 A 
ATOM     67  C   UNL A   1      43.496  32.971  33.263  1.00  0.00     0.010 A 
ATOM     68  C   UNL A   1      44.186  33.745  31.071  1.00  0.00     0.010 A 
ATOM     69  C   UNL A   1      43.594  34.276  33.754  1.00  0.00     0.020 A 
ATOM     70  C   UNL A   1      44.311  35.047  31.565  1.00  0.00     0.020 A 
ATOM     71  C   UNL A   1      43.996  35.307  32.901  1.00  0.00     0.054 A 
BRANCH  71  72
ATOM     72  S   UNL A   1      44.131  36.988  33.568  1.00  0.00     0.124 S 
ATOM     73  O   UNL A   1      44.883  36.762  34.800  1.00  0.00    -0.237 OA
ATOM     74  O   UNL A   1      44.853  37.696  32.514  1.00  0.00    -0.237 OA
ATOM     75  O   UNL A   1      42.742  37.401  33.753  1.00  0.00    -0.744 OA
ENDBRANCH  71  72
ENDBRANCH  52  66
BRANCH  53  76
ATOM     76  C   UNL A   1      42.623  23.604  27.876  1.00  0.00    -0.014 A 
ATOM     77  C   UNL A   1      42.951  23.404  26.524  1.00  0.00     0.010 A 
ATOM     78  C   UNL A   1      42.166  22.514  28.638  1.00  0.00     0.010 A 
ATOM     79  C   UNL A   1      42.808  22.142  25.939  1.00  0.00     0.020 A 
ATOM     80  C   UNL A   1      42.046  21.245  28.064  1.00  0.00     0.020 A 
ATOM     81  C   UNL A   1      42.357  21.069  26.715  1.00  0.00     0.054 A 
BRANCH  81  82
ATOM     82  S   UNL A   1      42.234  19.427  25.953  1.00  0.00     0.124 S 
ATOM     83  O   UNL A   1      43.092  19.571  24.782  1.00  0.00    -0.237 OA
ATOM     84  O   UNL A   1      42.740  18.549  27.006  1.00  0.00    -0.237 OA
ATOM     85  O   UNL A   1      40.807  19.289  25.672  1.00  0.00    -0.744 OA
ENDBRANCH  81  82
ENDBRANCH  53  76
BRANCH  65  86
ATOM     86  C   UNL A   1      47.862  26.797  31.194  1.00  0.00    -0.014 A 
ATOM     87  C   UNL A   1      48.084  26.050  32.364  1.00  0.00     0.010 A 
ATOM     88  C   UNL A   1      48.943  27.077  30.338  1.00  0.00     0.010 A 
ATOM     89  C   UNL A   1      49.370  25.613  32.686  1.00  0.00     0.020 A 
ATOM     90  C   UNL A   1      50.226  26.620  30.645  1.00  0.00     0.020 A 
ATOM     91  C   UNL A   1      50.434  25.902  31.824  1.00  0.00     0.054 A 
BRANCH  91  92
ATOM     92  S   UNL A   1      52.087  25.280  32.238  1.00  0.00     0.124 S 
ATOM     93  O   UNL A   1      52.426  26.081  33.410  1.00  0.00    -0.237 OA
ATOM     94  O   UNL A   1      51.843  23.863  32.493  1.00  0.00    -0.237 OA
ATOM     95  O   UNL A   1      52.873  25.564  31.040  1.00  0.00    -0.744 OA
ENDBRANCH  91  92
ENDBRANCH  65  86
ENDBRANCH  39  40
ENDBRANCH  31  34
ENDBRANCH  29  30
ENDBRANCH  28  29
ENDBRANCH   1  28
TORSDOF 17
ENDMDL
MODEL 3
REMARK VINA RESULT:     -11.5      1.360      2.402
REMARK SMILES COc1cccc(Cn2c(=O)c(=O)n(CC(=O)NCCCNC(=O)c3ccc(-c4c5nc(c(-c6ccc(S(=O)(=O)[O-])cc6)c6ccc([nH]6)c(-c6ccc(S(=O)(=O)[O-])cc6)c6nc(c(-c7ccc(S(=O)(=O)[O-])cc7)c7ccc4[nH]7)C=C6)C=C5)cc3)c3ccccc32)c1
REMARK SMILES IDX 19 1 18 2 16 3 17 4 15 6 14 7 9 8 10 9 90 10 11 11 12 12
REMARK SMILES IDX 85 13 89 14 13 15 86 16 88 17 87 18 8 19 7 20 3 21 4 22
REMARK SMILES IDX 91 23 5 24 6 25 2 26 1 27 20 28 21 29 22 30 23 31 24 33
REMARK SMILES IDX 25 34 26 35 84 36 27 37 83 38 28 39 29 40 30 41 77 42 31 43
REMARK SMILES IDX 82 44 76 45 78 46 32 47 81 48 75 49 74 50 33 52 63 53 44 54
REMARK SMILES IDX 62 55 45 56 48 57 61 58 79 59 46 60 47 61 60 63 80 64 49 65
REMARK SMILES IDX 34 66 35 67 43 68 36 69 42 70 37 71 38 72 39 73 40 74 41 75
REMARK SMILES IDX 64 76 65 77 73 78 66 79 72 80 67 81 68 82 69 83 70 84 71 85
REMARK SMILES IDX 50 86 51 87 59 88 52 89 58 90 53 91 54 92 55 93 56 94 57 95
REMARK H PARENT 18 5 22 32 78 51 48 62
REMARK Flexibility Score: inf
ROOT
ATOM      1  C   UNL A   1      32.104  27.601  24.595  1.00  0.00     0.117 C 
ENDROOT
BRANCH   1   2
ATOM      2  N   UNL A   1      32.984  27.538  23.447  1.00  0.00    -0.354 N 
ATOM      3  C   UNL A   1      33.245  26.535  22.572  1.00  0.00     0.240 C 
ATOM      4  O   UNL A   1      34.002  26.820  21.632  1.00  0.00    -0.273 OA
ATOM      5  H   UNL A   1      33.480  28.369  23.269  1.00  0.00     0.163 HD
BRANCH   3   6
ATOM      6  C   UNL A   1      32.505  25.193  22.535  1.00  0.00     0.226 C 
BRANCH   6   7
ATOM      7  N   UNL A   1      32.701  24.071  23.439  1.00  0.00    -0.293 N 
ATOM      8  N   UNL A   1      33.455  22.096  25.292  1.00  0.00    -0.298 N 
ATOM      9  C   UNL A   1      34.431  22.809  24.627  1.00  0.00     0.317 A 
ATOM     10  C   UNL A   1      32.225  22.777  25.492  1.00  0.00     0.068 A 
ATOM     11  O   UNL A   1      35.605  22.909  24.964  1.00  0.00    -0.263 OA
ATOM     12  C   UNL A   1      33.930  23.432  23.334  1.00  0.00     0.317 A 
ATOM     13  C   UNL A   1      31.871  23.822  24.586  1.00  0.00     0.069 A 
ATOM     14  C   UNL A   1      31.467  22.571  26.653  1.00  0.00     0.028 A 
ATOM     15  O   UNL A   1      34.646  23.411  22.338  1.00  0.00    -0.263 OA
ATOM     16  C   UNL A   1      30.733  24.592  24.851  1.00  0.00     0.028 A 
ATOM     17  C   UNL A   1      30.383  23.406  26.934  1.00  0.00     0.002 A 
ATOM     18  C   UNL A   1      30.009  24.401  26.032  1.00  0.00     0.002 A 
BRANCH   8  19
ATOM     19  C   UNL A   1      33.790  20.746  25.735  1.00  0.00     0.162 C 
BRANCH  19  20
ATOM     20  C   UNL A   1      33.068  19.737  24.820  1.00  0.00    -0.024 A 
ATOM     21  C   UNL A   1      32.911  17.413  24.090  1.00  0.00     0.119 A 
ATOM     22  C   UNL A   1      32.463  17.837  22.845  1.00  0.00     0.046 A 
ATOM     23  C   UNL A   1      33.122  18.350  25.101  1.00  0.00     0.052 A 
ATOM     24  C   UNL A   1      32.240  19.191  22.605  1.00  0.00     0.004 A 
ATOM     25  C   UNL A   1      32.573  20.143  23.573  1.00  0.00     0.006 A 
BRANCH  21  26
ATOM     26  O   UNL A   1      33.345  16.118  24.150  1.00  0.00    -0.497 OA
ATOM     27  C   UNL A   1      33.031  15.411  25.339  1.00  0.00     0.278 C 
ENDBRANCH  21  26
ENDBRANCH  19  20
ENDBRANCH   8  19
ENDBRANCH   6   7
ENDBRANCH   3   6
ENDBRANCH   1   2
BRANCH   1  28
ATOM     28  C   UNL A   1      32.842  27.288  25.892  1.00  0.00     0.042 C 
BRANCH  28  29
ATOM     29  C   UNL A   1      34.047  28.195  26.132  1.00  0.00     0.118 C 
BRANCH  29  30
ATOM     30  N   UNL A   1      33.661  29.485  26.684  1.00  0.00    -0.352 N 
ATOM     31  C   UNL A   1      34.306  30.278  27.600  1.00  0.00     0.251 C 
ATOM     32  H   UNL A   1      32.805  29.843  26.352  1.00  0.00     0.163 HD
ATOM     33  O   UNL A   1      33.712  31.242  28.077  1.00  0.00    -0.269 OA
BRANCH  31  34
ATOM     34  C   UNL A   1      35.693  29.983  28.027  1.00  0.00     0.039 A 
ATOM     35  C   UNL A   1      36.722  30.119  27.088  1.00  0.00     0.014 A 
ATOM     36  C   UNL A   1      35.983  29.510  29.310  1.00  0.00     0.014 A 
ATOM     37  C   UNL A   1      38.036  29.802  27.438  1.00  0.00     0.010 A 
ATOM     38  C   UNL A   1      37.304  29.259  29.680  1.00  0.00     0.010 A 
ATOM     39  C   UNL A   1      38.338  29.379  28.741  1.00  0.00    -0.014 A 
BRANCH  39  40
ATOM     40  C   UNL A   1      39.723  29.008  29.124  1.00  0.00     0.031 A 
ATOM     41  C   UNL A   1      40.595  30.010  29.835  1.00  0.00     0.074 A 
ATOM     42  C   UNL A   1      40.207  27.796  28.793  1.00  0.00     0.049 A 
ATOM     43  N   UNL A   1      41.848  29.903  30.197  1.00  0.00    -0.248 NA
ATOM     44  C   UNL A   1      39.987  31.312  30.157  1.00  0.00     0.031 C 
ATOM     45  C   UNL A   1      39.467  26.756  28.075  1.00  0.00     0.029 A 
ATOM     46  N   UNL A   1      41.439  27.236  29.012  1.00  0.00    -0.354 N 
ATOM     47  C   UNL A   1      42.182  31.128  30.765  1.00  0.00     0.074 A 
ATOM     48  C   UNL A   1      41.017  31.977  30.659  1.00  0.00     0.031 C 
ATOM     49  C   UNL A   1      40.252  25.675  27.935  1.00  0.00     0.029 A 
ATOM     50  C   UNL A   1      41.559  25.957  28.520  1.00  0.00     0.049 A 
ATOM     51  H   UNL A   1      42.169  27.703  29.480  1.00  0.00     0.167 HD
ATOM     52  C   UNL A   1      43.350  31.505  31.339  1.00  0.00     0.031 A 
ATOM     53  C   UNL A   1      42.607  25.111  28.533  1.00  0.00     0.031 A 
ATOM     54  C   UNL A   1      44.495  30.646  31.464  1.00  0.00     0.049 A 
ATOM     55  C   UNL A   1      43.887  25.546  29.191  1.00  0.00     0.074 A 
ATOM     56  C   UNL A   1      45.708  30.910  32.077  1.00  0.00     0.029 A 
ATOM     57  N   UNL A   1      44.568  29.352  30.971  1.00  0.00    -0.354 N 
ATOM     58  N   UNL A   1      44.167  26.691  29.767  1.00  0.00    -0.248 NA
ATOM     59  C   UNL A   1      44.987  24.573  29.211  1.00  0.00     0.031 C 
ATOM     60  C   UNL A   1      46.528  29.787  31.922  1.00  0.00     0.029 A 
ATOM     61  C   UNL A   1      45.808  28.807  31.254  1.00  0.00     0.049 A 
ATOM     62  H   UNL A   1      43.844  28.888  30.492  1.00  0.00     0.167 HD
ATOM     63  C   UNL A   1      45.469  26.567  30.239  1.00  0.00     0.074 A 
ATOM     64  C   UNL A   1      45.914  25.232  29.893  1.00  0.00     0.031 C 
ATOM     65  C   UNL A   1      46.228  27.475  30.900  1.00  0.00     0.031 A 
BRANCH  52  66
ATOM     66  C   UNL A   1      43.440  32.912  31.873  1.00  0.00    -0.014 A 
ATOM     67  C   UNL A   1      43.146  33.197  33.219  1.00  0.00     0.010 A 
ATOM     68  C   UNL A   1      43.854  33.956  31.028  1.00  0.00     0.010 A 
ATOM     69  C   UNL A   1      43.219  34.508  33.697  1.00  0.00     0.020 A 
ATOM     70  C   UNL A   1      43.954  35.265  31.508  1.00  0.00     0.020 A 
ATOM     71  C   UNL A   1      43.618  35.536  32.837  1.00  0.00     0.054 A 
BRANCH  71  72
ATOM     72  S   UNL A   1      43.721  37.225  33.487  1.00  0.00     0.124 S 
ATOM     73  O   UNL A   1      44.892  37.141  34.357  1.00  0.00    -0.237 OA
ATOM     74  O   UNL A   1      43.896  38.026  32.278  1.00  0.00    -0.237 OA
ATOM     75  O   UNL A   1      42.446  37.412  34.175  1.00  0.00    -0.744 OA
ENDBRANCH  71  72
ENDBRANCH  52  66
BRANCH  53  76
ATOM     76  C   UNL A   1      42.477  23.761  27.923  1.00  0.00    -0.014 A 
ATOM     77  C   UNL A   1      42.903  23.532  26.603  1.00  0.00     0.010 A 
ATOM     78  C   UNL A   1      41.947  22.691  28.666  1.00  0.00     0.010 A 
ATOM     79  C   UNL A   1      42.786  22.261  26.030  1.00  0.00     0.020 A 
ATOM     80  C   UNL A   1      41.851  21.414  28.107  1.00  0.00     0.020 A 
ATOM     81  C   UNL A   1      42.262  21.210  26.788  1.00  0.00     0.054 A 
BRANCH  81  82
ATOM     82  S   UNL A   1      42.172  19.555  26.047  1.00  0.00     0.124 S 
ATOM     83  O   UNL A   1      43.061  19.690  24.898  1.00  0.00    -0.237 OA
ATOM     84  O   UNL A   1      42.654  18.697  27.126  1.00  0.00    -0.237 OA
ATOM     85  O   UNL A   1      40.754  19.402  25.728  1.00  0.00    -0.744 OA
ENDBRANCH  81  82
ENDBRANCH  53  76
BRANCH  65  86
ATOM     86  C   UNL A   1      47.607  27.047  31.319  1.00  0.00    -0.014 A 
ATOM     87  C   UNL A   1      48.703  27.183  30.450  1.00  0.00     0.010 A 
ATOM     88  C   UNL A   1      47.815  26.557  32.621  1.00  0.00     0.010 A 
ATOM     89  C   UNL A   1      49.983  26.812  30.869  1.00  0.00     0.020 A 
ATOM     90  C   UNL A   1      49.097  26.209  33.051  1.00  0.00     0.020 A 
ATOM     91  C   UNL A   1      50.171  26.326  32.167  1.00  0.00     0.054 A 
BRANCH  91  92
ATOM     92  S   UNL A   1      51.850  25.898  32.705  1.00  0.00     0.124 S 
ATOM     93  O   UNL A   1      52.590  25.939  31.447  1.00  0.00    -0.237 OA
ATOM     94  O   UNL A   1      52.165  26.962  33.655  1.00  0.00    -0.237 OA
ATOM     95  O   UNL A   1      51.696  24.571  33.295  1.00  0.00    -0.744 OA
ENDBRANCH  91  92
ENDBRANCH  65  86
ENDBRANCH  39  40
ENDBRANCH  31  34
ENDBRANCH  29  30
ENDBRANCH  28  29
ENDBRANCH   1  28
TORSDOF 17
ENDMDL
