MODEL 1
REMARK VINA RESULT:     -12.5      0.000      0.000
REMARK SMILES O=C(NCCCNC(=O)[C@@H](Cc1ccc(O)cc1)Nc1c2ccccc2nc2ccccc12)c1ccc(-c2c3nc(c(-c4ccc(S(=O)(=O)[O-])cc4)c4ccc([nH]4)c(-c4ccc(S(=O)(=O)[O-])cc4)c4nc(c(-c5ccc(S(=O)(=O)[O-])cc5)c5ccc2[nH]5)C=C4)C=C3)cc1
REMARK SMILES IDX 5 1 4 2 3 3 1 4 2 5 34 7 35 8 93 9 36 10 92 11 37 12 38 13
REMARK SMILES IDX 39 14 86 15 40 16 91 17 85 18 87 19 41 20 90 21 84 22 83 23
REMARK SMILES IDX 42 25 72 26 53 27 71 28 54 29 57 30 70 31 88 32 55 33 56 34
REMARK SMILES IDX 69 36 89 37 58 38 43 39 44 40 52 41 45 42 51 43 46 44 47 45
REMARK SMILES IDX 48 46 49 47 50 48 73 49 74 50 82 51 75 52 81 53 76 54 77 55
REMARK SMILES IDX 78 56 79 57 80 58 59 59 60 60 68 61 61 62 67 63 62 64 63 65
REMARK SMILES IDX 64 66 65 67 66 68 6 69 7 70 8 71 9 73 10 74 11 75 12 76
REMARK SMILES IDX 13 77 18 78 14 79 17 80 15 81 16 82 19 84 20 86 21 87 33 88
REMARK SMILES IDX 22 89 26 90 28 91 32 92 23 93 25 94 27 95 29 96 31 97 24 98
REMARK SMILES IDX 30 99
REMARK H PARENT 3 6 87 24 57 35 7 72 16 83 19 85
REMARK Flexibility Score: inf
ROOT
ATOM      1  C   UNL A   1      32.838  27.781  25.913  1.00  0.00     0.042 C 
ENDROOT
BRANCH   1   2
ATOM      2  C   UNL A   1      32.815  28.234  27.367  1.00  0.00     0.118 C 
BRANCH   2   3
ATOM      3  N   UNL A   1      33.047  29.663  27.503  1.00  0.00    -0.352 N 
ATOM      4  O   UNL A   1      33.850  31.660  28.005  1.00  0.00    -0.269 OA
ATOM      5  C   UNL A   1      34.109  30.461  27.854  1.00  0.00     0.251 C 
ATOM      6  H   UNL A   1      32.243  30.191  27.292  1.00  0.00     0.163 HD
BRANCH   5   7
ATOM      7  C   UNL A   1      35.516  30.008  28.082  1.00  0.00     0.039 A 
ATOM      8  C   UNL A   1      36.536  30.071  27.139  1.00  0.00     0.014 A 
ATOM      9  C   UNL A   1      35.856  29.569  29.379  1.00  0.00     0.014 A 
ATOM     10  C   UNL A   1      37.830  29.635  27.448  1.00  0.00     0.010 A 
ATOM     11  C   UNL A   1      37.176  29.226  29.719  1.00  0.00     0.010 A 
ATOM     12  C   UNL A   1      38.182  29.252  28.750  1.00  0.00    -0.014 A 
BRANCH  12  13
ATOM     13  C   UNL A   1      39.618  28.997  29.070  1.00  0.00     0.031 A 
ATOM     14  C   UNL A   1      40.289  27.695  28.717  1.00  0.00     0.074 A 
ATOM     15  C   UNL A   1      40.336  29.983  29.651  1.00  0.00     0.049 A 
ATOM     16  N   UNL A   1      41.542  27.349  28.875  1.00  0.00    -0.248 NA
ATOM     17  C   UNL A   1      39.451  26.645  28.118  1.00  0.00     0.031 C 
ATOM     18  C   UNL A   1      39.799  31.285  30.062  1.00  0.00     0.029 A 
ATOM     19  N   UNL A   1      41.669  30.068  29.968  1.00  0.00    -0.354 N 
ATOM     20  C   UNL A   1      41.642  26.041  28.413  1.00  0.00     0.074 A 
ATOM     21  C   UNL A   1      40.314  25.646  27.996  1.00  0.00     0.031 C 
ATOM     22  C   UNL A   1      40.799  32.060  30.499  1.00  0.00     0.029 A 
ATOM     23  C   UNL A   1      42.036  31.290  30.487  1.00  0.00     0.049 A 
ATOM     24  H   UNL A   1      42.303  29.325  29.839  1.00  0.00     0.167 HD
ATOM     25  C   UNL A   1      42.738  25.246  28.341  1.00  0.00     0.031 A 
ATOM     26  C   UNL A   1      43.228  31.745  30.923  1.00  0.00     0.031 A 
ATOM     27  C   UNL A   1      44.057  25.646  28.766  1.00  0.00     0.049 A 
ATOM     28  C   UNL A   1      44.417  30.831  30.864  1.00  0.00     0.074 A 
ATOM     29  C   UNL A   1      45.235  24.919  28.710  1.00  0.00     0.029 A 
ATOM     30  N   UNL A   1      44.374  26.872  29.331  1.00  0.00    -0.354 N 
ATOM     31  N   UNL A   1      44.491  29.609  30.392  1.00  0.00    -0.248 NA
ATOM     32  C   UNL A   1      45.681  31.352  31.398  1.00  0.00     0.031 C 
ATOM     33  C   UNL A   1      46.250  25.682  29.298  1.00  0.00     0.029 A 
ATOM     34  C   UNL A   1      45.721  26.913  29.655  1.00  0.00     0.049 A 
ATOM     35  H   UNL A   1      43.736  27.607  29.480  1.00  0.00     0.167 HD
ATOM     36  C   UNL A   1      45.814  29.221  30.558  1.00  0.00     0.074 A 
ATOM     37  C   UNL A   1      46.508  30.347  31.150  1.00  0.00     0.031 C 
ATOM     38  C   UNL A   1      46.400  28.037  30.250  1.00  0.00     0.031 A 
BRANCH  25  39
ATOM     39  C   UNL A   1      42.557  23.845  27.811  1.00  0.00    -0.014 A 
ATOM     40  C   UNL A   1      42.161  22.788  28.650  1.00  0.00     0.010 A 
ATOM     41  C   UNL A   1      42.736  23.592  26.438  1.00  0.00     0.010 A 
ATOM     42  C   UNL A   1      41.988  21.499  28.135  1.00  0.00     0.020 A 
ATOM     43  C   UNL A   1      42.536  22.310  25.913  1.00  0.00     0.020 A 
ATOM     44  C   UNL A   1      42.179  21.268  26.770  1.00  0.00     0.054 A 
BRANCH  44  45
ATOM     45  S   UNL A   1      41.927  19.589  26.127  1.00  0.00     0.124 S 
ATOM     46  O   UNL A   1      42.408  18.769  27.236  1.00  0.00    -0.237 OA
ATOM     47  O   UNL A   1      40.487  19.549  25.893  1.00  0.00    -0.237 OA
ATOM     48  O   UNL A   1      42.754  19.551  24.922  1.00  0.00    -0.744 OA
ENDBRANCH  44  45
ENDBRANCH  25  39
BRANCH  26  49
ATOM     49  C   UNL A   1      43.339  33.122  31.480  1.00  0.00    -0.014 A 
ATOM     50  C   UNL A   1      43.228  33.356  32.861  1.00  0.00     0.010 A 
ATOM     51  C   UNL A   1      43.579  34.212  30.621  1.00  0.00     0.010 A 
ATOM     52  C   UNL A   1      43.343  34.654  33.371  1.00  0.00     0.020 A 
ATOM     53  C   UNL A   1      43.729  35.504  31.130  1.00  0.00     0.020 A 
ATOM     54  C   UNL A   1      43.599  35.719  32.502  1.00  0.00     0.054 A 
BRANCH  54  55
ATOM     55  S   UNL A   1      43.798  37.385  33.191  1.00  0.00     0.124 S 
ATOM     56  O   UNL A   1      42.591  37.526  33.999  1.00  0.00    -0.237 OA
ATOM     57  O   UNL A   1      45.049  37.270  33.935  1.00  0.00    -0.237 OA
ATOM     58  O   UNL A   1      43.863  38.239  32.006  1.00  0.00    -0.744 OA
ENDBRANCH  54  55
ENDBRANCH  26  49
BRANCH  38  59
ATOM     59  C   UNL A   1      47.876  27.909  30.518  1.00  0.00    -0.014 A 
ATOM     60  C   UNL A   1      48.830  28.308  29.565  1.00  0.00     0.010 A 
ATOM     61  C   UNL A   1      48.313  27.419  31.762  1.00  0.00     0.010 A 
ATOM     62  C   UNL A   1      50.194  28.188  29.839  1.00  0.00     0.020 A 
ATOM     63  C   UNL A   1      49.676  27.327  32.051  1.00  0.00     0.020 A 
ATOM     64  C   UNL A   1      50.608  27.698  31.081  1.00  0.00     0.054 A 
BRANCH  64  65
ATOM     65  S   UNL A   1      52.386  27.589  31.428  1.00  0.00     0.124 S 
ATOM     66  O   UNL A   1      52.964  27.741  30.095  1.00  0.00    -0.237 OA
ATOM     67  O   UNL A   1      52.603  28.709  32.339  1.00  0.00    -0.237 OA
ATOM     68  O   UNL A   1      52.542  26.266  32.027  1.00  0.00    -0.744 OA
ENDBRANCH  64  65
ENDBRANCH  38  59
ENDBRANCH  12  13
ENDBRANCH   5   7
ENDBRANCH   2   3
ENDBRANCH   1   2
BRANCH   1  69
ATOM     69  C   UNL A   1      33.546  26.433  25.654  1.00  0.00     0.117 C 
BRANCH  69  70
ATOM     70  N   UNL A   1      32.984  25.416  26.529  1.00  0.00    -0.354 N 
ATOM     71  C   UNL A   1      32.196  24.329  26.339  1.00  0.00     0.242 C 
ATOM     72  H   UNL A   1      33.233  25.546  27.473  1.00  0.00     0.163 HD
ATOM     73  O   UNL A   1      31.542  24.005  27.345  1.00  0.00    -0.273 OA
BRANCH  71  74
ATOM     74  C   UNL A   1      32.069  23.458  25.057  1.00  0.00     0.173 C 
BRANCH  74  75
ATOM     75  C   UNL A   1      30.916  23.781  24.073  1.00  0.00     0.070 C 
BRANCH  75  76
ATOM     76  C   UNL A   1      30.760  25.178  23.528  1.00  0.00    -0.045 A 
ATOM     77  C   UNL A   1      31.633  25.636  22.544  1.00  0.00     0.007 A 
ATOM     78  C   UNL A   1      29.801  26.072  24.029  1.00  0.00     0.007 A 
ATOM     79  C   UNL A   1      31.447  26.877  21.931  1.00  0.00     0.046 A 
ATOM     80  C   UNL A   1      29.657  27.346  23.469  1.00  0.00     0.046 A 
ATOM     81  C   UNL A   1      30.441  27.715  22.386  1.00  0.00     0.115 A 
BRANCH  81  82
ATOM     82  O   UNL A   1      30.195  28.914  21.789  1.00  0.00    -0.508 OA
ATOM     83  H   UNL A   1      30.152  29.694  22.305  1.00  0.00     0.293 HD
ENDBRANCH  81  82
ENDBRANCH  75  76
ENDBRANCH  74  75
BRANCH  74  84
ATOM     84  N   UNL A   1      33.353  23.179  24.403  1.00  0.00    -0.372 N 
ATOM     85  H   UNL A   1      33.635  23.823  23.714  1.00  0.00     0.161 HD
BRANCH  84  86
ATOM     86  C   UNL A   1      34.230  22.105  24.641  1.00  0.00     0.054 A 
ATOM     87  C   UNL A   1      33.891  20.707  24.487  1.00  0.00     0.024 A 
ATOM     88  C   UNL A   1      35.556  22.427  25.096  1.00  0.00     0.024 A 
ATOM     89  C   UNL A   1      32.638  20.143  24.101  1.00  0.00     0.012 A 
ATOM     90  C   UNL A   1      34.923  19.766  24.710  1.00  0.00     0.073 A 
ATOM     91  C   UNL A   1      36.474  21.370  25.263  1.00  0.00     0.073 A 
ATOM     92  C   UNL A   1      36.012  23.733  25.423  1.00  0.00     0.012 A 
ATOM     93  C   UNL A   1      32.409  18.769  23.992  1.00  0.00     0.001 A 
ATOM     94  C   UNL A   1      34.691  18.403  24.567  1.00  0.00     0.029 A 
ATOM     95  N   UNL A   1      36.167  20.092  25.059  1.00  0.00    -0.248 NA
ATOM     96  C   UNL A   1      37.773  21.630  25.675  1.00  0.00     0.029 A 
ATOM     97  C   UNL A   1      37.319  23.975  25.858  1.00  0.00     0.001 A 
ATOM     98  C   UNL A   1      33.447  17.890  24.221  1.00  0.00     0.002 A 
ATOM     99  C   UNL A   1      38.208  22.919  25.973  1.00  0.00     0.002 A 
ENDBRANCH  84  86
ENDBRANCH  74  84
ENDBRANCH  71  74
ENDBRANCH  69  70
ENDBRANCH   1  69
TORSDOF 18
ENDMDL
MODEL 2
REMARK VINA RESULT:     -12.2      0.926      8.176
REMARK SMILES O=C(NCCCNC(=O)[C@@H](Cc1ccc(O)cc1)Nc1c2ccccc2nc2ccccc12)c1ccc(-c2c3nc(c(-c4ccc(S(=O)(=O)[O-])cc4)c4ccc([nH]4)c(-c4ccc(S(=O)(=O)[O-])cc4)c4nc(c(-c5ccc(S(=O)(=O)[O-])cc5)c5ccc2[nH]5)C=C4)C=C3)cc1
REMARK SMILES IDX 5 1 4 2 3 3 1 4 2 5 34 7 35 8 93 9 36 10 92 11 37 12 38 13
REMARK SMILES IDX 39 14 86 15 40 16 91 17 85 18 87 19 41 20 90 21 84 22 83 23
REMARK SMILES IDX 42 25 72 26 53 27 71 28 54 29 57 30 70 31 88 32 55 33 56 34
REMARK SMILES IDX 69 36 89 37 58 38 43 39 44 40 52 41 45 42 51 43 46 44 47 45
REMARK SMILES IDX 48 46 49 47 50 48 73 49 74 50 82 51 75 52 81 53 76 54 77 55
REMARK SMILES IDX 78 56 79 57 80 58 59 59 60 60 68 61 61 62 67 63 62 64 63 65
REMARK SMILES IDX 64 66 65 67 66 68 6 69 7 70 8 71 9 73 10 74 11 75 12 76
REMARK SMILES IDX 13 77 18 78 14 79 17 80 15 81 16 82 19 84 20 86 21 87 33 88
REMARK SMILES IDX 22 89 26 90 28 91 32 92 23 93 25 94 27 95 29 96 31 97 24 98
REMARK SMILES IDX 30 99
REMARK H PARENT 3 6 87 24 57 35 7 72 16 83 19 85
REMARK Flexibility Score: inf
ROOT
ATOM      1  C   UNL A   1      33.229  27.605  26.518  1.00  0.00     0.042 C 
ENDROOT
BRANCH   1   2
ATOM      2  C   UNL A   1      33.460  28.871  25.702  1.00  0.00     0.118 C 
BRANCH   2   3
ATOM      3  N   UNL A   1      33.511  30.062  26.534  1.00  0.00    -0.352 N 
ATOM      4  O   UNL A   1      33.982  31.575  28.074  1.00  0.00    -0.269 OA
ATOM      5  C   UNL A   1      34.389  30.589  27.449  1.00  0.00     0.251 C 
ATOM      6  H   UNL A   1      32.718  30.634  26.411  1.00  0.00     0.163 HD
BRANCH   5   7
ATOM      7  C   UNL A   1      35.756  30.071  27.761  1.00  0.00     0.039 A 
ATOM      8  C   UNL A   1      36.845  30.125  26.898  1.00  0.00     0.014 A 
ATOM      9  C   UNL A   1      35.982  29.571  29.062  1.00  0.00     0.014 A 
ATOM     10  C   UNL A   1      38.094  29.625  27.282  1.00  0.00     0.010 A 
ATOM     11  C   UNL A   1      37.259  29.162  29.483  1.00  0.00     0.010 A 
ATOM     12  C   UNL A   1      38.335  29.181  28.591  1.00  0.00    -0.014 A 
BRANCH  12  13
ATOM     13  C   UNL A   1      39.732  28.855  29.004  1.00  0.00     0.031 A 
ATOM     14  C   UNL A   1      40.558  29.812  29.823  1.00  0.00     0.074 A 
ATOM     15  C   UNL A   1      40.242  27.651  28.665  1.00  0.00     0.049 A 
ATOM     16  N   UNL A   1      41.763  29.646  30.310  1.00  0.00    -0.248 NA
ATOM     17  C   UNL A   1      39.965  31.122  30.132  1.00  0.00     0.031 C 
ATOM     18  C   UNL A   1      39.551  26.642  27.856  1.00  0.00     0.029 A 
ATOM     19  N   UNL A   1      41.437  27.051  28.981  1.00  0.00    -0.354 N 
ATOM     20  C   UNL A   1      42.080  30.830  30.966  1.00  0.00     0.074 A 
ATOM     21  C   UNL A   1      40.951  31.718  30.790  1.00  0.00     0.031 C 
ATOM     22  C   UNL A   1      40.293  25.528  27.806  1.00  0.00     0.029 A 
ATOM     23  C   UNL A   1      41.552  25.766  28.501  1.00  0.00     0.049 A 
ATOM     24  H   UNL A   1      42.144  27.498  29.499  1.00  0.00     0.167 HD
ATOM     25  C   UNL A   1      43.206  31.146  31.653  1.00  0.00     0.031 A 
ATOM     26  C   UNL A   1      42.560  24.875  28.589  1.00  0.00     0.031 A 
ATOM     27  C   UNL A   1      44.329  30.258  31.818  1.00  0.00     0.049 A 
ATOM     28  C   UNL A   1      43.807  25.265  29.326  1.00  0.00     0.074 A 
ATOM     29  C   UNL A   1      45.505  30.479  32.517  1.00  0.00     0.029 A 
ATOM     30  N   UNL A   1      44.426  28.985  31.274  1.00  0.00    -0.354 N 
ATOM     31  N   UNL A   1      44.069  26.380  29.965  1.00  0.00    -0.248 NA
ATOM     32  C   UNL A   1      44.897  24.281  29.350  1.00  0.00     0.031 C 
ATOM     33  C   UNL A   1      46.335  29.367  32.343  1.00  0.00     0.029 A 
ATOM     34  C   UNL A   1      45.649  28.422  31.596  1.00  0.00     0.049 A 
ATOM     35  H   UNL A   1      43.727  28.547  30.737  1.00  0.00     0.167 HD
ATOM     36  C   UNL A   1      45.348  26.225  30.484  1.00  0.00     0.074 A 
ATOM     37  C   UNL A   1      45.796  24.901  30.103  1.00  0.00     0.031 C 
ATOM     38  C   UNL A   1      46.087  27.104  31.206  1.00  0.00     0.031 A 
BRANCH  25  39
ATOM     39  C   UNL A   1      43.297  32.526  32.256  1.00  0.00    -0.014 A 
ATOM     40  C   UNL A   1      42.895  32.777  33.581  1.00  0.00     0.010 A 
ATOM     41  C   UNL A   1      43.840  33.582  31.500  1.00  0.00     0.010 A 
ATOM     42  C   UNL A   1      42.998  34.062  34.124  1.00  0.00     0.020 A 
ATOM     43  C   UNL A   1      43.972  34.863  32.048  1.00  0.00     0.020 A 
ATOM     44  C   UNL A   1      43.533  35.097  33.353  1.00  0.00     0.054 A 
BRANCH  44  45
ATOM     45  S   UNL A   1      43.674  36.749  34.091  1.00  0.00     0.124 S 
ATOM     46  O   UNL A   1      44.710  36.541  35.099  1.00  0.00    -0.237 OA
ATOM     47  O   UNL A   1      44.060  37.576  32.953  1.00  0.00    -0.237 OA
ATOM     48  O   UNL A   1      42.335  37.008  34.621  1.00  0.00    -0.744 OA
ENDBRANCH  44  45
ENDBRANCH  25  39
BRANCH  26  49
ATOM     49  C   UNL A   1      42.433  23.543  27.934  1.00  0.00    -0.014 A 
ATOM     50  C   UNL A   1      43.003  23.298  26.673  1.00  0.00     0.010 A 
ATOM     51  C   UNL A   1      41.752  22.497  28.589  1.00  0.00     0.010 A 
ATOM     52  C   UNL A   1      42.883  22.039  26.074  1.00  0.00     0.020 A 
ATOM     53  C   UNL A   1      41.661  21.230  28.010  1.00  0.00     0.020 A 
ATOM     54  C   UNL A   1      42.218  21.011  26.749  1.00  0.00     0.054 A 
BRANCH  54  55
ATOM     55  S   UNL A   1      42.122  19.373  25.978  1.00  0.00     0.124 S 
ATOM     56  O   UNL A   1      42.659  18.511  27.025  1.00  0.00    -0.237 OA
ATOM     57  O   UNL A   1      40.694  19.233  25.711  1.00  0.00    -0.237 OA
ATOM     58  O   UNL A   1      42.959  19.507  24.786  1.00  0.00    -0.744 OA
ENDBRANCH  54  55
ENDBRANCH  26  49
BRANCH  38  59
ATOM     59  C   UNL A   1      47.447  26.647  31.663  1.00  0.00    -0.014 A 
ATOM     60  C   UNL A   1      47.612  25.922  32.857  1.00  0.00     0.010 A 
ATOM     61  C   UNL A   1      48.572  26.914  30.862  1.00  0.00     0.010 A 
ATOM     62  C   UNL A   1      48.883  25.502  33.257  1.00  0.00     0.020 A 
ATOM     63  C   UNL A   1      49.839  26.469  31.243  1.00  0.00     0.020 A 
ATOM     64  C   UNL A   1      49.988  25.778  32.446  1.00  0.00     0.054 A 
BRANCH  64  65
ATOM     65  S   UNL A   1      51.622  25.187  32.967  1.00  0.00     0.124 S 
ATOM     66  O   UNL A   1      52.047  26.240  33.887  1.00  0.00    -0.237 OA
ATOM     67  O   UNL A   1      51.314  23.900  33.585  1.00  0.00    -0.237 OA
ATOM     68  O   UNL A   1      52.377  25.108  31.720  1.00  0.00    -0.744 OA
ENDBRANCH  64  65
ENDBRANCH  38  59
ENDBRANCH  12  13
ENDBRANCH   5   7
ENDBRANCH   2   3
ENDBRANCH   1   2
BRANCH   1  69
ATOM     69  C   UNL A   1      33.417  26.280  25.748  1.00  0.00     0.117 C 
BRANCH  69  70
ATOM     70  N   UNL A   1      32.957  25.173  26.572  1.00  0.00    -0.354 N 
ATOM     71  C   UNL A   1      32.176  24.087  26.353  1.00  0.00     0.242 C 
ATOM     72  H   UNL A   1      33.288  25.224  27.498  1.00  0.00     0.163 HD
ATOM     73  O   UNL A   1      31.623  23.655  27.379  1.00  0.00    -0.273 OA
BRANCH  71  74
ATOM     74  C   UNL A   1      31.949  23.332  25.013  1.00  0.00     0.173 C 
BRANCH  74  75
ATOM     75  C   UNL A   1      30.754  23.770  24.127  1.00  0.00     0.070 C 
BRANCH  75  76
ATOM     76  C   UNL A   1      30.695  25.176  23.584  1.00  0.00    -0.045 A 
ATOM     77  C   UNL A   1      31.512  25.537  22.516  1.00  0.00     0.007 A 
ATOM     78  C   UNL A   1      29.889  26.167  24.164  1.00  0.00     0.007 A 
ATOM     79  C   UNL A   1      31.401  26.790  21.909  1.00  0.00     0.046 A 
ATOM     80  C   UNL A   1      29.827  27.449  23.607  1.00  0.00     0.046 A 
ATOM     81  C   UNL A   1      30.538  27.731  22.450  1.00  0.00     0.115 A 
BRANCH  81  82
ATOM     82  O   UNL A   1      30.363  28.949  21.865  1.00  0.00    -0.508 OA
ATOM     83  H   UNL A   1      29.956  29.643  22.343  1.00  0.00     0.293 HD
ENDBRANCH  81  82
ENDBRANCH  75  76
ENDBRANCH  74  75
BRANCH  74  84
ATOM     84  N   UNL A   1      33.185  23.074  24.264  1.00  0.00    -0.372 N 
ATOM     85  H   UNL A   1      33.337  23.641  23.474  1.00  0.00     0.161 HD
BRANCH  84  86
ATOM     86  C   UNL A   1      34.179  22.116  24.537  1.00  0.00     0.054 A 
ATOM     87  C   UNL A   1      35.518  22.416  24.994  1.00  0.00     0.024 A 
ATOM     88  C   UNL A   1      33.839  20.736  24.317  1.00  0.00     0.024 A 
ATOM     89  C   UNL A   1      36.099  23.696  25.233  1.00  0.00     0.012 A 
ATOM     90  C   UNL A   1      36.361  21.317  25.279  1.00  0.00     0.073 A 
ATOM     91  C   UNL A   1      34.791  19.756  24.661  1.00  0.00     0.073 A 
ATOM     92  C   UNL A   1      32.619  20.275  23.749  1.00  0.00     0.012 A 
ATOM     93  C   UNL A   1      37.415  23.880  25.667  1.00  0.00     0.001 A 
ATOM     94  C   UNL A   1      37.658  21.512  25.741  1.00  0.00     0.029 A 
ATOM     95  N   UNL A   1      35.999  20.042  25.139  1.00  0.00    -0.248 NA
ATOM     96  C   UNL A   1      34.503  18.409  24.493  1.00  0.00     0.029 A 
ATOM     97  C   UNL A   1      32.353  18.915  23.567  1.00  0.00     0.001 A 
ATOM     98  C   UNL A   1      38.200  22.778  25.929  1.00  0.00     0.002 A 
ATOM     99  C   UNL A   1      33.295  17.975  23.952  1.00  0.00     0.002 A 
ENDBRANCH  84  86
ENDBRANCH  74  84
ENDBRANCH  71  74
ENDBRANCH  69  70
ENDBRANCH   1  69
TORSDOF 18
ENDMDL
MODEL 3
REMARK VINA RESULT:     -12.2      2.474      8.214
REMARK SMILES O=C(NCCCNC(=O)[C@@H](Cc1ccc(O)cc1)Nc1c2ccccc2nc2ccccc12)c1ccc(-c2c3nc(c(-c4ccc(S(=O)(=O)[O-])cc4)c4ccc([nH]4)c(-c4ccc(S(=O)(=O)[O-])cc4)c4nc(c(-c5ccc(S(=O)(=O)[O-])cc5)c5ccc2[nH]5)C=C4)C=C3)cc1
REMARK SMILES IDX 5 1 4 2 3 3 1 4 2 5 34 7 35 8 93 9 36 10 92 11 37 12 38 13
REMARK SMILES IDX 39 14 86 15 40 16 91 17 85 18 87 19 41 20 90 21 84 22 83 23
REMARK SMILES IDX 42 25 72 26 53 27 71 28 54 29 57 30 70 31 88 32 55 33 56 34
REMARK SMILES IDX 69 36 89 37 58 38 43 39 44 40 52 41 45 42 51 43 46 44 47 45
REMARK SMILES IDX 48 46 49 47 50 48 73 49 74 50 82 51 75 52 81 53 76 54 77 55
REMARK SMILES IDX 78 56 79 57 80 58 59 59 60 60 68 61 61 62 67 63 62 64 63 65
REMARK SMILES IDX 64 66 65 67 66 68 6 69 7 70 8 71 9 73 10 74 11 75 12 76
REMARK SMILES IDX 13 77 18 78 14 79 17 80 15 81 16 82 19 84 20 86 21 87 33 88
REMARK SMILES IDX 22 89 26 90 28 91 32 92 23 93 25 94 27 95 29 96 31 97 24 98
REMARK SMILES IDX 30 99
REMARK H PARENT 3 6 87 24 57 35 7 72 16 83 19 85
REMARK Flexibility Score: inf
ROOT
ATOM      1  C   UNL A   1      35.839  23.688  24.753  1.00  0.00     0.042 C 
ENDROOT
BRANCH   1   2
ATOM      2  C   UNL A   1      36.164  22.839  25.975  1.00  0.00     0.118 C 
BRANCH   2   3
ATOM      3  N   UNL A   1      37.518  22.311  25.936  1.00  0.00    -0.352 N 
ATOM      4  O   UNL A   1      39.712  22.055  25.909  1.00  0.00    -0.269 OA
ATOM      5  C   UNL A   1      38.771  22.785  26.239  1.00  0.00     0.251 C 
ATOM      6  H   UNL A   1      37.544  21.382  25.610  1.00  0.00     0.163 HD
BRANCH   5   7
ATOM      7  C   UNL A   1      39.085  24.088  26.901  1.00  0.00     0.039 A 
ATOM      8  C   UNL A   1      38.763  24.412  28.214  1.00  0.00     0.014 A 
ATOM      9  C   UNL A   1      39.846  25.024  26.169  1.00  0.00     0.014 A 
ATOM     10  C   UNL A   1      39.110  25.655  28.756  1.00  0.00     0.010 A 
ATOM     11  C   UNL A   1      40.282  26.230  26.743  1.00  0.00     0.010 A 
ATOM     12  C   UNL A   1      39.913  26.562  28.049  1.00  0.00    -0.014 A 
BRANCH  12  13
ATOM     13  C   UNL A   1      40.426  27.778  28.749  1.00  0.00     0.031 A 
ATOM     14  C   UNL A   1      41.852  27.875  29.224  1.00  0.00     0.074 A 
ATOM     15  C   UNL A   1      39.593  28.828  28.915  1.00  0.00     0.049 A 
ATOM     16  N   UNL A   1      42.460  28.887  29.792  1.00  0.00    -0.248 NA
ATOM     17  C   UNL A   1      42.704  26.689  29.050  1.00  0.00     0.031 C 
ATOM     18  C   UNL A   1      38.181  28.854  28.516  1.00  0.00     0.029 A 
ATOM     19  N   UNL A   1      39.808  30.085  29.425  1.00  0.00    -0.354 N 
ATOM     20  C   UNL A   1      43.756  28.458  30.057  1.00  0.00     0.074 A 
ATOM     21  C   UNL A   1      43.838  27.083  29.614  1.00  0.00     0.031 C 
ATOM     22  C   UNL A   1      37.684  30.080  28.722  1.00  0.00     0.029 A 
ATOM     23  C   UNL A   1      38.707  30.908  29.348  1.00  0.00     0.049 A 
ATOM     24  H   UNL A   1      40.668  30.371  29.810  1.00  0.00     0.167 HD
ATOM     25  C   UNL A   1      44.783  29.147  30.615  1.00  0.00     0.031 A 
ATOM     26  C   UNL A   1      38.523  32.182  29.749  1.00  0.00     0.031 A 
ATOM     27  C   UNL A   1      44.691  30.515  31.060  1.00  0.00     0.049 A 
ATOM     28  C   UNL A   1      39.666  32.908  30.395  1.00  0.00     0.074 A 
ATOM     29  C   UNL A   1      45.683  31.307  31.615  1.00  0.00     0.029 A 
ATOM     30  N   UNL A   1      43.544  31.295  31.010  1.00  0.00    -0.354 N 
ATOM     31  N   UNL A   1      40.892  32.490  30.604  1.00  0.00    -0.248 NA
ATOM     32  C   UNL A   1      39.404  34.275  30.862  1.00  0.00     0.031 C 
ATOM     33  C   UNL A   1      45.120  32.541  31.958  1.00  0.00     0.029 A 
ATOM     34  C   UNL A   1      43.795  32.545  31.550  1.00  0.00     0.049 A 
ATOM     35  H   UNL A   1      42.679  31.001  30.644  1.00  0.00     0.167 HD
ATOM     36  C   UNL A   1      41.552  33.549  31.213  1.00  0.00     0.074 A 
ATOM     37  C   UNL A   1      40.597  34.634  31.315  1.00  0.00     0.031 C 
ATOM     38  C   UNL A   1      42.834  33.616  31.652  1.00  0.00     0.031 A 
BRANCH  25  39
ATOM     39  C   UNL A   1      46.093  28.423  30.807  1.00  0.00    -0.014 A 
ATOM     40  C   UNL A   1      46.374  27.717  31.992  1.00  0.00     0.010 A 
ATOM     41  C   UNL A   1      47.039  28.407  29.766  1.00  0.00     0.010 A 
ATOM     42  C   UNL A   1      47.591  27.044  32.145  1.00  0.00     0.020 A 
ATOM     43  C   UNL A   1      48.244  27.710  29.903  1.00  0.00     0.020 A 
ATOM     44  C   UNL A   1      48.519  27.047  31.100  1.00  0.00     0.054 A 
BRANCH  44  45
ATOM     45  S   UNL A   1      50.080  26.147  31.320  1.00  0.00     0.124 S 
ATOM     46  O   UNL A   1      50.472  25.884  29.938  1.00  0.00    -0.237 OA
ATOM     47  O   UNL A   1      50.907  27.113  32.036  1.00  0.00    -0.237 OA
ATOM     48  O   UNL A   1      49.694  24.967  32.093  1.00  0.00    -0.744 OA
ENDBRANCH  44  45
ENDBRANCH  25  39
BRANCH  26  49
ATOM     49  C   UNL A   1      37.194  32.831  29.575  1.00  0.00    -0.014 A 
ATOM     50  C   UNL A   1      36.389  33.141  30.685  1.00  0.00     0.010 A 
ATOM     51  C   UNL A   1      36.735  33.164  28.286  1.00  0.00     0.010 A 
ATOM     52  C   UNL A   1      35.146  33.760  30.507  1.00  0.00     0.020 A 
ATOM     53  C   UNL A   1      35.511  33.813  28.107  1.00  0.00     0.020 A 
ATOM     54  C   UNL A   1      34.718  34.096  29.219  1.00  0.00     0.054 A 
BRANCH  54  55
ATOM     55  S   UNL A   1      33.128  34.946  29.017  1.00  0.00     0.124 S 
ATOM     56  O   UNL A   1      33.547  36.274  28.581  1.00  0.00    -0.237 OA
ATOM     57  O   UNL A   1      32.461  34.129  28.008  1.00  0.00    -0.237 OA
ATOM     58  O   UNL A   1      32.535  34.881  30.351  1.00  0.00    -0.744 OA
ENDBRANCH  54  55
ENDBRANCH  26  49
BRANCH  38  59
ATOM     59  C   UNL A   1      43.289  34.918  32.254  1.00  0.00    -0.014 A 
ATOM     60  C   UNL A   1      43.858  35.931  31.461  1.00  0.00     0.010 A 
ATOM     61  C   UNL A   1      43.105  35.146  33.630  1.00  0.00     0.010 A 
ATOM     62  C   UNL A   1      44.266  37.135  32.041  1.00  0.00     0.020 A 
ATOM     63  C   UNL A   1      43.483  36.361  34.207  1.00  0.00     0.020 A 
ATOM     64  C   UNL A   1      44.075  37.342  33.410  1.00  0.00     0.054 A 
BRANCH  64  65
ATOM     65  S   UNL A   1      44.576  38.929  34.131  1.00  0.00     0.124 S 
ATOM     66  O   UNL A   1      43.835  39.883  33.309  1.00  0.00    -0.237 OA
ATOM     67  O   UNL A   1      44.124  38.809  35.514  1.00  0.00    -0.237 OA
ATOM     68  O   UNL A   1      46.025  38.949  33.954  1.00  0.00    -0.744 OA
ENDBRANCH  64  65
ENDBRANCH  38  59
ENDBRANCH  12  13
ENDBRANCH   5   7
ENDBRANCH   2   3
ENDBRANCH   1   2
BRANCH   1  69
ATOM     69  C   UNL A   1      34.586  24.582  24.885  1.00  0.00     0.117 C 
BRANCH  69  70
ATOM     70  N   UNL A   1      34.463  25.417  23.701  1.00  0.00    -0.354 N 
ATOM     71  C   UNL A   1      33.437  25.755  22.880  1.00  0.00     0.242 C 
ATOM     72  H   UNL A   1      35.315  25.833  23.437  1.00  0.00     0.163 HD
ATOM     73  O   UNL A   1      33.801  26.074  21.735  1.00  0.00    -0.273 OA
BRANCH  71  74
ATOM     74  C   UNL A   1      31.923  25.824  23.225  1.00  0.00     0.173 C 
BRANCH  74  75
ATOM     75  C   UNL A   1      31.072  24.546  23.010  1.00  0.00     0.070 C 
BRANCH  75  76
ATOM     76  C   UNL A   1      31.459  23.259  23.694  1.00  0.00    -0.045 A 
ATOM     77  C   UNL A   1      31.156  23.076  25.041  1.00  0.00     0.007 A 
ATOM     78  C   UNL A   1      32.184  22.253  23.036  1.00  0.00     0.007 A 
ATOM     79  C   UNL A   1      31.390  21.855  25.677  1.00  0.00     0.046 A 
ATOM     80  C   UNL A   1      32.489  21.054  23.690  1.00  0.00     0.046 A 
ATOM     81  C   UNL A   1      32.037  20.842  24.985  1.00  0.00     0.115 A 
BRANCH  81  82
ATOM     82  O   UNL A   1      32.246  19.621  25.550  1.00  0.00    -0.508 OA
ATOM     83  H   UNL A   1      33.083  19.410  25.913  1.00  0.00     0.293 HD
ENDBRANCH  81  82
ENDBRANCH  75  76
ENDBRANCH  74  75
BRANCH  74  84
ATOM     84  N   UNL A   1      31.636  26.529  24.480  1.00  0.00    -0.372 N 
ATOM     85  H   UNL A   1      31.544  25.965  25.281  1.00  0.00     0.161 HD
BRANCH  84  86
ATOM     86  C   UNL A   1      31.475  27.914  24.677  1.00  0.00     0.054 A 
ATOM     87  C   UNL A   1      30.457  28.729  24.052  1.00  0.00     0.024 A 
ATOM     88  C   UNL A   1      32.416  28.567  25.548  1.00  0.00     0.024 A 
ATOM     89  C   UNL A   1      29.454  28.323  23.123  1.00  0.00     0.012 A 
ATOM     90  C   UNL A   1      30.410  30.093  24.420  1.00  0.00     0.073 A 
ATOM     91  C   UNL A   1      32.225  29.936  25.822  1.00  0.00     0.073 A 
ATOM     92  C   UNL A   1      33.551  27.945  26.137  1.00  0.00     0.012 A 
ATOM     93  C   UNL A   1      28.516  29.197  22.565  1.00  0.00     0.001 A 
ATOM     94  C   UNL A   1      29.452  30.946  23.884  1.00  0.00     0.029 A 
ATOM     95  N   UNL A   1      31.247  30.662  25.288  1.00  0.00    -0.248 NA
ATOM     96  C   UNL A   1      33.089  30.606  26.676  1.00  0.00     0.029 A 
ATOM     97  C   UNL A   1      34.425  28.641  26.978  1.00  0.00     0.001 A 
ATOM     98  C   UNL A   1      28.511  30.520  22.954  1.00  0.00     0.002 A 
ATOM     99  C   UNL A   1      34.186  29.976  27.259  1.00  0.00     0.002 A 
ENDBRANCH  84  86
ENDBRANCH  74  84
ENDBRANCH  71  74
ENDBRANCH  69  70
ENDBRANCH   1  69
TORSDOF 18
ENDMDL
